MODEL 1
REMARK VINA RESULT:     -10.5      0.000      0.000
REMARK SMILES N#Cc1cccnc1N1CC[NH+]([C@@H](C(=O)OCCOCCOCCOC(=O)c2ccc(-c3c4nc(c(-c5c(F)c(F)c(F)c(F)c5F)c5ccc([nH]5)c(-c5c(F)c(F)c(F)c(F)c5F)c5nc(c(-c6c(F)c(F)c(F)c(F)c6F)c6ccc3[nH]6)C=C5)C=C4)cc2)c2c[nH]c3cc(CO)ccc23)CC1
REMARK SMILES IDX 20 1 19 2 18 3 17 4 16 5 14 6 15 7 13 8 12 9 9 10 10 11
REMARK SMILES IDX 103 12 11 13 102 14 8 16 3 17 4 18 5 19 7 20 6 21 2 22 1 23
REMARK SMILES IDX 91 24 92 25 101 26 93 27 94 28 100 29 95 31 99 32 96 33
REMARK SMILES IDX 97 34 98 35 21 37 22 38 23 39 24 40 25 41 26 42 27 43 28 44
REMARK SMILES IDX 29 45 90 46 30 47 89 48 31 49 32 50 33 51 83 52 34 53 88 54
REMARK SMILES IDX 82 55 84 56 35 57 87 58 81 59 80 60 36 62 68 63 48 64 67 65
REMARK SMILES IDX 49 66 52 67 66 68 85 69 50 70 51 71 65 73 86 74 53 75 37 76
REMARK SMILES IDX 38 77 46 78 39 79 40 80 44 81 47 82 41 83 42 84 45 85 43 86
REMARK SMILES IDX 69 87 70 88 78 89 71 90 72 91 76 92 79 93 73 94 74 95 77 96
REMARK SMILES IDX 75 97 54 98 55 99 63 100 56 101 57 102 61 103 64 104 58 105
REMARK SMILES IDX 59 106 62 107 60 108
REMARK H PARENT 12 15 93 30 98 36 84 61 52 72
REMARK Flexibility Score: inf
ROOT
ATOM      1  C   UNL A   1      39.927  22.120  26.454  1.00  0.00     0.188 C 
ENDROOT
BRANCH   1   2
ATOM      2  O   UNL A   1      38.633  22.073  25.891  1.00  0.00    -0.376 OA
BRANCH   2   3
ATOM      3  C   UNL A   1      37.874  23.277  25.984  1.00  0.00     0.202 C 
BRANCH   3   4
ATOM      4  C   UNL A   1      36.696  23.471  25.000  1.00  0.00     0.261 C 
BRANCH   4   5
ATOM      5  O   UNL A   1      35.716  24.472  25.392  1.00  0.00    -0.459 OA
BRANCH   5   6
ATOM      6  C   UNL A   1      34.477  24.061  25.784  1.00  0.00     0.370 C 
ATOM      7  O   UNL A   1      34.297  23.349  26.771  1.00  0.00    -0.245 OA
BRANCH   6   8
ATOM      8  C   UNL A   1      33.305  24.600  24.902  1.00  0.00     0.328 C 
BRANCH   8   9
ATOM      9  N   UNL A   1      32.706  23.660  23.854  1.00  0.00    -0.316 N 
ATOM     10  N   UNL A   1      32.441  20.695  24.058  1.00  0.00    -0.344 N 
ATOM     11  C   UNL A   1      33.713  21.380  23.873  1.00  0.00     0.179 C 
ATOM     12  C   UNL A   1      31.402  21.548  24.688  1.00  0.00     0.179 C 
ATOM     13  C   UNL A   1      33.417  22.648  23.069  1.00  0.00     0.285 C 
ATOM     14  C   UNL A   1      31.392  23.032  24.140  1.00  0.00     0.285 C 
ATOM     15  H   UNL A   1      32.720  24.502  23.278  1.00  0.00     0.349 HD
BRANCH  10  16
ATOM     16  C   UNL A   1      32.574  19.381  24.512  1.00  0.00     0.146 A 
ATOM     17  C   UNL A   1      32.438  18.291  23.652  1.00  0.00     0.095 A 
ATOM     18  C   UNL A   1      32.523  16.986  24.165  1.00  0.00     0.025 A 
ATOM     19  C   UNL A   1      32.803  16.784  25.505  1.00  0.00     0.022 A 
ATOM     20  N   UNL A   1      32.905  19.170  25.806  1.00  0.00    -0.238 NA
ATOM     21  C   UNL A   1      33.031  17.903  26.264  1.00  0.00     0.113 A 
BRANCH  17  22
ATOM     22  C   UNL A   1      32.329  18.475  22.239  1.00  0.00     0.103 C 
ATOM     23  N   UNL A   1      32.218  18.563  21.087  1.00  0.00    -0.192 NA
ENDBRANCH  17  22
ENDBRANCH  10  16
ENDBRANCH   8   9
BRANCH   8  24
ATOM     24  C   UNL A   1      33.112  26.263  24.950  1.00  0.00     0.046 A 
ATOM     25  C   UNL A   1      32.576  26.761  26.139  1.00  0.00     0.094 A 
ATOM     26  C   UNL A   1      32.342  27.199  24.140  1.00  0.00     0.009 A 
ATOM     27  N   UNL A   1      31.217  26.401  25.958  1.00  0.00    -0.361 N 
ATOM     28  C   UNL A   1      30.842  26.579  24.534  1.00  0.00     0.046 A 
ATOM     29  C   UNL A   1      32.363  28.848  23.355  1.00  0.00     0.011 A 
ATOM     30  H   UNL A   1      30.615  26.081  26.668  1.00  0.00     0.166 HD
ATOM     31  C   UNL A   1      29.287  27.176  23.922  1.00  0.00     0.032 A 
ATOM     32  C   UNL A   1      30.601  29.640  22.739  1.00  0.00     0.007 A 
ATOM     33  C   UNL A   1      29.118  28.695  23.042  1.00  0.00    -0.021 A 
BRANCH  33  34
ATOM     34  C   UNL A   1      27.834  29.048  22.375  1.00  0.00     0.191 C 
BRANCH  34  35
ATOM     35  O   UNL A   1      27.006  29.727  23.307  1.00  0.00    -0.392 OA
ATOM     36  H   UNL A   1      27.182  29.391  24.200  1.00  0.00     0.211 HD
ENDBRANCH  34  35
ENDBRANCH  33  34
ENDBRANCH   8  24
ENDBRANCH   6   8
ENDBRANCH   5   6
ENDBRANCH   4   5
ENDBRANCH   3   4
ENDBRANCH   2   3
ENDBRANCH   1   2
BRANCH   1  37
ATOM     37  C   UNL A   1      40.689  20.803  26.503  1.00  0.00     0.188 C 
BRANCH  37  38
ATOM     38  O   UNL A   1      41.917  20.671  25.808  1.00  0.00    -0.376 OA
BRANCH  38  39
ATOM     39  C   UNL A   1      42.649  21.854  25.507  1.00  0.00     0.202 C 
BRANCH  39  40
ATOM     40  C   UNL A   1      44.046  22.008  26.114  1.00  0.00     0.261 C 
BRANCH  40  41
ATOM     41  O   UNL A   1      44.765  23.062  25.467  1.00  0.00    -0.460 OA
BRANCH  41  42
ATOM     42  C   UNL A   1      44.532  24.376  25.364  1.00  0.00     0.338 C 
ATOM     43  O   UNL A   1      44.800  25.076  24.409  1.00  0.00    -0.246 OA
BRANCH  42  44
ATOM     44  C   UNL A   1      44.129  24.732  26.846  1.00  0.00     0.060 A 
ATOM     45  C   UNL A   1      42.773  24.290  28.292  1.00  0.00     0.016 A 
ATOM     46  C   UNL A   1      45.026  26.319  27.111  1.00  0.00     0.016 A 
ATOM     47  C   UNL A   1      42.537  25.350  29.661  1.00  0.00     0.010 A 
ATOM     48  C   UNL A   1      44.646  27.293  28.521  1.00  0.00     0.010 A 
ATOM     49  C   UNL A   1      43.430  26.808  29.692  1.00  0.00    -0.014 A 
BRANCH  49  50
ATOM     50  C   UNL A   1      42.899  27.702  30.700  1.00  0.00     0.031 A 
ATOM     51  C   UNL A   1      43.659  27.890  31.981  1.00  0.00     0.074 A 
ATOM     52  C   UNL A   1      41.913  28.489  30.262  1.00  0.00     0.049 A 
ATOM     53  N   UNL A   1      43.376  28.652  32.999  1.00  0.00    -0.248 NA
ATOM     54  C   UNL A   1      44.938  27.170  32.141  1.00  0.00     0.031 C 
ATOM     55  C   UNL A   1      41.347  28.456  28.907  1.00  0.00     0.029 A 
ATOM     56  N   UNL A   1      41.224  29.472  30.892  1.00  0.00    -0.354 N 
ATOM     57  C   UNL A   1      44.422  28.484  33.903  1.00  0.00     0.074 A 
ATOM     58  C   UNL A   1      45.365  27.571  33.326  1.00  0.00     0.031 C 
ATOM     59  C   UNL A   1      40.331  29.325  28.838  1.00  0.00     0.029 A 
ATOM     60  C   UNL A   1      40.159  29.918  30.153  1.00  0.00     0.049 A 
ATOM     61  H   UNL A   1      41.461  29.825  31.780  1.00  0.00     0.167 HD
ATOM     62  C   UNL A   1      44.548  29.053  35.120  1.00  0.00     0.037 A 
ATOM     63  C   UNL A   1      39.121  30.656  30.566  1.00  0.00     0.037 A 
ATOM     64  C   UNL A   1      43.541  29.945  35.619  1.00  0.00     0.049 A 
ATOM     65  C   UNL A   1      39.190  31.137  31.986  1.00  0.00     0.074 A 
ATOM     66  C   UNL A   1      43.451  30.561  36.847  1.00  0.00     0.029 A 
ATOM     67  N   UNL A   1      42.424  30.327  34.880  1.00  0.00    -0.354 N 
ATOM     68  N   UNL A   1      40.129  30.922  32.883  1.00  0.00    -0.248 NA
ATOM     69  C   UNL A   1      38.083  31.966  32.456  1.00  0.00     0.031 C 
ATOM     70  C   UNL A   1      42.236  31.249  36.879  1.00  0.00     0.029 A 
ATOM     71  C   UNL A   1      41.616  31.144  35.638  1.00  0.00     0.049 A 
ATOM     72  H   UNL A   1      42.240  30.053  33.952  1.00  0.00     0.167 HD
ATOM     73  C   UNL A   1      39.756  31.632  34.008  1.00  0.00     0.074 A 
ATOM     74  C   UNL A   1      38.496  32.276  33.677  1.00  0.00     0.031 C 
ATOM     75  C   UNL A   1      40.387  31.760  35.202  1.00  0.00     0.037 A 
BRANCH  62  76
ATOM     76  C   UNL A   1      45.701  28.649  35.992  1.00  0.00     0.064 A 
ATOM     77  C   UNL A   1      46.933  29.321  35.988  1.00  0.00     0.173 A 
ATOM     78  C   UNL A   1      45.562  27.556  36.864  1.00  0.00     0.173 A 
ATOM     79  F   UNL A   1      47.141  30.347  35.149  1.00  0.00    -0.203 F 
ATOM     80  C   UNL A   1      47.977  28.915  36.821  1.00  0.00     0.198 A 
ATOM     81  C   UNL A   1      46.597  27.169  37.712  1.00  0.00     0.198 A 
ATOM     82  F   UNL A   1      44.418  26.858  36.892  1.00  0.00    -0.203 F 
ATOM     83  F   UNL A   1      49.158  29.549  36.773  1.00  0.00    -0.200 F 
ATOM     84  C   UNL A   1      47.804  27.848  37.689  1.00  0.00     0.200 A 
ATOM     85  F   UNL A   1      46.425  26.137  38.548  1.00  0.00    -0.200 F 
ATOM     86  F   UNL A   1      48.804  27.467  38.498  1.00  0.00    -0.200 F 
ENDBRANCH  62  76
BRANCH  63  87
ATOM     87  C   UNL A   1      37.964  30.883  29.669  1.00  0.00     0.064 A 
ATOM     88  C   UNL A   1      37.757  32.117  29.043  1.00  0.00     0.173 A 
ATOM     89  C   UNL A   1      37.033  29.860  29.413  1.00  0.00     0.173 A 
ATOM     90  F   UNL A   1      38.623  33.120  29.243  1.00  0.00    -0.203 F 
ATOM     91  C   UNL A   1      36.641  32.335  28.236  1.00  0.00     0.198 A 
ATOM     92  C   UNL A   1      35.938  30.068  28.579  1.00  0.00     0.198 A 
ATOM     93  F   UNL A   1      37.193  28.647  29.966  1.00  0.00    -0.203 F 
ATOM     94  F   UNL A   1      36.438  33.545  27.698  1.00  0.00    -0.200 F 
ATOM     95  C   UNL A   1      35.733  31.312  28.005  1.00  0.00     0.200 A 
ATOM     96  F   UNL A   1      35.081  29.067  28.337  1.00  0.00    -0.200 F 
ATOM     97  F   UNL A   1      34.657  31.529  27.237  1.00  0.00    -0.200 F 
ENDBRANCH  63  87
BRANCH  75  98
ATOM     98  C   UNL A   1      39.761  32.699  36.178  1.00  0.00     0.064 A 
ATOM     99  C   UNL A   1      38.750  32.284  37.051  1.00  0.00     0.173 A 
ATOM    100  C   UNL A   1      40.261  34.005  36.293  1.00  0.00     0.173 A 
ATOM    101  F   UNL A   1      38.241  31.045  36.958  1.00  0.00    -0.203 F 
ATOM    102  C   UNL A   1      38.242  33.158  38.001  1.00  0.00     0.198 A 
ATOM    103  C   UNL A   1      39.783  34.858  37.275  1.00  0.00     0.198 A 
ATOM    104  F   UNL A   1      41.240  34.430  35.480  1.00  0.00    -0.203 F 
ATOM    105  F   UNL A   1      37.242  32.764  38.800  1.00  0.00    -0.200 F 
ATOM    106  C   UNL A   1      38.769  34.437  38.122  1.00  0.00     0.200 A 
ATOM    107  F   UNL A   1      40.313  36.081  37.409  1.00  0.00    -0.200 F 
ATOM    108  F   UNL A   1      38.298  35.267  39.061  1.00  0.00    -0.200 F 
ENDBRANCH  75  98
ENDBRANCH  49  50
ENDBRANCH  42  44
ENDBRANCH  41  42
ENDBRANCH  40  41
ENDBRANCH  39  40
ENDBRANCH  38  39
ENDBRANCH  37  38
ENDBRANCH   1  37
TORSDOF 23
ENDMDL
MODEL 2
REMARK VINA RESULT:     -10.1      6.923     14.044
REMARK SMILES N#Cc1cccnc1N1CC[NH+]([C@@H](C(=O)OCCOCCOCCOC(=O)c2ccc(-c3c4nc(c(-c5c(F)c(F)c(F)c(F)c5F)c5ccc([nH]5)c(-c5c(F)c(F)c(F)c(F)c5F)c5nc(c(-c6c(F)c(F)c(F)c(F)c6F)c6ccc3[nH]6)C=C5)C=C4)cc2)c2c[nH]c3cc(CO)ccc23)CC1
REMARK SMILES IDX 20 1 19 2 18 3 17 4 16 5 14 6 15 7 13 8 12 9 9 10 10 11
REMARK SMILES IDX 103 12 11 13 102 14 8 16 3 17 4 18 5 19 7 20 6 21 2 22 1 23
REMARK SMILES IDX 91 24 92 25 101 26 93 27 94 28 100 29 95 31 99 32 96 33
REMARK SMILES IDX 97 34 98 35 21 37 22 38 23 39 24 40 25 41 26 42 27 43 28 44
REMARK SMILES IDX 29 45 90 46 30 47 89 48 31 49 32 50 33 51 83 52 34 53 88 54
REMARK SMILES IDX 82 55 84 56 35 57 87 58 81 59 80 60 36 62 68 63 48 64 67 65
REMARK SMILES IDX 49 66 52 67 66 68 85 69 50 70 51 71 65 73 86 74 53 75 37 76
REMARK SMILES IDX 38 77 46 78 39 79 40 80 44 81 47 82 41 83 42 84 45 85 43 86
REMARK SMILES IDX 69 87 70 88 78 89 71 90 72 91 76 92 79 93 73 94 74 95 77 96
REMARK SMILES IDX 75 97 54 98 55 99 63 100 56 101 57 102 61 103 64 104 58 105
REMARK SMILES IDX 59 106 62 107 60 108
REMARK H PARENT 12 15 93 30 98 36 84 61 52 72
REMARK Flexibility Score: inf
ROOT
ATOM      1  C   UNL A   1      41.294  33.986  30.264  1.00  0.00     0.188 C 
ENDROOT
BRANCH   1   2
ATOM      2  O   UNL A   1      39.958  33.746  29.878  1.00  0.00    -0.376 OA
BRANCH   2   3
ATOM      3  C   UNL A   1      39.330  32.620  30.489  1.00  0.00     0.202 C 
BRANCH   3   4
ATOM      4  C   UNL A   1      39.463  32.455  32.021  1.00  0.00     0.261 C 
BRANCH   4   5
ATOM      5  O   UNL A   1      38.802  31.286  32.581  1.00  0.00    -0.459 OA
BRANCH   5   6
ATOM      6  C   UNL A   1      37.588  31.441  33.181  1.00  0.00     0.370 C 
ATOM      7  O   UNL A   1      36.576  30.861  32.788  1.00  0.00    -0.245 OA
BRANCH   6   8
ATOM      8  C   UNL A   1      37.596  32.384  34.427  1.00  0.00     0.328 C 
BRANCH   8   9
ATOM      9  N   UNL A   1      36.769  33.669  34.360  1.00  0.00    -0.316 N 
ATOM     10  N   UNL A   1      34.981  34.526  32.130  1.00  0.00    -0.344 N 
ATOM     11  C   UNL A   1      36.435  34.515  32.039  1.00  0.00     0.179 C 
ATOM     12  C   UNL A   1      34.450  33.584  33.146  1.00  0.00     0.179 C 
ATOM     13  C   UNL A   1      36.966  34.797  33.447  1.00  0.00     0.285 C 
ATOM     14  C   UNL A   1      35.293  33.564  34.485  1.00  0.00     0.285 C 
ATOM     15  H   UNL A   1      37.305  33.904  35.195  1.00  0.00     0.349 HD
BRANCH  10  16
ATOM     16  C   UNL A   1      34.344  34.580  30.888  1.00  0.00     0.146 A 
ATOM     17  C   UNL A   1      33.474  35.619  30.556  1.00  0.00     0.095 A 
ATOM     18  C   UNL A   1      32.811  35.600  29.317  1.00  0.00     0.025 A 
ATOM     19  C   UNL A   1      33.069  34.589  28.407  1.00  0.00     0.022 A 
ATOM     20  N   UNL A   1      34.632  33.631  29.968  1.00  0.00    -0.238 NA
ATOM     21  C   UNL A   1      34.017  33.665  28.763  1.00  0.00     0.113 A 
BRANCH  17  22
ATOM     22  C   UNL A   1      33.330  36.761  31.401  1.00  0.00     0.103 C 
ATOM     23  N   UNL A   1      33.189  37.650  32.133  1.00  0.00    -0.192 NA
ENDBRANCH  17  22
ENDBRANCH  10  16
ENDBRANCH   8   9
BRANCH   8  24
ATOM     24  C   UNL A   1      38.814  32.061  35.530  1.00  0.00     0.046 A 
ATOM     25  C   UNL A   1      38.968  30.713  35.862  1.00  0.00     0.094 A 
ATOM     26  C   UNL A   1      39.054  32.489  36.903  1.00  0.00     0.009 A 
ATOM     27  N   UNL A   1      37.859  30.552  36.729  1.00  0.00    -0.361 N 
ATOM     28  C   UNL A   1      37.688  31.776  37.549  1.00  0.00     0.046 A 
ATOM     29  C   UNL A   1      40.336  33.019  38.089  1.00  0.00     0.011 A 
ATOM     30  H   UNL A   1      37.289  29.751  36.779  1.00  0.00     0.166 HD
ATOM     31  C   UNL A   1      37.200  31.842  39.253  1.00  0.00     0.032 A 
ATOM     32  C   UNL A   1      39.881  33.004  40.066  1.00  0.00     0.007 A 
ATOM     33  C   UNL A   1      38.258  32.427  40.536  1.00  0.00    -0.021 A 
BRANCH  33  34
ATOM     34  C   UNL A   1      37.733  32.653  41.912  1.00  0.00     0.191 C 
BRANCH  34  35
ATOM     35  O   UNL A   1      37.502  31.395  42.526  1.00  0.00    -0.392 OA
ATOM     36  H   UNL A   1      36.548  31.221  42.556  1.00  0.00     0.211 HD
ENDBRANCH  34  35
ENDBRANCH  33  34
ENDBRANCH   8  24
ENDBRANCH   6   8
ENDBRANCH   5   6
ENDBRANCH   4   5
ENDBRANCH   3   4
ENDBRANCH   2   3
ENDBRANCH   1   2
BRANCH   1  37
ATOM     37  C   UNL A   1      42.037  35.066  29.489  1.00  0.00     0.188 C 
BRANCH  37  38
ATOM     38  O   UNL A   1      42.746  36.075  30.186  1.00  0.00    -0.376 OA
BRANCH  38  39
ATOM     39  C   UNL A   1      43.356  37.113  29.426  1.00  0.00     0.202 C 
BRANCH  39  40
ATOM     40  C   UNL A   1      44.320  38.059  30.146  1.00  0.00     0.261 C 
BRANCH  40  41
ATOM     41  O   UNL A   1      45.583  37.426  30.364  1.00  0.00    -0.460 OA
BRANCH  41  42
ATOM     42  C   UNL A   1      45.998  36.541  31.279  1.00  0.00     0.338 C 
ATOM     43  O   UNL A   1      46.342  36.795  32.415  1.00  0.00    -0.246 OA
BRANCH  42  44
ATOM     44  C   UNL A   1      46.173  35.248  30.394  1.00  0.00     0.060 A 
ATOM     45  C   UNL A   1      45.943  34.554  28.499  1.00  0.00     0.016 A 
ATOM     46  C   UNL A   1      46.285  33.927  31.674  1.00  0.00     0.016 A 
ATOM     47  C   UNL A   1      45.885  32.840  28.167  1.00  0.00     0.010 A 
ATOM     48  C   UNL A   1      46.172  32.245  31.182  1.00  0.00     0.010 A 
ATOM     49  C   UNL A   1      45.949  31.776  29.505  1.00  0.00    -0.014 A 
BRANCH  49  50
ATOM     50  C   UNL A   1      45.577  30.435  29.099  1.00  0.00     0.031 A 
ATOM     51  C   UNL A   1      44.122  30.069  29.040  1.00  0.00     0.074 A 
ATOM     52  C   UNL A   1      46.573  29.741  28.545  1.00  0.00     0.049 A 
ATOM     53  N   UNL A   1      43.573  28.942  28.686  1.00  0.00    -0.248 NA
ATOM     54  C   UNL A   1      43.130  31.110  29.374  1.00  0.00     0.031 C 
ATOM     55  C   UNL A   1      47.952  30.224  28.386  1.00  0.00     0.029 A 
ATOM     56  N   UNL A   1      46.587  28.498  28.004  1.00  0.00    -0.354 N 
ATOM     57  C   UNL A   1      42.198  29.145  28.773  1.00  0.00     0.074 A 
ATOM     58  C   UNL A   1      41.974  30.497  29.191  1.00  0.00     0.031 C 
ATOM     59  C   UNL A   1      48.699  29.244  27.862  1.00  0.00     0.029 A 
ATOM     60  C   UNL A   1      47.855  28.072  27.708  1.00  0.00     0.049 A 
ATOM     61  H   UNL A   1      45.777  27.962  27.842  1.00  0.00     0.167 HD
ATOM     62  C   UNL A   1      41.225  28.242  28.530  1.00  0.00     0.037 A 
ATOM     63  C   UNL A   1      48.264  26.826  27.437  1.00  0.00     0.037 A 
ATOM     64  C   UNL A   1      41.549  26.903  28.131  1.00  0.00     0.049 A 
ATOM     65  C   UNL A   1      47.179  25.792  27.344  1.00  0.00     0.074 A 
ATOM     66  C   UNL A   1      40.714  25.831  27.910  1.00  0.00     0.029 A 
ATOM     67  N   UNL A   1      42.853  26.466  27.909  1.00  0.00    -0.354 N 
ATOM     68  N   UNL A   1      45.882  25.944  27.505  1.00  0.00    -0.248 NA
ATOM     69  C   UNL A   1      47.593  24.428  27.024  1.00  0.00     0.031 C 
ATOM     70  C   UNL A   1      41.522  24.724  27.636  1.00  0.00     0.029 A 
ATOM     71  C   UNL A   1      42.852  25.129  27.588  1.00  0.00     0.049 A 
ATOM     72  H   UNL A   1      43.656  27.032  27.973  1.00  0.00     0.167 HD
ATOM     73  C   UNL A   1      45.315  24.710  27.252  1.00  0.00     0.074 A 
ATOM     74  C   UNL A   1      46.419  23.819  26.937  1.00  0.00     0.031 C 
ATOM     75  C   UNL A   1      44.012  24.334  27.263  1.00  0.00     0.037 A 
BRANCH  62  76
ATOM     76  C   UNL A   1      39.798  28.628  28.796  1.00  0.00     0.064 A 
ATOM     77  C   UNL A   1      39.168  28.414  30.032  1.00  0.00     0.173 A 
ATOM     78  C   UNL A   1      39.042  29.235  27.780  1.00  0.00     0.173 A 
ATOM     79  F   UNL A   1      39.824  27.802  31.029  1.00  0.00    -0.203 F 
ATOM     80  C   UNL A   1      37.840  28.794  30.238  1.00  0.00     0.198 A 
ATOM     81  C   UNL A   1      37.725  29.636  27.997  1.00  0.00     0.198 A 
ATOM     82  F   UNL A   1      39.581  29.439  26.569  1.00  0.00    -0.203 F 
ATOM     83  F   UNL A   1      37.248  28.547  31.415  1.00  0.00    -0.200 F 
ATOM     84  C   UNL A   1      37.125  29.415  29.225  1.00  0.00     0.200 A 
ATOM     85  F   UNL A   1      37.039  30.233  27.014  1.00  0.00    -0.200 F 
ATOM     86  F   UNL A   1      35.854  29.790  29.429  1.00  0.00    -0.200 F 
ENDBRANCH  62  76
BRANCH  63  87
ATOM     87  C   UNL A   1      49.710  26.521  27.329  1.00  0.00     0.064 A 
ATOM     88  C   UNL A   1      50.514  26.388  28.465  1.00  0.00     0.173 A 
ATOM     89  C   UNL A   1      50.323  26.350  26.074  1.00  0.00     0.173 A 
ATOM     90  F   UNL A   1      49.975  26.528  29.685  1.00  0.00    -0.203 F 
ATOM     91  C   UNL A   1      51.882  26.145  28.353  1.00  0.00     0.198 A 
ATOM     92  C   UNL A   1      51.683  26.072  25.965  1.00  0.00     0.198 A 
ATOM     93  F   UNL A   1      49.597  26.441  24.949  1.00  0.00    -0.203 F 
ATOM     94  F   UNL A   1      52.638  26.083  29.458  1.00  0.00    -0.200 F 
ATOM     95  C   UNL A   1      52.465  25.987  27.104  1.00  0.00     0.200 A 
ATOM     96  F   UNL A   1      52.234  25.892  24.756  1.00  0.00    -0.200 F 
ATOM     97  F   UNL A   1      53.782  25.764  27.000  1.00  0.00    -0.200 F 
ENDBRANCH  63  87
BRANCH  75  98
ATOM     98  C   UNL A   1      43.729  22.934  26.834  1.00  0.00     0.064 A 
ATOM     99  C   UNL A   1      43.069  22.029  27.672  1.00  0.00     0.173 A 
ATOM    100  C   UNL A   1      44.043  22.539  25.525  1.00  0.00     0.173 A 
ATOM    101  F   UNL A   1      42.767  22.370  28.934  1.00  0.00    -0.203 F 
ATOM    102  C   UNL A   1      42.750  20.757  27.217  1.00  0.00     0.198 A 
ATOM    103  C   UNL A   1      43.679  21.286  25.060  1.00  0.00     0.198 A 
ATOM    104  F   UNL A   1      44.662  23.389  24.691  1.00  0.00    -0.203 F 
ATOM    105  F   UNL A   1      42.161  19.884  28.043  1.00  0.00    -0.200 F 
ATOM    106  C   UNL A   1      43.040  20.394  25.909  1.00  0.00     0.200 A 
ATOM    107  F   UNL A   1      43.933  20.947  23.790  1.00  0.00    -0.200 F 
ATOM    108  F   UNL A   1      42.701  19.177  25.463  1.00  0.00    -0.200 F 
ENDBRANCH  75  98
ENDBRANCH  49  50
ENDBRANCH  42  44
ENDBRANCH  41  42
ENDBRANCH  40  41
ENDBRANCH  39  40
ENDBRANCH  38  39
ENDBRANCH  37  38
ENDBRANCH   1  37
TORSDOF 23
ENDMDL
MODEL 3
REMARK VINA RESULT:     -10.0      0.603      6.953
REMARK SMILES N#Cc1cccnc1N1CC[NH+]([C@@H](C(=O)OCCOCCOCCOC(=O)c2ccc(-c3c4nc(c(-c5c(F)c(F)c(F)c(F)c5F)c5ccc([nH]5)c(-c5c(F)c(F)c(F)c(F)c5F)c5nc(c(-c6c(F)c(F)c(F)c(F)c6F)c6ccc3[nH]6)C=C5)C=C4)cc2)c2c[nH]c3cc(CO)ccc23)CC1
REMARK SMILES IDX 20 1 19 2 18 3 17 4 16 5 14 6 15 7 13 8 12 9 9 10 10 11
REMARK SMILES IDX 103 12 11 13 102 14 8 16 3 17 4 18 5 19 7 20 6 21 2 22 1 23
REMARK SMILES IDX 91 24 92 25 101 26 93 27 94 28 100 29 95 31 99 32 96 33
REMARK SMILES IDX 97 34 98 35 21 37 22 38 23 39 24 40 25 41 26 42 27 43 28 44
REMARK SMILES IDX 29 45 90 46 30 47 89 48 31 49 32 50 33 51 83 52 34 53 88 54
REMARK SMILES IDX 82 55 84 56 35 57 87 58 81 59 80 60 36 62 68 63 48 64 67 65
REMARK SMILES IDX 49 66 52 67 66 68 85 69 50 70 51 71 65 73 86 74 53 75 37 76
REMARK SMILES IDX 38 77 46 78 39 79 40 80 44 81 47 82 41 83 42 84 45 85 43 86
REMARK SMILES IDX 69 87 70 88 78 89 71 90 72 91 76 92 79 93 73 94 74 95 77 96
REMARK SMILES IDX 75 97 54 98 55 99 63 100 56 101 57 102 61 103 64 104 58 105
REMARK SMILES IDX 59 106 62 107 60 108
REMARK H PARENT 12 15 93 30 98 36 84 61 52 72
REMARK Flexibility Score: inf
ROOT
ATOM      1  C   UNL A   1      39.801  22.407  26.626  1.00  0.00     0.188 C 
ENDROOT
BRANCH   1   2
ATOM      2  O   UNL A   1      38.559  22.242  25.974  1.00  0.00    -0.376 OA
BRANCH   2   3
ATOM      3  C   UNL A   1      37.803  23.434  25.771  1.00  0.00     0.202 C 
BRANCH   3   4
ATOM      4  C   UNL A   1      36.602  23.376  24.799  1.00  0.00     0.261 C 
BRANCH   4   5
ATOM      5  O   UNL A   1      35.502  24.275  25.114  1.00  0.00    -0.459 OA
BRANCH   5   6
ATOM      6  C   UNL A   1      34.430  23.788  25.800  1.00  0.00     0.370 C 
ATOM      7  O   UNL A   1      34.548  23.037  26.768  1.00  0.00    -0.245 OA
BRANCH   6   8
ATOM      8  C   UNL A   1      33.044  24.289  25.281  1.00  0.00     0.328 C 
BRANCH   8   9
ATOM      9  N   UNL A   1      32.184  23.315  24.474  1.00  0.00    -0.316 N 
ATOM     10  N   UNL A   1      32.696  20.404  24.059  1.00  0.00    -0.344 N 
ATOM     11  C   UNL A   1      33.490  21.459  23.442  1.00  0.00     0.179 C 
ATOM     12  C   UNL A   1      32.014  20.837  25.304  1.00  0.00     0.179 C 
ATOM     13  C   UNL A   1      32.549  22.647  23.223  1.00  0.00     0.285 C 
ATOM     14  C   UNL A   1      31.399  22.292  25.210  1.00  0.00     0.285 C 
ATOM     15  H   UNL A   1      31.709  24.171  24.190  1.00  0.00     0.349 HD
BRANCH  10  16
ATOM     16  C   UNL A   1      33.324  19.157  24.055  1.00  0.00     0.146 A 
ATOM     17  C   UNL A   1      33.111  18.233  23.031  1.00  0.00     0.095 A 
ATOM     18  C   UNL A   1      33.720  16.968  23.100  1.00  0.00     0.025 A 
ATOM     19  C   UNL A   1      34.574  16.665  24.144  1.00  0.00     0.022 A 
ATOM     20  N   UNL A   1      34.207  18.870  25.038  1.00  0.00    -0.238 NA
ATOM     21  C   UNL A   1      34.819  17.663  25.052  1.00  0.00     0.113 A 
BRANCH  17  22
ATOM     22  C   UNL A   1      32.379  18.588  21.857  1.00  0.00     0.103 C 
ATOM     23  N   UNL A   1      31.838  18.906  20.881  1.00  0.00    -0.192 NA
ENDBRANCH  17  22
ENDBRANCH  10  16
ENDBRANCH   8   9
BRANCH   8  24
ATOM     24  C   UNL A   1      32.844  25.951  25.342  1.00  0.00     0.046 A 
ATOM     25  C   UNL A   1      32.253  26.432  26.512  1.00  0.00     0.094 A 
ATOM     26  C   UNL A   1      32.110  26.897  24.511  1.00  0.00     0.009 A 
ATOM     27  N   UNL A   1      30.905  26.072  26.265  1.00  0.00    -0.361 N 
ATOM     28  C   UNL A   1      30.595  26.269  24.828  1.00  0.00     0.046 A 
ATOM     29  C   UNL A   1      32.162  28.556  23.750  1.00  0.00     0.011 A 
ATOM     30  H   UNL A   1      30.272  25.741  26.942  1.00  0.00     0.166 HD
ATOM     31  C   UNL A   1      29.068  26.871  24.153  1.00  0.00     0.032 A 
ATOM     32  C   UNL A   1      30.428  29.354  23.065  1.00  0.00     0.007 A 
ATOM     33  C   UNL A   1      28.935  28.401  23.287  1.00  0.00    -0.021 A 
BRANCH  33  34
ATOM     34  C   UNL A   1      27.682  28.760  22.567  1.00  0.00     0.191 C 
BRANCH  34  35
ATOM     35  O   UNL A   1      27.067  29.852  23.234  1.00  0.00    -0.392 OA
ATOM     36  H   UNL A   1      26.625  30.420  22.584  1.00  0.00     0.211 HD
ENDBRANCH  34  35
ENDBRANCH  33  34
ENDBRANCH   8  24
ENDBRANCH   6   8
ENDBRANCH   5   6
ENDBRANCH   4   5
ENDBRANCH   3   4
ENDBRANCH   2   3
ENDBRANCH   1   2
BRANCH   1  37
ATOM     37  C   UNL A   1      40.584  21.134  26.917  1.00  0.00     0.188 C 
BRANCH  37  38
ATOM     38  O   UNL A   1      41.725  20.813  26.141  1.00  0.00    -0.376 OA
BRANCH  38  39
ATOM     39  C   UNL A   1      42.475  21.884  25.577  1.00  0.00     0.202 C 
BRANCH  39  40
ATOM     40  C   UNL A   1      43.783  22.285  26.264  1.00  0.00     0.261 C 
BRANCH  40  41
ATOM     41  O   UNL A   1      44.513  23.214  25.459  1.00  0.00    -0.460 OA
BRANCH  41  42
ATOM     42  C   UNL A   1      44.519  24.551  25.413  1.00  0.00     0.338 C 
ATOM     43  O   UNL A   1      45.026  25.235  24.547  1.00  0.00    -0.246 OA
BRANCH  42  44
ATOM     44  C   UNL A   1      43.983  24.908  26.852  1.00  0.00     0.060 A 
ATOM     45  C   UNL A   1      42.403  24.618  28.096  1.00  0.00     0.016 A 
ATOM     46  C   UNL A   1      45.055  26.334  27.312  1.00  0.00     0.016 A 
ATOM     47  C   UNL A   1      42.146  25.651  29.481  1.00  0.00     0.010 A 
ATOM     48  C   UNL A   1      44.639  27.301  28.717  1.00  0.00     0.010 A 
ATOM     49  C   UNL A   1      43.226  26.959  29.702  1.00  0.00    -0.014 A 
BRANCH  49  50
ATOM     50  C   UNL A   1      42.701  27.884  30.686  1.00  0.00     0.031 A 
ATOM     51  C   UNL A   1      41.416  28.603  30.397  1.00  0.00     0.074 A 
ATOM     52  C   UNL A   1      43.284  27.788  31.884  1.00  0.00     0.049 A 
ATOM     53  N   UNL A   1      40.765  29.450  31.142  1.00  0.00    -0.248 NA
ATOM     54  C   UNL A   1      40.727  28.309  29.125  1.00  0.00     0.031 C 
ATOM     55  C   UNL A   1      44.394  26.884  32.212  1.00  0.00     0.029 A 
ATOM     56  N   UNL A   1      43.024  28.439  33.044  1.00  0.00    -0.354 N 
ATOM     57  C   UNL A   1      39.621  29.788  30.423  1.00  0.00     0.074 A 
ATOM     58  C   UNL A   1      39.636  29.053  29.192  1.00  0.00     0.031 C 
ATOM     59  C   UNL A   1      44.775  27.104  33.477  1.00  0.00     0.029 A 
ATOM     60  C   UNL A   1      43.971  28.192  34.004  1.00  0.00     0.049 A 
ATOM     61  H   UNL A   1      42.243  29.023  33.182  1.00  0.00     0.167 HD
ATOM     62  C   UNL A   1      38.658  30.662  30.786  1.00  0.00     0.037 A 
ATOM     63  C   UNL A   1      44.188  28.867  35.140  1.00  0.00     0.037 A 
ATOM     64  C   UNL A   1      38.738  31.364  32.034  1.00  0.00     0.049 A 
ATOM     65  C   UNL A   1      43.205  29.960  35.444  1.00  0.00     0.074 A 
ATOM     66  C   UNL A   1      37.907  32.335  32.544  1.00  0.00     0.029 A 
ATOM     67  N   UNL A   1      39.753  31.155  32.965  1.00  0.00    -0.354 N 
ATOM     68  N   UNL A   1      42.165  30.352  34.738  1.00  0.00    -0.248 NA
ATOM     69  C   UNL A   1      43.403  30.697  36.690  1.00  0.00     0.031 C 
ATOM     70  C   UNL A   1      38.468  32.772  33.747  1.00  0.00     0.029 A 
ATOM     71  C   UNL A   1      39.592  32.005  34.035  1.00  0.00     0.049 A 
ATOM     72  H   UNL A   1      40.479  30.496  32.871  1.00  0.00     0.167 HD
ATOM     73  C   UNL A   1      41.550  31.343  35.477  1.00  0.00     0.074 A 
ATOM     74  C   UNL A   1      42.346  31.496  36.684  1.00  0.00     0.031 C 
ATOM     75  C   UNL A   1      40.430  32.060  35.207  1.00  0.00     0.037 A 
BRANCH  62  76
ATOM     76  C   UNL A   1      37.560  30.974  29.811  1.00  0.00     0.064 A 
ATOM     77  C   UNL A   1      37.475  32.195  29.123  1.00  0.00     0.173 A 
ATOM     78  C   UNL A   1      36.565  30.017  29.556  1.00  0.00     0.173 A 
ATOM     79  F   UNL A   1      38.373  33.166  29.354  1.00  0.00    -0.203 F 
ATOM     80  C   UNL A   1      36.440  32.442  28.220  1.00  0.00     0.198 A 
ATOM     81  C   UNL A   1      35.547  30.256  28.635  1.00  0.00     0.198 A 
ATOM     82  F   UNL A   1      36.577  28.843  30.204  1.00  0.00    -0.203 F 
ATOM     83  F   UNL A   1      36.358  33.629  27.602  1.00  0.00    -0.200 F 
ATOM     84  C   UNL A   1      35.485  31.468  27.968  1.00  0.00     0.200 A 
ATOM     85  F   UNL A   1      34.626  29.313  28.397  1.00  0.00    -0.200 F 
ATOM     86  F   UNL A   1      34.497  31.703  27.091  1.00  0.00    -0.200 F 
ENDBRANCH  62  76
BRANCH  63  87
ATOM     87  C   UNL A   1      45.382  28.573  35.965  1.00  0.00     0.064 A 
ATOM     88  C   UNL A   1      46.598  29.229  35.748  1.00  0.00     0.173 A 
ATOM     89  C   UNL A   1      45.331  27.625  37.003  1.00  0.00     0.173 A 
ATOM     90  F   UNL A   1      46.696  30.151  34.780  1.00  0.00    -0.203 F 
ATOM     91  C   UNL A   1      47.729  28.915  36.501  1.00  0.00     0.198 A 
ATOM     92  C   UNL A   1      46.452  27.338  37.778  1.00  0.00     0.198 A 
ATOM     93  F   UNL A   1      44.185  26.982  37.276  1.00  0.00    -0.203 F 
ATOM     94  F   UNL A   1      48.895  29.515  36.229  1.00  0.00    -0.200 F 
ATOM     95  C   UNL A   1      47.655  27.970  37.514  1.00  0.00     0.200 A 
ATOM     96  F   UNL A   1      46.365  26.445  38.775  1.00  0.00    -0.200 F 
ATOM     97  F   UNL A   1      48.746  27.663  38.229  1.00  0.00    -0.200 F 
ENDBRANCH  63  87
BRANCH  75  98
ATOM     98  C   UNL A   1      39.971  32.990  36.279  1.00  0.00     0.064 A 
ATOM     99  C   UNL A   1      40.509  34.273  36.418  1.00  0.00     0.173 A 
ATOM    100  C   UNL A   1      38.906  32.609  37.110  1.00  0.00     0.173 A 
ATOM    101  F   UNL A   1      41.538  34.664  35.649  1.00  0.00    -0.203 F 
ATOM    102  C   UNL A   1      40.007  35.144  37.375  1.00  0.00     0.198 A 
ATOM    103  C   UNL A   1      38.377  33.499  38.030  1.00  0.00     0.198 A 
ATOM    104  F   UNL A   1      38.357  31.390  36.992  1.00  0.00    -0.203 F 
ATOM    105  F   UNL A   1      40.562  36.352  37.530  1.00  0.00    -0.200 F 
ATOM    106  C   UNL A   1      38.933  34.762  38.168  1.00  0.00     0.200 A 
ATOM    107  F   UNL A   1      37.323  33.140  38.773  1.00  0.00    -0.200 F 
ATOM    108  F   UNL A   1      38.431  35.617  39.067  1.00  0.00    -0.200 F 
ENDBRANCH  75  98
ENDBRANCH  49  50
ENDBRANCH  42  44
ENDBRANCH  41  42
ENDBRANCH  40  41
ENDBRANCH  39  40
ENDBRANCH  38  39
ENDBRANCH  37  38
ENDBRANCH   1  37
TORSDOF 23
ENDMDL
