MODEL 1
REMARK VINA RESULT:     -10.9      0.000      0.000
REMARK SMILES CC[C@@](C)([NH3+])C(=O)N1CC[NH+]([C@H](C)C(=O)OCCOCCOCCOC(=O)c2ccc(-c3c4nc(c(-c5c(F)c(F)c(F)c(F)c5F)c5ccc([nH]5)c(-c5c(F)c(F)c(F)c(F)c5F)c5nc(c(-c6c(F)c(F)c(F)c(F)c6F)c6ccc3[nH]6)C=C5)C=C4)cc2)CC1
REMARK SMILES IDX 20 1 19 2 18 3 17 4 16 5 14 6 15 7 12 8 13 9 11 10 6 11 7 12
REMARK SMILES IDX 8 13 9 14 92 15 10 16 91 17 3 19 4 20 2 21 1 22 5 23 21 27
REMARK SMILES IDX 22 28 23 29 24 30 25 31 26 32 27 33 28 34 29 35 90 36 30 37
REMARK SMILES IDX 89 38 31 39 32 40 33 41 83 42 34 43 88 44 82 45 84 46 35 47
REMARK SMILES IDX 87 48 81 49 80 50 36 52 68 53 48 54 67 55 49 56 52 57 66 58
REMARK SMILES IDX 85 59 50 60 51 61 65 63 86 64 53 65 37 66 38 67 46 68 39 69
REMARK SMILES IDX 40 70 44 71 47 72 41 73 42 74 45 75 43 76 69 77 70 78 78 79
REMARK SMILES IDX 71 80 72 81 76 82 79 83 73 84 74 85 77 86 75 87 54 88 55 89
REMARK SMILES IDX 63 90 56 91 57 92 61 93 64 94 58 95 59 96 62 97 60 98
REMARK H PARENT 11 18 5 24 5 25 5 26 84 51 52 62
REMARK Flexibility Score: inf
ROOT
ATOM      1  C   UNL A   1      33.137  29.191  24.979  1.00  0.00     0.188 C 
ENDROOT
BRANCH   1   2
ATOM      2  O   UNL A   1      33.415  27.935  25.565  1.00  0.00    -0.376 OA
BRANCH   2   3
ATOM      3  C   UNL A   1      32.379  27.248  26.262  1.00  0.00     0.202 C 
BRANCH   3   4
ATOM      4  C   UNL A   1      31.522  26.185  25.543  1.00  0.00     0.261 C 
BRANCH   4   5
ATOM      5  O   UNL A   1      31.651  26.119  24.103  1.00  0.00    -0.459 OA
BRANCH   5   6
ATOM      6  C   UNL A   1      31.156  25.000  23.511  1.00  0.00     0.364 C 
ATOM      7  O   UNL A   1      29.972  24.671  23.556  1.00  0.00    -0.245 OA
BRANCH   6   8
ATOM      8  C   UNL A   1      32.218  24.116  22.805  1.00  0.00     0.292 C 
ATOM      9  C   UNL A   1      32.984  24.642  21.578  1.00  0.00     0.088 C 
BRANCH   8  10
ATOM     10  N   UNL A   1      33.107  23.577  23.859  1.00  0.00    -0.321 N 
ATOM     11  C   UNL A   1      34.831  20.113  25.018  1.00  0.00     0.283 C 
ATOM     12  O   UNL A   1      36.031  19.828  24.899  1.00  0.00    -0.268 OA
ATOM     13  N   UNL A   1      34.488  21.443  25.152  1.00  0.00    -0.326 N 
ATOM     14  C   UNL A   1      35.263  22.424  24.403  1.00  0.00     0.181 C 
ATOM     15  C   UNL A   1      33.338  22.037  25.825  1.00  0.00     0.181 C 
ATOM     16  C   UNL A   1      34.350  22.992  23.309  1.00  0.00     0.284 C 
ATOM     17  C   UNL A   1      32.396  22.700  24.810  1.00  0.00     0.284 C 
ATOM     18  H   UNL A   1      33.412  24.373  24.419  1.00  0.00     0.348 HD
BRANCH  11  19
ATOM     19  C   UNL A   1      33.730  19.013  24.763  1.00  0.00     0.171 C 
ATOM     20  C   UNL A   1      32.797  19.455  23.622  1.00  0.00     0.090 C 
BRANCH  19  21
ATOM     21  C   UNL A   1      34.419  17.665  24.396  1.00  0.00     0.075 C 
ATOM     22  C   UNL A   1      33.932  16.996  23.108  1.00  0.00     0.011 C 
ENDBRANCH  19  21
BRANCH  19  23
ATOM     23  N   UNL A   1      32.913  18.759  25.975  1.00  0.00    -0.345 N 
ATOM     24  H   UNL A   1      31.930  18.934  25.766  1.00  0.00     0.345 HD
ATOM     25  H   UNL A   1      33.217  19.380  26.726  1.00  0.00     0.345 HD
ATOM     26  H   UNL A   1      33.031  17.789  26.268  1.00  0.00     0.345 HD
ENDBRANCH  19  23
ENDBRANCH  11  19
ENDBRANCH   8  10
ENDBRANCH   6   8
ENDBRANCH   5   6
ENDBRANCH   4   5
ENDBRANCH   3   4
ENDBRANCH   2   3
ENDBRANCH   1   2
BRANCH   1  27
ATOM     27  C   UNL A   1      31.683  29.562  24.695  1.00  0.00     0.188 C 
BRANCH  27  28
ATOM     28  O   UNL A   1      31.172  30.659  25.409  1.00  0.00    -0.376 OA
BRANCH  28  29
ATOM     29  C   UNL A   1      31.793  31.091  26.612  1.00  0.00     0.202 C 
BRANCH  29  30
ATOM     30  C   UNL A   1      31.828  32.583  27.002  1.00  0.00     0.261 C 
BRANCH  30  31
ATOM     31  O   UNL A   1      33.120  33.211  27.033  1.00  0.00    -0.460 OA
BRANCH  31  32
ATOM     32  C   UNL A   1      33.575  33.623  28.240  1.00  0.00     0.338 C 
ATOM     33  O   UNL A   1      32.955  34.260  29.077  1.00  0.00    -0.246 OA
BRANCH  32  34
ATOM     34  C   UNL A   1      34.850  32.907  28.507  1.00  0.00     0.060 A 
ATOM     35  C   UNL A   1      34.795  31.522  28.736  1.00  0.00     0.016 A 
ATOM     36  C   UNL A   1      36.085  33.558  28.457  1.00  0.00     0.016 A 
ATOM     37  C   UNL A   1      35.962  30.801  28.984  1.00  0.00     0.010 A 
ATOM     38  C   UNL A   1      37.255  32.839  28.732  1.00  0.00     0.010 A 
ATOM     39  C   UNL A   1      37.191  31.470  29.052  1.00  0.00    -0.014 A 
BRANCH  39  40
ATOM     40  C   UNL A   1      38.322  30.810  29.754  1.00  0.00     0.031 A 
ATOM     41  C   UNL A   1      38.534  31.162  31.205  1.00  0.00     0.074 A 
ATOM     42  C   UNL A   1      39.094  29.876  29.172  1.00  0.00     0.049 A 
ATOM     43  N   UNL A   1      39.429  30.724  32.053  1.00  0.00    -0.248 NA
ATOM     44  C   UNL A   1      37.601  32.148  31.775  1.00  0.00     0.031 C 
ATOM     45  C   UNL A   1      38.962  29.399  27.799  1.00  0.00     0.029 A 
ATOM     46  N   UNL A   1      40.148  29.157  29.682  1.00  0.00    -0.354 N 
ATOM     47  C   UNL A   1      39.166  31.381  33.249  1.00  0.00     0.074 A 
ATOM     48  C   UNL A   1      38.063  32.283  33.006  1.00  0.00     0.031 C 
ATOM     49  C   UNL A   1      39.901  28.462  27.573  1.00  0.00     0.029 A 
ATOM     50  C   UNL A   1      40.716  28.293  28.778  1.00  0.00     0.049 A 
ATOM     51  H   UNL A   1      40.465  29.251  30.609  1.00  0.00     0.167 HD
ATOM     52  C   UNL A   1      39.773  31.237  34.451  1.00  0.00     0.037 A 
ATOM     53  C   UNL A   1      41.777  27.472  28.910  1.00  0.00     0.037 A 
ATOM     54  C   UNL A   1      40.878  30.351  34.695  1.00  0.00     0.049 A 
ATOM     55  C   UNL A   1      42.502  27.398  30.234  1.00  0.00     0.074 A 
ATOM     56  C   UNL A   1      41.572  30.141  35.873  1.00  0.00     0.029 A 
ATOM     57  N   UNL A   1      41.457  29.531  33.737  1.00  0.00    -0.354 N 
ATOM     58  N   UNL A   1      42.239  28.011  31.363  1.00  0.00    -0.248 NA
ATOM     59  C   UNL A   1      43.667  26.503  30.299  1.00  0.00     0.031 C 
ATOM     60  C   UNL A   1      42.609  29.238  35.615  1.00  0.00     0.029 A 
ATOM     61  C   UNL A   1      42.514  28.828  34.295  1.00  0.00     0.049 A 
ATOM     62  H   UNL A   1      41.162  29.460  32.801  1.00  0.00     0.167 HD
ATOM     63  C   UNL A   1      43.173  27.540  32.282  1.00  0.00     0.074 A 
ATOM     64  C   UNL A   1      44.004  26.587  31.577  1.00  0.00     0.031 C 
ATOM     65  C   UNL A   1      43.322  27.864  33.591  1.00  0.00     0.037 A 
BRANCH  52  66
ATOM     66  C   UNL A   1      39.267  32.089  35.578  1.00  0.00     0.064 A 
ATOM     67  C   UNL A   1      39.665  33.428  35.732  1.00  0.00     0.173 A 
ATOM     68  C   UNL A   1      38.377  31.559  36.525  1.00  0.00     0.173 A 
ATOM     69  F   UNL A   1      40.533  33.978  34.868  1.00  0.00    -0.203 F 
ATOM     70  C   UNL A   1      39.224  34.188  36.811  1.00  0.00     0.198 A 
ATOM     71  C   UNL A   1      37.908  32.335  37.581  1.00  0.00     0.198 A 
ATOM     72  F   UNL A   1      37.963  30.288  36.426  1.00  0.00    -0.203 F 
ATOM     73  F   UNL A   1      39.673  35.440  36.976  1.00  0.00    -0.200 F 
ATOM     74  C   UNL A   1      38.341  33.644  37.731  1.00  0.00     0.200 A 
ATOM     75  F   UNL A   1      37.043  31.811  38.462  1.00  0.00    -0.200 F 
ATOM     76  F   UNL A   1      37.916  34.376  38.769  1.00  0.00    -0.200 F 
ENDBRANCH  52  66
BRANCH  53  77
ATOM     77  C   UNL A   1      42.224  26.635  27.763  1.00  0.00     0.064 A 
ATOM     78  C   UNL A   1      43.217  27.087  26.881  1.00  0.00     0.173 A 
ATOM     79  C   UNL A   1      41.643  25.387  27.500  1.00  0.00     0.173 A 
ATOM     80  F   UNL A   1      43.783  28.289  27.070  1.00  0.00    -0.203 F 
ATOM     81  C   UNL A   1      43.593  26.334  25.770  1.00  0.00     0.198 A 
ATOM     82  C   UNL A   1      42.041  24.620  26.407  1.00  0.00     0.198 A 
ATOM     83  F   UNL A   1      40.683  24.911  28.307  1.00  0.00    -0.203 F 
ATOM     84  F   UNL A   1      44.502  26.819  24.912  1.00  0.00    -0.200 F 
ATOM     85  C   UNL A   1      43.009  25.099  25.537  1.00  0.00     0.200 A 
ATOM     86  F   UNL A   1      41.480  23.422  26.190  1.00  0.00    -0.200 F 
ATOM     87  F   UNL A   1      43.370  24.376  24.469  1.00  0.00    -0.200 F 
ENDBRANCH  53  77
BRANCH  65  88
ATOM     88  C   UNL A   1      44.373  27.127  34.376  1.00  0.00     0.064 A 
ATOM     89  C   UNL A   1      45.680  27.614  34.520  1.00  0.00     0.173 A 
ATOM     90  C   UNL A   1      44.051  25.922  35.025  1.00  0.00     0.173 A 
ATOM     91  F   UNL A   1      46.046  28.756  33.917  1.00  0.00    -0.203 F 
ATOM     92  C   UNL A   1      46.635  26.904  35.245  1.00  0.00     0.198 A 
ATOM     93  C   UNL A   1      44.996  25.235  35.780  1.00  0.00     0.198 A 
ATOM     94  F   UNL A   1      42.812  25.415  34.934  1.00  0.00    -0.203 F 
ATOM     95  F   UNL A   1      47.895  27.358  35.315  1.00  0.00    -0.200 F 
ATOM     96  C   UNL A   1      46.291  25.719  35.880  1.00  0.00     0.200 A 
ATOM     97  F   UNL A   1      44.655  24.102  36.409  1.00  0.00    -0.200 F 
ATOM     98  F   UNL A   1      47.210  25.040  36.580  1.00  0.00    -0.200 F 
ENDBRANCH  65  88
ENDBRANCH  39  40
ENDBRANCH  32  34
ENDBRANCH  31  32
ENDBRANCH  30  31
ENDBRANCH  29  30
ENDBRANCH  28  29
ENDBRANCH  27  28
ENDBRANCH   1  27
TORSDOF 21
ENDMDL
MODEL 2
REMARK VINA RESULT:     -10.8      3.025      8.844
REMARK SMILES CC[C@@](C)([NH3+])C(=O)N1CC[NH+]([C@H](C)C(=O)OCCOCCOCCOC(=O)c2ccc(-c3c4nc(c(-c5c(F)c(F)c(F)c(F)c5F)c5ccc([nH]5)c(-c5c(F)c(F)c(F)c(F)c5F)c5nc(c(-c6c(F)c(F)c(F)c(F)c6F)c6ccc3[nH]6)C=C5)C=C4)cc2)CC1
REMARK SMILES IDX 20 1 19 2 18 3 17 4 16 5 14 6 15 7 12 8 13 9 11 10 6 11 7 12
REMARK SMILES IDX 8 13 9 14 92 15 10 16 91 17 3 19 4 20 2 21 1 22 5 23 21 27
REMARK SMILES IDX 22 28 23 29 24 30 25 31 26 32 27 33 28 34 29 35 90 36 30 37
REMARK SMILES IDX 89 38 31 39 32 40 33 41 83 42 34 43 88 44 82 45 84 46 35 47
REMARK SMILES IDX 87 48 81 49 80 50 36 52 68 53 48 54 67 55 49 56 52 57 66 58
REMARK SMILES IDX 85 59 50 60 51 61 65 63 86 64 53 65 37 66 38 67 46 68 39 69
REMARK SMILES IDX 40 70 44 71 47 72 41 73 42 74 45 75 43 76 69 77 70 78 78 79
REMARK SMILES IDX 71 80 72 81 76 82 79 83 73 84 74 85 77 86 75 87 54 88 55 89
REMARK SMILES IDX 63 90 56 91 57 92 61 93 64 94 58 95 59 96 62 97 60 98
REMARK H PARENT 11 18 5 24 5 25 5 26 84 51 52 62
REMARK Flexibility Score: inf
ROOT
ATOM      1  C   UNL A   1      42.485  20.651  26.271  1.00  0.00     0.188 C 
ENDROOT
BRANCH   1   2
ATOM      2  O   UNL A   1      41.324  21.273  25.757  1.00  0.00    -0.376 OA
BRANCH   2   3
ATOM      3  C   UNL A   1      40.100  21.170  26.480  1.00  0.00     0.202 C 
BRANCH   3   4
ATOM      4  C   UNL A   1      38.906  22.084  26.132  1.00  0.00     0.261 C 
BRANCH   4   5
ATOM      5  O   UNL A   1      38.162  21.746  24.937  1.00  0.00    -0.459 OA
BRANCH   5   6
ATOM      6  C   UNL A   1      37.419  20.610  24.999  1.00  0.00     0.364 C 
ATOM      7  O   UNL A   1      37.895  19.491  25.186  1.00  0.00    -0.245 OA
BRANCH   6   8
ATOM      8  C   UNL A   1      35.900  20.815  24.755  1.00  0.00     0.292 C 
ATOM      9  C   UNL A   1      34.935  19.615  24.773  1.00  0.00     0.088 C 
BRANCH   8  10
ATOM     10  N   UNL A   1      35.464  21.926  25.631  1.00  0.00    -0.321 N 
ATOM     11  C   UNL A   1      32.202  24.165  26.444  1.00  0.00     0.283 C 
ATOM     12  O   UNL A   1      31.498  24.074  27.459  1.00  0.00    -0.268 OA
ATOM     13  N   UNL A   1      33.534  23.818  26.542  1.00  0.00    -0.326 N 
ATOM     14  C   UNL A   1      33.883  22.703  27.412  1.00  0.00     0.181 C 
ATOM     15  C   UNL A   1      34.674  24.302  25.772  1.00  0.00     0.181 C 
ATOM     16  C   UNL A   1      34.340  21.545  26.515  1.00  0.00     0.284 C 
ATOM     17  C   UNL A   1      35.250  23.184  24.890  1.00  0.00     0.284 C 
ATOM     18  H   UNL A   1      36.243  22.125  26.260  1.00  0.00     0.348 HD
BRANCH  11  19
ATOM     19  C   UNL A   1      31.531  24.420  25.039  1.00  0.00     0.171 C 
ATOM     20  C   UNL A   1      32.051  25.737  24.438  1.00  0.00     0.090 C 
BRANCH  19  21
ATOM     21  C   UNL A   1      31.859  23.233  24.085  1.00  0.00     0.075 C 
ATOM     22  C   UNL A   1      31.434  21.846  24.575  1.00  0.00     0.011 C 
ENDBRANCH  19  21
BRANCH  19  23
ATOM     23  N   UNL A   1      30.052  24.493  25.139  1.00  0.00    -0.345 N 
ATOM     24  H   UNL A   1      29.751  25.460  25.021  1.00  0.00     0.345 HD
ATOM     25  H   UNL A   1      29.756  24.153  26.054  1.00  0.00     0.345 HD
ATOM     26  H   UNL A   1      29.633  23.915  24.410  1.00  0.00     0.345 HD
ENDBRANCH  19  23
ENDBRANCH  11  19
ENDBRANCH   8  10
ENDBRANCH   6   8
ENDBRANCH   5   6
ENDBRANCH   4   5
ENDBRANCH   3   4
ENDBRANCH   2   3
ENDBRANCH   1   2
BRANCH   1  27
ATOM     27  C   UNL A   1      43.211  19.625  25.404  1.00  0.00     0.188 C 
BRANCH  27  28
ATOM     28  O   UNL A   1      44.134  20.138  24.477  1.00  0.00    -0.376 OA
BRANCH  28  29
ATOM     29  C   UNL A   1      44.823  21.351  24.741  1.00  0.00     0.202 C 
BRANCH  29  30
ATOM     30  C   UNL A   1      44.530  22.630  23.930  1.00  0.00     0.261 C 
BRANCH  30  31
ATOM     31  O   UNL A   1      43.802  23.669  24.604  1.00  0.00    -0.460 OA
BRANCH  31  32
ATOM     32  C   UNL A   1      44.518  24.721  25.067  1.00  0.00     0.338 C 
ATOM     33  O   UNL A   1      45.601  25.107  24.655  1.00  0.00    -0.246 OA
BRANCH  32  34
ATOM     34  C   UNL A   1      43.627  25.515  25.953  1.00  0.00     0.060 A 
ATOM     35  C   UNL A   1      43.878  26.891  26.079  1.00  0.00     0.016 A 
ATOM     36  C   UNL A   1      42.521  24.946  26.587  1.00  0.00     0.016 A 
ATOM     37  C   UNL A   1      43.069  27.684  26.892  1.00  0.00     0.010 A 
ATOM     38  C   UNL A   1      41.723  25.736  27.424  1.00  0.00     0.010 A 
ATOM     39  C   UNL A   1      42.029  27.096  27.623  1.00  0.00    -0.014 A 
BRANCH  39  40
ATOM     40  C   UNL A   1      41.489  27.821  28.801  1.00  0.00     0.031 A 
ATOM     41  C   UNL A   1      42.247  27.693  30.099  1.00  0.00     0.074 A 
ATOM     42  C   UNL A   1      40.416  28.628  28.730  1.00  0.00     0.049 A 
ATOM     43  N   UNL A   1      42.007  28.230  31.268  1.00  0.00    -0.248 NA
ATOM     44  C   UNL A   1      43.445  26.838  30.066  1.00  0.00     0.031 C 
ATOM     45  C   UNL A   1      39.627  28.889  27.530  1.00  0.00     0.029 A 
ATOM     46  N   UNL A   1      39.812  29.385  29.705  1.00  0.00    -0.354 N 
ATOM     47  C   UNL A   1      43.020  27.776  32.103  1.00  0.00     0.074 A 
ATOM     48  C   UNL A   1      43.847  26.883  31.325  1.00  0.00     0.031 C 
ATOM     49  C   UNL A   1      38.639  29.749  27.839  1.00  0.00     0.029 A 
ATOM     50  C   UNL A   1      38.711  30.079  29.264  1.00  0.00     0.049 A 
ATOM     51  H   UNL A   1      40.137  29.427  30.633  1.00  0.00     0.167 HD
ATOM     52  C   UNL A   1      43.258  28.087  33.400  1.00  0.00     0.037 A 
ATOM     53  C   UNL A   1      37.860  30.876  29.939  1.00  0.00     0.037 A 
ATOM     54  C   UNL A   1      42.432  28.965  34.183  1.00  0.00     0.049 A 
ATOM     55  C   UNL A   1      38.088  31.134  31.411  1.00  0.00     0.074 A 
ATOM     56  C   UNL A   1      42.578  29.335  35.508  1.00  0.00     0.029 A 
ATOM     57  N   UNL A   1      41.296  29.607  33.711  1.00  0.00    -0.354 N 
ATOM     58  N   UNL A   1      39.054  30.713  32.190  1.00  0.00    -0.248 NA
ATOM     59  C   UNL A   1      37.104  31.990  32.091  1.00  0.00     0.031 C 
ATOM     60  C   UNL A   1      41.499  30.153  35.855  1.00  0.00     0.029 A 
ATOM     61  C   UNL A   1      40.721  30.355  34.727  1.00  0.00     0.049 A 
ATOM     62  H   UNL A   1      40.950  29.541  32.792  1.00  0.00     0.167 HD
ATOM     63  C   UNL A   1      38.824  31.291  33.435  1.00  0.00     0.074 A 
ATOM     64  C   UNL A   1      37.628  32.096  33.303  1.00  0.00     0.031 C 
ATOM     65  C   UNL A   1      39.542  31.172  34.580  1.00  0.00     0.037 A 
BRANCH  52  66
ATOM     66  C   UNL A   1      44.443  27.437  34.052  1.00  0.00     0.064 A 
ATOM     67  C   UNL A   1      45.698  28.067  34.105  1.00  0.00     0.173 A 
ATOM     68  C   UNL A   1      44.327  26.162  34.627  1.00  0.00     0.173 A 
ATOM     69  F   UNL A   1      45.870  29.277  33.551  1.00  0.00    -0.203 F 
ATOM     70  C   UNL A   1      46.798  27.429  34.672  1.00  0.00     0.198 A 
ATOM     71  C   UNL A   1      45.420  25.544  35.227  1.00  0.00     0.198 A 
ATOM     72  F   UNL A   1      43.153  25.516  34.606  1.00  0.00    -0.203 F 
ATOM     73  F   UNL A   1      48.000  28.020  34.647  1.00  0.00    -0.200 F 
ATOM     74  C   UNL A   1      46.657  26.171  35.237  1.00  0.00     0.200 A 
ATOM     75  F   UNL A   1      45.278  24.333  35.786  1.00  0.00    -0.200 F 
ATOM     76  F   UNL A   1      47.715  25.557  35.783  1.00  0.00    -0.200 F 
ENDBRANCH  52  66
BRANCH  53  77
ATOM     77  C   UNL A   1      36.710  31.510  29.237  1.00  0.00     0.064 A 
ATOM     78  C   UNL A   1      36.694  32.888  28.973  1.00  0.00     0.173 A 
ATOM     79  C   UNL A   1      35.589  30.762  28.851  1.00  0.00     0.173 A 
ATOM     80  F   UNL A   1      37.729  33.654  29.350  1.00  0.00    -0.203 F 
ATOM     81  C   UNL A   1      35.592  33.494  28.372  1.00  0.00     0.198 A 
ATOM     82  C   UNL A   1      34.501  31.363  28.222  1.00  0.00     0.198 A 
ATOM     83  F   UNL A   1      35.549  29.442  29.087  1.00  0.00    -0.203 F 
ATOM     84  F   UNL A   1      35.581  34.821  28.186  1.00  0.00    -0.200 F 
ATOM     85  C   UNL A   1      34.500  32.731  27.992  1.00  0.00     0.200 A 
ATOM     86  F   UNL A   1      33.450  30.621  27.848  1.00  0.00    -0.200 F 
ATOM     87  F   UNL A   1      33.440  33.315  27.415  1.00  0.00    -0.200 F 
ENDBRANCH  53  77
BRANCH  65  88
ATOM     88  C   UNL A   1      39.106  31.989  35.765  1.00  0.00     0.064 A 
ATOM     89  C   UNL A   1      39.506  33.321  35.947  1.00  0.00     0.173 A 
ATOM     90  C   UNL A   1      38.240  31.432  36.723  1.00  0.00     0.173 A 
ATOM     91  F   UNL A   1      40.338  33.902  35.068  1.00  0.00    -0.203 F 
ATOM     92  C   UNL A   1      39.093  34.049  37.061  1.00  0.00     0.198 A 
ATOM     93  C   UNL A   1      37.799  32.174  37.814  1.00  0.00     0.198 A 
ATOM     94  F   UNL A   1      37.813  30.167  36.594  1.00  0.00    -0.203 F 
ATOM     95  F   UNL A   1      39.541  35.299  37.245  1.00  0.00    -0.200 F 
ATOM     96  C   UNL A   1      38.236  33.478  37.990  1.00  0.00     0.200 A 
ATOM     97  F   UNL A   1      36.954  31.627  38.698  1.00  0.00    -0.200 F 
ATOM     98  F   UNL A   1      37.836  34.181  39.058  1.00  0.00    -0.200 F 
ENDBRANCH  65  88
ENDBRANCH  39  40
ENDBRANCH  32  34
ENDBRANCH  31  32
ENDBRANCH  30  31
ENDBRANCH  29  30
ENDBRANCH  28  29
ENDBRANCH  27  28
ENDBRANCH   1  27
TORSDOF 21
ENDMDL
MODEL 3
REMARK VINA RESULT:     -10.6      0.871      2.134
REMARK SMILES CC[C@@](C)([NH3+])C(=O)N1CC[NH+]([C@H](C)C(=O)OCCOCCOCCOC(=O)c2ccc(-c3c4nc(c(-c5c(F)c(F)c(F)c(F)c5F)c5ccc([nH]5)c(-c5c(F)c(F)c(F)c(F)c5F)c5nc(c(-c6c(F)c(F)c(F)c(F)c6F)c6ccc3[nH]6)C=C5)C=C4)cc2)CC1
REMARK SMILES IDX 20 1 19 2 18 3 17 4 16 5 14 6 15 7 12 8 13 9 11 10 6 11 7 12
REMARK SMILES IDX 8 13 9 14 92 15 10 16 91 17 3 19 4 20 2 21 1 22 5 23 21 27
REMARK SMILES IDX 22 28 23 29 24 30 25 31 26 32 27 33 28 34 29 35 90 36 30 37
REMARK SMILES IDX 89 38 31 39 32 40 33 41 83 42 34 43 88 44 82 45 84 46 35 47
REMARK SMILES IDX 87 48 81 49 80 50 36 52 68 53 48 54 67 55 49 56 52 57 66 58
REMARK SMILES IDX 85 59 50 60 51 61 65 63 86 64 53 65 37 66 38 67 46 68 39 69
REMARK SMILES IDX 40 70 44 71 47 72 41 73 42 74 45 75 43 76 69 77 70 78 78 79
REMARK SMILES IDX 71 80 72 81 76 82 79 83 73 84 74 85 77 86 75 87 54 88 55 89
REMARK SMILES IDX 63 90 56 91 57 92 61 93 64 94 58 95 59 96 62 97 60 98
REMARK H PARENT 11 18 5 24 5 25 5 26 84 51 52 62
REMARK Flexibility Score: inf
ROOT
ATOM      1  C   UNL A   1      33.136  29.011  27.264  1.00  0.00     0.188 C 
ENDROOT
BRANCH   1   2
ATOM      2  O   UNL A   1      33.947  28.354  26.311  1.00  0.00    -0.376 OA
BRANCH   2   3
ATOM      3  C   UNL A   1      33.471  27.157  25.701  1.00  0.00     0.202 C 
BRANCH   3   4
ATOM      4  C   UNL A   1      32.947  27.173  24.249  1.00  0.00     0.261 C 
BRANCH   4   5
ATOM      5  O   UNL A   1      31.636  26.596  24.030  1.00  0.00    -0.459 OA
BRANCH   5   6
ATOM      6  C   UNL A   1      31.118  25.885  25.066  1.00  0.00     0.364 C 
ATOM      7  O   UNL A   1      30.773  26.388  26.135  1.00  0.00    -0.245 OA
BRANCH   6   8
ATOM      8  C   UNL A   1      31.040  24.355  24.827  1.00  0.00     0.292 C 
ATOM      9  C   UNL A   1      30.750  23.795  23.422  1.00  0.00     0.088 C 
BRANCH   8  10
ATOM     10  N   UNL A   1      32.237  23.753  25.457  1.00  0.00    -0.321 N 
ATOM     11  C   UNL A   1      34.534  20.436  25.264  1.00  0.00     0.283 C 
ATOM     12  O   UNL A   1      35.672  20.372  24.779  1.00  0.00    -0.268 OA
ATOM     13  N   UNL A   1      34.121  21.639  25.800  1.00  0.00    -0.326 N 
ATOM     14  C   UNL A   1      34.558  22.862  25.139  1.00  0.00     0.181 C 
ATOM     15  C   UNL A   1      33.159  21.893  26.866  1.00  0.00     0.181 C 
ATOM     16  C   UNL A   1      33.323  23.496  24.485  1.00  0.00     0.284 C 
ATOM     17  C   UNL A   1      31.910  22.598  26.315  1.00  0.00     0.284 C 
ATOM     18  H   UNL A   1      32.614  24.453  26.097  1.00  0.00     0.348 HD
BRANCH  11  19
ATOM     19  C   UNL A   1      33.514  19.255  25.038  1.00  0.00     0.171 C 
ATOM     20  C   UNL A   1      32.331  19.737  24.180  1.00  0.00     0.090 C 
BRANCH  19  21
ATOM     21  C   UNL A   1      34.238  18.071  24.330  1.00  0.00     0.075 C 
ATOM     22  C   UNL A   1      34.153  16.717  25.038  1.00  0.00     0.011 C 
ENDBRANCH  19  21
BRANCH  19  23
ATOM     23  N   UNL A   1      32.987  18.728  26.321  1.00  0.00    -0.345 N 
ATOM     24  H   UNL A   1      32.659  19.502  26.898  1.00  0.00     0.345 HD
ATOM     25  H   UNL A   1      33.728  18.227  26.813  1.00  0.00     0.345 HD
ATOM     26  H   UNL A   1      32.213  18.090  26.135  1.00  0.00     0.345 HD
ENDBRANCH  19  23
ENDBRANCH  11  19
ENDBRANCH   8  10
ENDBRANCH   6   8
ENDBRANCH   5   6
ENDBRANCH   4   5
ENDBRANCH   3   4
ENDBRANCH   2   3
ENDBRANCH   1   2
BRANCH   1  27
ATOM     27  C   UNL A   1      31.759  29.513  26.834  1.00  0.00     0.188 C 
BRANCH  27  28
ATOM     28  O   UNL A   1      31.655  30.890  26.570  1.00  0.00    -0.376 OA
BRANCH  28  29
ATOM     29  C   UNL A   1      32.668  31.787  27.005  1.00  0.00     0.202 C 
BRANCH  29  30
ATOM     30  C   UNL A   1      32.335  33.244  27.385  1.00  0.00     0.261 C 
BRANCH  30  31
ATOM     31  O   UNL A   1      33.448  34.103  27.684  1.00  0.00    -0.460 OA
BRANCH  31  32
ATOM     32  C   UNL A   1      33.817  34.202  28.982  1.00  0.00     0.338 C 
ATOM     33  O   UNL A   1      33.159  34.676  29.895  1.00  0.00    -0.246 OA
BRANCH  32  34
ATOM     34  C   UNL A   1      35.027  33.361  29.171  1.00  0.00     0.060 A 
ATOM     35  C   UNL A   1      34.851  32.040  29.616  1.00  0.00     0.016 A 
ATOM     36  C   UNL A   1      36.305  33.823  28.844  1.00  0.00     0.016 A 
ATOM     37  C   UNL A   1      35.952  31.206  29.803  1.00  0.00     0.010 A 
ATOM     38  C   UNL A   1      37.413  32.993  29.056  1.00  0.00     0.010 A 
ATOM     39  C   UNL A   1      37.244  31.702  29.590  1.00  0.00    -0.014 A 
BRANCH  39  40
ATOM     40  C   UNL A   1      38.390  30.993  30.216  1.00  0.00     0.031 A 
ATOM     41  C   UNL A   1      38.675  31.287  31.667  1.00  0.00     0.074 A 
ATOM     42  C   UNL A   1      39.115  30.067  29.566  1.00  0.00     0.049 A 
ATOM     43  N   UNL A   1      39.597  30.799  32.458  1.00  0.00    -0.248 NA
ATOM     44  C   UNL A   1      37.789  32.270  32.314  1.00  0.00     0.031 C 
ATOM     45  C   UNL A   1      38.912  29.644  28.184  1.00  0.00     0.029 A 
ATOM     46  N   UNL A   1      40.175  29.307  30.001  1.00  0.00    -0.354 N 
ATOM     47  C   UNL A   1      39.402  31.417  33.687  1.00  0.00     0.074 A 
ATOM     48  C   UNL A   1      38.309  32.349  33.527  1.00  0.00     0.031 C 
ATOM     49  C   UNL A   1      39.820  28.697  27.882  1.00  0.00     0.029 A 
ATOM     50  C   UNL A   1      40.683  28.466  29.041  1.00  0.00     0.049 A 
ATOM     51  H   UNL A   1      40.535  29.360  30.915  1.00  0.00     0.167 HD
ATOM     52  C   UNL A   1      40.058  31.215  34.854  1.00  0.00     0.037 A 
ATOM     53  C   UNL A   1      41.731  27.620  29.096  1.00  0.00     0.037 A 
ATOM     54  C   UNL A   1      41.153  30.298  35.016  1.00  0.00     0.049 A 
ATOM     55  C   UNL A   1      42.512  27.481  30.382  1.00  0.00     0.074 A 
ATOM     56  C   UNL A   1      41.894  30.030  36.153  1.00  0.00     0.029 A 
ATOM     57  N   UNL A   1      41.671  29.503  34.004  1.00  0.00    -0.354 N 
ATOM     58  N   UNL A   1      42.313  28.057  31.543  1.00  0.00    -0.248 NA
ATOM     59  C   UNL A   1      43.659  26.561  30.362  1.00  0.00     0.031 C 
ATOM     60  C   UNL A   1      42.898  29.117  35.816  1.00  0.00     0.029 A 
ATOM     61  C   UNL A   1      42.735  28.759  34.487  1.00  0.00     0.049 A 
ATOM     62  H   UNL A   1      41.333  29.473  33.080  1.00  0.00     0.167 HD
ATOM     63  C   UNL A   1      43.276  27.534  32.401  1.00  0.00     0.074 A 
ATOM     64  C   UNL A   1      44.054  26.591  31.626  1.00  0.00     0.031 C 
ATOM     65  C   UNL A   1      43.490  27.805  33.713  1.00  0.00     0.037 A 
BRANCH  52  66
ATOM     66  C   UNL A   1      39.621  32.035  36.034  1.00  0.00     0.064 A 
ATOM     67  C   UNL A   1      38.541  31.650  36.845  1.00  0.00     0.173 A 
ATOM     68  C   UNL A   1      40.287  33.228  36.354  1.00  0.00     0.173 A 
ATOM     69  F   UNL A   1      37.856  30.529  36.570  1.00  0.00    -0.203 F 
ATOM     70  C   UNL A   1      38.121  32.448  37.906  1.00  0.00     0.198 A 
ATOM     71  C   UNL A   1      39.887  34.003  37.439  1.00  0.00     0.198 A 
ATOM     72  F   UNL A   1      41.324  33.643  35.614  1.00  0.00    -0.203 F 
ATOM     73  F   UNL A   1      37.044  32.095  38.622  1.00  0.00    -0.200 F 
ATOM     74  C   UNL A   1      38.797  33.620  38.205  1.00  0.00     0.200 A 
ATOM     75  F   UNL A   1      40.551  35.130  37.735  1.00  0.00    -0.200 F 
ATOM     76  F   UNL A   1      38.392  34.388  39.226  1.00  0.00    -0.200 F 
ENDBRANCH  52  66
BRANCH  53  77
ATOM     77  C   UNL A   1      42.108  26.817  27.900  1.00  0.00     0.064 A 
ATOM     78  C   UNL A   1      41.566  25.541  27.685  1.00  0.00     0.173 A 
ATOM     79  C   UNL A   1      43.046  27.289  26.971  1.00  0.00     0.173 A 
ATOM     80  F   UNL A   1      40.687  25.031  28.561  1.00  0.00    -0.203 F 
ATOM     81  C   UNL A   1      41.964  24.761  26.600  1.00  0.00     0.198 A 
ATOM     82  C   UNL A   1      43.420  26.521  25.869  1.00  0.00     0.198 A 
ATOM     83  F   UNL A   1      43.602  28.498  27.134  1.00  0.00    -0.203 F 
ATOM     84  F   UNL A   1      41.472  23.523  26.453  1.00  0.00    -0.200 F 
ATOM     85  C   UNL A   1      42.886  25.254  25.691  1.00  0.00     0.200 A 
ATOM     86  F   UNL A   1      44.306  27.005  24.988  1.00  0.00    -0.200 F 
ATOM     87  F   UNL A   1      43.269  24.504  24.649  1.00  0.00    -0.200 F 
ENDBRANCH  53  77
BRANCH  65  88
ATOM     88  C   UNL A   1      44.558  27.018  34.423  1.00  0.00     0.064 A 
ATOM     89  C   UNL A   1      44.303  25.774  35.018  1.00  0.00     0.173 A 
ATOM     90  C   UNL A   1      45.874  27.510  34.477  1.00  0.00     0.173 A 
ATOM     91  F   UNL A   1      43.064  25.260  35.003  1.00  0.00    -0.203 F 
ATOM     92  C   UNL A   1      45.312  25.074  35.677  1.00  0.00     0.198 A 
ATOM     93  C   UNL A   1      46.887  26.789  35.103  1.00  0.00     0.198 A 
ATOM     94  F   UNL A   1      46.180  28.688  33.913  1.00  0.00    -0.203 F 
ATOM     95  F   UNL A   1      45.028  23.918  36.294  1.00  0.00    -0.200 F 
ATOM     96  C   UNL A   1      46.603  25.578  35.714  1.00  0.00     0.200 A 
ATOM     97  F   UNL A   1      48.138  27.269  35.118  1.00  0.00    -0.200 F 
ATOM     98  F   UNL A   1      47.572  24.900  36.343  1.00  0.00    -0.200 F 
ENDBRANCH  65  88
ENDBRANCH  39  40
ENDBRANCH  32  34
ENDBRANCH  31  32
ENDBRANCH  30  31
ENDBRANCH  29  30
ENDBRANCH  28  29
ENDBRANCH  27  28
ENDBRANCH   1  27
TORSDOF 21
ENDMDL
