MODEL 1
REMARK VINA RESULT:     -10.6      0.000      0.000
REMARK SMILES O=C(OCCOCCOCCOC(=O)[C@H]([C@@H]1CCOC1)[C@@H]1CCS(=O)(=O)C1)c1ccc(-c2c3nc(c(-c4c(F)c(F)c(F)c(F)c4F)c4ccc([nH]4)c(-c4c(F)c(F)c(F)c(F)c4F)c4nc(c(-c5c(F)c(F)c(F)c(F)c5F)c5ccc2[nH]5)C=C4)C=C3)cc1
REMARK SMILES IDX 7 1 6 2 5 3 4 4 3 5 2 6 1 7 28 8 29 9 90 10 30 11 89 12
REMARK SMILES IDX 31 13 32 14 33 15 83 16 34 17 88 18 82 19 84 20 35 21 87 22
REMARK SMILES IDX 81 23 80 24 36 26 68 27 48 28 67 29 49 30 52 31 66 32 85 33
REMARK SMILES IDX 50 34 51 35 65 37 86 38 53 39 37 40 38 41 46 42 39 43 40 44
REMARK SMILES IDX 44 45 47 46 41 47 42 48 45 49 43 50 69 51 70 52 78 53 71 54
REMARK SMILES IDX 72 55 76 56 79 57 73 58 74 59 77 60 75 61 54 62 55 63 63 64
REMARK SMILES IDX 56 65 57 66 61 67 64 68 58 69 59 70 62 71 60 72 8 73 9 74
REMARK SMILES IDX 10 75 11 76 12 77 13 78 14 79 15 80 21 81 22 82 27 83 23 84
REMARK SMILES IDX 24 85 25 86 26 87 16 88 17 89 20 90 18 91 19 92
REMARK H PARENT 84 25 52 36
REMARK Flexibility Score: inf
ROOT
ATOM      1  C   UNL A   1      40.923  20.958  26.989  1.00  0.00     0.188 C 
ENDROOT
BRANCH   1   2
ATOM      2  O   UNL A   1      42.137  20.432  26.487  1.00  0.00    -0.376 OA
BRANCH   2   3
ATOM      3  C   UNL A   1      42.124  19.130  25.927  1.00  0.00     0.202 C 
BRANCH   3   4
ATOM      4  C   UNL A   1      43.461  18.368  25.797  1.00  0.00     0.261 C 
BRANCH   4   5
ATOM      5  O   UNL A   1      44.146  18.551  24.550  1.00  0.00    -0.460 OA
BRANCH   5   6
ATOM      6  C   UNL A   1      45.070  19.488  24.228  1.00  0.00     0.338 C 
ATOM      7  O   UNL A   1      46.087  19.118  23.642  1.00  0.00    -0.246 OA
BRANCH   6   8
ATOM      8  C   UNL A   1      45.006  20.920  24.680  1.00  0.00     0.060 A 
ATOM      9  C   UNL A   1      44.520  21.997  23.933  1.00  0.00     0.016 A 
ATOM     10  C   UNL A   1      45.322  21.165  26.029  1.00  0.00     0.016 A 
ATOM     11  C   UNL A   1      44.367  23.270  24.488  1.00  0.00     0.010 A 
ATOM     12  C   UNL A   1      45.107  22.420  26.610  1.00  0.00     0.010 A 
ATOM     13  C   UNL A   1      44.668  23.495  25.826  1.00  0.00    -0.014 A 
BRANCH  13  14
ATOM     14  C   UNL A   1      44.791  24.887  26.316  1.00  0.00     0.031 A 
ATOM     15  C   UNL A   1      46.161  25.502  26.234  1.00  0.00     0.074 A 
ATOM     16  C   UNL A   1      43.730  25.612  26.722  1.00  0.00     0.049 A 
ATOM     17  N   UNL A   1      46.566  26.692  26.586  1.00  0.00    -0.248 NA
ATOM     18  C   UNL A   1      47.221  24.658  25.650  1.00  0.00     0.031 C 
ATOM     19  C   UNL A   1      42.338  25.165  26.722  1.00  0.00     0.029 A 
ATOM     20  N   UNL A   1      43.657  26.890  27.217  1.00  0.00    -0.354 N 
ATOM     21  C   UNL A   1      47.914  26.730  26.260  1.00  0.00     0.074 A 
ATOM     22  C   UNL A   1      48.286  25.426  25.774  1.00  0.00     0.031 C 
ATOM     23  C   UNL A   1      41.557  26.124  27.250  1.00  0.00     0.029 A 
ATOM     24  C   UNL A   1      42.391  27.266  27.602  1.00  0.00     0.049 A 
ATOM     25  H   UNL A   1      44.439  27.483  27.292  1.00  0.00     0.167 HD
ATOM     26  C   UNL A   1      48.762  27.781  26.309  1.00  0.00     0.037 A 
ATOM     27  C   UNL A   1      41.962  28.412  28.165  1.00  0.00     0.037 A 
ATOM     28  C   UNL A   1      48.379  29.075  26.789  1.00  0.00     0.049 A 
ATOM     29  C   UNL A   1      42.959  29.528  28.347  1.00  0.00     0.074 A 
ATOM     30  C   UNL A   1      49.151  30.211  26.919  1.00  0.00     0.029 A 
ATOM     31  N   UNL A   1      47.101  29.395  27.227  1.00  0.00    -0.354 N 
ATOM     32  N   UNL A   1      44.229  29.562  28.019  1.00  0.00    -0.248 NA
ATOM     33  C   UNL A   1      42.461  30.773  28.943  1.00  0.00     0.031 C 
ATOM     34  C   UNL A   1      48.354  31.205  27.495  1.00  0.00     0.029 A 
ATOM     35  C   UNL A   1      47.068  30.708  27.656  1.00  0.00     0.049 A 
ATOM     36  H   UNL A   1      46.333  28.778  27.231  1.00  0.00     0.167 HD
ATOM     37  C   UNL A   1      44.669  30.843  28.320  1.00  0.00     0.074 A 
ATOM     38  C   UNL A   1      43.526  31.557  28.853  1.00  0.00     0.031 C 
ATOM     39  C   UNL A   1      45.902  31.387  28.165  1.00  0.00     0.037 A 
BRANCH  26  40
ATOM     40  C   UNL A   1      50.171  27.533  25.858  1.00  0.00     0.064 A 
ATOM     41  C   UNL A   1      50.523  27.538  24.497  1.00  0.00     0.173 A 
ATOM     42  C   UNL A   1      51.166  27.217  26.792  1.00  0.00     0.173 A 
ATOM     43  F   UNL A   1      49.598  27.797  23.560  1.00  0.00    -0.203 F 
ATOM     44  C   UNL A   1      51.807  27.187  24.089  1.00  0.00     0.198 A 
ATOM     45  C   UNL A   1      52.459  26.903  26.382  1.00  0.00     0.198 A 
ATOM     46  F   UNL A   1      50.879  27.187  28.102  1.00  0.00    -0.203 F 
ATOM     47  F   UNL A   1      52.096  27.114  22.782  1.00  0.00    -0.200 F 
ATOM     48  C   UNL A   1      52.775  26.875  25.032  1.00  0.00     0.200 A 
ATOM     49  F   UNL A   1      53.394  26.605  27.294  1.00  0.00    -0.200 F 
ATOM     50  F   UNL A   1      54.007  26.527  24.638  1.00  0.00    -0.200 F 
ENDBRANCH  26  40
BRANCH  27  51
ATOM     51  C   UNL A   1      40.535  28.583  28.563  1.00  0.00     0.064 A 
ATOM     52  C   UNL A   1      39.583  29.088  27.665  1.00  0.00     0.173 A 
ATOM     53  C   UNL A   1      40.101  28.285  29.864  1.00  0.00     0.173 A 
ATOM     54  F   UNL A   1      39.944  29.400  26.412  1.00  0.00    -0.203 F 
ATOM     55  C   UNL A   1      38.265  29.322  28.062  1.00  0.00     0.198 A 
ATOM     56  C   UNL A   1      38.777  28.495  30.252  1.00  0.00     0.198 A 
ATOM     57  F   UNL A   1      40.963  27.790  30.764  1.00  0.00    -0.203 F 
ATOM     58  F   UNL A   1      37.393  29.857  27.197  1.00  0.00    -0.200 F 
ATOM     59  C   UNL A   1      37.864  29.024  29.354  1.00  0.00     0.200 A 
ATOM     60  F   UNL A   1      38.391  28.190  31.499  1.00  0.00    -0.200 F 
ATOM     61  F   UNL A   1      36.600  29.255  29.737  1.00  0.00    -0.200 F 
ENDBRANCH  27  51
BRANCH  39  62
ATOM     62  C   UNL A   1      46.066  32.832  28.528  1.00  0.00     0.064 A 
ATOM     63  C   UNL A   1      45.820  33.858  27.605  1.00  0.00     0.173 A 
ATOM     64  C   UNL A   1      46.406  33.192  29.842  1.00  0.00     0.173 A 
ATOM     65  F   UNL A   1      45.506  33.563  26.334  1.00  0.00    -0.203 F 
ATOM     66  C   UNL A   1      45.931  35.194  27.978  1.00  0.00     0.198 A 
ATOM     67  C   UNL A   1      46.476  34.528  30.221  1.00  0.00     0.198 A 
ATOM     68  F   UNL A   1      46.641  32.247  30.764  1.00  0.00    -0.203 F 
ATOM     69  F   UNL A   1      45.740  36.157  27.069  1.00  0.00    -0.200 F 
ATOM     70  C   UNL A   1      46.247  35.527  29.287  1.00  0.00     0.200 A 
ATOM     71  F   UNL A   1      46.758  34.847  31.492  1.00  0.00    -0.200 F 
ATOM     72  F   UNL A   1      46.334  36.814  29.649  1.00  0.00    -0.200 F 
ENDBRANCH  39  62
ENDBRANCH  13  14
ENDBRANCH   6   8
ENDBRANCH   5   6
ENDBRANCH   4   5
ENDBRANCH   3   4
ENDBRANCH   2   3
ENDBRANCH   1   2
BRANCH   1  73
ATOM     73  C   UNL A   1      39.980  21.816  26.133  1.00  0.00     0.188 C 
BRANCH  73  74
ATOM     74  O   UNL A   1      38.579  21.783  26.296  1.00  0.00    -0.376 OA
BRANCH  74  75
ATOM     75  C   UNL A   1      37.767  22.077  25.177  1.00  0.00     0.202 C 
BRANCH  75  76
ATOM     76  C   UNL A   1      36.834  20.976  24.643  1.00  0.00     0.261 C 
BRANCH  76  77
ATOM     77  O   UNL A   1      35.441  21.337  24.445  1.00  0.00    -0.463 OA
BRANCH  77  78
ATOM     78  C   UNL A   1      34.572  20.868  25.378  1.00  0.00     0.309 C 
ATOM     79  O   UNL A   1      34.673  21.139  26.573  1.00  0.00    -0.252 OA
BRANCH  78  80
ATOM     80  C   UNL A   1      33.486  19.863  24.872  1.00  0.00     0.109 C 
BRANCH  80  81
ATOM     81  C   UNL A   1      32.227  20.698  24.416  1.00  0.00     0.019 C 
ATOM     82  C   UNL A   1      32.215  21.053  22.908  1.00  0.00     0.021 C 
ATOM     83  C   UNL A   1      31.743  21.937  25.171  1.00  0.00     0.141 C 
ATOM     84  C   UNL A   1      32.602  22.510  22.711  1.00  0.00     0.137 C 
ATOM     85  S   UNL A   1      32.016  23.371  24.145  1.00  0.00     0.150 S 
ATOM     86  O   UNL A   1      33.111  24.153  24.682  1.00  0.00    -0.229 OA
ATOM     87  O   UNL A   1      30.736  23.965  23.846  1.00  0.00    -0.229 OA
ENDBRANCH  80  81
BRANCH  80  88
ATOM     88  C   UNL A   1      33.951  18.616  24.065  1.00  0.00     0.032 C 
ATOM     89  C   UNL A   1      32.979  17.529  23.647  1.00  0.00     0.035 C 
ATOM     90  C   UNL A   1      35.071  17.829  24.745  1.00  0.00     0.164 C 
ATOM     91  C   UNL A   1      33.462  16.233  24.246  1.00  0.00     0.160 C 
ATOM     92  O   UNL A   1      34.824  16.435  24.599  1.00  0.00    -0.381 OA
ENDBRANCH  80  88
ENDBRANCH  78  80
ENDBRANCH  77  78
ENDBRANCH  76  77
ENDBRANCH  75  76
ENDBRANCH  74  75
ENDBRANCH  73  74
ENDBRANCH   1  73
TORSDOF 19
ENDMDL
MODEL 2
REMARK VINA RESULT:     -10.5      2.100      3.174
REMARK SMILES O=C(OCCOCCOCCOC(=O)[C@H]([C@@H]1CCOC1)[C@@H]1CCS(=O)(=O)C1)c1ccc(-c2c3nc(c(-c4c(F)c(F)c(F)c(F)c4F)c4ccc([nH]4)c(-c4c(F)c(F)c(F)c(F)c4F)c4nc(c(-c5c(F)c(F)c(F)c(F)c5F)c5ccc2[nH]5)C=C4)C=C3)cc1
REMARK SMILES IDX 7 1 6 2 5 3 4 4 3 5 2 6 1 7 28 8 29 9 90 10 30 11 89 12
REMARK SMILES IDX 31 13 32 14 33 15 83 16 34 17 88 18 82 19 84 20 35 21 87 22
REMARK SMILES IDX 81 23 80 24 36 26 68 27 48 28 67 29 49 30 52 31 66 32 85 33
REMARK SMILES IDX 50 34 51 35 65 37 86 38 53 39 37 40 38 41 46 42 39 43 40 44
REMARK SMILES IDX 44 45 47 46 41 47 42 48 45 49 43 50 69 51 70 52 78 53 71 54
REMARK SMILES IDX 72 55 76 56 79 57 73 58 74 59 77 60 75 61 54 62 55 63 63 64
REMARK SMILES IDX 56 65 57 66 61 67 64 68 58 69 59 70 62 71 60 72 8 73 9 74
REMARK SMILES IDX 10 75 11 76 12 77 13 78 14 79 15 80 21 81 22 82 27 83 23 84
REMARK SMILES IDX 24 85 25 86 26 87 16 88 17 89 20 90 18 91 19 92
REMARK H PARENT 84 25 52 36
REMARK Flexibility Score: inf
ROOT
ATOM      1  C   UNL A   1      37.390  21.515  24.819  1.00  0.00     0.188 C 
ENDROOT
BRANCH   1   2
ATOM      2  O   UNL A   1      37.186  20.127  24.631  1.00  0.00    -0.376 OA
BRANCH   2   3
ATOM      3  C   UNL A   1      38.209  19.237  25.044  1.00  0.00     0.202 C 
BRANCH   3   4
ATOM      4  C   UNL A   1      39.407  19.805  25.836  1.00  0.00     0.261 C 
BRANCH   4   5
ATOM      5  O   UNL A   1      40.616  19.038  25.742  1.00  0.00    -0.460 OA
BRANCH   5   6
ATOM      6  C   UNL A   1      41.875  19.411  26.074  1.00  0.00     0.338 C 
ATOM      7  O   UNL A   1      42.738  18.536  26.139  1.00  0.00    -0.246 OA
BRANCH   6   8
ATOM      8  C   UNL A   1      42.250  20.796  26.521  1.00  0.00     0.060 A 
ATOM      9  C   UNL A   1      42.499  21.197  27.837  1.00  0.00     0.016 A 
ATOM     10  C   UNL A   1      42.523  21.728  25.503  1.00  0.00     0.016 A 
ATOM     11  C   UNL A   1      42.981  22.472  28.141  1.00  0.00     0.010 A 
ATOM     12  C   UNL A   1      43.070  22.983  25.794  1.00  0.00     0.010 A 
ATOM     13  C   UNL A   1      43.262  23.378  27.125  1.00  0.00    -0.014 A 
BRANCH  13  14
ATOM     14  C   UNL A   1      43.478  24.803  27.467  1.00  0.00     0.031 A 
ATOM     15  C   UNL A   1      44.851  25.351  27.193  1.00  0.00     0.074 A 
ATOM     16  C   UNL A   1      42.487  25.605  27.903  1.00  0.00     0.049 A 
ATOM     17  N   UNL A   1      45.328  26.551  27.390  1.00  0.00    -0.248 NA
ATOM     18  C   UNL A   1      45.820  24.414  26.593  1.00  0.00     0.031 C 
ATOM     19  C   UNL A   1      41.088  25.217  28.081  1.00  0.00     0.029 A 
ATOM     20  N   UNL A   1      42.505  26.925  28.279  1.00  0.00    -0.354 N 
ATOM     21  C   UNL A   1      46.637  26.503  26.932  1.00  0.00     0.074 A 
ATOM     22  C   UNL A   1      46.916  25.146  26.538  1.00  0.00     0.031 C 
ATOM     23  C   UNL A   1      40.395  26.252  28.588  1.00  0.00     0.029 A 
ATOM     24  C   UNL A   1      41.296  27.386  28.747  1.00  0.00     0.049 A 
ATOM     25  H   UNL A   1      43.309  27.490  28.220  1.00  0.00     0.167 HD
ATOM     26  C   UNL A   1      47.518  27.518  26.798  1.00  0.00     0.037 A 
ATOM     27  C   UNL A   1      40.963  28.596  29.238  1.00  0.00     0.037 A 
ATOM     28  C   UNL A   1      47.228  28.866  27.188  1.00  0.00     0.049 A 
ATOM     29  C   UNL A   1      42.008  29.682  29.216  1.00  0.00     0.074 A 
ATOM     30  C   UNL A   1      48.044  29.976  27.134  1.00  0.00     0.029 A 
ATOM     31  N   UNL A   1      46.010  29.276  27.716  1.00  0.00    -0.354 N 
ATOM     32  N   UNL A   1      43.240  29.633  28.763  1.00  0.00    -0.248 NA
ATOM     33  C   UNL A   1      41.613  30.996  29.736  1.00  0.00     0.031 C 
ATOM     34  C   UNL A   1      47.341  31.050  27.688  1.00  0.00     0.029 A 
ATOM     35  C   UNL A   1      46.063  30.624  28.019  1.00  0.00     0.049 A 
ATOM     36  H   UNL A   1      45.227  28.695  27.853  1.00  0.00     0.167 HD
ATOM     37  C   UNL A   1      43.749  30.917  28.898  1.00  0.00     0.074 A 
ATOM     38  C   UNL A   1      42.688  31.723  29.468  1.00  0.00     0.031 C 
ATOM     39  C   UNL A   1      44.976  31.394  28.573  1.00  0.00     0.037 A 
BRANCH  26  40
ATOM     40  C   UNL A   1      48.866  27.172  26.238  1.00  0.00     0.064 A 
ATOM     41  C   UNL A   1      49.139  27.260  24.862  1.00  0.00     0.173 A 
ATOM     42  C   UNL A   1      49.874  26.679  27.077  1.00  0.00     0.173 A 
ATOM     43  F   UNL A   1      48.195  27.691  24.011  1.00  0.00    -0.203 F 
ATOM     44  C   UNL A   1      50.355  26.821  24.345  1.00  0.00     0.198 A 
ATOM     45  C   UNL A   1      51.102  26.276  26.560  1.00  0.00     0.198 A 
ATOM     46  F   UNL A   1      49.660  26.564  28.396  1.00  0.00    -0.203 F 
ATOM     47  F   UNL A   1      50.561  26.834  23.020  1.00  0.00    -0.200 F 
ATOM     48  C   UNL A   1      51.337  26.335  25.194  1.00  0.00     0.200 A 
ATOM     49  F   UNL A   1      52.051  25.808  27.382  1.00  0.00    -0.200 F 
ATOM     50  F   UNL A   1      52.502  25.902  24.694  1.00  0.00    -0.200 F 
ENDBRANCH  26  40
BRANCH  27  51
ATOM     51  C   UNL A   1      39.590  28.861  29.755  1.00  0.00     0.064 A 
ATOM     52  C   UNL A   1      38.612  29.466  28.951  1.00  0.00     0.173 A 
ATOM     53  C   UNL A   1      39.238  28.554  31.079  1.00  0.00     0.173 A 
ATOM     54  F   UNL A   1      38.897  29.790  27.682  1.00  0.00    -0.203 F 
ATOM     55  C   UNL A   1      37.352  29.785  29.459  1.00  0.00     0.198 A 
ATOM     56  C   UNL A   1      37.969  28.851  31.578  1.00  0.00     0.198 A 
ATOM     57  F   UNL A   1      40.127  27.967  31.892  1.00  0.00    -0.203 F 
ATOM     58  F   UNL A   1      36.459  30.413  28.682  1.00  0.00    -0.200 F 
ATOM     59  C   UNL A   1      37.032  29.477  30.772  1.00  0.00     0.200 A 
ATOM     60  F   UNL A   1      37.660  28.536  32.844  1.00  0.00    -0.200 F 
ATOM     61  F   UNL A   1      35.824  29.791  31.262  1.00  0.00    -0.200 F 
ENDBRANCH  27  51
BRANCH  39  62
ATOM     62  C   UNL A   1      45.222  32.858  28.778  1.00  0.00     0.064 A 
ATOM     63  C   UNL A   1      44.874  33.809  27.809  1.00  0.00     0.173 A 
ATOM     64  C   UNL A   1      45.748  33.317  29.996  1.00  0.00     0.173 A 
ATOM     65  F   UNL A   1      44.381  33.417  26.624  1.00  0.00    -0.203 F 
ATOM     66  C   UNL A   1      45.067  35.167  28.042  1.00  0.00     0.198 A 
ATOM     67  C   UNL A   1      45.901  34.677  30.241  1.00  0.00     0.198 A 
ATOM     68  F   UNL A   1      46.087  32.447  30.959  1.00  0.00    -0.203 F 
ATOM     69  F   UNL A   1      44.774  36.055  27.084  1.00  0.00    -0.200 F 
ATOM     70  C   UNL A   1      45.567  35.600  29.261  1.00  0.00     0.200 A 
ATOM     71  F   UNL A   1      46.362  35.094  31.428  1.00  0.00    -0.200 F 
ATOM     72  F   UNL A   1      45.734  36.910  29.491  1.00  0.00    -0.200 F 
ENDBRANCH  39  62
ENDBRANCH  13  14
ENDBRANCH   6   8
ENDBRANCH   5   6
ENDBRANCH   4   5
ENDBRANCH   3   4
ENDBRANCH   2   3
ENDBRANCH   1   2
BRANCH   1  73
ATOM     73  C   UNL A   1      36.613  22.578  24.026  1.00  0.00     0.188 C 
BRANCH  73  74
ATOM     74  O   UNL A   1      36.059  23.719  24.643  1.00  0.00    -0.376 OA
BRANCH  74  75
ATOM     75  C   UNL A   1      35.597  23.604  25.973  1.00  0.00     0.202 C 
BRANCH  75  76
ATOM     76  C   UNL A   1      34.080  23.498  26.211  1.00  0.00     0.261 C 
BRANCH  76  77
ATOM     77  O   UNL A   1      33.282  24.667  25.881  1.00  0.00    -0.463 OA
BRANCH  77  78
ATOM     78  C   UNL A   1      31.945  24.544  26.085  1.00  0.00     0.309 C 
ATOM     79  O   UNL A   1      31.471  24.142  27.146  1.00  0.00    -0.252 OA
BRANCH  78  80
ATOM     80  C   UNL A   1      31.025  24.837  24.855  1.00  0.00     0.109 C 
BRANCH  80  81
ATOM     81  C   UNL A   1      30.410  26.278  25.041  1.00  0.00     0.019 C 
ATOM     82  C   UNL A   1      29.434  26.702  23.915  1.00  0.00     0.021 C 
ATOM     83  C   UNL A   1      31.265  27.502  25.376  1.00  0.00     0.141 C 
ATOM     84  C   UNL A   1      30.116  27.683  22.975  1.00  0.00     0.137 C 
ATOM     85  S   UNL A   1      31.261  28.599  23.969  1.00  0.00     0.150 S 
ATOM     86  O   UNL A   1      32.556  28.563  23.319  1.00  0.00    -0.229 OA
ATOM     87  O   UNL A   1      30.648  29.843  24.368  1.00  0.00    -0.229 OA
ENDBRANCH  80  81
BRANCH  80  88
ATOM     88  C   UNL A   1      31.485  24.341  23.453  1.00  0.00     0.032 C 
ATOM     89  C   UNL A   1      31.763  22.875  23.177  1.00  0.00     0.035 C 
ATOM     90  C   UNL A   1      32.750  25.030  22.945  1.00  0.00     0.164 C 
ATOM     91  C   UNL A   1      33.195  22.764  22.718  1.00  0.00     0.160 C 
ATOM     92  O   UNL A   1      33.593  24.069  22.319  1.00  0.00    -0.381 OA
ENDBRANCH  80  88
ENDBRANCH  78  80
ENDBRANCH  77  78
ENDBRANCH  76  77
ENDBRANCH  75  76
ENDBRANCH  74  75
ENDBRANCH  73  74
ENDBRANCH   1  73
TORSDOF 19
ENDMDL
MODEL 3
REMARK VINA RESULT:     -10.5      6.729     12.514
REMARK SMILES O=C(OCCOCCOCCOC(=O)[C@H]([C@@H]1CCOC1)[C@@H]1CCS(=O)(=O)C1)c1ccc(-c2c3nc(c(-c4c(F)c(F)c(F)c(F)c4F)c4ccc([nH]4)c(-c4c(F)c(F)c(F)c(F)c4F)c4nc(c(-c5c(F)c(F)c(F)c(F)c5F)c5ccc2[nH]5)C=C4)C=C3)cc1
REMARK SMILES IDX 7 1 6 2 5 3 4 4 3 5 2 6 1 7 28 8 29 9 90 10 30 11 89 12
REMARK SMILES IDX 31 13 32 14 33 15 83 16 34 17 88 18 82 19 84 20 35 21 87 22
REMARK SMILES IDX 81 23 80 24 36 26 68 27 48 28 67 29 49 30 52 31 66 32 85 33
REMARK SMILES IDX 50 34 51 35 65 37 86 38 53 39 37 40 38 41 46 42 39 43 40 44
REMARK SMILES IDX 44 45 47 46 41 47 42 48 45 49 43 50 69 51 70 52 78 53 71 54
REMARK SMILES IDX 72 55 76 56 79 57 73 58 74 59 77 60 75 61 54 62 55 63 63 64
REMARK SMILES IDX 56 65 57 66 61 67 64 68 58 69 59 70 62 71 60 72 8 73 9 74
REMARK SMILES IDX 10 75 11 76 12 77 13 78 14 79 15 80 21 81 22 82 27 83 23 84
REMARK SMILES IDX 24 85 25 86 26 87 16 88 17 89 20 90 18 91 19 92
REMARK H PARENT 84 25 52 36
REMARK Flexibility Score: inf
ROOT
ATOM      1  C   UNL A   1      34.360  32.885  29.096  1.00  0.00     0.188 C 
ENDROOT
BRANCH   1   2
ATOM      2  O   UNL A   1      34.170  34.259  28.815  1.00  0.00    -0.376 OA
BRANCH   2   3
ATOM      3  C   UNL A   1      32.913  34.839  29.122  1.00  0.00     0.202 C 
BRANCH   3   4
ATOM      4  C   UNL A   1      32.880  36.285  29.662  1.00  0.00     0.261 C 
BRANCH   4   5
ATOM      5  O   UNL A   1      32.256  36.441  30.944  1.00  0.00    -0.460 OA
BRANCH   5   6
ATOM      6  C   UNL A   1      32.743  36.107  32.163  1.00  0.00     0.338 C 
ATOM      7  O   UNL A   1      32.295  36.697  33.146  1.00  0.00    -0.246 OA
BRANCH   6   8
ATOM      8  C   UNL A   1      33.904  35.176  32.376  1.00  0.00     0.060 A 
ATOM      9  C   UNL A   1      33.829  33.862  32.846  1.00  0.00     0.016 A 
ATOM     10  C   UNL A   1      35.155  35.622  31.913  1.00  0.00     0.016 A 
ATOM     11  C   UNL A   1      34.947  33.025  32.877  1.00  0.00     0.010 A 
ATOM     12  C   UNL A   1      36.264  34.768  31.876  1.00  0.00     0.010 A 
ATOM     13  C   UNL A   1      36.174  33.472  32.402  1.00  0.00    -0.014 A 
BRANCH  13  14
ATOM     14  C   UNL A   1      37.397  32.697  32.715  1.00  0.00     0.031 A 
ATOM     15  C   UNL A   1      38.083  33.033  34.010  1.00  0.00     0.074 A 
ATOM     16  C   UNL A   1      37.829  31.678  31.946  1.00  0.00     0.049 A 
ATOM     17  N   UNL A   1      39.164  32.526  34.540  1.00  0.00    -0.248 NA
ATOM     18  C   UNL A   1      37.447  34.078  34.834  1.00  0.00     0.031 C 
ATOM     19  C   UNL A   1      37.172  31.179  30.739  1.00  0.00     0.029 A 
ATOM     20  N   UNL A   1      38.933  30.873  32.068  1.00  0.00    -0.354 N 
ATOM     21  C   UNL A   1      39.321  33.186  35.750  1.00  0.00     0.074 A 
ATOM     22  C   UNL A   1      38.292  34.192  35.840  1.00  0.00     0.031 C 
ATOM     23  C   UNL A   1      37.913  30.197  30.197  1.00  0.00     0.029 A 
ATOM     24  C   UNL A   1      39.086  29.979  31.033  1.00  0.00     0.049 A 
ATOM     25  H   UNL A   1      39.559  30.930  32.826  1.00  0.00     0.167 HD
ATOM     26  C   UNL A   1      40.215  32.940  36.733  1.00  0.00     0.037 A 
ATOM     27  C   UNL A   1      40.064  29.081  30.802  1.00  0.00     0.037 A 
ATOM     28  C   UNL A   1      41.229  31.933  36.636  1.00  0.00     0.049 A 
ATOM     29  C   UNL A   1      41.139  28.921  31.846  1.00  0.00     0.074 A 
ATOM     30  C   UNL A   1      42.213  31.607  37.546  1.00  0.00     0.029 A 
ATOM     31  N   UNL A   1      41.386  31.092  35.542  1.00  0.00    -0.354 N 
ATOM     32  N   UNL A   1      41.270  29.537  32.998  1.00  0.00    -0.248 NA
ATOM     33  C   UNL A   1      42.181  27.922  31.581  1.00  0.00     0.031 C 
ATOM     34  C   UNL A   1      43.006  30.606  36.977  1.00  0.00     0.029 A 
ATOM     35  C   UNL A   1      42.473  30.261  35.743  1.00  0.00     0.049 A 
ATOM     36  H   UNL A   1      40.810  31.087  34.743  1.00  0.00     0.167 HD
ATOM     37  C   UNL A   1      42.375  28.968  33.615  1.00  0.00     0.074 A 
ATOM     38  C   UNL A   1      42.873  27.951  32.710  1.00  0.00     0.031 C 
ATOM     39  C   UNL A   1      42.926  29.249  34.822  1.00  0.00     0.037 A 
BRANCH  26  40
ATOM     40  C   UNL A   1      40.126  33.802  37.957  1.00  0.00     0.064 A 
ATOM     41  C   UNL A   1      40.934  34.941  38.119  1.00  0.00     0.173 A 
ATOM     42  C   UNL A   1      39.275  33.447  39.012  1.00  0.00     0.173 A 
ATOM     43  F   UNL A   1      41.793  35.303  37.154  1.00  0.00    -0.203 F 
ATOM     44  C   UNL A   1      40.926  35.661  39.311  1.00  0.00     0.198 A 
ATOM     45  C   UNL A   1      39.244  34.191  40.188  1.00  0.00     0.198 A 
ATOM     46  F   UNL A   1      38.493  32.362  38.913  1.00  0.00    -0.203 F 
ATOM     47  F   UNL A   1      41.768  36.692  39.474  1.00  0.00    -0.200 F 
ATOM     48  C   UNL A   1      40.077  35.288  40.342  1.00  0.00     0.200 A 
ATOM     49  F   UNL A   1      38.421  33.831  41.183  1.00  0.00    -0.200 F 
ATOM     50  F   UNL A   1      40.079  35.974  41.492  1.00  0.00    -0.200 F 
ENDBRANCH  26  40
BRANCH  27  51
ATOM     51  C   UNL A   1      40.062  28.247  29.567  1.00  0.00     0.064 A 
ATOM     52  C   UNL A   1      39.398  27.012  29.522  1.00  0.00     0.173 A 
ATOM     53  C   UNL A   1      40.759  28.647  28.416  1.00  0.00     0.173 A 
ATOM     54  F   UNL A   1      38.725  26.575  30.596  1.00  0.00    -0.203 F 
ATOM     55  C   UNL A   1      39.462  26.195  28.392  1.00  0.00     0.198 A 
ATOM     56  C   UNL A   1      40.801  27.841  27.278  1.00  0.00     0.198 A 
ATOM     57  F   UNL A   1      41.405  29.822  28.395  1.00  0.00    -0.203 F 
ATOM     58  F   UNL A   1      38.864  24.996  28.400  1.00  0.00    -0.200 F 
ATOM     59  C   UNL A   1      40.163  26.611  27.271  1.00  0.00     0.200 A 
ATOM     60  F   UNL A   1      41.467  28.256  26.190  1.00  0.00    -0.200 F 
ATOM     61  F   UNL A   1      40.230  25.823  26.188  1.00  0.00    -0.200 F 
ENDBRANCH  27  51
BRANCH  39  62
ATOM     62  C   UNL A   1      44.095  28.416  35.255  1.00  0.00     0.064 A 
ATOM     63  C   UNL A   1      43.926  27.204  35.938  1.00  0.00     0.173 A 
ATOM     64  C   UNL A   1      45.400  28.807  34.914  1.00  0.00     0.173 A 
ATOM     65  F   UNL A   1      42.699  26.796  36.297  1.00  0.00    -0.203 F 
ATOM     66  C   UNL A   1      45.024  26.424  36.287  1.00  0.00     0.198 A 
ATOM     67  C   UNL A   1      46.491  28.005  35.228  1.00  0.00     0.198 A 
ATOM     68  F   UNL A   1      45.612  29.954  34.251  1.00  0.00    -0.203 F 
ATOM     69  F   UNL A   1      44.844  25.295  36.983  1.00  0.00    -0.200 F 
ATOM     70  C   UNL A   1      46.302  26.819  35.921  1.00  0.00     0.200 A 
ATOM     71  F   UNL A   1      47.723  28.376  34.853  1.00  0.00    -0.200 F 
ATOM     72  F   UNL A   1      47.357  26.056  36.241  1.00  0.00    -0.200 F 
ENDBRANCH  39  62
ENDBRANCH  13  14
ENDBRANCH   6   8
ENDBRANCH   5   6
ENDBRANCH   4   5
ENDBRANCH   3   4
ENDBRANCH   2   3
ENDBRANCH   1   2
BRANCH   1  73
ATOM     73  C   UNL A   1      34.462  31.824  27.989  1.00  0.00     0.188 C 
BRANCH  73  74
ATOM     74  O   UNL A   1      33.335  31.115  27.523  1.00  0.00    -0.376 OA
BRANCH  74  75
ATOM     75  C   UNL A   1      33.547  29.972  26.721  1.00  0.00     0.202 C 
BRANCH  75  76
ATOM     76  C   UNL A   1      32.827  28.668  27.105  1.00  0.00     0.261 C 
BRANCH  76  77
ATOM     77  O   UNL A   1      31.673  28.296  26.303  1.00  0.00    -0.463 OA
BRANCH  77  78
ATOM     78  C   UNL A   1      31.576  26.979  25.986  1.00  0.00     0.309 C 
ATOM     79  O   UNL A   1      30.795  26.217  26.551  1.00  0.00    -0.252 OA
BRANCH  78  80
ATOM     80  C   UNL A   1      32.597  26.442  24.929  1.00  0.00     0.109 C 
BRANCH  80  81
ATOM     81  C   UNL A   1      32.879  24.924  25.255  1.00  0.00     0.019 C 
ATOM     82  C   UNL A   1      34.235  24.668  25.959  1.00  0.00     0.021 C 
ATOM     83  C   UNL A   1      32.694  23.811  24.222  1.00  0.00     0.141 C 
ATOM     84  C   UNL A   1      35.239  24.102  24.968  1.00  0.00     0.137 C 
ATOM     85  S   UNL A   1      34.298  23.149  23.807  1.00  0.00     0.150 S 
ATOM     86  O   UNL A   1      34.668  23.569  22.470  1.00  0.00    -0.229 OA
ATOM     87  O   UNL A   1      34.331  21.761  24.201  1.00  0.00    -0.229 OA
ENDBRANCH  80  81
BRANCH  80  88
ATOM     88  C   UNL A   1      32.464  26.930  23.457  1.00  0.00     0.032 C 
ATOM     89  C   UNL A   1      31.460  26.314  22.501  1.00  0.00     0.035 C 
ATOM     90  C   UNL A   1      33.771  26.863  22.669  1.00  0.00     0.164 C 
ATOM     91  C   UNL A   1      32.230  25.764  21.327  1.00  0.00     0.160 C 
ATOM     92  O   UNL A   1      33.506  26.390  21.353  1.00  0.00    -0.381 OA
ENDBRANCH  80  88
ENDBRANCH  78  80
ENDBRANCH  77  78
ENDBRANCH  76  77
ENDBRANCH  75  76
ENDBRANCH  74  75
ENDBRANCH  73  74
ENDBRANCH   1  73
TORSDOF 19
ENDMDL
