MODEL 1
REMARK VINA RESULT:     -11.7      0.000      0.000
REMARK SMILES Nc1oc2ccc(F)cc2c(=O)c1[C@@H]1[NH2+][C@H](C(=O)OCCOCCOCCOC(=O)c2ccc(-c3c4nc(c(-c5c(F)c(F)c(F)c(F)c5F)c5ccc([nH]5)c(-c5c(F)c(F)c(F)c(F)c5F)c5nc(c(-c6c(F)c(F)c(F)c(F)c6F)c6ccc3[nH]6)C=C5)C=C4)cc2)CS1
REMARK SMILES IDX 23 1 22 2 21 3 20 4 19 5 17 6 18 7 16 8 14 9 15 10 95 11
REMARK SMILES IDX 94 14 13 15 2 16 3 17 4 18 11 19 5 20 10 21 12 22 6 23 9 24
REMARK SMILES IDX 7 25 8 26 1 27 24 30 25 31 26 32 27 33 28 34 29 35 30 36
REMARK SMILES IDX 31 37 32 38 93 39 33 40 92 41 34 42 35 43 36 44 86 45 37 46
REMARK SMILES IDX 91 47 85 48 87 49 38 50 90 51 84 52 83 53 39 55 71 56 51 57
REMARK SMILES IDX 70 58 52 59 55 60 69 61 88 62 53 63 54 64 68 66 89 67 56 68
REMARK SMILES IDX 40 69 41 70 49 71 42 72 43 73 47 74 50 75 44 76 45 77 48 78
REMARK SMILES IDX 46 79 72 80 73 81 81 82 74 83 75 84 79 85 82 86 76 87 77 88
REMARK SMILES IDX 80 89 78 90 57 91 58 92 66 93 59 94 60 95 64 96 67 97 61 98
REMARK SMILES IDX 62 99 65 100 63 101
REMARK H PARENT 15 12 15 13 1 28 1 29 87 54 55 65
REMARK Flexibility Score: inf
ROOT
ATOM      1  C   UNL A   1      40.693  21.805  27.621  1.00  0.00     0.188 C 
ENDROOT
BRANCH   1   2
ATOM      2  O   UNL A   1      39.732  22.403  26.762  1.00  0.00    -0.376 OA
BRANCH   2   3
ATOM      3  C   UNL A   1      38.907  21.550  25.977  1.00  0.00     0.202 C 
BRANCH   3   4
ATOM      4  C   UNL A   1      37.649  22.180  25.388  1.00  0.00     0.261 C 
BRANCH   4   5
ATOM      5  O   UNL A   1      36.459  21.640  25.984  1.00  0.00    -0.459 OA
BRANCH   5   6
ATOM      6  C   UNL A   1      35.360  21.649  25.195  1.00  0.00     0.365 C 
ATOM      7  O   UNL A   1      35.315  22.210  24.101  1.00  0.00    -0.245 OA
BRANCH   6   8
ATOM      8  C   UNL A   1      34.178  20.822  25.722  1.00  0.00     0.304 C 
ATOM      9  C   UNL A   1      32.019  21.884  25.343  1.00  0.00     0.283 C 
ATOM     10  N   UNL A   1      33.053  21.565  26.346  1.00  0.00    -0.319 N 
ATOM     11  S   UNL A   1      32.189  20.731  23.955  1.00  0.00    -0.087 SA
ATOM     12  H   UNL A   1      32.641  20.992  27.081  1.00  0.00     0.348 HD
ATOM     13  H   UNL A   1      33.413  22.437  26.735  1.00  0.00     0.348 HD
ATOM     14  C   UNL A   1      33.649  19.908  24.628  1.00  0.00     0.153 C 
BRANCH   9  15
ATOM     15  C   UNL A   1      31.990  23.346  24.971  1.00  0.00     0.128 A 
ATOM     16  C   UNL A   1      32.122  23.909  23.748  1.00  0.00     0.205 A 
ATOM     17  O   UNL A   1      32.222  25.274  23.532  1.00  0.00    -0.440 OA
ATOM     18  C   UNL A   1      32.040  26.138  24.572  1.00  0.00     0.140 A 
ATOM     19  C   UNL A   1      31.749  24.266  26.124  1.00  0.00     0.205 A 
ATOM     20  C   UNL A   1      32.122  27.503  24.284  1.00  0.00     0.051 A 
ATOM     21  C   UNL A   1      31.748  25.710  25.857  1.00  0.00     0.068 A 
ATOM     22  O   UNL A   1      31.516  23.857  27.257  1.00  0.00    -0.288 OA
ATOM     23  C   UNL A   1      31.855  28.436  25.285  1.00  0.00     0.043 A 
ATOM     24  C   UNL A   1      31.456  26.639  26.860  1.00  0.00     0.055 A 
ATOM     25  C   UNL A   1      31.506  27.995  26.558  1.00  0.00     0.124 A 
ATOM     26  F   UNL A   1      31.212  28.896  27.505  1.00  0.00    -0.207 F 
BRANCH  16  27
ATOM     27  N   UNL A   1      32.187  23.212  22.575  1.00  0.00    -0.369 N 
ATOM     28  H   UNL A   1      31.374  23.080  22.035  1.00  0.00     0.159 HD
ATOM     29  H   UNL A   1      33.047  22.842  22.270  1.00  0.00     0.159 HD
ENDBRANCH  16  27
ENDBRANCH   9  15
ENDBRANCH   6   8
ENDBRANCH   5   6
ENDBRANCH   4   5
ENDBRANCH   3   4
ENDBRANCH   2   3
ENDBRANCH   1   2
BRANCH   1  30
ATOM     30  C   UNL A   1      41.739  20.822  27.051  1.00  0.00     0.188 C 
BRANCH  30  31
ATOM     31  O   UNL A   1      42.337  21.065  25.788  1.00  0.00    -0.376 OA
BRANCH  31  32
ATOM     32  C   UNL A   1      43.504  21.877  25.746  1.00  0.00     0.202 C 
BRANCH  32  33
ATOM     33  C   UNL A   1      43.611  22.837  24.563  1.00  0.00     0.261 C 
BRANCH  33  34
ATOM     34  O   UNL A   1      42.982  24.093  24.878  1.00  0.00    -0.460 OA
BRANCH  34  35
ATOM     35  C   UNL A   1      43.815  25.108  25.211  1.00  0.00     0.338 C 
ATOM     36  O   UNL A   1      44.825  25.467  24.630  1.00  0.00    -0.246 OA
BRANCH  35  37
ATOM     37  C   UNL A   1      43.173  25.887  26.288  1.00  0.00     0.060 A 
ATOM     38  C   UNL A   1      42.113  25.357  27.028  1.00  0.00     0.016 A 
ATOM     39  C   UNL A   1      43.621  27.194  26.518  1.00  0.00     0.016 A 
ATOM     40  C   UNL A   1      41.517  26.135  28.022  1.00  0.00     0.010 A 
ATOM     41  C   UNL A   1      43.009  27.977  27.497  1.00  0.00     0.010 A 
ATOM     42  C   UNL A   1      41.967  27.444  28.268  1.00  0.00    -0.014 A 
BRANCH  42  43
ATOM     43  C   UNL A   1      41.464  28.185  29.446  1.00  0.00     0.031 A 
ATOM     44  C   UNL A   1      40.262  29.072  29.376  1.00  0.00     0.074 A 
ATOM     45  C   UNL A   1      42.141  28.050  30.601  1.00  0.00     0.049 A 
ATOM     46  N   UNL A   1      39.667  29.725  30.342  1.00  0.00    -0.248 NA
ATOM     47  C   UNL A   1      39.652  29.260  28.053  1.00  0.00     0.031 C 
ATOM     48  C   UNL A   1      43.348  27.239  30.769  1.00  0.00     0.029 A 
ATOM     49  N   UNL A   1      41.919  28.587  31.841  1.00  0.00    -0.354 N 
ATOM     50  C   UNL A   1      38.597  30.384  29.754  1.00  0.00     0.074 A 
ATOM     51  C   UNL A   1      38.652  30.086  28.336  1.00  0.00     0.031 C 
ATOM     52  C   UNL A   1      43.758  27.328  32.042  1.00  0.00     0.029 A 
ATOM     53  C   UNL A   1      42.851  28.207  32.773  1.00  0.00     0.049 A 
ATOM     54  H   UNL A   1      41.164  29.186  32.043  1.00  0.00     0.167 HD
ATOM     55  C   UNL A   1      37.654  31.152  30.353  1.00  0.00     0.037 A 
ATOM     56  C   UNL A   1      42.960  28.528  34.075  1.00  0.00     0.037 A 
ATOM     57  C   UNL A   1      37.624  31.456  31.763  1.00  0.00     0.049 A 
ATOM     58  C   UNL A   1      41.915  29.398  34.708  1.00  0.00     0.074 A 
ATOM     59  C   UNL A   1      36.673  32.173  32.471  1.00  0.00     0.029 A 
ATOM     60  N   UNL A   1      38.598  31.079  32.679  1.00  0.00    -0.354 N 
ATOM     61  N   UNL A   1      40.855  29.944  34.162  1.00  0.00    -0.248 NA
ATOM     62  C   UNL A   1      42.071  29.683  36.139  1.00  0.00     0.031 C 
ATOM     63  C   UNL A   1      37.100  32.277  33.801  1.00  0.00     0.029 A 
ATOM     64  C   UNL A   1      38.289  31.581  33.936  1.00  0.00     0.049 A 
ATOM     65  H   UNL A   1      39.390  30.536  32.467  1.00  0.00     0.167 HD
ATOM     66  C   UNL A   1      40.215  30.633  35.180  1.00  0.00     0.074 A 
ATOM     67  C   UNL A   1      40.991  30.411  36.385  1.00  0.00     0.031 C 
ATOM     68  C   UNL A   1      39.087  31.384  35.121  1.00  0.00     0.037 A 
BRANCH  55  69
ATOM     69  C   UNL A   1      36.568  31.724  29.490  1.00  0.00     0.064 A 
ATOM     70  C   UNL A   1      35.542  30.917  28.975  1.00  0.00     0.173 A 
ATOM     71  C   UNL A   1      36.504  33.103  29.240  1.00  0.00     0.173 A 
ATOM     72  F   UNL A   1      35.557  29.591  29.182  1.00  0.00    -0.203 F 
ATOM     73  C   UNL A   1      34.502  31.467  28.229  1.00  0.00     0.198 A 
ATOM     74  C   UNL A   1      35.450  33.654  28.514  1.00  0.00     0.198 A 
ATOM     75  F   UNL A   1      37.454  33.921  29.717  1.00  0.00    -0.203 F 
ATOM     76  F   UNL A   1      33.548  30.673  27.724  1.00  0.00    -0.200 F 
ATOM     77  C   UNL A   1      34.453  32.835  28.007  1.00  0.00     0.200 A 
ATOM     78  F   UNL A   1      35.397  34.977  28.312  1.00  0.00    -0.200 F 
ATOM     79  F   UNL A   1      33.443  33.365  27.301  1.00  0.00    -0.200 F 
ENDBRANCH  55  69
BRANCH  56  80
ATOM     80  C   UNL A   1      44.092  27.977  34.858  1.00  0.00     0.064 A 
ATOM     81  C   UNL A   1      45.282  28.700  35.007  1.00  0.00     0.173 A 
ATOM     82  C   UNL A   1      43.981  26.747  35.524  1.00  0.00     0.173 A 
ATOM     83  F   UNL A   1      45.436  29.873  34.376  1.00  0.00    -0.203 F 
ATOM     84  C   UNL A   1      46.322  28.212  35.793  1.00  0.00     0.198 A 
ATOM     85  C   UNL A   1      45.012  26.272  36.329  1.00  0.00     0.198 A 
ATOM     86  F   UNL A   1      42.855  26.026  35.417  1.00  0.00    -0.203 F 
ATOM     87  F   UNL A   1      47.460  28.911  35.905  1.00  0.00    -0.200 F 
ATOM     88  C   UNL A   1      46.183  27.004  36.461  1.00  0.00     0.200 A 
ATOM     89  F   UNL A   1      44.867  25.113  36.986  1.00  0.00    -0.200 F 
ATOM     90  F   UNL A   1      47.177  26.545  37.234  1.00  0.00    -0.200 F 
ENDBRANCH  56  80
BRANCH  68  91
ATOM     91  C   UNL A   1      38.638  32.038  36.397  1.00  0.00     0.064 A 
ATOM     92  C   UNL A   1      38.991  33.362  36.702  1.00  0.00     0.173 A 
ATOM     93  C   UNL A   1      37.835  31.344  37.315  1.00  0.00     0.173 A 
ATOM     94  F   UNL A   1      39.771  34.062  35.864  1.00  0.00    -0.203 F 
ATOM     95  C   UNL A   1      38.582  33.956  37.892  1.00  0.00     0.198 A 
ATOM     96  C   UNL A   1      37.403  31.953  38.492  1.00  0.00     0.198 A 
ATOM     97  F   UNL A   1      37.465  30.079  37.071  1.00  0.00    -0.203 F 
ATOM     98  F   UNL A   1      38.977  35.203  38.186  1.00  0.00    -0.200 F 
ATOM     99  C   UNL A   1      37.784  33.254  38.783  1.00  0.00     0.200 A 
ATOM    100  F   UNL A   1      36.623  31.277  39.347  1.00  0.00    -0.200 F 
ATOM    101  F   UNL A   1      37.391  33.828  39.929  1.00  0.00    -0.200 F 
ENDBRANCH  68  91
ENDBRANCH  42  43
ENDBRANCH  35  37
ENDBRANCH  34  35
ENDBRANCH  33  34
ENDBRANCH  32  33
ENDBRANCH  31  32
ENDBRANCH  30  31
ENDBRANCH   1  30
TORSDOF 19
ENDMDL
MODEL 2
REMARK VINA RESULT:     -11.4      4.613      9.373
REMARK SMILES Nc1oc2ccc(F)cc2c(=O)c1[C@@H]1[NH2+][C@H](C(=O)OCCOCCOCCOC(=O)c2ccc(-c3c4nc(c(-c5c(F)c(F)c(F)c(F)c5F)c5ccc([nH]5)c(-c5c(F)c(F)c(F)c(F)c5F)c5nc(c(-c6c(F)c(F)c(F)c(F)c6F)c6ccc3[nH]6)C=C5)C=C4)cc2)CS1
REMARK SMILES IDX 23 1 22 2 21 3 20 4 19 5 17 6 18 7 16 8 14 9 15 10 95 11
REMARK SMILES IDX 94 14 13 15 2 16 3 17 4 18 11 19 5 20 10 21 12 22 6 23 9 24
REMARK SMILES IDX 7 25 8 26 1 27 24 30 25 31 26 32 27 33 28 34 29 35 30 36
REMARK SMILES IDX 31 37 32 38 93 39 33 40 92 41 34 42 35 43 36 44 86 45 37 46
REMARK SMILES IDX 91 47 85 48 87 49 38 50 90 51 84 52 83 53 39 55 71 56 51 57
REMARK SMILES IDX 70 58 52 59 55 60 69 61 88 62 53 63 54 64 68 66 89 67 56 68
REMARK SMILES IDX 40 69 41 70 49 71 42 72 43 73 47 74 50 75 44 76 45 77 48 78
REMARK SMILES IDX 46 79 72 80 73 81 81 82 74 83 75 84 79 85 82 86 76 87 77 88
REMARK SMILES IDX 80 89 78 90 57 91 58 92 66 93 59 94 60 95 64 96 67 97 61 98
REMARK SMILES IDX 62 99 65 100 63 101
REMARK H PARENT 15 12 15 13 1 28 1 29 87 54 55 65
REMARK Flexibility Score: inf
ROOT
ATOM      1  C   UNL A   1      36.217  21.990  25.994  1.00  0.00     0.188 C 
ENDROOT
BRANCH   1   2
ATOM      2  O   UNL A   1      34.924  22.495  26.296  1.00  0.00    -0.376 OA
BRANCH   2   3
ATOM      3  C   UNL A   1      34.360  22.186  27.565  1.00  0.00     0.202 C 
BRANCH   3   4
ATOM      4  C   UNL A   1      32.889  22.543  27.757  1.00  0.00     0.261 C 
BRANCH   4   5
ATOM      5  O   UNL A   1      32.124  22.285  26.568  1.00  0.00    -0.459 OA
BRANCH   5   6
ATOM      6  C   UNL A   1      31.122  23.162  26.323  1.00  0.00     0.365 C 
ATOM      7  O   UNL A   1      30.591  23.847  27.197  1.00  0.00    -0.245 OA
BRANCH   6   8
ATOM      8  C   UNL A   1      30.744  23.316  24.843  1.00  0.00     0.304 C 
ATOM      9  C   UNL A   1      31.738  25.278  23.799  1.00  0.00     0.283 C 
ATOM     10  N   UNL A   1      30.498  24.693  24.345  1.00  0.00    -0.319 N 
ATOM     11  S   UNL A   1      32.865  23.930  23.356  1.00  0.00    -0.087 SA
ATOM     12  H   UNL A   1      29.791  24.662  23.611  1.00  0.00     0.348 HD
ATOM     13  H   UNL A   1      30.177  25.270  25.122  1.00  0.00     0.348 HD
ATOM     14  C   UNL A   1      31.775  22.624  23.965  1.00  0.00     0.153 C 
BRANCH   9  15
ATOM     15  C   UNL A   1      32.324  26.348  24.687  1.00  0.00     0.128 A 
ATOM     16  C   UNL A   1      33.442  26.296  25.446  1.00  0.00     0.205 A 
ATOM     17  O   UNL A   1      33.818  27.288  26.338  1.00  0.00    -0.440 OA
ATOM     18  C   UNL A   1      33.123  28.461  26.377  1.00  0.00     0.140 A 
ATOM     19  C   UNL A   1      31.564  27.636  24.678  1.00  0.00     0.205 A 
ATOM     20  C   UNL A   1      33.570  29.434  27.274  1.00  0.00     0.051 A 
ATOM     21  C   UNL A   1      32.043  28.717  25.547  1.00  0.00     0.068 A 
ATOM     22  O   UNL A   1      30.595  27.824  23.948  1.00  0.00    -0.288 OA
ATOM     23  C   UNL A   1      32.958  30.687  27.294  1.00  0.00     0.043 A 
ATOM     24  C   UNL A   1      31.438  29.978  25.546  1.00  0.00     0.055 A 
ATOM     25  C   UNL A   1      31.911  30.953  26.417  1.00  0.00     0.124 A 
ATOM     26  F   UNL A   1      31.353  32.171  26.414  1.00  0.00    -0.207 F 
BRANCH  16  27
ATOM     27  N   UNL A   1      34.333  25.261  25.446  1.00  0.00    -0.369 N 
ATOM     28  H   UNL A   1      35.279  25.426  25.668  1.00  0.00     0.159 HD
ATOM     29  H   UNL A   1      34.031  24.352  25.224  1.00  0.00     0.159 HD
ENDBRANCH  16  27
ENDBRANCH   9  15
ENDBRANCH   6   8
ENDBRANCH   5   6
ENDBRANCH   4   5
ENDBRANCH   3   4
ENDBRANCH   2   3
ENDBRANCH   1   2
BRANCH   1  30
ATOM     30  C   UNL A   1      36.382  20.838  24.979  1.00  0.00     0.188 C 
BRANCH  30  31
ATOM     31  O   UNL A   1      37.666  20.299  24.710  1.00  0.00    -0.376 OA
BRANCH  31  32
ATOM     32  C   UNL A   1      38.781  20.850  25.399  1.00  0.00     0.202 C 
BRANCH  32  33
ATOM     33  C   UNL A   1      39.637  19.861  26.188  1.00  0.00     0.261 C 
BRANCH  33  34
ATOM     34  O   UNL A   1      40.782  19.459  25.414  1.00  0.00    -0.460 OA
BRANCH  34  35
ATOM     35  C   UNL A   1      41.936  19.289  26.102  1.00  0.00     0.338 C 
ATOM     36  O   UNL A   1      42.565  18.256  26.260  1.00  0.00    -0.246 OA
BRANCH  35  37
ATOM     37  C   UNL A   1      42.456  20.624  26.453  1.00  0.00     0.060 A 
ATOM     38  C   UNL A   1      43.005  21.463  25.481  1.00  0.00     0.016 A 
ATOM     39  C   UNL A   1      42.432  21.013  27.799  1.00  0.00     0.016 A 
ATOM     40  C   UNL A   1      43.509  22.709  25.858  1.00  0.00     0.010 A 
ATOM     41  C   UNL A   1      42.956  22.248  28.177  1.00  0.00     0.010 A 
ATOM     42  C   UNL A   1      43.480  23.112  27.204  1.00  0.00    -0.014 A 
BRANCH  42  43
ATOM     43  C   UNL A   1      43.833  24.503  27.564  1.00  0.00     0.031 A 
ATOM     44  C   UNL A   1      45.249  24.982  27.598  1.00  0.00     0.074 A 
ATOM     45  C   UNL A   1      42.827  25.338  27.882  1.00  0.00     0.049 A 
ATOM     46  N   UNL A   1      45.702  26.189  27.825  1.00  0.00    -0.248 NA
ATOM     47  C   UNL A   1      46.295  23.979  27.356  1.00  0.00     0.031 C 
ATOM     48  C   UNL A   1      41.413  24.964  27.915  1.00  0.00     0.029 A 
ATOM     49  N   UNL A   1      42.835  26.661  28.237  1.00  0.00    -0.354 N 
ATOM     50  C   UNL A   1      47.084  26.102  27.731  1.00  0.00     0.074 A 
ATOM     51  C   UNL A   1      47.397  24.711  27.469  1.00  0.00     0.031 C 
ATOM     52  C   UNL A   1      40.687  26.034  28.268  1.00  0.00     0.029 A 
ATOM     53  C   UNL A   1      41.585  27.164  28.492  1.00  0.00     0.049 A 
ATOM     54  H   UNL A   1      43.657  27.198  28.301  1.00  0.00     0.167 HD
ATOM     55  C   UNL A   1      47.996  27.099  27.839  1.00  0.00     0.037 A 
ATOM     56  C   UNL A   1      41.202  28.399  28.862  1.00  0.00     0.037 A 
ATOM     57  C   UNL A   1      47.670  28.476  28.119  1.00  0.00     0.049 A 
ATOM     58  C   UNL A   1      42.235  29.478  28.997  1.00  0.00     0.074 A 
ATOM     59  C   UNL A   1      48.520  29.568  28.186  1.00  0.00     0.029 A 
ATOM     60  N   UNL A   1      46.395  28.950  28.401  1.00  0.00    -0.354 N 
ATOM     61  N   UNL A   1      43.532  29.407  28.818  1.00  0.00    -0.248 NA
ATOM     62  C   UNL A   1      41.750  30.813  29.370  1.00  0.00     0.031 C 
ATOM     63  C   UNL A   1      47.770  30.689  28.562  1.00  0.00     0.029 A 
ATOM     64  C   UNL A   1      46.443  30.310  28.678  1.00  0.00     0.049 A 
ATOM     65  H   UNL A   1      45.578  28.403  28.404  1.00  0.00     0.167 HD
ATOM     66  C   UNL A   1      44.019  30.683  29.050  1.00  0.00     0.074 A 
ATOM     67  C   UNL A   1      42.873  31.517  29.355  1.00  0.00     0.031 C 
ATOM     68  C   UNL A   1      45.301  31.124  29.016  1.00  0.00     0.037 A 
BRANCH  55  69
ATOM     69  C   UNL A   1      49.442  26.745  27.654  1.00  0.00     0.064 A 
ATOM     70  C   UNL A   1      50.286  26.515  28.752  1.00  0.00     0.173 A 
ATOM     71  C   UNL A   1      49.973  26.555  26.369  1.00  0.00     0.173 A 
ATOM     72  F   UNL A   1      49.828  26.686  30.002  1.00  0.00    -0.203 F 
ATOM     73  C   UNL A   1      51.610  26.124  28.570  1.00  0.00     0.198 A 
ATOM     74  C   UNL A   1      51.291  26.140  26.191  1.00  0.00     0.198 A 
ATOM     75  F   UNL A   1      49.208  26.752  25.285  1.00  0.00    -0.203 F 
ATOM     76  F   UNL A   1      52.404  25.936  29.633  1.00  0.00    -0.200 F 
ATOM     77  C   UNL A   1      52.109  25.928  27.291  1.00  0.00     0.200 A 
ATOM     78  F   UNL A   1      51.767  25.938  24.955  1.00  0.00    -0.200 F 
ATOM     79  F   UNL A   1      53.379  25.537  27.118  1.00  0.00    -0.200 F 
ENDBRANCH  55  69
BRANCH  56  80
ATOM     80  C   UNL A   1      39.762  28.667  29.087  1.00  0.00     0.064 A 
ATOM     81  C   UNL A   1      39.180  28.463  30.345  1.00  0.00     0.173 A 
ATOM     82  C   UNL A   1      38.955  29.194  28.067  1.00  0.00     0.173 A 
ATOM     83  F   UNL A   1      39.910  27.947  31.344  1.00  0.00    -0.203 F 
ATOM     84  C   UNL A   1      37.843  28.773  30.574  1.00  0.00     0.198 A 
ATOM     85  C   UNL A   1      37.624  29.526  28.305  1.00  0.00     0.198 A 
ATOM     86  F   UNL A   1      39.473  29.415  26.850  1.00  0.00    -0.203 F 
ATOM     87  F   UNL A   1      37.302  28.550  31.780  1.00  0.00    -0.200 F 
ATOM     88  C   UNL A   1      37.068  29.314  29.558  1.00  0.00     0.200 A 
ATOM     89  F   UNL A   1      36.886  30.064  27.325  1.00  0.00    -0.200 F 
ATOM     90  F   UNL A   1      35.786  29.631  29.785  1.00  0.00    -0.200 F 
ENDBRANCH  56  80
BRANCH  68  91
ATOM     91  C   UNL A   1      45.531  32.573  29.338  1.00  0.00     0.064 A 
ATOM     92  C   UNL A   1      45.850  32.989  30.639  1.00  0.00     0.173 A 
ATOM     93  C   UNL A   1      45.449  33.553  28.337  1.00  0.00     0.173 A 
ATOM     94  F   UNL A   1      45.924  32.093  31.636  1.00  0.00    -0.203 F 
ATOM     95  C   UNL A   1      46.049  34.335  30.933  1.00  0.00     0.198 A 
ATOM     96  C   UNL A   1      45.678  34.895  28.628  1.00  0.00     0.198 A 
ATOM     97  F   UNL A   1      45.153  33.208  27.075  1.00  0.00    -0.203 F 
ATOM     98  F   UNL A   1      46.299  34.715  32.194  1.00  0.00    -0.200 F 
ATOM     99  C   UNL A   1      45.968  35.287  29.926  1.00  0.00     0.200 A 
ATOM    100  F   UNL A   1      45.611  35.812  27.653  1.00  0.00    -0.200 F 
ATOM    101  F   UNL A   1      46.160  36.582  30.210  1.00  0.00    -0.200 F 
ENDBRANCH  68  91
ENDBRANCH  42  43
ENDBRANCH  35  37
ENDBRANCH  34  35
ENDBRANCH  33  34
ENDBRANCH  32  33
ENDBRANCH  31  32
ENDBRANCH  30  31
ENDBRANCH   1  30
TORSDOF 19
ENDMDL
MODEL 3
REMARK VINA RESULT:     -11.4      4.591      7.667
REMARK SMILES Nc1oc2ccc(F)cc2c(=O)c1[C@@H]1[NH2+][C@H](C(=O)OCCOCCOCCOC(=O)c2ccc(-c3c4nc(c(-c5c(F)c(F)c(F)c(F)c5F)c5ccc([nH]5)c(-c5c(F)c(F)c(F)c(F)c5F)c5nc(c(-c6c(F)c(F)c(F)c(F)c6F)c6ccc3[nH]6)C=C5)C=C4)cc2)CS1
REMARK SMILES IDX 23 1 22 2 21 3 20 4 19 5 17 6 18 7 16 8 14 9 15 10 95 11
REMARK SMILES IDX 94 14 13 15 2 16 3 17 4 18 11 19 5 20 10 21 12 22 6 23 9 24
REMARK SMILES IDX 7 25 8 26 1 27 24 30 25 31 26 32 27 33 28 34 29 35 30 36
REMARK SMILES IDX 31 37 32 38 93 39 33 40 92 41 34 42 35 43 36 44 86 45 37 46
REMARK SMILES IDX 91 47 85 48 87 49 38 50 90 51 84 52 83 53 39 55 71 56 51 57
REMARK SMILES IDX 70 58 52 59 55 60 69 61 88 62 53 63 54 64 68 66 89 67 56 68
REMARK SMILES IDX 40 69 41 70 49 71 42 72 43 73 47 74 50 75 44 76 45 77 48 78
REMARK SMILES IDX 46 79 72 80 73 81 81 82 74 83 75 84 79 85 82 86 76 87 77 88
REMARK SMILES IDX 80 89 78 90 57 91 58 92 66 93 59 94 60 95 64 96 67 97 61 98
REMARK SMILES IDX 62 99 65 100 63 101
REMARK H PARENT 15 12 15 13 1 28 1 29 87 54 55 65
REMARK Flexibility Score: inf
ROOT
ATOM      1  C   UNL A   1      36.393  21.801  25.700  1.00  0.00     0.188 C 
ENDROOT
BRANCH   1   2
ATOM      2  O   UNL A   1      35.160  22.464  25.941  1.00  0.00    -0.376 OA
BRANCH   2   3
ATOM      3  C   UNL A   1      34.720  22.600  27.287  1.00  0.00     0.202 C 
BRANCH   3   4
ATOM      4  C   UNL A   1      33.277  22.197  27.572  1.00  0.00     0.261 C 
BRANCH   4   5
ATOM      5  O   UNL A   1      32.490  22.168  26.370  1.00  0.00    -0.459 OA
BRANCH   5   6
ATOM      6  C   UNL A   1      31.505  23.093  26.300  1.00  0.00     0.365 C 
ATOM      7  O   UNL A   1      31.164  23.794  27.252  1.00  0.00    -0.245 OA
BRANCH   6   8
ATOM      8  C   UNL A   1      30.891  23.280  24.905  1.00  0.00     0.304 C 
ATOM      9  C   UNL A   1      31.600  25.338  23.813  1.00  0.00     0.283 C 
ATOM     10  N   UNL A   1      30.495  24.658  24.516  1.00  0.00    -0.319 N 
ATOM     11  S   UNL A   1      32.714  24.079  23.137  1.00  0.00    -0.087 SA
ATOM     12  H   UNL A   1      29.684  24.612  23.901  1.00  0.00     0.348 HD
ATOM     13  H   UNL A   1      30.270  25.185  25.360  1.00  0.00     0.348 HD
ATOM     14  C   UNL A   1      31.807  22.687  23.846  1.00  0.00     0.153 C 
BRANCH   9  15
ATOM     15  C   UNL A   1      32.260  26.407  24.648  1.00  0.00     0.128 A 
ATOM     16  C   UNL A   1      33.457  26.368  25.277  1.00  0.00     0.205 A 
ATOM     17  O   UNL A   1      33.910  27.354  26.139  1.00  0.00    -0.440 OA
ATOM     18  C   UNL A   1      33.200  28.511  26.276  1.00  0.00     0.140 A 
ATOM     19  C   UNL A   1      31.477  27.678  24.747  1.00  0.00     0.205 A 
ATOM     20  C   UNL A   1      33.725  29.480  27.135  1.00  0.00     0.051 A 
ATOM     21  C   UNL A   1      32.028  28.756  25.577  1.00  0.00     0.068 A 
ATOM     22  O   UNL A   1      30.429  27.856  24.134  1.00  0.00    -0.288 OA
ATOM     23  C   UNL A   1      33.093  30.719  27.246  1.00  0.00     0.043 A 
ATOM     24  C   UNL A   1      31.402  30.003  25.665  1.00  0.00     0.055 A 
ATOM     25  C   UNL A   1      31.949  30.974  26.495  1.00  0.00     0.124 A 
ATOM     26  F   UNL A   1      31.370  32.179  26.577  1.00  0.00    -0.207 F 
BRANCH  16  27
ATOM     27  N   UNL A   1      34.364  25.354  25.159  1.00  0.00    -0.369 N 
ATOM     28  H   UNL A   1      34.987  25.337  24.397  1.00  0.00     0.159 HD
ATOM     29  H   UNL A   1      34.394  24.640  25.836  1.00  0.00     0.159 HD
ENDBRANCH  16  27
ENDBRANCH   9  15
ENDBRANCH   6   8
ENDBRANCH   5   6
ENDBRANCH   4   5
ENDBRANCH   3   4
ENDBRANCH   2   3
ENDBRANCH   1   2
BRANCH   1  30
ATOM     30  C   UNL A   1      36.411  20.426  24.998  1.00  0.00     0.188 C 
BRANCH  30  31
ATOM     31  O   UNL A   1      37.639  19.760  24.757  1.00  0.00    -0.376 OA
BRANCH  31  32
ATOM     32  C   UNL A   1      38.810  20.266  25.388  1.00  0.00     0.202 C 
BRANCH  32  33
ATOM     33  C   UNL A   1      39.681  19.238  26.107  1.00  0.00     0.261 C 
BRANCH  33  34
ATOM     34  O   UNL A   1      40.933  19.072  25.417  1.00  0.00    -0.460 OA
BRANCH  34  35
ATOM     35  C   UNL A   1      42.049  19.147  26.181  1.00  0.00     0.338 C 
ATOM     36  O   UNL A   1      42.831  18.251  26.452  1.00  0.00    -0.246 OA
BRANCH  35  37
ATOM     37  C   UNL A   1      42.312  20.571  26.461  1.00  0.00     0.060 A 
ATOM     38  C   UNL A   1      42.384  21.048  27.772  1.00  0.00     0.016 A 
ATOM     39  C   UNL A   1      42.440  21.448  25.375  1.00  0.00     0.016 A 
ATOM     40  C   UNL A   1      42.611  22.408  27.994  1.00  0.00     0.010 A 
ATOM     41  C   UNL A   1      42.644  22.809  25.599  1.00  0.00     0.010 A 
ATOM     42  C   UNL A   1      42.751  23.293  26.911  1.00  0.00    -0.014 A 
BRANCH  42  43
ATOM     43  C   UNL A   1      43.184  24.687  27.152  1.00  0.00     0.031 A 
ATOM     44  C   UNL A   1      42.256  25.727  27.694  1.00  0.00     0.074 A 
ATOM     45  C   UNL A   1      44.456  25.005  26.848  1.00  0.00     0.049 A 
ATOM     46  N   UNL A   1      42.516  26.968  28.022  1.00  0.00    -0.248 NA
ATOM     47  C   UNL A   1      40.854  25.331  27.885  1.00  0.00     0.031 C 
ATOM     48  C   UNL A   1      45.433  24.076  26.281  1.00  0.00     0.029 A 
ATOM     49  N   UNL A   1      45.141  26.185  26.970  1.00  0.00    -0.354 N 
ATOM     50  C   UNL A   1      41.319  27.499  28.482  1.00  0.00     0.074 A 
ATOM     51  C   UNL A   1      40.321  26.456  28.349  1.00  0.00     0.031 C 
ATOM     52  C   UNL A   1      46.596  24.720  26.106  1.00  0.00     0.029 A 
ATOM     53  C   UNL A   1      46.441  26.105  26.540  1.00  0.00     0.049 A 
ATOM     54  H   UNL A   1      44.740  27.008  27.330  1.00  0.00     0.167 HD
ATOM     55  C   UNL A   1      41.089  28.738  28.981  1.00  0.00     0.037 A 
ATOM     56  C   UNL A   1      47.405  27.043  26.505  1.00  0.00     0.037 A 
ATOM     57  C   UNL A   1      42.089  29.773  29.090  1.00  0.00     0.049 A 
ATOM     58  C   UNL A   1      47.116  28.413  27.043  1.00  0.00     0.074 A 
ATOM     59  C   UNL A   1      41.965  31.038  29.640  1.00  0.00     0.029 A 
ATOM     60  N   UNL A   1      43.392  29.671  28.621  1.00  0.00    -0.354 N 
ATOM     61  N   UNL A   1      46.006  28.880  27.560  1.00  0.00    -0.248 NA
ATOM     62  C   UNL A   1      48.219  29.382  27.008  1.00  0.00     0.031 C 
ATOM     63  C   UNL A   1      43.173  31.720  29.453  1.00  0.00     0.029 A 
ATOM     64  C   UNL A   1      44.069  30.864  28.836  1.00  0.00     0.049 A 
ATOM     65  H   UNL A   1      43.778  28.872  28.198  1.00  0.00     0.167 HD
ATOM     66  C   UNL A   1      46.274  30.193  27.916  1.00  0.00     0.074 A 
ATOM     67  C   UNL A   1      47.663  30.439  27.583  1.00  0.00     0.031 C 
ATOM     68  C   UNL A   1      45.442  31.111  28.468  1.00  0.00     0.037 A 
BRANCH  55  69
ATOM     69  C   UNL A   1      39.700  29.053  29.453  1.00  0.00     0.064 A 
ATOM     70  C   UNL A   1      38.718  29.529  28.571  1.00  0.00     0.173 A 
ATOM     71  C   UNL A   1      39.322  28.803  30.782  1.00  0.00     0.173 A 
ATOM     72  F   UNL A   1      39.028  29.788  27.292  1.00  0.00    -0.203 F 
ATOM     73  C   UNL A   1      37.413  29.758  29.005  1.00  0.00     0.198 A 
ATOM     74  C   UNL A   1      38.012  29.009  31.207  1.00  0.00     0.198 A 
ATOM     75  F   UNL A   1      40.220  28.339  31.664  1.00  0.00    -0.203 F 
ATOM     76  F   UNL A   1      36.499  30.238  28.151  1.00  0.00    -0.200 F 
ATOM     77  C   UNL A   1      37.060  29.490  30.319  1.00  0.00     0.200 A 
ATOM     78  F   UNL A   1      37.668  28.737  32.472  1.00  0.00    -0.200 F 
ATOM     79  F   UNL A   1      35.801  29.696  30.731  1.00  0.00    -0.200 F 
ENDBRANCH  55  69
BRANCH  56  80
ATOM     80  C   UNL A   1      48.739  26.682  25.970  1.00  0.00     0.064 A 
ATOM     81  C   UNL A   1      49.104  27.018  24.660  1.00  0.00     0.173 A 
ATOM     82  C   UNL A   1      49.697  26.052  26.779  1.00  0.00     0.173 A 
ATOM     83  F   UNL A   1      48.215  27.607  23.848  1.00  0.00    -0.203 F 
ATOM     84  C   UNL A   1      50.378  26.735  24.177  1.00  0.00     0.198 A 
ATOM     85  C   UNL A   1      50.979  25.791  26.302  1.00  0.00     0.198 A 
ATOM     86  F   UNL A   1      49.394  25.721  28.043  1.00  0.00    -0.203 F 
ATOM     87  F   UNL A   1      50.698  27.047  22.914  1.00  0.00    -0.200 F 
ATOM     88  C   UNL A   1      51.318  26.131  25.001  1.00  0.00     0.200 A 
ATOM     89  F   UNL A   1      51.887  25.224  27.107  1.00  0.00    -0.200 F 
ATOM     90  F   UNL A   1      52.551  25.878  24.541  1.00  0.00    -0.200 F 
ENDBRANCH  56  80
BRANCH  68  91
ATOM     91  C   UNL A   1      46.012  32.477  28.725  1.00  0.00     0.064 A 
ATOM     92  C   UNL A   1      46.657  32.783  29.933  1.00  0.00     0.173 A 
ATOM     93  C   UNL A   1      45.927  33.485  27.753  1.00  0.00     0.173 A 
ATOM     94  F   UNL A   1      46.749  31.858  30.902  1.00  0.00    -0.203 F 
ATOM     95  C   UNL A   1      47.170  34.055  30.170  1.00  0.00     0.198 A 
ATOM     96  C   UNL A   1      46.468  34.748  27.981  1.00  0.00     0.198 A 
ATOM     97  F   UNL A   1      45.326  33.244  26.579  1.00  0.00    -0.203 F 
ATOM     98  F   UNL A   1      47.734  34.339  31.353  1.00  0.00    -0.200 F 
ATOM     99  C   UNL A   1      47.080  35.035  29.192  1.00  0.00     0.200 A 
ATOM    100  F   UNL A   1      46.391  35.690  27.032  1.00  0.00    -0.200 F 
ATOM    101  F   UNL A   1      47.576  36.259  29.421  1.00  0.00    -0.200 F 
ENDBRANCH  68  91
ENDBRANCH  42  43
ENDBRANCH  35  37
ENDBRANCH  34  35
ENDBRANCH  33  34
ENDBRANCH  32  33
ENDBRANCH  31  32
ENDBRANCH  30  31
ENDBRANCH   1  30
TORSDOF 19
ENDMDL
