MODEL 1
REMARK VINA RESULT:     -10.7      0.000      0.000
REMARK SMILES Cc1cc(C)c2c(OCCCC(=O)OCCOCCOCCOC(=O)c3ccc(-c4c5nc(c(-c6c(F)c(F)c(F)c(F)c6F)c6ccc([nH]6)c(-c6c(F)c(F)c(F)c(F)c6F)c6nc(c(-c7c(F)c(F)c(F)c(F)c7F)c7ccc4[nH]7)C=C6)C=C5)cc3)nsc2n1
REMARK SMILES IDX 18 1 17 2 16 3 15 4 14 5 12 6 13 7 11 8 10 9 9 10 8 11 7 12
REMARK SMILES IDX 1 13 2 14 3 15 92 16 4 17 91 18 5 19 6 20 90 21 89 22 19 23
REMARK SMILES IDX 20 24 21 25 22 26 23 27 24 28 25 29 26 30 27 31 88 32 28 33
REMARK SMILES IDX 87 34 29 35 30 36 31 37 81 38 32 39 86 40 80 41 82 42 33 43
REMARK SMILES IDX 85 44 79 45 78 46 34 48 66 49 46 50 65 51 47 52 50 53 64 54
REMARK SMILES IDX 83 55 48 56 49 57 63 59 84 60 51 61 35 62 36 63 44 64 37 65
REMARK SMILES IDX 38 66 42 67 45 68 39 69 40 70 43 71 41 72 67 73 68 74 76 75
REMARK SMILES IDX 69 76 70 77 74 78 77 79 71 80 72 81 75 82 73 83 52 84 53 85
REMARK SMILES IDX 61 86 54 87 55 88 59 89 62 90 56 91 57 92 60 93 58 94
REMARK H PARENT 82 47 50 58
REMARK Flexibility Score: inf
ROOT
ATOM      1  C   UNL A   1      40.522  21.838  26.480  1.00  0.00     0.188 C 
ENDROOT
BRANCH   1   2
ATOM      2  O   UNL A   1      39.111  21.918  26.415  1.00  0.00    -0.376 OA
BRANCH   2   3
ATOM      3  C   UNL A   1      38.582  23.235  26.328  1.00  0.00     0.202 C 
BRANCH   3   4
ATOM      4  C   UNL A   1      37.388  23.498  25.390  1.00  0.00     0.261 C 
BRANCH   4   5
ATOM      5  O   UNL A   1      36.976  22.396  24.515  1.00  0.00    -0.463 OA
BRANCH   5   6
ATOM      6  C   UNL A   1      35.658  22.276  24.220  1.00  0.00     0.305 C 
ATOM      7  O   UNL A   1      34.976  21.347  24.652  1.00  0.00    -0.252 OA
BRANCH   6   8
ATOM      8  C   UNL A   1      35.025  23.306  23.269  1.00  0.00     0.126 C 
BRANCH   8   9
ATOM      9  C   UNL A   1      33.702  23.256  22.481  1.00  0.00     0.053 C 
BRANCH   9  10
ATOM     10  C   UNL A   1      32.832  24.468  22.094  1.00  0.00     0.232 C 
BRANCH  10  11
ATOM     11  O   UNL A   1      33.210  25.819  22.343  1.00  0.00    -0.477 OA
BRANCH  11  12
ATOM     12  C   UNL A   1      32.328  26.628  22.960  1.00  0.00     0.235 A 
ATOM     13  C   UNL A   1      32.673  30.445  26.853  1.00  0.00     0.067 C 
ATOM     14  C   UNL A   1      32.306  29.162  26.157  1.00  0.00     0.039 A 
ATOM     15  C   UNL A   1      33.032  28.003  26.414  1.00  0.00     0.027 A 
ATOM     16  N   UNL A   1      31.407  29.259  25.165  1.00  0.00    -0.240 NA
ATOM     17  C   UNL A   1      33.090  26.955  25.474  1.00  0.00    -0.034 A 
ATOM     18  C   UNL A   1      31.453  28.238  24.292  1.00  0.00     0.147 A 
ATOM     19  C   UNL A   1      34.019  25.796  25.711  1.00  0.00     0.045 C 
ATOM     20  C   UNL A   1      32.340  27.161  24.292  1.00  0.00     0.078 A 
ATOM     21  S   UNL A   1      30.442  28.150  22.926  1.00  0.00    -0.012 S 
ATOM     22  N   UNL A   1      31.303  26.949  22.173  1.00  0.00    -0.153 NA
ENDBRANCH  11  12
ENDBRANCH  10  11
ENDBRANCH   9  10
ENDBRANCH   8   9
ENDBRANCH   6   8
ENDBRANCH   5   6
ENDBRANCH   4   5
ENDBRANCH   3   4
ENDBRANCH   2   3
ENDBRANCH   1   2
BRANCH   1  23
ATOM     23  C   UNL A   1      41.157  20.456  26.206  1.00  0.00     0.188 C 
BRANCH  23  24
ATOM     24  O   UNL A   1      42.430  20.429  25.589  1.00  0.00    -0.376 OA
BRANCH  24  25
ATOM     25  C   UNL A   1      43.486  21.353  25.823  1.00  0.00     0.202 C 
BRANCH  25  26
ATOM     26  C   UNL A   1      43.965  22.458  24.879  1.00  0.00     0.261 C 
BRANCH  26  27
ATOM     27  O   UNL A   1      43.106  23.559  24.791  1.00  0.00    -0.460 OA
BRANCH  27  28
ATOM     28  C   UNL A   1      43.594  24.699  25.295  1.00  0.00     0.338 C 
ATOM     29  O   UNL A   1      44.592  25.320  24.944  1.00  0.00    -0.246 OA
BRANCH  28  30
ATOM     30  C   UNL A   1      42.621  25.154  26.282  1.00  0.00     0.060 A 
ATOM     31  C   UNL A   1      41.443  25.745  25.822  1.00  0.00     0.016 A 
ATOM     32  C   UNL A   1      42.952  25.084  27.648  1.00  0.00     0.016 A 
ATOM     33  C   UNL A   1      40.806  26.599  26.678  1.00  0.00     0.010 A 
ATOM     34  C   UNL A   1      42.296  25.902  28.509  1.00  0.00     0.010 A 
ATOM     35  C   UNL A   1      41.388  26.775  27.934  1.00  0.00    -0.014 A 
BRANCH  35  36
ATOM     36  C   UNL A   1      41.272  28.068  28.548  1.00  0.00     0.031 A 
ATOM     37  C   UNL A   1      42.365  28.962  28.167  1.00  0.00     0.074 A 
ATOM     38  C   UNL A   1      40.191  28.350  29.302  1.00  0.00     0.049 A 
ATOM     39  N   UNL A   1      43.370  29.306  28.897  1.00  0.00    -0.248 NA
ATOM     40  C   UNL A   1      42.489  29.312  26.744  1.00  0.00     0.031 C 
ATOM     41  C   UNL A   1      38.956  27.572  29.484  1.00  0.00     0.029 A 
ATOM     42  N   UNL A   1      39.942  29.473  30.020  1.00  0.00    -0.354 N 
ATOM     43  C   UNL A   1      44.138  30.108  28.072  1.00  0.00     0.074 A 
ATOM     44  C   UNL A   1      43.706  29.853  26.725  1.00  0.00     0.031 C 
ATOM     45  C   UNL A   1      38.014  28.348  30.070  1.00  0.00     0.029 A 
ATOM     46  C   UNL A   1      38.617  29.617  30.425  1.00  0.00     0.049 A 
ATOM     47  H   UNL A   1      40.641  30.134  30.236  1.00  0.00     0.167 HD
ATOM     48  C   UNL A   1      44.832  31.156  28.586  1.00  0.00     0.037 A 
ATOM     49  C   UNL A   1      38.095  30.771  30.910  1.00  0.00     0.037 A 
ATOM     50  C   UNL A   1      44.989  31.030  30.012  1.00  0.00     0.049 A 
ATOM     51  C   UNL A   1      39.253  31.599  31.362  1.00  0.00     0.074 A 
ATOM     52  C   UNL A   1      45.612  30.106  30.830  1.00  0.00     0.029 A 
ATOM     53  N   UNL A   1      44.100  31.703  30.815  1.00  0.00    -0.354 N 
ATOM     54  N   UNL A   1      40.020  31.277  32.369  1.00  0.00    -0.248 NA
ATOM     55  C   UNL A   1      39.851  32.497  30.383  1.00  0.00     0.031 C 
ATOM     56  C   UNL A   1      44.757  29.966  31.961  1.00  0.00     0.029 A 
ATOM     57  C   UNL A   1      43.690  30.854  31.814  1.00  0.00     0.049 A 
ATOM     58  H   UNL A   1      43.806  32.635  30.696  1.00  0.00     0.167 HD
ATOM     59  C   UNL A   1      41.308  31.586  31.948  1.00  0.00     0.074 A 
ATOM     60  C   UNL A   1      41.134  32.385  30.739  1.00  0.00     0.031 C 
ATOM     61  C   UNL A   1      42.391  30.917  32.445  1.00  0.00     0.037 A 
BRANCH  48  62
ATOM     62  C   UNL A   1      45.024  32.444  27.839  1.00  0.00     0.064 A 
ATOM     63  C   UNL A   1      46.283  32.734  27.291  1.00  0.00     0.173 A 
ATOM     64  C   UNL A   1      44.098  33.514  27.847  1.00  0.00     0.173 A 
ATOM     65  F   UNL A   1      47.248  31.802  27.274  1.00  0.00    -0.203 F 
ATOM     66  C   UNL A   1      46.600  34.009  26.820  1.00  0.00     0.198 A 
ATOM     67  C   UNL A   1      44.394  34.764  27.315  1.00  0.00     0.198 A 
ATOM     68  F   UNL A   1      42.913  33.436  28.465  1.00  0.00    -0.203 F 
ATOM     69  F   UNL A   1      47.847  34.271  26.409  1.00  0.00    -0.200 F 
ATOM     70  C   UNL A   1      45.655  35.021  26.828  1.00  0.00     0.200 A 
ATOM     71  F   UNL A   1      43.468  35.733  27.355  1.00  0.00    -0.200 F 
ATOM     72  F   UNL A   1      45.972  36.254  26.415  1.00  0.00    -0.200 F 
ENDBRANCH  48  62
BRANCH  49  73
ATOM     73  C   UNL A   1      36.772  31.374  30.607  1.00  0.00     0.064 A 
ATOM     74  C   UNL A   1      35.926  31.794  31.648  1.00  0.00     0.173 A 
ATOM     75  C   UNL A   1      36.446  31.832  29.316  1.00  0.00     0.173 A 
ATOM     76  F   UNL A   1      36.185  31.432  32.913  1.00  0.00    -0.203 F 
ATOM     77  C   UNL A   1      34.851  32.660  31.419  1.00  0.00     0.198 A 
ATOM     78  C   UNL A   1      35.370  32.692  29.087  1.00  0.00     0.198 A 
ATOM     79  F   UNL A   1      37.222  31.542  28.263  1.00  0.00    -0.203 F 
ATOM     80  F   UNL A   1      34.114  33.099  32.448  1.00  0.00    -0.200 F 
ATOM     81  C   UNL A   1      34.584  33.121  30.141  1.00  0.00     0.200 A 
ATOM     82  F   UNL A   1      35.144  33.159  27.850  1.00  0.00    -0.200 F 
ATOM     83  F   UNL A   1      33.602  34.010  29.930  1.00  0.00    -0.200 F 
ENDBRANCH  49  73
BRANCH  61  84
ATOM     84  C   UNL A   1      42.160  30.000  33.620  1.00  0.00     0.064 A 
ATOM     85  C   UNL A   1      41.774  28.652  33.503  1.00  0.00     0.173 A 
ATOM     86  C   UNL A   1      42.487  30.464  34.900  1.00  0.00     0.173 A 
ATOM     87  F   UNL A   1      41.539  28.106  32.304  1.00  0.00    -0.203 F 
ATOM     88  C   UNL A   1      41.684  27.823  34.622  1.00  0.00     0.198 A 
ATOM     89  C   UNL A   1      42.432  29.625  36.010  1.00  0.00     0.198 A 
ATOM     90  F   UNL A   1      42.913  31.726  35.066  1.00  0.00    -0.203 F 
ATOM     91  F   UNL A   1      41.308  26.543  34.483  1.00  0.00    -0.200 F 
ATOM     92  C   UNL A   1      42.022  28.309  35.874  1.00  0.00     0.200 A 
ATOM     93  F   UNL A   1      42.808  30.087  37.210  1.00  0.00    -0.200 F 
ATOM     94  F   UNL A   1      41.982  27.502  36.943  1.00  0.00    -0.200 F 
ENDBRANCH  61  84
ENDBRANCH  35  36
ENDBRANCH  28  30
ENDBRANCH  27  28
ENDBRANCH  26  27
ENDBRANCH  25  26
ENDBRANCH  24  25
ENDBRANCH  23  24
ENDBRANCH   1  23
TORSDOF 21
ENDMDL
MODEL 2
REMARK VINA RESULT:     -10.6      4.080      9.606
REMARK SMILES Cc1cc(C)c2c(OCCCC(=O)OCCOCCOCCOC(=O)c3ccc(-c4c5nc(c(-c6c(F)c(F)c(F)c(F)c6F)c6ccc([nH]6)c(-c6c(F)c(F)c(F)c(F)c6F)c6nc(c(-c7c(F)c(F)c(F)c(F)c7F)c7ccc4[nH]7)C=C6)C=C5)cc3)nsc2n1
REMARK SMILES IDX 18 1 17 2 16 3 15 4 14 5 12 6 13 7 11 8 10 9 9 10 8 11 7 12
REMARK SMILES IDX 1 13 2 14 3 15 92 16 4 17 91 18 5 19 6 20 90 21 89 22 19 23
REMARK SMILES IDX 20 24 21 25 22 26 23 27 24 28 25 29 26 30 27 31 88 32 28 33
REMARK SMILES IDX 87 34 29 35 30 36 31 37 81 38 32 39 86 40 80 41 82 42 33 43
REMARK SMILES IDX 85 44 79 45 78 46 34 48 66 49 46 50 65 51 47 52 50 53 64 54
REMARK SMILES IDX 83 55 48 56 49 57 63 59 84 60 51 61 35 62 36 63 44 64 37 65
REMARK SMILES IDX 38 66 42 67 45 68 39 69 40 70 43 71 41 72 67 73 68 74 76 75
REMARK SMILES IDX 69 76 70 77 74 78 77 79 71 80 72 81 75 82 73 83 52 84 53 85
REMARK SMILES IDX 61 86 54 87 55 88 59 89 62 90 56 91 57 92 60 93 58 94
REMARK H PARENT 82 47 50 58
REMARK Flexibility Score: inf
ROOT
ATOM      1  C   UNL A   1      33.480  35.430  30.518  1.00  0.00     0.188 C 
ENDROOT
BRANCH   1   2
ATOM      2  O   UNL A   1      32.613  34.753  29.629  1.00  0.00    -0.376 OA
BRANCH   2   3
ATOM      3  C   UNL A   1      33.180  34.418  28.369  1.00  0.00     0.202 C 
BRANCH   3   4
ATOM      4  C   UNL A   1      33.318  32.931  27.987  1.00  0.00     0.261 C 
BRANCH   4   5
ATOM      5  O   UNL A   1      34.356  32.161  28.679  1.00  0.00    -0.463 OA
BRANCH   5   6
ATOM      6  C   UNL A   1      35.563  32.032  28.075  1.00  0.00     0.305 C 
ATOM      7  O   UNL A   1      36.269  33.006  27.815  1.00  0.00    -0.252 OA
BRANCH   6   8
ATOM      8  C   UNL A   1      36.024  30.626  27.655  1.00  0.00     0.126 C 
BRANCH   8   9
ATOM      9  C   UNL A   1      35.261  29.287  27.645  1.00  0.00     0.053 C 
BRANCH   9  10
ATOM     10  C   UNL A   1      33.869  29.042  27.029  1.00  0.00     0.232 C 
BRANCH  10  11
ATOM     11  O   UNL A   1      33.526  27.863  26.307  1.00  0.00    -0.477 OA
BRANCH  11  12
ATOM     12  C   UNL A   1      33.138  27.988  25.023  1.00  0.00     0.235 A 
ATOM     13  C   UNL A   1      28.377  28.922  22.513  1.00  0.00     0.067 C 
ATOM     14  C   UNL A   1      29.627  28.212  22.957  1.00  0.00     0.039 A 
ATOM     15  C   UNL A   1      29.566  27.283  23.991  1.00  0.00     0.027 A 
ATOM     16  N   UNL A   1      30.782  28.671  22.450  1.00  0.00    -0.240 NA
ATOM     17  C   UNL A   1      30.700  26.984  24.771  1.00  0.00    -0.034 A 
ATOM     18  C   UNL A   1      31.860  28.354  23.189  1.00  0.00     0.147 A 
ATOM     19  C   UNL A   1      30.557  26.106  25.984  1.00  0.00     0.045 C 
ATOM     20  C   UNL A   1      31.885  27.666  24.402  1.00  0.00     0.078 A 
ATOM     21  S   UNL A   1      33.435  28.851  22.778  1.00  0.00    -0.012 S 
ATOM     22  N   UNL A   1      34.102  28.484  24.251  1.00  0.00    -0.153 NA
ENDBRANCH  11  12
ENDBRANCH  10  11
ENDBRANCH   9  10
ENDBRANCH   8   9
ENDBRANCH   6   8
ENDBRANCH   5   6
ENDBRANCH   4   5
ENDBRANCH   3   4
ENDBRANCH   2   3
ENDBRANCH   1   2
BRANCH   1  23
ATOM     23  C   UNL A   1      33.031  35.530  31.993  1.00  0.00     0.188 C 
BRANCH  23  24
ATOM     24  O   UNL A   1      33.861  34.940  32.975  1.00  0.00    -0.376 OA
BRANCH  24  25
ATOM     25  C   UNL A   1      35.208  35.301  33.250  1.00  0.00     0.202 C 
BRANCH  25  26
ATOM     26  C   UNL A   1      36.469  34.591  32.752  1.00  0.00     0.261 C 
BRANCH  26  27
ATOM     27  O   UNL A   1      36.227  33.462  31.962  1.00  0.00    -0.460 OA
BRANCH  27  28
ATOM     28  C   UNL A   1      36.646  32.304  32.484  1.00  0.00     0.338 C 
ATOM     29  O   UNL A   1      36.489  31.885  33.626  1.00  0.00    -0.246 OA
BRANCH  28  30
ATOM     30  C   UNL A   1      37.229  31.550  31.381  1.00  0.00     0.060 A 
ATOM     31  C   UNL A   1      36.850  30.216  31.221  1.00  0.00     0.016 A 
ATOM     32  C   UNL A   1      38.227  32.154  30.594  1.00  0.00     0.016 A 
ATOM     33  C   UNL A   1      37.726  29.399  30.563  1.00  0.00     0.010 A 
ATOM     34  C   UNL A   1      39.078  31.350  29.908  1.00  0.00     0.010 A 
ATOM     35  C   UNL A   1      38.902  29.989  30.099  1.00  0.00    -0.014 A 
BRANCH  35  36
ATOM     36  C   UNL A   1      40.094  29.187  30.093  1.00  0.00     0.031 A 
ATOM     37  C   UNL A   1      40.664  29.031  31.430  1.00  0.00     0.074 A 
ATOM     38  C   UNL A   1      40.503  28.617  28.942  1.00  0.00     0.049 A 
ATOM     39  N   UNL A   1      41.713  29.618  31.894  1.00  0.00    -0.248 NA
ATOM     40  C   UNL A   1      39.843  28.347  32.440  1.00  0.00     0.031 C 
ATOM     41  C   UNL A   1      39.811  28.536  27.647  1.00  0.00     0.029 A 
ATOM     42  N   UNL A   1      41.632  27.899  28.720  1.00  0.00    -0.354 N 
ATOM     43  C   UNL A   1      41.800  29.185  33.205  1.00  0.00     0.074 A 
ATOM     44  C   UNL A   1      40.512  28.649  33.551  1.00  0.00     0.031 C 
ATOM     45  C   UNL A   1      40.429  27.625  26.859  1.00  0.00     0.029 A 
ATOM     46  C   UNL A   1      41.626  27.167  27.534  1.00  0.00     0.049 A 
ATOM     47  H   UNL A   1      42.393  27.896  29.346  1.00  0.00     0.167 HD
ATOM     48  C   UNL A   1      43.012  28.998  33.788  1.00  0.00     0.037 A 
ATOM     49  C   UNL A   1      42.518  26.186  27.247  1.00  0.00     0.037 A 
ATOM     50  C   UNL A   1      44.051  29.683  33.063  1.00  0.00     0.049 A 
ATOM     51  C   UNL A   1      43.692  26.409  28.143  1.00  0.00     0.074 A 
ATOM     52  C   UNL A   1      44.301  31.010  32.770  1.00  0.00     0.029 A 
ATOM     53  N   UNL A   1      44.787  28.954  32.159  1.00  0.00    -0.354 N 
ATOM     54  N   UNL A   1      44.483  27.444  28.053  1.00  0.00    -0.248 NA
ATOM     55  C   UNL A   1      43.669  25.753  29.444  1.00  0.00     0.031 C 
ATOM     56  C   UNL A   1      44.810  31.014  31.439  1.00  0.00     0.029 A 
ATOM     57  C   UNL A   1      44.909  29.691  31.007  1.00  0.00     0.049 A 
ATOM     58  H   UNL A   1      45.162  28.056  32.312  1.00  0.00     0.167 HD
ATOM     59  C   UNL A   1      44.734  27.817  29.367  1.00  0.00     0.074 A 
ATOM     60  C   UNL A   1      44.251  26.705  30.180  1.00  0.00     0.031 C 
ATOM     61  C   UNL A   1      45.032  29.112  29.687  1.00  0.00     0.037 A 
BRANCH  48  62
ATOM     62  C   UNL A   1      43.273  27.901  34.779  1.00  0.00     0.064 A 
ATOM     63  C   UNL A   1      43.665  28.239  36.083  1.00  0.00     0.173 A 
ATOM     64  C   UNL A   1      43.394  26.533  34.437  1.00  0.00     0.173 A 
ATOM     65  F   UNL A   1      43.630  29.516  36.494  1.00  0.00    -0.203 F 
ATOM     66  C   UNL A   1      44.171  27.283  36.966  1.00  0.00     0.198 A 
ATOM     67  C   UNL A   1      43.835  25.573  35.341  1.00  0.00     0.198 A 
ATOM     68  F   UNL A   1      43.201  26.082  33.192  1.00  0.00    -0.203 F 
ATOM     69  F   UNL A   1      44.636  27.668  38.162  1.00  0.00    -0.200 F 
ATOM     70  C   UNL A   1      44.251  25.952  36.597  1.00  0.00     0.200 A 
ATOM     71  F   UNL A   1      43.924  24.293  34.951  1.00  0.00    -0.200 F 
ATOM     72  F   UNL A   1      44.777  25.043  37.428  1.00  0.00    -0.200 F 
ENDBRANCH  48  62
BRANCH  49  73
ATOM     73  C   UNL A   1      42.255  24.869  26.613  1.00  0.00     0.064 A 
ATOM     74  C   UNL A   1      43.072  24.405  25.568  1.00  0.00     0.173 A 
ATOM     75  C   UNL A   1      41.411  23.915  27.215  1.00  0.00     0.173 A 
ATOM     76  F   UNL A   1      43.931  25.241  24.965  1.00  0.00    -0.203 F 
ATOM     77  C   UNL A   1      43.081  23.061  25.181  1.00  0.00     0.198 A 
ATOM     78  C   UNL A   1      41.417  22.574  26.824  1.00  0.00     0.198 A 
ATOM     79  F   UNL A   1      40.638  24.237  28.260  1.00  0.00    -0.203 F 
ATOM     80  F   UNL A   1      43.930  22.643  24.233  1.00  0.00    -0.200 F 
ATOM     81  C   UNL A   1      42.266  22.144  25.822  1.00  0.00     0.200 A 
ATOM     82  F   UNL A   1      40.648  21.690  27.476  1.00  0.00    -0.200 F 
ATOM     83  F   UNL A   1      42.328  20.842  25.506  1.00  0.00    -0.200 F 
ENDBRANCH  49  73
BRANCH  61  84
ATOM     84  C   UNL A   1      45.299  30.063  28.548  1.00  0.00     0.064 A 
ATOM     85  C   UNL A   1      44.303  30.820  27.904  1.00  0.00     0.173 A 
ATOM     86  C   UNL A   1      46.629  30.328  28.201  1.00  0.00     0.173 A 
ATOM     87  F   UNL A   1      43.016  30.696  28.249  1.00  0.00    -0.203 F 
ATOM     88  C   UNL A   1      44.626  31.767  26.932  1.00  0.00     0.198 A 
ATOM     89  C   UNL A   1      46.952  31.300  27.257  1.00  0.00     0.198 A 
ATOM     90  F   UNL A   1      47.626  29.676  28.821  1.00  0.00    -0.203 F 
ATOM     91  F   UNL A   1      43.656  32.471  26.329  1.00  0.00    -0.200 F 
ATOM     92  C   UNL A   1      45.952  32.012  26.616  1.00  0.00     0.200 A 
ATOM     93  F   UNL A   1      48.238  31.567  26.992  1.00  0.00    -0.200 F 
ATOM     94  F   UNL A   1      46.267  32.954  25.716  1.00  0.00    -0.200 F 
ENDBRANCH  61  84
ENDBRANCH  35  36
ENDBRANCH  28  30
ENDBRANCH  27  28
ENDBRANCH  26  27
ENDBRANCH  25  26
ENDBRANCH  24  25
ENDBRANCH  23  24
ENDBRANCH   1  23
TORSDOF 21
ENDMDL
MODEL 3
REMARK VINA RESULT:     -10.5      2.274      3.397
REMARK SMILES Cc1cc(C)c2c(OCCCC(=O)OCCOCCOCCOC(=O)c3ccc(-c4c5nc(c(-c6c(F)c(F)c(F)c(F)c6F)c6ccc([nH]6)c(-c6c(F)c(F)c(F)c(F)c6F)c6nc(c(-c7c(F)c(F)c(F)c(F)c7F)c7ccc4[nH]7)C=C6)C=C5)cc3)nsc2n1
REMARK SMILES IDX 18 1 17 2 16 3 15 4 14 5 12 6 13 7 11 8 10 9 9 10 8 11 7 12
REMARK SMILES IDX 1 13 2 14 3 15 92 16 4 17 91 18 5 19 6 20 90 21 89 22 19 23
REMARK SMILES IDX 20 24 21 25 22 26 23 27 24 28 25 29 26 30 27 31 88 32 28 33
REMARK SMILES IDX 87 34 29 35 30 36 31 37 81 38 32 39 86 40 80 41 82 42 33 43
REMARK SMILES IDX 85 44 79 45 78 46 34 48 66 49 46 50 65 51 47 52 50 53 64 54
REMARK SMILES IDX 83 55 48 56 49 57 63 59 84 60 51 61 35 62 36 63 44 64 37 65
REMARK SMILES IDX 38 66 42 67 45 68 39 69 40 70 43 71 41 72 67 73 68 74 76 75
REMARK SMILES IDX 69 76 70 77 74 78 77 79 71 80 72 81 75 82 73 83 52 84 53 85
REMARK SMILES IDX 61 86 54 87 55 88 59 89 62 90 56 91 57 92 60 93 58 94
REMARK H PARENT 82 47 50 58
REMARK Flexibility Score: inf
ROOT
ATOM      1  C   UNL A   1      36.686  23.023  25.890  1.00  0.00     0.188 C 
ENDROOT
BRANCH   1   2
ATOM      2  O   UNL A   1      36.249  21.702  26.143  1.00  0.00    -0.376 OA
BRANCH   2   3
ATOM      3  C   UNL A   1      36.037  20.902  24.986  1.00  0.00     0.202 C 
BRANCH   3   4
ATOM      4  C   UNL A   1      34.664  20.230  24.788  1.00  0.00     0.261 C 
BRANCH   4   5
ATOM      5  O   UNL A   1      33.479  21.061  25.020  1.00  0.00    -0.463 OA
BRANCH   5   6
ATOM      6  C   UNL A   1      32.713  21.392  23.951  1.00  0.00     0.305 C 
ATOM      7  O   UNL A   1      32.304  20.547  23.156  1.00  0.00    -0.252 OA
BRANCH   6   8
ATOM      8  C   UNL A   1      32.406  22.879  23.705  1.00  0.00     0.126 C 
BRANCH   8   9
ATOM      9  C   UNL A   1      32.964  23.853  22.650  1.00  0.00     0.053 C 
BRANCH   9  10
ATOM     10  C   UNL A   1      32.355  25.215  22.262  1.00  0.00     0.232 C 
BRANCH  10  11
ATOM     11  O   UNL A   1      31.018  25.597  22.576  1.00  0.00    -0.477 OA
BRANCH  11  12
ATOM     12  C   UNL A   1      30.801  26.839  23.047  1.00  0.00     0.235 A 
ATOM     13  C   UNL A   1      32.798  29.791  27.187  1.00  0.00     0.067 C 
ATOM     14  C   UNL A   1      31.821  29.021  26.340  1.00  0.00     0.039 A 
ATOM     15  C   UNL A   1      31.514  27.703  26.662  1.00  0.00     0.027 A 
ATOM     16  N   UNL A   1      31.447  29.602  25.189  1.00  0.00    -0.240 NA
ATOM     17  C   UNL A   1      31.048  26.803  25.683  1.00  0.00    -0.034 A 
ATOM     18  C   UNL A   1      30.977  28.735  24.274  1.00  0.00     0.147 A 
ATOM     19  C   UNL A   1      30.889  25.347  26.028  1.00  0.00     0.045 C 
ATOM     20  C   UNL A   1      30.892  27.347  24.386  1.00  0.00     0.078 A 
ATOM     21  S   UNL A   1      30.475  29.219  22.722  1.00  0.00    -0.012 S 
ATOM     22  N   UNL A   1      30.443  27.688  22.086  1.00  0.00    -0.153 NA
ENDBRANCH  11  12
ENDBRANCH  10  11
ENDBRANCH   9  10
ENDBRANCH   8   9
ENDBRANCH   6   8
ENDBRANCH   5   6
ENDBRANCH   4   5
ENDBRANCH   3   4
ENDBRANCH   2   3
ENDBRANCH   1   2
BRANCH   1  23
ATOM     23  C   UNL A   1      38.201  23.296  26.020  1.00  0.00     0.188 C 
BRANCH  23  24
ATOM     24  O   UNL A   1      39.073  22.181  26.021  1.00  0.00    -0.376 OA
BRANCH  24  25
ATOM     25  C   UNL A   1      40.138  21.962  26.937  1.00  0.00     0.202 C 
BRANCH  25  26
ATOM     26  C   UNL A   1      41.058  20.740  26.999  1.00  0.00     0.261 C 
BRANCH  26  27
ATOM     27  O   UNL A   1      42.422  21.043  27.087  1.00  0.00    -0.460 OA
BRANCH  27  28
ATOM     28  C   UNL A   1      43.058  21.140  25.914  1.00  0.00     0.338 C 
ATOM     29  O   UNL A   1      43.062  20.341  24.984  1.00  0.00    -0.246 OA
BRANCH  28  30
ATOM     30  C   UNL A   1      43.659  22.468  25.889  1.00  0.00     0.060 A 
ATOM     31  C   UNL A   1      44.748  22.715  26.727  1.00  0.00     0.016 A 
ATOM     32  C   UNL A   1      43.056  23.475  25.113  1.00  0.00     0.016 A 
ATOM     33  C   UNL A   1      44.971  24.016  27.083  1.00  0.00     0.010 A 
ATOM     34  C   UNL A   1      43.302  24.769  25.437  1.00  0.00     0.010 A 
ATOM     35  C   UNL A   1      44.098  24.967  26.553  1.00  0.00    -0.014 A 
BRANCH  35  36
ATOM     36  C   UNL A   1      43.782  26.109  27.365  1.00  0.00     0.031 A 
ATOM     37  C   UNL A   1      44.761  27.184  27.217  1.00  0.00     0.074 A 
ATOM     38  C   UNL A   1      42.639  26.117  28.080  1.00  0.00     0.049 A 
ATOM     39  N   UNL A   1      45.676  27.516  28.062  1.00  0.00    -0.248 NA
ATOM     40  C   UNL A   1      44.903  27.791  25.885  1.00  0.00     0.031 C 
ATOM     41  C   UNL A   1      41.513  25.171  28.043  1.00  0.00     0.029 A 
ATOM     42  N   UNL A   1      42.209  27.057  28.958  1.00  0.00    -0.354 N 
ATOM     43  C   UNL A   1      46.366  28.540  27.438  1.00  0.00     0.074 A 
ATOM     44  C   UNL A   1      46.035  28.474  26.040  1.00  0.00     0.031 C 
ATOM     45  C   UNL A   1      40.449  25.709  28.685  1.00  0.00     0.029 A 
ATOM     46  C   UNL A   1      40.858  26.961  29.289  1.00  0.00     0.049 A 
ATOM     47  H   UNL A   1      42.801  27.750  29.329  1.00  0.00     0.167 HD
ATOM     48  C   UNL A   1      46.889  29.559  28.167  1.00  0.00     0.037 A 
ATOM     49  C   UNL A   1      40.164  27.938  29.924  1.00  0.00     0.037 A 
ATOM     50  C   UNL A   1      46.995  29.205  29.559  1.00  0.00     0.049 A 
ATOM     51  C   UNL A   1      41.179  28.811  30.588  1.00  0.00     0.074 A 
ATOM     52  C   UNL A   1      47.698  28.237  30.251  1.00  0.00     0.029 A 
ATOM     53  N   UNL A   1      45.988  29.612  30.401  1.00  0.00    -0.354 N 
ATOM     54  N   UNL A   1      41.935  28.416  31.576  1.00  0.00    -0.248 NA
ATOM     55  C   UNL A   1      41.695  29.934  29.817  1.00  0.00     0.031 C 
ATOM     56  C   UNL A   1      46.819  27.795  31.280  1.00  0.00     0.029 A 
ATOM     57  C   UNL A   1      45.651  28.555  31.212  1.00  0.00     0.049 A 
ATOM     58  H   UNL A   1      45.578  30.506  30.420  1.00  0.00     0.167 HD
ATOM     59  C   UNL A   1      43.188  28.951  31.303  1.00  0.00     0.074 A 
ATOM     60  C   UNL A   1      42.965  29.922  30.236  1.00  0.00     0.031 C 
ATOM     61  C   UNL A   1      44.326  28.345  31.754  1.00  0.00     0.037 A 
BRANCH  48  62
ATOM     62  C   UNL A   1      46.941  30.972  27.662  1.00  0.00     0.064 A 
ATOM     63  C   UNL A   1      45.740  31.639  27.377  1.00  0.00     0.173 A 
ATOM     64  C   UNL A   1      48.121  31.614  27.215  1.00  0.00     0.173 A 
ATOM     65  F   UNL A   1      44.563  31.096  27.719  1.00  0.00    -0.203 F 
ATOM     66  C   UNL A   1      45.722  32.841  26.666  1.00  0.00     0.198 A 
ATOM     67  C   UNL A   1      48.102  32.845  26.567  1.00  0.00     0.198 A 
ATOM     68  F   UNL A   1      49.325  31.035  27.282  1.00  0.00    -0.203 F 
ATOM     69  F   UNL A   1      44.548  33.386  26.319  1.00  0.00    -0.200 F 
ATOM     70  C   UNL A   1      46.901  33.445  26.267  1.00  0.00     0.200 A 
ATOM     71  F   UNL A   1      49.258  33.397  26.171  1.00  0.00    -0.200 F 
ATOM     72  F   UNL A   1      46.881  34.575  25.550  1.00  0.00    -0.200 F 
ENDBRANCH  48  62
BRANCH  49  73
ATOM     73  C   UNL A   1      38.788  28.416  29.637  1.00  0.00     0.064 A 
ATOM     74  C   UNL A   1      37.906  28.720  30.688  1.00  0.00     0.173 A 
ATOM     75  C   UNL A   1      38.417  28.877  28.359  1.00  0.00     0.173 A 
ATOM     76  F   UNL A   1      38.201  28.348  31.943  1.00  0.00    -0.203 F 
ATOM     77  C   UNL A   1      36.750  29.481  30.482  1.00  0.00     0.198 A 
ATOM     78  C   UNL A   1      37.260  29.632  28.153  1.00  0.00     0.198 A 
ATOM     79  F   UNL A   1      39.217  28.695  27.300  1.00  0.00    -0.203 F 
ATOM     80  F   UNL A   1      35.975  29.816  31.522  1.00  0.00    -0.200 F 
ATOM     81  C   UNL A   1      36.438  29.951  29.217  1.00  0.00     0.200 A 
ATOM     82  F   UNL A   1      36.988  30.109  26.930  1.00  0.00    -0.200 F 
ATOM     83  F   UNL A   1      35.373  30.743  29.030  1.00  0.00    -0.200 F 
ENDBRANCH  49  73
BRANCH  61  84
ATOM     84  C   UNL A   1      44.166  27.214  32.739  1.00  0.00     0.064 A 
ATOM     85  C   UNL A   1      44.106  25.856  32.377  1.00  0.00     0.173 A 
ATOM     86  C   UNL A   1      44.228  27.510  34.106  1.00  0.00     0.173 A 
ATOM     87  F   UNL A   1      44.143  25.486  31.091  1.00  0.00    -0.203 F 
ATOM     88  C   UNL A   1      44.070  24.848  33.341  1.00  0.00     0.198 A 
ATOM     89  C   UNL A   1      44.229  26.502  35.066  1.00  0.00     0.198 A 
ATOM     90  F   UNL A   1      44.341  28.785  34.511  1.00  0.00    -0.203 F 
ATOM     91  F   UNL A   1      44.007  23.561  32.968  1.00  0.00    -0.200 F 
ATOM     92  C   UNL A   1      44.141  25.172  34.685  1.00  0.00     0.200 A 
ATOM     93  F   UNL A   1      44.348  26.819  36.363  1.00  0.00    -0.200 F 
ATOM     94  F   UNL A   1      44.153  24.204  35.612  1.00  0.00    -0.200 F 
ENDBRANCH  61  84
ENDBRANCH  35  36
ENDBRANCH  28  30
ENDBRANCH  27  28
ENDBRANCH  26  27
ENDBRANCH  25  26
ENDBRANCH  24  25
ENDBRANCH  23  24
ENDBRANCH   1  23
TORSDOF 21
ENDMDL
