MODEL 1
REMARK VINA RESULT:     -11.6      0.000      0.000
REMARK SMILES Cc1n[nH]c(C[N@H+]2CCC[C@H](c3cccc(C(=O)OCCOCCOCCOC(=O)c4ccc(-c5c6nc(c(-c7c(F)c(F)c(F)c(F)c7F)c7ccc([nH]7)c(-c7c(F)c(F)c(F)c(F)c7F)c7nc(c(-c8c(F)c(F)c(F)c(F)c8F)c8ccc5[nH]8)C=C7)C=C6)cc4)c3)C2)n1
REMARK SMILES IDX 23 1 22 2 21 3 20 4 19 5 17 6 18 7 16 8 12 9 13 10 94 11
REMARK SMILES IDX 14 12 15 13 11 14 7 15 8 16 95 17 9 19 10 20 6 21 5 22 1 23
REMARK SMILES IDX 2 24 3 25 96 26 4 27 24 29 25 30 26 31 27 32 28 33 29 34
REMARK SMILES IDX 30 35 31 36 32 37 93 38 33 39 92 40 34 41 35 42 36 43 86 44
REMARK SMILES IDX 37 45 91 46 85 47 87 48 38 49 90 50 84 51 83 52 39 54 71 55
REMARK SMILES IDX 51 56 70 57 52 58 55 59 69 60 88 61 53 62 54 63 68 65 89 66
REMARK SMILES IDX 56 67 40 68 41 69 49 70 42 71 43 72 47 73 50 74 44 75 45 76
REMARK SMILES IDX 48 77 46 78 72 79 73 80 81 81 74 82 75 83 79 84 82 85 76 86
REMARK SMILES IDX 77 87 80 88 78 89 57 90 58 91 66 92 59 93 60 94 64 95 67 96
REMARK SMILES IDX 61 97 62 98 65 99 63 100
REMARK H PARENT 7 18 4 28 87 53 55 64
REMARK Flexibility Score: inf
ROOT
ATOM      1  C   UNL A   1      33.286  37.485  31.698  1.00  0.00     0.188 C 
ENDROOT
BRANCH   1   2
ATOM      2  O   UNL A   1      32.574  36.865  30.649  1.00  0.00    -0.376 OA
BRANCH   2   3
ATOM      3  C   UNL A   1      32.921  35.529  30.308  1.00  0.00     0.202 C 
BRANCH   3   4
ATOM      4  C   UNL A   1      33.248  35.107  28.857  1.00  0.00     0.261 C 
BRANCH   4   5
ATOM      5  O   UNL A   1      33.562  33.727  28.636  1.00  0.00    -0.460 OA
BRANCH   5   6
ATOM      6  C   UNL A   1      34.860  33.405  28.422  1.00  0.00     0.338 C 
ATOM      7  O   UNL A   1      35.834  34.070  28.721  1.00  0.00    -0.246 OA
BRANCH   6   8
ATOM      8  C   UNL A   1      34.918  31.992  27.967  1.00  0.00     0.060 A 
ATOM      9  C   UNL A   1      33.829  29.875  27.397  1.00  0.00    -0.038 A 
ATOM     10  C   UNL A   1      35.103  29.286  27.347  1.00  0.00     0.004 A 
ATOM     11  C   UNL A   1      33.756  31.235  27.757  1.00  0.00     0.020 A 
ATOM     12  C   UNL A   1      36.263  30.033  27.567  1.00  0.00     0.001 A 
ATOM     13  C   UNL A   1      36.174  31.392  27.854  1.00  0.00     0.016 A 
BRANCH   9  14
ATOM     14  C   UNL A   1      32.548  29.085  27.099  1.00  0.00     0.074 C 
ATOM     15  N   UNL A   1      33.526  27.285  25.647  1.00  0.00    -0.328 N 
ATOM     16  C   UNL A   1      32.883  27.833  24.447  1.00  0.00     0.262 C 
ATOM     17  C   UNL A   1      32.736  27.560  26.866  1.00  0.00     0.270 C 
ATOM     18  H   UNL A   1      34.414  27.776  25.747  1.00  0.00     0.348 HD
ATOM     19  C   UNL A   1      32.580  29.327  24.585  1.00  0.00     0.062 C 
ATOM     20  C   UNL A   1      31.792  29.618  25.861  1.00  0.00     0.020 C 
BRANCH  15  21
ATOM     21  C   UNL A   1      33.875  25.859  25.515  1.00  0.00     0.340 C 
BRANCH  21  22
ATOM     22  C   UNL A   1      32.713  24.923  25.551  1.00  0.00     0.179 A 
ATOM     23  C   UNL A   1      30.029  23.098  26.924  1.00  0.00     0.092 C 
ATOM     24  C   UNL A   1      31.047  23.744  26.075  1.00  0.00     0.147 A 
ATOM     25  N   UNL A   1      30.973  23.777  24.738  1.00  0.00    -0.159 NA
ATOM     26  N   UNL A   1      32.122  24.399  26.605  1.00  0.00    -0.211 NA
ATOM     27  N   UNL A   1      32.049  24.519  24.429  1.00  0.00    -0.258 N 
ATOM     28  H   UNL A   1      32.322  24.744  23.511  1.00  0.00     0.192 HD
ENDBRANCH  21  22
ENDBRANCH  15  21
ENDBRANCH   9  14
ENDBRANCH   6   8
ENDBRANCH   5   6
ENDBRANCH   4   5
ENDBRANCH   3   4
ENDBRANCH   2   3
ENDBRANCH   1   2
BRANCH   1  29
ATOM     29  C   UNL A   1      33.547  36.553  32.901  1.00  0.00     0.188 C 
BRANCH  29  30
ATOM     30  O   UNL A   1      34.853  36.076  33.211  1.00  0.00    -0.376 OA
BRANCH  30  31
ATOM     31  C   UNL A   1      35.070  34.785  33.771  1.00  0.00     0.202 C 
BRANCH  31  32
ATOM     32  C   UNL A   1      34.345  33.555  33.226  1.00  0.00     0.261 C 
BRANCH  32  33
ATOM     33  O   UNL A   1      35.071  32.873  32.219  1.00  0.00    -0.460 OA
BRANCH  33  34
ATOM     34  C   UNL A   1      36.064  32.095  32.693  1.00  0.00     0.338 C 
ATOM     35  O   UNL A   1      36.370  31.910  33.857  1.00  0.00    -0.246 OA
BRANCH  34  36
ATOM     36  C   UNL A   1      36.783  31.492  31.563  1.00  0.00     0.060 A 
ATOM     37  C   UNL A   1      36.614  30.115  31.400  1.00  0.00     0.016 A 
ATOM     38  C   UNL A   1      37.806  32.203  30.921  1.00  0.00     0.016 A 
ATOM     39  C   UNL A   1      37.655  29.400  30.861  1.00  0.00     0.010 A 
ATOM     40  C   UNL A   1      38.853  31.488  30.392  1.00  0.00     0.010 A 
ATOM     41  C   UNL A   1      38.808  30.099  30.500  1.00  0.00    -0.014 A 
BRANCH  41  42
ATOM     42  C   UNL A   1      40.039  29.339  30.474  1.00  0.00     0.031 A 
ATOM     43  C   UNL A   1      40.752  29.211  31.756  1.00  0.00     0.074 A 
ATOM     44  C   UNL A   1      40.428  28.736  29.335  1.00  0.00     0.049 A 
ATOM     45  N   UNL A   1      41.962  29.562  32.040  1.00  0.00    -0.248 NA
ATOM     46  C   UNL A   1      39.983  28.682  32.891  1.00  0.00     0.031 C 
ATOM     47  C   UNL A   1      39.649  28.537  28.105  1.00  0.00     0.029 A 
ATOM     48  N   UNL A   1      41.582  28.066  29.080  1.00  0.00    -0.354 N 
ATOM     49  C   UNL A   1      42.161  29.167  33.357  1.00  0.00     0.074 A 
ATOM     50  C   UNL A   1      40.882  28.747  33.869  1.00  0.00     0.031 C 
ATOM     51  C   UNL A   1      40.268  27.616  27.335  1.00  0.00     0.029 A 
ATOM     52  C   UNL A   1      41.531  27.259  27.958  1.00  0.00     0.049 A 
ATOM     53  H   UNL A   1      42.385  28.149  29.645  1.00  0.00     0.167 HD
ATOM     54  C   UNL A   1      43.403  29.020  33.886  1.00  0.00     0.037 A 
ATOM     55  C   UNL A   1      42.420  26.292  27.634  1.00  0.00     0.037 A 
ATOM     56  C   UNL A   1      44.404  29.722  33.136  1.00  0.00     0.049 A 
ATOM     57  C   UNL A   1      43.659  26.532  28.418  1.00  0.00     0.074 A 
ATOM     58  C   UNL A   1      44.638  31.051  32.847  1.00  0.00     0.029 A 
ATOM     59  N   UNL A   1      45.193  29.008  32.269  1.00  0.00    -0.354 N 
ATOM     60  N   UNL A   1      44.472  27.534  28.228  1.00  0.00    -0.248 NA
ATOM     61  C   UNL A   1      43.781  25.870  29.710  1.00  0.00     0.031 C 
ATOM     62  C   UNL A   1      45.200  31.061  31.538  1.00  0.00     0.029 A 
ATOM     63  C   UNL A   1      45.284  29.736  31.110  1.00  0.00     0.049 A 
ATOM     64  H   UNL A   1      45.614  28.135  32.446  1.00  0.00     0.167 HD
ATOM     65  C   UNL A   1      44.923  27.876  29.497  1.00  0.00     0.074 A 
ATOM     66  C   UNL A   1      44.549  26.755  30.350  1.00  0.00     0.031 C 
ATOM     67  C   UNL A   1      45.308  29.152  29.789  1.00  0.00     0.037 A 
BRANCH  54  68
ATOM     68  C   UNL A   1      43.730  27.996  34.932  1.00  0.00     0.064 A 
ATOM     69  C   UNL A   1      44.206  28.402  36.190  1.00  0.00     0.173 A 
ATOM     70  C   UNL A   1      43.831  26.615  34.649  1.00  0.00     0.173 A 
ATOM     71  F   UNL A   1      44.198  29.698  36.536  1.00  0.00    -0.203 F 
ATOM     72  C   UNL A   1      44.767  27.492  37.089  1.00  0.00     0.198 A 
ATOM     73  C   UNL A   1      44.335  25.702  35.571  1.00  0.00     0.198 A 
ATOM     74  F   UNL A   1      43.545  26.120  33.437  1.00  0.00    -0.203 F 
ATOM     75  F   UNL A   1      45.302  27.934  38.234  1.00  0.00    -0.200 F 
ATOM     76  C   UNL A   1      44.826  26.143  36.781  1.00  0.00     0.200 A 
ATOM     77  F   UNL A   1      44.404  24.405  35.243  1.00  0.00    -0.200 F 
ATOM     78  F   UNL A   1      45.400  25.277  37.626  1.00  0.00    -0.200 F 
ENDBRANCH  54  68
BRANCH  55  79
ATOM     79  C   UNL A   1      42.131  25.007  26.960  1.00  0.00     0.064 A 
ATOM     80  C   UNL A   1      42.849  24.601  25.826  1.00  0.00     0.173 A 
ATOM     81  C   UNL A   1      41.302  24.036  27.559  1.00  0.00     0.173 A 
ATOM     82  F   UNL A   1      43.700  25.449  25.231  1.00  0.00    -0.203 F 
ATOM     83  C   UNL A   1      42.747  23.300  25.324  1.00  0.00     0.198 A 
ATOM     84  C   UNL A   1      41.190  22.742  27.050  1.00  0.00     0.198 A 
ATOM     85  F   UNL A   1      40.653  24.294  28.704  1.00  0.00    -0.203 F 
ATOM     86  F   UNL A   1      43.488  22.931  24.270  1.00  0.00    -0.200 F 
ATOM     87  C   UNL A   1      41.922  22.371  25.938  1.00  0.00     0.200 A 
ATOM     88  F   UNL A   1      40.416  21.846  27.678  1.00  0.00    -0.200 F 
ATOM     89  F   UNL A   1      41.861  21.112  25.486  1.00  0.00    -0.200 F 
ENDBRANCH  55  79
BRANCH  67  90
ATOM     90  C   UNL A   1      45.489  30.102  28.641  1.00  0.00     0.064 A 
ATOM     91  C   UNL A   1      44.437  30.859  28.097  1.00  0.00     0.173 A 
ATOM     92  C   UNL A   1      46.785  30.378  28.189  1.00  0.00     0.173 A 
ATOM     93  F   UNL A   1      43.187  30.725  28.556  1.00  0.00    -0.203 F 
ATOM     94  C   UNL A   1      44.671  31.820  27.116  1.00  0.00     0.198 A 
ATOM     95  C   UNL A   1      47.021  31.362  27.234  1.00  0.00     0.198 A 
ATOM     96  F   UNL A   1      47.834  29.728  28.721  1.00  0.00    -0.203 F 
ATOM     97  F   UNL A   1      43.651  32.528  26.610  1.00  0.00    -0.200 F 
ATOM     98  C   UNL A   1      45.965  32.077  26.692  1.00  0.00     0.200 A 
ATOM     99  F   UNL A   1      48.279  31.645  26.863  1.00  0.00    -0.200 F 
ATOM    100  F   UNL A   1      46.197  33.035  25.782  1.00  0.00    -0.200 F 
ENDBRANCH  67  90
ENDBRANCH  41  42
ENDBRANCH  34  36
ENDBRANCH  33  34
ENDBRANCH  32  33
ENDBRANCH  31  32
ENDBRANCH  30  31
ENDBRANCH  29  30
ENDBRANCH   1  29
TORSDOF 20
ENDMDL
MODEL 2
REMARK VINA RESULT:     -11.1      1.584      2.514
REMARK SMILES Cc1n[nH]c(C[N@H+]2CCC[C@H](c3cccc(C(=O)OCCOCCOCCOC(=O)c4ccc(-c5c6nc(c(-c7c(F)c(F)c(F)c(F)c7F)c7ccc([nH]7)c(-c7c(F)c(F)c(F)c(F)c7F)c7nc(c(-c8c(F)c(F)c(F)c(F)c8F)c8ccc5[nH]8)C=C7)C=C6)cc4)c3)C2)n1
REMARK SMILES IDX 23 1 22 2 21 3 20 4 19 5 17 6 18 7 16 8 12 9 13 10 94 11
REMARK SMILES IDX 14 12 15 13 11 14 7 15 8 16 95 17 9 19 10 20 6 21 5 22 1 23
REMARK SMILES IDX 2 24 3 25 96 26 4 27 24 29 25 30 26 31 27 32 28 33 29 34
REMARK SMILES IDX 30 35 31 36 32 37 93 38 33 39 92 40 34 41 35 42 36 43 86 44
REMARK SMILES IDX 37 45 91 46 85 47 87 48 38 49 90 50 84 51 83 52 39 54 71 55
REMARK SMILES IDX 51 56 70 57 52 58 55 59 69 60 88 61 53 62 54 63 68 65 89 66
REMARK SMILES IDX 56 67 40 68 41 69 49 70 42 71 43 72 47 73 50 74 44 75 45 76
REMARK SMILES IDX 48 77 46 78 72 79 73 80 81 81 74 82 75 83 79 84 82 85 76 86
REMARK SMILES IDX 77 87 80 88 78 89 57 90 58 91 66 92 59 93 60 94 64 95 67 96
REMARK SMILES IDX 61 97 62 98 65 99 63 100
REMARK H PARENT 7 18 4 28 87 53 55 64
REMARK Flexibility Score: inf
ROOT
ATOM      1  C   UNL A   1      34.356  35.306  28.389  1.00  0.00     0.188 C 
ENDROOT
BRANCH   1   2
ATOM      2  O   UNL A   1      34.714  34.037  27.885  1.00  0.00    -0.376 OA
BRANCH   2   3
ATOM      3  C   UNL A   1      33.762  32.987  27.990  1.00  0.00     0.202 C 
BRANCH   3   4
ATOM      4  C   UNL A   1      34.179  31.498  28.037  1.00  0.00     0.261 C 
BRANCH   4   5
ATOM      5  O   UNL A   1      33.859  30.697  26.894  1.00  0.00    -0.460 OA
BRANCH   5   6
ATOM      6  C   UNL A   1      32.610  30.177  26.820  1.00  0.00     0.338 C 
ATOM      7  O   UNL A   1      31.562  30.789  26.897  1.00  0.00    -0.246 OA
BRANCH   6   8
ATOM      8  C   UNL A   1      32.723  28.758  26.393  1.00  0.00     0.060 A 
ATOM      9  C   UNL A   1      31.761  26.529  26.084  1.00  0.00    -0.038 A 
ATOM     10  C   UNL A   1      33.057  26.058  25.810  1.00  0.00     0.004 A 
ATOM     11  C   UNL A   1      31.622  27.890  26.420  1.00  0.00     0.020 A 
ATOM     12  C   UNL A   1      34.158  26.918  25.794  1.00  0.00     0.001 A 
ATOM     13  C   UNL A   1      33.990  28.273  26.063  1.00  0.00     0.016 A 
BRANCH   9  14
ATOM     14  C   UNL A   1      30.532  25.612  26.046  1.00  0.00     0.074 C 
ATOM     15  N   UNL A   1      31.372  23.894  24.420  1.00  0.00    -0.328 N 
ATOM     16  C   UNL A   1      30.450  24.356  23.376  1.00  0.00     0.262 C 
ATOM     17  C   UNL A   1      30.820  24.110  25.774  1.00  0.00     0.270 C 
ATOM     18  H   UNL A   1      32.209  24.471  24.341  1.00  0.00     0.348 HD
ATOM     19  C   UNL A   1      30.034  25.816  23.578  1.00  0.00     0.062 C 
ATOM     20  C   UNL A   1      29.493  26.049  24.989  1.00  0.00     0.020 C 
BRANCH  15  21
ATOM     21  C   UNL A   1      31.827  22.507  24.214  1.00  0.00     0.340 C 
BRANCH  21  22
ATOM     22  C   UNL A   1      33.306  22.318  24.263  1.00  0.00     0.179 A 
ATOM     23  C   UNL A   1      36.694  22.812  23.423  1.00  0.00     0.092 C 
ATOM     24  C   UNL A   1      35.395  22.417  24.000  1.00  0.00     0.147 A 
ATOM     25  N   UNL A   1      35.278  21.769  25.166  1.00  0.00    -0.159 NA
ATOM     26  N   UNL A   1      34.210  22.732  23.398  1.00  0.00    -0.211 NA
ATOM     27  N   UNL A   1      33.944  21.705  25.304  1.00  0.00    -0.258 N 
ATOM     28  H   UNL A   1      33.484  21.274  26.059  1.00  0.00     0.192 HD
ENDBRANCH  21  22
ENDBRANCH  15  21
ENDBRANCH   9  14
ENDBRANCH   6   8
ENDBRANCH   5   6
ENDBRANCH   4   5
ENDBRANCH   3   4
ENDBRANCH   2   3
ENDBRANCH   1   2
BRANCH   1  29
ATOM     29  C   UNL A   1      33.048  35.296  29.209  1.00  0.00     0.188 C 
BRANCH  29  30
ATOM     30  O   UNL A   1      33.017  34.870  30.568  1.00  0.00    -0.376 OA
BRANCH  30  31
ATOM     31  C   UNL A   1      34.206  34.703  31.333  1.00  0.00     0.202 C 
BRANCH  31  32
ATOM     32  C   UNL A   1      34.612  33.332  31.873  1.00  0.00     0.261 C 
BRANCH  32  33
ATOM     33  O   UNL A   1      35.502  32.631  31.022  1.00  0.00    -0.460 OA
BRANCH  33  34
ATOM     34  C   UNL A   1      36.127  31.597  31.618  1.00  0.00     0.338 C 
ATOM     35  O   UNL A   1      36.080  31.278  32.793  1.00  0.00    -0.246 OA
BRANCH  34  36
ATOM     36  C   UNL A   1      36.936  30.884  30.620  1.00  0.00     0.060 A 
ATOM     37  C   UNL A   1      36.745  29.502  30.557  1.00  0.00     0.016 A 
ATOM     38  C   UNL A   1      38.036  31.517  30.026  1.00  0.00     0.016 A 
ATOM     39  C   UNL A   1      37.813  28.723  30.186  1.00  0.00     0.010 A 
ATOM     40  C   UNL A   1      39.109  30.739  29.665  1.00  0.00     0.010 A 
ATOM     41  C   UNL A   1      39.015  29.366  29.884  1.00  0.00    -0.014 A 
BRANCH  41  42
ATOM     42  C   UNL A   1      40.221  28.583  30.044  1.00  0.00     0.031 A 
ATOM     43  C   UNL A   1      40.752  28.480  31.413  1.00  0.00     0.074 A 
ATOM     44  C   UNL A   1      40.746  27.939  28.985  1.00  0.00     0.049 A 
ATOM     45  N   UNL A   1      41.921  28.816  31.849  1.00  0.00    -0.248 NA
ATOM     46  C   UNL A   1      39.827  27.998  32.448  1.00  0.00     0.031 C 
ATOM     47  C   UNL A   1      40.134  27.719  27.667  1.00  0.00     0.029 A 
ATOM     48  N   UNL A   1      41.909  27.241  28.906  1.00  0.00    -0.354 N 
ATOM     49  C   UNL A   1      41.933  28.457  33.191  1.00  0.00     0.074 A 
ATOM     50  C   UNL A   1      40.587  28.076  33.537  1.00  0.00     0.031 C 
ATOM     51  C   UNL A   1      40.830  26.764  27.012  1.00  0.00     0.029 A 
ATOM     52  C   UNL A   1      41.990  26.402  27.809  1.00  0.00     0.049 A 
ATOM     53  H   UNL A   1      42.630  27.325  29.571  1.00  0.00     0.167 HD
ATOM     54  C   UNL A   1      43.089  28.302  33.886  1.00  0.00     0.037 A 
ATOM     55  C   UNL A   1      42.893  25.409  27.633  1.00  0.00     0.037 A 
ATOM     56  C   UNL A   1      44.198  28.962  33.258  1.00  0.00     0.049 A 
ATOM     57  C   UNL A   1      44.020  25.650  28.571  1.00  0.00     0.074 A 
ATOM     58  C   UNL A   1      44.498  30.278  32.968  1.00  0.00     0.029 A 
ATOM     59  N   UNL A   1      45.079  28.208  32.525  1.00  0.00    -0.354 N 
ATOM     60  N   UNL A   1      44.874  26.630  28.465  1.00  0.00    -0.248 NA
ATOM     61  C   UNL A   1      43.953  25.023  29.884  1.00  0.00     0.031 C 
ATOM     62  C   UNL A   1      45.230  30.239  31.748  1.00  0.00     0.029 A 
ATOM     63  C   UNL A   1      45.341  28.900  31.370  1.00  0.00     0.049 A 
ATOM     64  H   UNL A   1      45.453  27.334  32.781  1.00  0.00     0.167 HD
ATOM     65  C   UNL A   1      45.158  27.001  29.773  1.00  0.00     0.074 A 
ATOM     66  C   UNL A   1      44.647  25.912  30.597  1.00  0.00     0.031 C 
ATOM     67  C   UNL A   1      45.529  28.277  30.080  1.00  0.00     0.037 A 
BRANCH  54  68
ATOM     68  C   UNL A   1      43.250  27.303  34.994  1.00  0.00     0.064 A 
ATOM     69  C   UNL A   1      43.566  27.737  36.292  1.00  0.00     0.173 A 
ATOM     70  C   UNL A   1      43.353  25.912  34.764  1.00  0.00     0.173 A 
ATOM     71  F   UNL A   1      43.545  29.042  36.598  1.00  0.00    -0.203 F 
ATOM     72  C   UNL A   1      43.981  26.843  37.281  1.00  0.00     0.198 A 
ATOM     73  C   UNL A   1      43.708  25.018  35.768  1.00  0.00     0.198 A 
ATOM     74  F   UNL A   1      43.217  25.387  33.538  1.00  0.00    -0.203 F 
ATOM     75  F   UNL A   1      44.371  27.307  38.475  1.00  0.00    -0.200 F 
ATOM     76  C   UNL A   1      44.046  25.485  37.020  1.00  0.00     0.200 A 
ATOM     77  F   UNL A   1      43.787  23.710  35.488  1.00  0.00    -0.200 F 
ATOM     78  F   UNL A   1      44.482  24.632  37.957  1.00  0.00    -0.200 F 
ENDBRANCH  54  68
BRANCH  55  79
ATOM     79  C   UNL A   1      42.668  24.111  26.961  1.00  0.00     0.064 A 
ATOM     80  C   UNL A   1      43.419  23.731  25.840  1.00  0.00     0.173 A 
ATOM     81  C   UNL A   1      41.871  23.108  27.552  1.00  0.00     0.173 A 
ATOM     82  F   UNL A   1      44.243  24.611  25.254  1.00  0.00    -0.203 F 
ATOM     83  C   UNL A   1      43.380  22.424  25.342  1.00  0.00     0.198 A 
ATOM     84  C   UNL A   1      41.821  21.809  27.047  1.00  0.00     0.198 A 
ATOM     85  F   UNL A   1      41.194  23.344  28.686  1.00  0.00    -0.203 F 
ATOM     86  F   UNL A   1      44.151  22.082  24.302  1.00  0.00    -0.200 F 
ATOM     87  C   UNL A   1      42.584  21.464  25.949  1.00  0.00     0.200 A 
ATOM     88  F   UNL A   1      41.076  20.883  27.668  1.00  0.00    -0.200 F 
ATOM     89  F   UNL A   1      42.583  20.202  25.502  1.00  0.00    -0.200 F 
ENDBRANCH  55  79
BRANCH  67  90
ATOM     90  C   UNL A   1      45.883  29.190  28.942  1.00  0.00     0.064 A 
ATOM     91  C   UNL A   1      44.930  29.946  28.239  1.00  0.00     0.173 A 
ATOM     92  C   UNL A   1      47.234  29.432  28.665  1.00  0.00     0.173 A 
ATOM     93  F   UNL A   1      43.626  29.845  28.525  1.00  0.00    -0.203 F 
ATOM     94  C   UNL A   1      45.315  30.874  27.273  1.00  0.00     0.198 A 
ATOM     95  C   UNL A   1      47.618  30.384  27.724  1.00  0.00     0.198 A 
ATOM     96  F   UNL A   1      48.188  28.783  29.354  1.00  0.00    -0.203 F 
ATOM     97  F   UNL A   1      44.387  31.581  26.612  1.00  0.00    -0.200 F 
ATOM     98  C   UNL A   1      46.659  31.098  27.023  1.00  0.00     0.200 A 
ATOM     99  F   UNL A   1      48.919  30.636  27.522  1.00  0.00    -0.200 F 
ATOM    100  F   UNL A   1      47.032  32.024  26.128  1.00  0.00    -0.200 F 
ENDBRANCH  67  90
ENDBRANCH  41  42
ENDBRANCH  34  36
ENDBRANCH  33  34
ENDBRANCH  32  33
ENDBRANCH  31  32
ENDBRANCH  30  31
ENDBRANCH  29  30
ENDBRANCH   1  29
TORSDOF 20
ENDMDL
MODEL 3
REMARK VINA RESULT:     -10.8      2.523      7.203
REMARK SMILES Cc1n[nH]c(C[N@H+]2CCC[C@H](c3cccc(C(=O)OCCOCCOCCOC(=O)c4ccc(-c5c6nc(c(-c7c(F)c(F)c(F)c(F)c7F)c7ccc([nH]7)c(-c7c(F)c(F)c(F)c(F)c7F)c7nc(c(-c8c(F)c(F)c(F)c(F)c8F)c8ccc5[nH]8)C=C7)C=C6)cc4)c3)C2)n1
REMARK SMILES IDX 23 1 22 2 21 3 20 4 19 5 17 6 18 7 16 8 12 9 13 10 94 11
REMARK SMILES IDX 14 12 15 13 11 14 7 15 8 16 95 17 9 19 10 20 6 21 5 22 1 23
REMARK SMILES IDX 2 24 3 25 96 26 4 27 24 29 25 30 26 31 27 32 28 33 29 34
REMARK SMILES IDX 30 35 31 36 32 37 93 38 33 39 92 40 34 41 35 42 36 43 86 44
REMARK SMILES IDX 37 45 91 46 85 47 87 48 38 49 90 50 84 51 83 52 39 54 71 55
REMARK SMILES IDX 51 56 70 57 52 58 55 59 69 60 88 61 53 62 54 63 68 65 89 66
REMARK SMILES IDX 56 67 40 68 41 69 49 70 42 71 43 72 47 73 50 74 44 75 45 76
REMARK SMILES IDX 48 77 46 78 72 79 73 80 81 81 74 82 75 83 79 84 82 85 76 86
REMARK SMILES IDX 77 87 80 88 78 89 57 90 58 91 66 92 59 93 60 94 64 95 67 96
REMARK SMILES IDX 61 97 62 98 65 99 63 100
REMARK H PARENT 7 18 4 28 87 53 55 64
REMARK Flexibility Score: inf
ROOT
ATOM      1  C   UNL A   1      34.128  33.367  28.008  1.00  0.00     0.188 C 
ENDROOT
BRANCH   1   2
ATOM      2  O   UNL A   1      34.753  32.107  28.134  1.00  0.00    -0.376 OA
BRANCH   2   3
ATOM      3  C   UNL A   1      34.174  31.006  27.448  1.00  0.00     0.202 C 
BRANCH   3   4
ATOM      4  C   UNL A   1      32.680  30.978  27.046  1.00  0.00     0.261 C 
BRANCH   4   5
ATOM      5  O   UNL A   1      32.016  29.711  27.099  1.00  0.00    -0.460 OA
BRANCH   5   6
ATOM      6  C   UNL A   1      31.677  29.128  25.923  1.00  0.00     0.338 C 
ATOM      7  O   UNL A   1      31.102  29.656  24.990  1.00  0.00    -0.246 OA
BRANCH   6   8
ATOM      8  C   UNL A   1      32.330  27.796  25.860  1.00  0.00     0.060 A 
ATOM      9  C   UNL A   1      32.379  25.404  26.379  1.00  0.00    -0.038 A 
ATOM     10  C   UNL A   1      33.708  25.379  25.923  1.00  0.00     0.004 A 
ATOM     11  C   UNL A   1      31.716  26.647  26.379  1.00  0.00     0.020 A 
ATOM     12  C   UNL A   1      34.328  26.524  25.415  1.00  0.00     0.001 A 
ATOM     13  C   UNL A   1      33.633  27.728  25.361  1.00  0.00     0.016 A 
BRANCH   9  14
ATOM     14  C   UNL A   1      31.663  24.145  26.883  1.00  0.00     0.074 C 
ATOM     15  N   UNL A   1      33.038  22.409  25.699  1.00  0.00    -0.328 N 
ATOM     16  C   UNL A   1      31.933  22.080  24.791  1.00  0.00     0.262 C 
ATOM     17  C   UNL A   1      32.546  22.874  27.014  1.00  0.00     0.270 C 
ATOM     18  H   UNL A   1      33.538  23.189  25.273  1.00  0.00     0.348 HD
ATOM     19  C   UNL A   1      30.947  23.241  24.635  1.00  0.00     0.062 C 
ATOM     20  C   UNL A   1      30.463  23.745  25.995  1.00  0.00     0.020 C 
BRANCH  15  21
ATOM     21  C   UNL A   1      34.027  21.324  25.822  1.00  0.00     0.340 C 
BRANCH  21  22
ATOM     22  C   UNL A   1      33.520  19.969  25.455  1.00  0.00     0.179 A 
ATOM     23  C   UNL A   1      33.266  16.953  23.650  1.00  0.00     0.092 C 
ATOM     24  C   UNL A   1      33.162  18.077  24.598  1.00  0.00     0.147 A 
ATOM     25  N   UNL A   1      32.550  17.981  25.785  1.00  0.00    -0.159 NA
ATOM     26  N   UNL A   1      33.731  19.293  24.344  1.00  0.00    -0.211 NA
ATOM     27  N   UNL A   1      32.778  19.198  26.304  1.00  0.00    -0.258 N 
ATOM     28  H   UNL A   1      32.454  19.496  27.184  1.00  0.00     0.192 HD
ENDBRANCH  21  22
ENDBRANCH  15  21
ENDBRANCH   9  14
ENDBRANCH   6   8
ENDBRANCH   5   6
ENDBRANCH   4   5
ENDBRANCH   3   4
ENDBRANCH   2   3
ENDBRANCH   1   2
BRANCH   1  29
ATOM     29  C   UNL A   1      33.831  34.046  29.362  1.00  0.00     0.188 C 
BRANCH  29  30
ATOM     30  O   UNL A   1      34.091  33.394  30.602  1.00  0.00    -0.376 OA
BRANCH  30  31
ATOM     31  C   UNL A   1      35.378  33.420  31.211  1.00  0.00     0.202 C 
BRANCH  31  32
ATOM     32  C   UNL A   1      35.847  32.278  32.113  1.00  0.00     0.261 C 
BRANCH  32  33
ATOM     33  O   UNL A   1      36.049  31.059  31.421  1.00  0.00    -0.460 OA
BRANCH  33  34
ATOM     34  C   UNL A   1      36.840  30.185  32.073  1.00  0.00     0.338 C 
ATOM     35  O   UNL A   1      37.096  30.161  33.264  1.00  0.00    -0.246 OA
BRANCH  34  36
ATOM     36  C   UNL A   1      37.404  29.233  31.107  1.00  0.00     0.060 A 
ATOM     37  C   UNL A   1      38.000  28.094  31.653  1.00  0.00     0.016 A 
ATOM     38  C   UNL A   1      37.606  29.620  29.776  1.00  0.00     0.016 A 
ATOM     39  C   UNL A   1      39.048  27.528  30.970  1.00  0.00     0.010 A 
ATOM     40  C   UNL A   1      38.662  29.063  29.096  1.00  0.00     0.010 A 
ATOM     41  C   UNL A   1      39.441  28.123  29.769  1.00  0.00    -0.014 A 
BRANCH  41  42
ATOM     42  C   UNL A   1      40.811  27.906  29.362  1.00  0.00     0.031 A 
ATOM     43  C   UNL A   1      41.123  26.578  28.807  1.00  0.00     0.074 A 
ATOM     44  C   UNL A   1      41.698  28.916  29.434  1.00  0.00     0.049 A 
ATOM     45  N   UNL A   1      41.996  25.720  29.219  1.00  0.00    -0.248 NA
ATOM     46  C   UNL A   1      40.298  26.122  27.679  1.00  0.00     0.031 C 
ATOM     47  C   UNL A   1      41.427  30.341  29.668  1.00  0.00     0.029 A 
ATOM     48  N   UNL A   1      43.035  28.892  29.194  1.00  0.00    -0.354 N 
ATOM     49  C   UNL A   1      41.934  24.666  28.315  1.00  0.00     0.074 A 
ATOM     50  C   UNL A   1      40.794  24.906  27.466  1.00  0.00     0.031 C 
ATOM     51  C   UNL A   1      42.525  31.059  29.341  1.00  0.00     0.029 A 
ATOM     52  C   UNL A   1      43.596  30.141  28.994  1.00  0.00     0.049 A 
ATOM     53  H   UNL A   1      43.558  28.058  29.165  1.00  0.00     0.167 HD
ATOM     54  C   UNL A   1      42.939  23.763  28.189  1.00  0.00     0.037 A 
ATOM     55  C   UNL A   1      44.822  30.387  28.476  1.00  0.00     0.037 A 
ATOM     56  C   UNL A   1      43.800  23.740  29.336  1.00  0.00     0.049 A 
ATOM     57  C   UNL A   1      45.615  29.134  28.570  1.00  0.00     0.074 A 
ATOM     58  C   UNL A   1      43.624  23.422  30.668  1.00  0.00     0.029 A 
ATOM     59  N   UNL A   1      45.003  24.396  29.266  1.00  0.00    -0.354 N 
ATOM     60  N   UNL A   1      46.042  28.611  29.685  1.00  0.00    -0.248 NA
ATOM     61  C   UNL A   1      45.585  28.228  27.430  1.00  0.00     0.031 C 
ATOM     62  C   UNL A   1      44.498  24.291  31.383  1.00  0.00     0.029 A 
ATOM     63  C   UNL A   1      45.162  25.081  30.444  1.00  0.00     0.049 A 
ATOM     64  H   UNL A   1      45.634  24.379  28.510  1.00  0.00     0.167 HD
ATOM     65  C   UNL A   1      45.958  27.238  29.493  1.00  0.00     0.074 A 
ATOM     66  C   UNL A   1      45.774  27.065  28.057  1.00  0.00     0.031 C 
ATOM     67  C   UNL A   1      45.769  26.388  30.544  1.00  0.00     0.037 A 
BRANCH  54  68
ATOM     68  C   UNL A   1      43.290  23.106  26.887  1.00  0.00     0.064 A 
ATOM     69  C   UNL A   1      43.001  21.746  26.685  1.00  0.00     0.173 A 
ATOM     70  C   UNL A   1      44.132  23.709  25.925  1.00  0.00     0.173 A 
ATOM     71  F   UNL A   1      42.250  21.071  27.568  1.00  0.00    -0.203 F 
ATOM     72  C   UNL A   1      43.539  21.035  25.610  1.00  0.00     0.198 A 
ATOM     73  C   UNL A   1      44.618  23.013  24.823  1.00  0.00     0.198 A 
ATOM     74  F   UNL A   1      44.597  24.956  26.077  1.00  0.00    -0.203 F 
ATOM     75  F   UNL A   1      43.323  19.718  25.510  1.00  0.00    -0.200 F 
ATOM     76  C   UNL A   1      44.342  21.670  24.678  1.00  0.00     0.200 A 
ATOM     77  F   UNL A   1      45.412  23.641  23.944  1.00  0.00    -0.200 F 
ATOM     78  F   UNL A   1      44.890  20.980  23.669  1.00  0.00    -0.200 F 
ENDBRANCH  54  68
BRANCH  55  79
ATOM     79  C   UNL A   1      45.210  31.523  27.611  1.00  0.00     0.064 A 
ATOM     80  C   UNL A   1      44.423  31.906  26.515  1.00  0.00     0.173 A 
ATOM     81  C   UNL A   1      46.240  32.410  27.985  1.00  0.00     0.173 A 
ATOM     82  F   UNL A   1      43.389  31.145  26.131  1.00  0.00    -0.203 F 
ATOM     83  C   UNL A   1      44.650  33.108  25.837  1.00  0.00     0.198 A 
ATOM     84  C   UNL A   1      46.476  33.602  27.300  1.00  0.00     0.198 A 
ATOM     85  F   UNL A   1      46.982  32.183  29.079  1.00  0.00    -0.203 F 
ATOM     86  F   UNL A   1      43.846  33.469  24.828  1.00  0.00    -0.200 F 
ATOM     87  C   UNL A   1      45.674  33.956  26.233  1.00  0.00     0.200 A 
ATOM     88  F   UNL A   1      47.445  34.428  27.719  1.00  0.00    -0.200 F 
ATOM     89  F   UNL A   1      45.861  35.129  25.614  1.00  0.00    -0.200 F 
ENDBRANCH  55  79
BRANCH  67  90
ATOM     90  C   UNL A   1      45.926  26.949  31.927  1.00  0.00     0.064 A 
ATOM     91  C   UNL A   1      47.165  27.035  32.585  1.00  0.00     0.173 A 
ATOM     92  C   UNL A   1      44.825  27.567  32.534  1.00  0.00     0.173 A 
ATOM     93  F   UNL A   1      48.279  26.562  32.014  1.00  0.00    -0.203 F 
ATOM     94  C   UNL A   1      47.284  27.677  33.816  1.00  0.00     0.198 A 
ATOM     95  C   UNL A   1      44.955  28.236  33.748  1.00  0.00     0.198 A 
ATOM     96  F   UNL A   1      43.632  27.569  31.919  1.00  0.00    -0.203 F 
ATOM     97  F   UNL A   1      48.477  27.743  34.427  1.00  0.00    -0.200 F 
ATOM     98  C   UNL A   1      46.181  28.284  34.392  1.00  0.00     0.200 A 
ATOM     99  F   UNL A   1      43.897  28.868  34.278  1.00  0.00    -0.200 F 
ATOM    100  F   UNL A   1      46.305  28.942  35.554  1.00  0.00    -0.200 F 
ENDBRANCH  67  90
ENDBRANCH  41  42
ENDBRANCH  34  36
ENDBRANCH  33  34
ENDBRANCH  32  33
ENDBRANCH  31  32
ENDBRANCH  30  31
ENDBRANCH  29  30
ENDBRANCH   1  29
TORSDOF 20
ENDMDL
