MODEL 1
REMARK VINA RESULT:     -12.3      0.000      0.000
REMARK SMILES Cc1nc2sc3c(c2c2nc(CCC(=O)OCCOCCOCCOC(=O)c4ccc(-c5c6nc(c(-c7c(F)c(F)c(F)c(F)c7F)c7ccc([nH]7)c(-c7c(F)c(F)c(F)c(F)c7F)c7nc(c(-c8c(F)c(F)c(F)c(F)c8F)c8ccc5[nH]8)C=C7)C=C6)cc4)nn12)[C@@H](C)CCC3
REMARK SMILES IDX 20 1 19 2 18 3 17 4 16 5 14 6 15 7 13 8 12 9 11 10 1 11 2 12
REMARK SMILES IDX 3 13 92 14 4 15 9 16 91 17 5 18 8 19 10 20 6 21 7 22 97 23
REMARK SMILES IDX 93 24 96 25 94 26 95 27 21 28 22 29 23 30 24 31 25 32 26 33
REMARK SMILES IDX 27 34 28 35 29 36 90 37 30 38 89 39 31 40 32 41 33 42 83 43
REMARK SMILES IDX 34 44 88 45 82 46 84 47 35 48 87 49 81 50 80 51 36 53 68 54
REMARK SMILES IDX 48 55 67 56 49 57 52 58 66 59 85 60 50 61 51 62 65 64 86 65
REMARK SMILES IDX 53 66 37 67 38 68 46 69 39 70 40 71 44 72 47 73 41 74 42 75
REMARK SMILES IDX 45 76 43 77 69 78 70 79 78 80 71 81 72 82 76 83 79 84 73 85
REMARK SMILES IDX 74 86 77 87 75 88 54 89 55 90 63 91 56 92 57 93 61 94 64 95
REMARK SMILES IDX 58 96 59 97 62 98 60 99
REMARK H PARENT 84 52 52 63
REMARK Flexibility Score: inf
ROOT
ATOM      1  C   UNL A   1      40.252  21.860  26.366  1.00  0.00     0.188 C 
ENDROOT
BRANCH   1   2
ATOM      2  O   UNL A   1      38.930  22.361  26.526  1.00  0.00    -0.376 OA
BRANCH   2   3
ATOM      3  C   UNL A   1      38.111  22.213  25.362  1.00  0.00     0.202 C 
BRANCH   3   4
ATOM      4  C   UNL A   1      37.447  20.834  25.118  1.00  0.00     0.261 C 
BRANCH   4   5
ATOM      5  O   UNL A   1      36.125  20.899  24.504  1.00  0.00    -0.463 OA
BRANCH   5   6
ATOM      6  C   UNL A   1      35.060  20.727  25.330  1.00  0.00     0.306 C 
ATOM      7  O   UNL A   1      34.990  21.219  26.452  1.00  0.00    -0.252 OA
BRANCH   6   8
ATOM      8  C   UNL A   1      33.941  19.856  24.780  1.00  0.00     0.131 C 
BRANCH   8   9
ATOM      9  C   UNL A   1      32.821  20.464  23.933  1.00  0.00     0.091 C 
BRANCH   9  10
ATOM     10  C   UNL A   1      32.221  21.723  24.460  1.00  0.00     0.152 A 
ATOM     11  C   UNL A   1      29.448  22.750  27.379  1.00  0.00     0.090 C 
ATOM     12  C   UNL A   1      30.258  23.685  26.536  1.00  0.00     0.131 A 
ATOM     13  N   UNL A   1      30.140  24.987  26.622  1.00  0.00    -0.222 NA
ATOM     14  N   UNL A   1      31.128  23.062  25.630  1.00  0.00    -0.199 N 
ATOM     15  C   UNL A   1      30.925  25.721  25.765  1.00  0.00     0.129 A 
ATOM     16  C   UNL A   1      31.940  23.776  24.795  1.00  0.00     0.168 A 
ATOM     17  N   UNL A   1      31.273  21.734  25.416  1.00  0.00    -0.150 NA
ATOM     18  S   UNL A   1      30.845  27.429  25.709  1.00  0.00    -0.120 S 
ATOM     19  C   UNL A   1      31.843  25.253  24.835  1.00  0.00     0.060 A 
ATOM     20  N   UNL A   1      32.660  22.961  24.066  1.00  0.00    -0.211 NA
ATOM     21  C   UNL A   1      32.006  27.514  24.462  1.00  0.00     0.011 A 
ATOM     22  C   UNL A   1      32.476  26.273  24.067  1.00  0.00    -0.018 A 
ATOM     23  C   UNL A   1      32.410  28.820  23.846  1.00  0.00     0.047 C 
ATOM     24  C   UNL A   1      33.502  26.135  22.971  1.00  0.00     0.018 C 
ATOM     25  C   UNL A   1      33.759  28.673  23.129  1.00  0.00     0.006 C 
ATOM     26  C   UNL A   1      33.116  25.076  21.951  1.00  0.00     0.013 C 
ATOM     27  C   UNL A   1      33.753  27.454  22.210  1.00  0.00     0.008 C 
ENDBRANCH   9  10
ENDBRANCH   8   9
ENDBRANCH   6   8
ENDBRANCH   5   6
ENDBRANCH   4   5
ENDBRANCH   3   4
ENDBRANCH   2   3
ENDBRANCH   1   2
BRANCH   1  28
ATOM     28  C   UNL A   1      40.783  21.128  27.577  1.00  0.00     0.188 C 
BRANCH  28  29
ATOM     29  O   UNL A   1      42.145  20.697  27.387  1.00  0.00    -0.376 OA
BRANCH  29  30
ATOM     30  C   UNL A   1      42.350  19.309  27.117  1.00  0.00     0.202 C 
BRANCH  30  31
ATOM     31  C   UNL A   1      42.950  18.994  25.751  1.00  0.00     0.261 C 
BRANCH  31  32
ATOM     32  O   UNL A   1      43.200  20.189  25.042  1.00  0.00    -0.460 OA
BRANCH  32  33
ATOM     33  C   UNL A   1      44.516  20.484  24.954  1.00  0.00     0.338 C 
ATOM     34  O   UNL A   1      45.460  19.715  24.820  1.00  0.00    -0.246 OA
BRANCH  33  35
ATOM     35  C   UNL A   1      44.655  21.930  25.070  1.00  0.00     0.060 A 
ATOM     36  C   UNL A   1      45.665  22.398  25.909  1.00  0.00     0.016 A 
ATOM     37  C   UNL A   1      43.655  22.760  24.545  1.00  0.00     0.016 A 
ATOM     38  C   UNL A   1      45.488  23.633  26.471  1.00  0.00     0.010 A 
ATOM     39  C   UNL A   1      43.469  23.984  25.116  1.00  0.00     0.010 A 
ATOM     40  C   UNL A   1      44.323  24.341  26.151  1.00  0.00    -0.014 A 
BRANCH  40  41
ATOM     41  C   UNL A   1      44.058  25.549  26.884  1.00  0.00     0.031 A 
ATOM     42  C   UNL A   1      45.076  26.562  26.582  1.00  0.00     0.074 A 
ATOM     43  C   UNL A   1      42.980  25.666  27.683  1.00  0.00     0.049 A 
ATOM     44  N   UNL A   1      46.052  26.913  27.346  1.00  0.00    -0.248 NA
ATOM     45  C   UNL A   1      45.186  27.059  25.199  1.00  0.00     0.031 C 
ATOM     46  C   UNL A   1      41.837  24.749  27.762  1.00  0.00     0.029 A 
ATOM     47  N   UNL A   1      42.620  26.682  28.520  1.00  0.00    -0.354 N 
ATOM     48  C   UNL A   1      46.689  27.928  26.649  1.00  0.00     0.074 A 
ATOM     49  C   UNL A   1      46.305  27.785  25.272  1.00  0.00     0.031 C 
ATOM     50  C   UNL A   1      40.815  25.360  28.401  1.00  0.00     0.029 A 
ATOM     51  C   UNL A   1      41.280  26.638  28.907  1.00  0.00     0.049 A 
ATOM     52  H   UNL A   1      43.246  27.380  28.821  1.00  0.00     0.167 HD
ATOM     53  C   UNL A   1      47.080  29.031  27.340  1.00  0.00     0.037 A 
ATOM     54  C   UNL A   1      40.611  27.636  29.535  1.00  0.00     0.037 A 
ATOM     55  C   UNL A   1      47.149  28.745  28.752  1.00  0.00     0.049 A 
ATOM     56  C   UNL A   1      41.629  28.480  30.208  1.00  0.00     0.074 A 
ATOM     57  C   UNL A   1      48.006  28.080  29.599  1.00  0.00     0.029 A 
ATOM     58  N   UNL A   1      45.939  28.833  29.385  1.00  0.00    -0.354 N 
ATOM     59  N   UNL A   1      42.351  28.066  31.213  1.00  0.00    -0.248 NA
ATOM     60  C   UNL A   1      42.116  29.679  29.532  1.00  0.00     0.031 C 
ATOM     61  C   UNL A   1      47.250  27.744  30.761  1.00  0.00     0.029 A 
ATOM     62  C   UNL A   1      45.962  28.250  30.620  1.00  0.00     0.049 A 
ATOM     63  H   UNL A   1      45.144  29.265  28.996  1.00  0.00     0.167 HD
ATOM     64  C   UNL A   1      43.568  28.689  31.029  1.00  0.00     0.074 A 
ATOM     65  C   UNL A   1      43.320  29.781  30.097  1.00  0.00     0.031 C 
ATOM     66  C   UNL A   1      44.730  28.056  31.347  1.00  0.00     0.037 A 
BRANCH  53  67
ATOM     67  C   UNL A   1      46.842  30.444  26.858  1.00  0.00     0.064 A 
ATOM     68  C   UNL A   1      47.904  31.365  26.932  1.00  0.00     0.173 A 
ATOM     69  C   UNL A   1      45.566  31.008  26.629  1.00  0.00     0.173 A 
ATOM     70  F   UNL A   1      49.151  30.947  27.198  1.00  0.00    -0.203 F 
ATOM     71  C   UNL A   1      47.695  32.743  26.821  1.00  0.00     0.198 A 
ATOM     72  C   UNL A   1      45.370  32.376  26.463  1.00  0.00     0.198 A 
ATOM     73  F   UNL A   1      44.440  30.288  26.675  1.00  0.00    -0.203 F 
ATOM     74  F   UNL A   1      48.719  33.587  27.006  1.00  0.00    -0.200 F 
ATOM     75  C   UNL A   1      46.430  33.247  26.581  1.00  0.00     0.200 A 
ATOM     76  F   UNL A   1      44.128  32.843  26.269  1.00  0.00    -0.200 F 
ATOM     77  F   UNL A   1      46.221  34.567  26.517  1.00  0.00    -0.200 F 
ENDBRANCH  53  67
BRANCH  54  78
ATOM     78  C   UNL A   1      39.215  28.101  29.340  1.00  0.00     0.064 A 
ATOM     79  C   UNL A   1      38.358  28.260  30.444  1.00  0.00     0.173 A 
ATOM     80  C   UNL A   1      38.797  28.697  28.135  1.00  0.00     0.173 A 
ATOM     81  F   UNL A   1      38.693  27.745  31.636  1.00  0.00    -0.203 F 
ATOM     82  C   UNL A   1      37.191  29.026  30.366  1.00  0.00     0.198 A 
ATOM     83  C   UNL A   1      37.626  29.457  28.057  1.00  0.00     0.198 A 
ATOM     84  F   UNL A   1      39.561  28.644  27.037  1.00  0.00    -0.203 F 
ATOM     85  F   UNL A   1      36.450  29.228  31.464  1.00  0.00    -0.200 F 
ATOM     86  C   UNL A   1      36.837  29.641  29.178  1.00  0.00     0.200 A 
ATOM     87  F   UNL A   1      37.309  30.070  26.909  1.00  0.00    -0.200 F 
ATOM     88  F   UNL A   1      35.764  30.442  29.123  1.00  0.00    -0.200 F 
ENDBRANCH  54  78
BRANCH  66  89
ATOM     89  C   UNL A   1      44.707  27.010  32.408  1.00  0.00     0.064 A 
ATOM     90  C   UNL A   1      44.562  25.635  32.176  1.00  0.00     0.173 A 
ATOM     91  C   UNL A   1      45.003  27.430  33.713  1.00  0.00     0.173 A 
ATOM     92  F   UNL A   1      44.329  25.166  30.941  1.00  0.00    -0.203 F 
ATOM     93  C   UNL A   1      44.719  24.721  33.219  1.00  0.00     0.198 A 
ATOM     94  C   UNL A   1      45.193  26.516  34.739  1.00  0.00     0.198 A 
ATOM     95  F   UNL A   1      45.173  28.737  33.972  1.00  0.00    -0.203 F 
ATOM     96  F   UNL A   1      44.590  23.406  32.986  1.00  0.00    -0.200 F 
ATOM     97  C   UNL A   1      45.051  25.161  34.493  1.00  0.00     0.200 A 
ATOM     98  F   UNL A   1      45.553  26.948  35.955  1.00  0.00    -0.200 F 
ATOM     99  F   UNL A   1      45.263  24.278  35.478  1.00  0.00    -0.200 F 
ENDBRANCH  66  89
ENDBRANCH  40  41
ENDBRANCH  33  35
ENDBRANCH  32  33
ENDBRANCH  31  32
ENDBRANCH  30  31
ENDBRANCH  29  30
ENDBRANCH  28  29
ENDBRANCH   1  28
TORSDOF 19
ENDMDL
MODEL 2
REMARK VINA RESULT:     -12.2      1.477      2.139
REMARK SMILES Cc1nc2sc3c(c2c2nc(CCC(=O)OCCOCCOCCOC(=O)c4ccc(-c5c6nc(c(-c7c(F)c(F)c(F)c(F)c7F)c7ccc([nH]7)c(-c7c(F)c(F)c(F)c(F)c7F)c7nc(c(-c8c(F)c(F)c(F)c(F)c8F)c8ccc5[nH]8)C=C7)C=C6)cc4)nn12)[C@@H](C)CCC3
REMARK SMILES IDX 20 1 19 2 18 3 17 4 16 5 14 6 15 7 13 8 12 9 11 10 1 11 2 12
REMARK SMILES IDX 3 13 92 14 4 15 9 16 91 17 5 18 8 19 10 20 6 21 7 22 97 23
REMARK SMILES IDX 93 24 96 25 94 26 95 27 21 28 22 29 23 30 24 31 25 32 26 33
REMARK SMILES IDX 27 34 28 35 29 36 90 37 30 38 89 39 31 40 32 41 33 42 83 43
REMARK SMILES IDX 34 44 88 45 82 46 84 47 35 48 87 49 81 50 80 51 36 53 68 54
REMARK SMILES IDX 48 55 67 56 49 57 52 58 66 59 85 60 50 61 51 62 65 64 86 65
REMARK SMILES IDX 53 66 37 67 38 68 46 69 39 70 40 71 44 72 47 73 41 74 42 75
REMARK SMILES IDX 45 76 43 77 69 78 70 79 78 80 71 81 72 82 76 83 79 84 73 85
REMARK SMILES IDX 74 86 77 87 75 88 54 89 55 90 63 91 56 92 57 93 61 94 64 95
REMARK SMILES IDX 58 96 59 97 62 98 60 99
REMARK H PARENT 84 52 52 63
REMARK Flexibility Score: inf
ROOT
ATOM      1  C   UNL A   1      41.878  19.725  26.260  1.00  0.00     0.188 C 
ENDROOT
BRANCH   1   2
ATOM      2  O   UNL A   1      42.033  20.632  27.345  1.00  0.00    -0.376 OA
BRANCH   2   3
ATOM      3  C   UNL A   1      41.061  21.681  27.364  1.00  0.00     0.202 C 
BRANCH   3   4
ATOM      4  C   UNL A   1      39.821  21.533  26.444  1.00  0.00     0.261 C 
BRANCH   4   5
ATOM      5  O   UNL A   1      39.061  22.763  26.251  1.00  0.00    -0.463 OA
BRANCH   5   6
ATOM      6  C   UNL A   1      37.828  22.637  25.693  1.00  0.00     0.306 C 
ATOM      7  O   UNL A   1      37.536  21.752  24.895  1.00  0.00    -0.252 OA
BRANCH   6   8
ATOM      8  C   UNL A   1      36.813  23.691  26.109  1.00  0.00     0.131 C 
BRANCH   8   9
ATOM      9  C   UNL A   1      35.380  23.294  26.472  1.00  0.00     0.091 C 
BRANCH   9  10
ATOM     10  C   UNL A   1      34.303  23.970  25.695  1.00  0.00     0.152 A 
ATOM     11  C   UNL A   1      31.525  22.873  22.807  1.00  0.00     0.090 C 
ATOM     12  C   UNL A   1      31.658  24.208  23.468  1.00  0.00     0.131 A 
ATOM     13  N   UNL A   1      30.887  25.223  23.161  1.00  0.00    -0.222 NA
ATOM     14  N   UNL A   1      32.684  24.299  24.419  1.00  0.00    -0.199 N 
ATOM     15  C   UNL A   1      31.143  26.398  23.828  1.00  0.00     0.129 A 
ATOM     16  C   UNL A   1      32.930  25.449  25.115  1.00  0.00     0.168 A 
ATOM     17  N   UNL A   1      33.574  23.337  24.757  1.00  0.00    -0.150 NA
ATOM     18  S   UNL A   1      30.268  27.830  23.497  1.00  0.00    -0.120 S 
ATOM     19  C   UNL A   1      32.103  26.636  24.802  1.00  0.00     0.060 A 
ATOM     20  N   UNL A   1      33.926  25.265  25.945  1.00  0.00    -0.211 NA
ATOM     21  C   UNL A   1      31.172  28.729  24.630  1.00  0.00     0.011 A 
ATOM     22  C   UNL A   1      32.140  27.978  25.277  1.00  0.00    -0.018 A 
ATOM     23  C   UNL A   1      30.946  30.197  24.836  1.00  0.00     0.047 C 
ATOM     24  C   UNL A   1      33.050  28.593  26.309  1.00  0.00     0.018 C 
ATOM     25  C   UNL A   1      31.518  30.636  26.191  1.00  0.00     0.006 C 
ATOM     26  C   UNL A   1      34.508  28.230  26.081  1.00  0.00     0.013 C 
ATOM     27  C   UNL A   1      32.949  30.133  26.362  1.00  0.00     0.008 C 
ENDBRANCH   9  10
ENDBRANCH   8   9
ENDBRANCH   6   8
ENDBRANCH   5   6
ENDBRANCH   4   5
ENDBRANCH   3   4
ENDBRANCH   2   3
ENDBRANCH   1   2
BRANCH   1  28
ATOM     28  C   UNL A   1      42.646  18.433  26.425  1.00  0.00     0.188 C 
BRANCH  28  29
ATOM     29  O   UNL A   1      43.444  18.133  25.264  1.00  0.00    -0.376 OA
BRANCH  29  30
ATOM     30  C   UNL A   1      44.763  18.681  25.231  1.00  0.00     0.202 C 
BRANCH  30  31
ATOM     31  C   UNL A   1      45.144  19.380  23.930  1.00  0.00     0.261 C 
BRANCH  31  32
ATOM     32  O   UNL A   1      44.528  20.648  23.860  1.00  0.00    -0.460 OA
BRANCH  32  33
ATOM     33  C   UNL A   1      45.299  21.638  24.360  1.00  0.00     0.338 C 
ATOM     34  O   UNL A   1      46.487  21.853  24.156  1.00  0.00    -0.246 OA
BRANCH  33  35
ATOM     35  C   UNL A   1      44.467  22.444  25.245  1.00  0.00     0.060 A 
ATOM     36  C   UNL A   1      43.541  23.291  24.637  1.00  0.00     0.016 A 
ATOM     37  C   UNL A   1      44.781  22.513  26.609  1.00  0.00     0.016 A 
ATOM     38  C   UNL A   1      43.168  24.409  25.331  1.00  0.00     0.010 A 
ATOM     39  C   UNL A   1      44.422  23.635  27.296  1.00  0.00     0.010 A 
ATOM     40  C   UNL A   1      43.722  24.612  26.600  1.00  0.00    -0.014 A 
BRANCH  40  41
ATOM     41  C   UNL A   1      43.469  25.873  27.242  1.00  0.00     0.031 A 
ATOM     42  C   UNL A   1      44.504  26.847  26.875  1.00  0.00     0.074 A 
ATOM     43  C   UNL A   1      42.388  26.063  28.023  1.00  0.00     0.049 A 
ATOM     44  N   UNL A   1      45.480  27.239  27.619  1.00  0.00    -0.248 NA
ATOM     45  C   UNL A   1      44.630  27.241  25.461  1.00  0.00     0.031 C 
ATOM     46  C   UNL A   1      41.232  25.171  28.160  1.00  0.00     0.029 A 
ATOM     47  N   UNL A   1      42.038  27.143  28.781  1.00  0.00    -0.354 N 
ATOM     48  C   UNL A   1      46.136  28.192  26.854  1.00  0.00     0.074 A 
ATOM     49  C   UNL A   1      45.759  27.955  25.489  1.00  0.00     0.031 C 
ATOM     50  C   UNL A   1      40.215  25.841  28.745  1.00  0.00     0.029 A 
ATOM     51  C   UNL A   1      40.695  27.145  29.160  1.00  0.00     0.049 A 
ATOM     52  H   UNL A   1      42.672  27.851  29.036  1.00  0.00     0.167 HD
ATOM     53  C   UNL A   1      46.539  29.336  27.467  1.00  0.00     0.037 A 
ATOM     54  C   UNL A   1      40.037  28.196  29.710  1.00  0.00     0.037 A 
ATOM     55  C   UNL A   1      46.595  29.153  28.896  1.00  0.00     0.049 A 
ATOM     56  C   UNL A   1      41.062  29.072  30.327  1.00  0.00     0.074 A 
ATOM     57  C   UNL A   1      47.437  28.539  29.796  1.00  0.00     0.029 A 
ATOM     58  N   UNL A   1      45.382  29.303  29.512  1.00  0.00    -0.354 N 
ATOM     59  N   UNL A   1      41.772  28.722  31.365  1.00  0.00    -0.248 NA
ATOM     60  C   UNL A   1      41.571  30.212  29.569  1.00  0.00     0.031 C 
ATOM     61  C   UNL A   1      46.669  28.299  30.973  1.00  0.00     0.029 A 
ATOM     62  C   UNL A   1      45.389  28.811  30.786  1.00  0.00     0.049 A 
ATOM     63  H   UNL A   1      44.596  29.718  29.087  1.00  0.00     0.167 HD
ATOM     64  C   UNL A   1      42.999  29.313  31.145  1.00  0.00     0.074 A 
ATOM     65  C   UNL A   1      42.773  30.337  30.134  1.00  0.00     0.031 C 
ATOM     66  C   UNL A   1      44.150  28.688  31.516  1.00  0.00     0.037 A 
BRANCH  53  67
ATOM     67  C   UNL A   1      46.325  30.714  26.882  1.00  0.00     0.064 A 
ATOM     68  C   UNL A   1      47.405  31.617  26.880  1.00  0.00     0.173 A 
ATOM     69  C   UNL A   1      45.058  31.284  26.619  1.00  0.00     0.173 A 
ATOM     70  F   UNL A   1      48.645  31.196  27.170  1.00  0.00    -0.203 F 
ATOM     71  C   UNL A   1      47.221  32.987  26.668  1.00  0.00     0.198 A 
ATOM     72  C   UNL A   1      44.887  32.640  26.351  1.00  0.00     0.198 A 
ATOM     73  F   UNL A   1      43.919  30.592  26.724  1.00  0.00    -0.203 F 
ATOM     74  F   UNL A   1      48.262  33.822  26.784  1.00  0.00    -0.200 F 
ATOM     75  C   UNL A   1      45.964  33.496  26.398  1.00  0.00     0.200 A 
ATOM     76  F   UNL A   1      43.653  33.115  26.131  1.00  0.00    -0.200 F 
ATOM     77  F   UNL A   1      45.780  34.812  26.237  1.00  0.00    -0.200 F 
ENDBRANCH  53  67
BRANCH  54  78
ATOM     78  C   UNL A   1      38.649  28.665  29.471  1.00  0.00     0.064 A 
ATOM     79  C   UNL A   1      37.794  28.935  30.555  1.00  0.00     0.173 A 
ATOM     80  C   UNL A   1      38.242  29.159  28.217  1.00  0.00     0.173 A 
ATOM     81  F   UNL A   1      38.119  28.521  31.788  1.00  0.00    -0.203 F 
ATOM     82  C   UNL A   1      36.640  29.711  30.407  1.00  0.00     0.198 A 
ATOM     83  C   UNL A   1      37.084  29.929  28.070  1.00  0.00     0.198 A 
ATOM     84  F   UNL A   1      39.006  28.997  27.130  1.00  0.00    -0.203 F 
ATOM     85  F   UNL A   1      35.901  30.020  31.482  1.00  0.00    -0.200 F 
ATOM     86  C   UNL A   1      36.297  30.224  29.168  1.00  0.00     0.200 A 
ATOM     87  F   UNL A   1      36.778  30.444  26.871  1.00  0.00    -0.200 F 
ATOM     88  F   UNL A   1      35.238  31.035  29.041  1.00  0.00    -0.200 F 
ENDBRANCH  54  78
BRANCH  66  89
ATOM     89  C   UNL A   1      44.105  27.722  32.650  1.00  0.00     0.064 A 
ATOM     90  C   UNL A   1      44.024  26.329  32.515  1.00  0.00     0.173 A 
ATOM     91  C   UNL A   1      44.311  28.248  33.934  1.00  0.00     0.173 A 
ATOM     92  F   UNL A   1      43.879  25.762  31.308  1.00  0.00    -0.203 F 
ATOM     93  C   UNL A   1      44.155  25.501  33.630  1.00  0.00     0.198 A 
ATOM     94  C   UNL A   1      44.475  27.420  35.034  1.00  0.00     0.198 A 
ATOM     95  F   UNL A   1      44.417  29.576  34.103  1.00  0.00    -0.203 F 
ATOM     96  F   UNL A   1      44.088  24.168  33.490  1.00  0.00    -0.200 F 
ATOM     97  C   UNL A   1      44.397  26.046  34.884  1.00  0.00     0.200 A 
ATOM     98  F   UNL A   1      44.749  27.954  36.233  1.00  0.00    -0.200 F 
ATOM     99  F   UNL A   1      44.585  25.247  35.943  1.00  0.00    -0.200 F 
ENDBRANCH  66  89
ENDBRANCH  40  41
ENDBRANCH  33  35
ENDBRANCH  32  33
ENDBRANCH  31  32
ENDBRANCH  30  31
ENDBRANCH  29  30
ENDBRANCH  28  29
ENDBRANCH   1  28
TORSDOF 19
ENDMDL
MODEL 3
REMARK VINA RESULT:     -11.9      1.437      2.469
REMARK SMILES Cc1nc2sc3c(c2c2nc(CCC(=O)OCCOCCOCCOC(=O)c4ccc(-c5c6nc(c(-c7c(F)c(F)c(F)c(F)c7F)c7ccc([nH]7)c(-c7c(F)c(F)c(F)c(F)c7F)c7nc(c(-c8c(F)c(F)c(F)c(F)c8F)c8ccc5[nH]8)C=C7)C=C6)cc4)nn12)[C@@H](C)CCC3
REMARK SMILES IDX 20 1 19 2 18 3 17 4 16 5 14 6 15 7 13 8 12 9 11 10 1 11 2 12
REMARK SMILES IDX 3 13 92 14 4 15 9 16 91 17 5 18 8 19 10 20 6 21 7 22 97 23
REMARK SMILES IDX 93 24 96 25 94 26 95 27 21 28 22 29 23 30 24 31 25 32 26 33
REMARK SMILES IDX 27 34 28 35 29 36 90 37 30 38 89 39 31 40 32 41 33 42 83 43
REMARK SMILES IDX 34 44 88 45 82 46 84 47 35 48 87 49 81 50 80 51 36 53 68 54
REMARK SMILES IDX 48 55 67 56 49 57 52 58 66 59 85 60 50 61 51 62 65 64 86 65
REMARK SMILES IDX 53 66 37 67 38 68 46 69 39 70 40 71 44 72 47 73 41 74 42 75
REMARK SMILES IDX 45 76 43 77 69 78 70 79 78 80 71 81 72 82 76 83 79 84 73 85
REMARK SMILES IDX 74 86 77 87 75 88 54 89 55 90 63 91 56 92 57 93 61 94 64 95
REMARK SMILES IDX 58 96 59 97 62 98 60 99
REMARK H PARENT 84 52 52 63
REMARK Flexibility Score: inf
ROOT
ATOM      1  C   UNL A   1      42.422  19.374  25.893  1.00  0.00     0.188 C 
ENDROOT
BRANCH   1   2
ATOM      2  O   UNL A   1      41.133  18.801  25.708  1.00  0.00    -0.376 OA
BRANCH   2   3
ATOM      3  C   UNL A   1      40.059  19.734  25.859  1.00  0.00     0.202 C 
BRANCH   3   4
ATOM      4  C   UNL A   1      40.424  21.218  26.125  1.00  0.00     0.261 C 
BRANCH   4   5
ATOM      5  O   UNL A   1      39.410  21.968  26.856  1.00  0.00    -0.463 OA
BRANCH   5   6
ATOM      6  C   UNL A   1      38.697  22.881  26.146  1.00  0.00     0.306 C 
ATOM      7  O   UNL A   1      38.835  24.094  26.276  1.00  0.00    -0.252 OA
BRANCH   6   8
ATOM      8  C   UNL A   1      37.680  22.303  25.173  1.00  0.00     0.131 C 
BRANCH   8   9
ATOM      9  C   UNL A   1      36.791  23.224  24.335  1.00  0.00     0.091 C 
BRANCH   9  10
ATOM     10  C   UNL A   1      35.424  23.473  24.874  1.00  0.00     0.152 A 
ATOM     11  C   UNL A   1      33.220  22.255  28.179  1.00  0.00     0.090 C 
ATOM     12  C   UNL A   1      32.808  23.246  27.137  1.00  0.00     0.131 A 
ATOM     13  N   UNL A   1      31.637  23.834  27.151  1.00  0.00    -0.222 NA
ATOM     14  N   UNL A   1      33.757  23.476  26.130  1.00  0.00    -0.199 N 
ATOM     15  C   UNL A   1      31.383  24.699  26.113  1.00  0.00     0.129 A 
ATOM     16  C   UNL A   1      33.535  24.358  25.110  1.00  0.00     0.168 A 
ATOM     17  N   UNL A   1      34.960  22.874  25.987  1.00  0.00    -0.150 NA
ATOM     18  S   UNL A   1      29.879  25.498  25.954  1.00  0.00    -0.120 S 
ATOM     19  C   UNL A   1      32.224  25.043  25.063  1.00  0.00     0.060 A 
ATOM     20  N   UNL A   1      34.578  24.397  24.319  1.00  0.00    -0.211 NA
ATOM     21  C   UNL A   1      30.361  26.267  24.509  1.00  0.00     0.011 A 
ATOM     22  C   UNL A   1      31.651  25.945  24.122  1.00  0.00    -0.018 A 
ATOM     23  C   UNL A   1      29.430  27.155  23.738  1.00  0.00     0.047 C 
ATOM     24  C   UNL A   1      32.258  26.517  22.866  1.00  0.00     0.018 C 
ATOM     25  C   UNL A   1      30.227  28.066  22.794  1.00  0.00     0.006 C 
ATOM     26  C   UNL A   1      32.927  25.451  22.013  1.00  0.00     0.013 C 
ATOM     27  C   UNL A   1      31.232  27.255  21.980  1.00  0.00     0.008 C 
ENDBRANCH   9  10
ENDBRANCH   8   9
ENDBRANCH   6   8
ENDBRANCH   5   6
ENDBRANCH   4   5
ENDBRANCH   3   4
ENDBRANCH   2   3
ENDBRANCH   1   2
BRANCH   1  28
ATOM     28  C   UNL A   1      43.454  18.407  26.427  1.00  0.00     0.188 C 
BRANCH  28  29
ATOM     29  O   UNL A   1      44.474  18.118  25.451  1.00  0.00    -0.376 OA
BRANCH  29  30
ATOM     30  C   UNL A   1      45.810  18.499  25.784  1.00  0.00     0.202 C 
BRANCH  30  31
ATOM     31  C   UNL A   1      46.473  19.465  24.809  1.00  0.00     0.261 C 
BRANCH  31  32
ATOM     32  O   UNL A   1      46.249  20.798  25.216  1.00  0.00    -0.460 OA
BRANCH  32  33
ATOM     33  C   UNL A   1      45.250  21.398  24.532  1.00  0.00     0.338 C 
ATOM     34  O   UNL A   1      44.425  20.885  23.785  1.00  0.00    -0.246 OA
BRANCH  33  35
ATOM     35  C   UNL A   1      45.316  22.826  24.812  1.00  0.00     0.060 A 
ATOM     36  C   UNL A   1      46.238  23.235  25.774  1.00  0.00     0.016 A 
ATOM     37  C   UNL A   1      44.323  23.673  24.299  1.00  0.00     0.016 A 
ATOM     38  C   UNL A   1      45.964  24.394  26.448  1.00  0.00     0.010 A 
ATOM     39  C   UNL A   1      44.041  24.820  24.981  1.00  0.00     0.010 A 
ATOM     40  C   UNL A   1      44.797  25.091  26.113  1.00  0.00    -0.014 A 
BRANCH  40  41
ATOM     41  C   UNL A   1      44.423  26.201  26.947  1.00  0.00     0.031 A 
ATOM     42  C   UNL A   1      45.372  27.308  26.776  1.00  0.00     0.074 A 
ATOM     43  C   UNL A   1      43.319  26.164  27.717  1.00  0.00     0.049 A 
ATOM     44  N   UNL A   1      46.299  27.653  27.602  1.00  0.00    -0.248 NA
ATOM     45  C   UNL A   1      45.482  27.942  25.450  1.00  0.00     0.031 C 
ATOM     46  C   UNL A   1      42.246  25.165  27.671  1.00  0.00     0.029 A 
ATOM     47  N   UNL A   1      42.863  27.068  28.633  1.00  0.00    -0.354 N 
ATOM     48  C   UNL A   1      46.878  28.773  27.024  1.00  0.00     0.074 A 
ATOM     49  C   UNL A   1      46.542  28.735  25.628  1.00  0.00     0.031 C 
ATOM     50  C   UNL A   1      41.164  25.638  28.330  1.00  0.00     0.029 A 
ATOM     51  C   UNL A   1      41.520  26.891  28.969  1.00  0.00     0.049 A 
ATOM     52  H   UNL A   1      43.428  27.776  29.019  1.00  0.00     0.167 HD
ATOM     53  C   UNL A   1      47.167  29.829  27.829  1.00  0.00     0.037 A 
ATOM     54  C   UNL A   1      40.763  27.775  29.665  1.00  0.00     0.037 A 
ATOM     55  C   UNL A   1      47.219  29.414  29.209  1.00  0.00     0.049 A 
ATOM     56  C   UNL A   1      41.697  28.620  30.448  1.00  0.00     0.074 A 
ATOM     57  C   UNL A   1      48.101  28.733  30.019  1.00  0.00     0.029 A 
ATOM     58  N   UNL A   1      45.990  29.355  29.806  1.00  0.00    -0.354 N 
ATOM     59  N   UNL A   1      42.421  28.164  31.434  1.00  0.00    -0.248 NA
ATOM     60  C   UNL A   1      42.112  29.910  29.904  1.00  0.00     0.031 C 
ATOM     61  C   UNL A   1      47.341  28.235  31.117  1.00  0.00     0.029 A 
ATOM     62  C   UNL A   1      46.023  28.660  30.982  1.00  0.00     0.049 A 
ATOM     63  H   UNL A   1      45.176  29.765  29.434  1.00  0.00     0.167 HD
ATOM     64  C   UNL A   1      43.593  28.886  31.349  1.00  0.00     0.074 A 
ATOM     65  C   UNL A   1      43.290  30.042  30.516  1.00  0.00     0.031 C 
ATOM     66  C   UNL A   1      44.790  28.310  31.645  1.00  0.00     0.037 A 
BRANCH  53  67
ATOM     67  C   UNL A   1      46.839  31.262  27.474  1.00  0.00     0.064 A 
ATOM     68  C   UNL A   1      45.498  31.596  27.208  1.00  0.00     0.173 A 
ATOM     69  C   UNL A   1      47.793  32.229  27.083  1.00  0.00     0.173 A 
ATOM     70  F   UNL A   1      44.512  30.730  27.488  1.00  0.00    -0.203 F 
ATOM     71  C   UNL A   1      45.148  32.788  26.567  1.00  0.00     0.198 A 
ATOM     72  C   UNL A   1      47.437  33.440  26.497  1.00  0.00     0.198 A 
ATOM     73  F   UNL A   1      49.110  32.005  27.136  1.00  0.00    -0.203 F 
ATOM     74  F   UNL A   1      43.870  33.014  26.235  1.00  0.00    -0.200 F 
ATOM     75  C   UNL A   1      46.117  33.711  26.217  1.00  0.00     0.200 A 
ATOM     76  F   UNL A   1      48.397  34.302  26.133  1.00  0.00    -0.200 F 
ATOM     77  F   UNL A   1      45.788  34.834  25.566  1.00  0.00    -0.200 F 
ENDBRANCH  53  67
BRANCH  54  78
ATOM     78  C   UNL A   1      39.342  28.156  29.467  1.00  0.00     0.064 A 
ATOM     79  C   UNL A   1      38.478  28.273  30.572  1.00  0.00     0.173 A 
ATOM     80  C   UNL A   1      38.889  28.718  28.259  1.00  0.00     0.173 A 
ATOM     81  F   UNL A   1      38.843  27.787  31.767  1.00  0.00    -0.203 F 
ATOM     82  C   UNL A   1      37.268  28.969  30.489  1.00  0.00     0.198 A 
ATOM     83  C   UNL A   1      37.677  29.407  28.176  1.00  0.00     0.198 A 
ATOM     84  F   UNL A   1      39.655  28.701  27.160  1.00  0.00    -0.203 F 
ATOM     85  F   UNL A   1      36.517  29.135  31.586  1.00  0.00    -0.200 F 
ATOM     86  C   UNL A   1      36.878  29.553  29.296  1.00  0.00     0.200 A 
ATOM     87  F   UNL A   1      37.323  29.993  27.023  1.00  0.00    -0.200 F 
ATOM     88  F   UNL A   1      35.760  30.290  29.236  1.00  0.00    -0.200 F 
ENDBRANCH  54  78
BRANCH  66  89
ATOM     89  C   UNL A   1      44.816  27.167  32.602  1.00  0.00     0.064 A 
ATOM     90  C   UNL A   1      44.798  27.291  33.999  1.00  0.00     0.173 A 
ATOM     91  C   UNL A   1      44.698  25.883  32.053  1.00  0.00     0.173 A 
ATOM     92  F   UNL A   1      44.856  28.496  34.584  1.00  0.00    -0.203 F 
ATOM     93  C   UNL A   1      44.657  26.162  34.807  1.00  0.00     0.198 A 
ATOM     94  C   UNL A   1      44.523  24.767  32.858  1.00  0.00     0.198 A 
ATOM     95  F   UNL A   1      44.688  25.724  30.719  1.00  0.00    -0.203 F 
ATOM     96  F   UNL A   1      44.629  26.289  36.142  1.00  0.00    -0.200 F 
ATOM     97  C   UNL A   1      44.502  24.905  34.236  1.00  0.00     0.200 A 
ATOM     98  F   UNL A   1      44.334  23.565  32.297  1.00  0.00    -0.200 F 
ATOM     99  F   UNL A   1      44.305  23.831  35.011  1.00  0.00    -0.200 F 
ENDBRANCH  66  89
ENDBRANCH  40  41
ENDBRANCH  33  35
ENDBRANCH  32  33
ENDBRANCH  31  32
ENDBRANCH  30  31
ENDBRANCH  29  30
ENDBRANCH  28  29
ENDBRANCH   1  28
TORSDOF 19
ENDMDL
