MODEL 1
REMARK VINA RESULT:      -8.8      0.000      0.000
REMARK SMILES CCc1ccc(S(=O)(=O)CC(=O)OCCOCCOCCOC(=O)c2ccc(-c3c4nc(c(-c5c(F)c(F)c(F)c(F)c5F)c5ccc([nH]5)c(-c5c(F)c(F)c(F)c(F)c5F)c5nc(c(-c6c(F)c(F)c(F)c(F)c6F)c6ccc3[nH]6)C=C5)C=C4)cc2)cc1
REMARK SMILES IDX 17 1 16 2 15 3 14 4 13 5 11 6 12 7 10 8 7 9 8 10 9 11 6 12
REMARK SMILES IDX 3 13 4 14 89 15 5 16 88 17 2 18 1 19 18 20 19 21 20 22 21 23
REMARK SMILES IDX 22 24 23 25 24 26 25 27 26 28 87 29 27 30 86 31 28 32 29 33
REMARK SMILES IDX 30 34 80 35 31 36 85 37 79 38 81 39 32 40 84 41 78 42 77 43
REMARK SMILES IDX 33 45 65 46 45 47 64 48 46 49 49 50 63 51 82 52 47 53 48 54
REMARK SMILES IDX 62 56 83 57 50 58 34 59 35 60 43 61 36 62 37 63 41 64 44 65
REMARK SMILES IDX 38 66 39 67 42 68 40 69 66 70 67 71 75 72 68 73 69 74 73 75
REMARK SMILES IDX 76 76 70 77 71 78 74 79 72 80 51 81 52 82 60 83 53 84 54 85
REMARK SMILES IDX 58 86 61 87 55 88 56 89 59 90 57 91
REMARK H PARENT 81 44 49 55
REMARK Flexibility Score: inf
ROOT
ATOM      1  C   UNL A   1      45.698  20.469  24.801  1.00  0.00     0.188 C 
ENDROOT
BRANCH   1   2
ATOM      2  O   UNL A   1      44.337  20.084  24.625  1.00  0.00    -0.376 OA
BRANCH   2   3
ATOM      3  C   UNL A   1      43.942  18.780  25.050  1.00  0.00     0.202 C 
BRANCH   3   4
ATOM      4  C   UNL A   1      42.796  18.758  26.065  1.00  0.00     0.261 C 
BRANCH   4   5
ATOM      5  O   UNL A   1      41.735  19.623  25.619  1.00  0.00    -0.462 OA
BRANCH   5   6
ATOM      6  C   UNL A   1      41.062  20.339  26.550  1.00  0.00     0.321 C 
ATOM      7  O   UNL A   1      40.839  19.949  27.689  1.00  0.00    -0.251 OA
BRANCH   6   8
ATOM      8  C   UNL A   1      40.869  21.758  26.114  1.00  0.00     0.264 C 
BRANCH   8   9
ATOM      9  S   UNL A   1      42.343  22.729  26.124  1.00  0.00     0.189 S 
ATOM     10  O   UNL A   1      42.807  22.844  24.756  1.00  0.00    -0.223 OA
ATOM     11  O   UNL A   1      43.233  22.261  27.169  1.00  0.00    -0.223 OA
BRANCH   9  12
ATOM     12  C   UNL A   1      41.853  24.399  26.589  1.00  0.00     0.067 A 
ATOM     13  C   UNL A   1      40.934  26.989  27.246  1.00  0.00    -0.048 A 
ATOM     14  C   UNL A   1      41.276  26.664  25.927  1.00  0.00     0.005 A 
ATOM     15  C   UNL A   1      41.090  26.005  28.236  1.00  0.00     0.005 A 
ATOM     16  C   UNL A   1      41.727  25.378  25.596  1.00  0.00     0.020 A 
ATOM     17  C   UNL A   1      41.542  24.714  27.915  1.00  0.00     0.020 A 
BRANCH  13  18
ATOM     18  C   UNL A   1      40.320  28.333  27.583  1.00  0.00     0.032 C 
ATOM     19  C   UNL A   1      40.668  28.888  28.953  1.00  0.00     0.009 C 
ENDBRANCH  13  18
ENDBRANCH   9  12
ENDBRANCH   8   9
ENDBRANCH   6   8
ENDBRANCH   5   6
ENDBRANCH   4   5
ENDBRANCH   3   4
ENDBRANCH   2   3
ENDBRANCH   1   2
BRANCH   1  20
ATOM     20  C   UNL A   1      46.081  21.944  24.585  1.00  0.00     0.188 C 
BRANCH  20  21
ATOM     21  O   UNL A   1      46.399  22.619  25.791  1.00  0.00    -0.376 OA
BRANCH  21  22
ATOM     22  C   UNL A   1      46.034  23.991  25.800  1.00  0.00     0.202 C 
BRANCH  22  23
ATOM     23  C   UNL A   1      47.147  24.845  25.187  1.00  0.00     0.261 C 
BRANCH  23  24
ATOM     24  O   UNL A   1      46.667  25.802  24.213  1.00  0.00    -0.460 OA
BRANCH  24  25
ATOM     25  C   UNL A   1      47.015  27.079  24.475  1.00  0.00     0.338 C 
ATOM     26  O   UNL A   1      47.770  27.762  23.813  1.00  0.00    -0.246 OA
BRANCH  25  27
ATOM     27  C   UNL A   1      46.329  27.581  25.682  1.00  0.00     0.060 A 
ATOM     28  C   UNL A   1      44.936  27.690  25.717  1.00  0.00     0.016 A 
ATOM     29  C   UNL A   1      47.096  28.135  26.704  1.00  0.00     0.016 A 
ATOM     30  C   UNL A   1      44.309  28.401  26.744  1.00  0.00     0.010 A 
ATOM     31  C   UNL A   1      46.466  28.816  27.751  1.00  0.00     0.010 A 
ATOM     32  C   UNL A   1      45.070  28.980  27.768  1.00  0.00    -0.014 A 
BRANCH  32  33
ATOM     33  C   UNL A   1      44.426  29.773  28.849  1.00  0.00     0.031 A 
ATOM     34  C   UNL A   1      44.237  31.257  28.695  1.00  0.00     0.074 A 
ATOM     35  C   UNL A   1      44.028  29.166  29.983  1.00  0.00     0.049 A 
ATOM     36  N   UNL A   1      43.921  32.152  29.597  1.00  0.00    -0.248 NA
ATOM     37  C   UNL A   1      44.423  31.807  27.343  1.00  0.00     0.031 C 
ATOM     38  C   UNL A   1      44.075  27.727  30.232  1.00  0.00     0.029 A 
ATOM     39  N   UNL A   1      43.531  29.692  31.151  1.00  0.00    -0.354 N 
ATOM     40  C   UNL A   1      43.908  33.374  28.936  1.00  0.00     0.074 A 
ATOM     41  C   UNL A   1      44.233  33.105  27.551  1.00  0.00     0.031 C 
ATOM     42  C   UNL A   1      43.646  27.484  31.479  1.00  0.00     0.029 A 
ATOM     43  C   UNL A   1      43.376  28.755  32.144  1.00  0.00     0.049 A 
ATOM     44  H   UNL A   1      43.308  30.644  31.265  1.00  0.00     0.167 HD
ATOM     45  C   UNL A   1      43.658  34.603  29.448  1.00  0.00     0.037 A 
ATOM     46  C   UNL A   1      43.121  28.903  33.457  1.00  0.00     0.037 A 
ATOM     47  C   UNL A   1      43.311  34.857  30.824  1.00  0.00     0.049 A 
ATOM     48  C   UNL A   1      42.944  30.285  34.023  1.00  0.00     0.074 A 
ATOM     49  C   UNL A   1      43.021  36.067  31.433  1.00  0.00     0.029 A 
ATOM     50  N   UNL A   1      43.208  33.883  31.806  1.00  0.00    -0.354 N 
ATOM     51  N   UNL A   1      42.980  31.440  33.406  1.00  0.00    -0.248 NA
ATOM     52  C   UNL A   1      42.708  30.383  35.470  1.00  0.00     0.031 C 
ATOM     53  C   UNL A   1      42.793  35.830  32.793  1.00  0.00     0.029 A 
ATOM     54  C   UNL A   1      42.890  34.468  33.022  1.00  0.00     0.049 A 
ATOM     55  H   UNL A   1      43.342  32.919  31.661  1.00  0.00     0.167 HD
ATOM     56  C   UNL A   1      42.758  32.400  34.384  1.00  0.00     0.074 A 
ATOM     57  C   UNL A   1      42.573  31.691  35.633  1.00  0.00     0.031 C 
ATOM     58  C   UNL A   1      42.715  33.749  34.257  1.00  0.00     0.037 A 
BRANCH  45  59
ATOM     59  C   UNL A   1      43.796  35.788  28.537  1.00  0.00     0.064 A 
ATOM     60  C   UNL A   1      42.691  36.380  27.911  1.00  0.00     0.173 A 
ATOM     61  C   UNL A   1      45.053  36.387  28.354  1.00  0.00     0.173 A 
ATOM     62  F   UNL A   1      41.470  35.840  28.046  1.00  0.00    -0.203 F 
ATOM     63  C   UNL A   1      42.839  37.524  27.128  1.00  0.00     0.198 A 
ATOM     64  C   UNL A   1      45.195  37.543  27.590  1.00  0.00     0.198 A 
ATOM     65  F   UNL A   1      46.143  35.863  28.935  1.00  0.00    -0.203 F 
ATOM     66  F   UNL A   1      41.773  38.060  26.518  1.00  0.00    -0.200 F 
ATOM     67  C   UNL A   1      44.088  38.109  26.976  1.00  0.00     0.200 A 
ATOM     68  F   UNL A   1      46.401  38.113  27.455  1.00  0.00    -0.200 F 
ATOM     69  F   UNL A   1      44.226  39.217  26.235  1.00  0.00    -0.200 F 
ENDBRANCH  45  59
BRANCH  46  70
ATOM     70  C   UNL A   1      43.099  27.707  34.339  1.00  0.00     0.064 A 
ATOM     71  C   UNL A   1      44.253  27.270  35.000  1.00  0.00     0.173 A 
ATOM     72  C   UNL A   1      41.912  26.986  34.549  1.00  0.00     0.173 A 
ATOM     73  F   UNL A   1      45.416  27.909  34.808  1.00  0.00    -0.203 F 
ATOM     74  C   UNL A   1      44.223  26.153  35.833  1.00  0.00     0.198 A 
ATOM     75  C   UNL A   1      41.877  25.891  35.407  1.00  0.00     0.198 A 
ATOM     76  F   UNL A   1      40.780  27.362  33.936  1.00  0.00    -0.203 F 
ATOM     77  F   UNL A   1      45.350  25.732  36.426  1.00  0.00    -0.200 F 
ATOM     78  C   UNL A   1      43.033  25.472  36.045  1.00  0.00     0.200 A 
ATOM     79  F   UNL A   1      40.721  25.247  35.621  1.00  0.00    -0.200 F 
ATOM     80  F   UNL A   1      43.003  24.409  36.861  1.00  0.00    -0.200 F 
ENDBRANCH  46  70
BRANCH  58  81
ATOM     81  C   UNL A   1      42.428  34.541  35.499  1.00  0.00     0.064 A 
ATOM     82  C   UNL A   1      41.117  34.869  35.874  1.00  0.00     0.173 A 
ATOM     83  C   UNL A   1      43.477  34.962  36.331  1.00  0.00     0.173 A 
ATOM     84  F   UNL A   1      40.084  34.504  35.101  1.00  0.00    -0.203 F 
ATOM     85  C   UNL A   1      40.869  35.615  37.023  1.00  0.00     0.198 A 
ATOM     86  C   UNL A   1      43.221  35.685  37.493  1.00  0.00     0.198 A 
ATOM     87  F   UNL A   1      44.748  34.669  36.018  1.00  0.00    -0.203 F 
ATOM     88  F   UNL A   1      39.612  35.960  37.336  1.00  0.00    -0.200 F 
ATOM     89  C   UNL A   1      41.920  36.018  37.833  1.00  0.00     0.200 A 
ATOM     90  F   UNL A   1      44.238  36.066  38.280  1.00  0.00    -0.200 F 
ATOM     91  F   UNL A   1      41.679  36.737  38.939  1.00  0.00    -0.200 F 
ENDBRANCH  58  81
ENDBRANCH  32  33
ENDBRANCH  25  27
ENDBRANCH  24  25
ENDBRANCH  23  24
ENDBRANCH  22  23
ENDBRANCH  21  22
ENDBRANCH  20  21
ENDBRANCH   1  20
TORSDOF 20
ENDMDL
MODEL 2
REMARK VINA RESULT:      -8.7      7.012     11.300
REMARK SMILES CCc1ccc(S(=O)(=O)CC(=O)OCCOCCOCCOC(=O)c2ccc(-c3c4nc(c(-c5c(F)c(F)c(F)c(F)c5F)c5ccc([nH]5)c(-c5c(F)c(F)c(F)c(F)c5F)c5nc(c(-c6c(F)c(F)c(F)c(F)c6F)c6ccc3[nH]6)C=C5)C=C4)cc2)cc1
REMARK SMILES IDX 17 1 16 2 15 3 14 4 13 5 11 6 12 7 10 8 7 9 8 10 9 11 6 12
REMARK SMILES IDX 3 13 4 14 89 15 5 16 88 17 2 18 1 19 18 20 19 21 20 22 21 23
REMARK SMILES IDX 22 24 23 25 24 26 25 27 26 28 87 29 27 30 86 31 28 32 29 33
REMARK SMILES IDX 30 34 80 35 31 36 85 37 79 38 81 39 32 40 84 41 78 42 77 43
REMARK SMILES IDX 33 45 65 46 45 47 64 48 46 49 49 50 63 51 82 52 47 53 48 54
REMARK SMILES IDX 62 56 83 57 50 58 34 59 35 60 43 61 36 62 37 63 41 64 44 65
REMARK SMILES IDX 38 66 39 67 42 68 40 69 66 70 67 71 75 72 68 73 69 74 73 75
REMARK SMILES IDX 76 76 70 77 71 78 74 79 72 80 51 81 52 82 60 83 53 84 54 85
REMARK SMILES IDX 58 86 61 87 55 88 56 89 59 90 57 91
REMARK H PARENT 81 44 49 55
REMARK Flexibility Score: inf
ROOT
ATOM      1  C   UNL A   1      33.764  31.875  27.702  1.00  0.00     0.188 C 
ENDROOT
BRANCH   1   2
ATOM      2  O   UNL A   1      33.738  30.465  27.903  1.00  0.00    -0.376 OA
BRANCH   2   3
ATOM      3  C   UNL A   1      34.384  29.631  26.941  1.00  0.00     0.202 C 
BRANCH   3   4
ATOM      4  C   UNL A   1      33.643  28.330  26.621  1.00  0.00     0.261 C 
BRANCH   4   5
ATOM      5  O   UNL A   1      33.805  28.009  25.228  1.00  0.00    -0.462 OA
BRANCH   5   6
ATOM      6  C   UNL A   1      33.731  26.708  24.860  1.00  0.00     0.321 C 
ATOM      7  O   UNL A   1      34.205  25.783  25.507  1.00  0.00    -0.251 OA
BRANCH   6   8
ATOM      8  C   UNL A   1      32.772  26.513  23.728  1.00  0.00     0.264 C 
BRANCH   8   9
ATOM      9  S   UNL A   1      31.134  26.086  24.227  1.00  0.00     0.189 S 
ATOM     10  O   UNL A   1      31.123  25.991  25.674  1.00  0.00    -0.223 OA
ATOM     11  O   UNL A   1      30.639  24.994  23.412  1.00  0.00    -0.223 OA
BRANCH   9  12
ATOM     12  C   UNL A   1      30.096  27.509  23.849  1.00  0.00     0.067 A 
ATOM     13  C   UNL A   1      28.551  29.756  23.107  1.00  0.00    -0.048 A 
ATOM     14  C   UNL A   1      29.883  29.906  23.516  1.00  0.00     0.005 A 
ATOM     15  C   UNL A   1      27.997  28.467  23.107  1.00  0.00     0.005 A 
ATOM     16  C   UNL A   1      30.655  28.792  23.879  1.00  0.00     0.020 A 
ATOM     17  C   UNL A   1      28.761  27.344  23.470  1.00  0.00     0.020 A 
BRANCH  13  18
ATOM     18  C   UNL A   1      27.758  30.938  22.587  1.00  0.00     0.032 C 
ATOM     19  C   UNL A   1      28.384  32.302  22.821  1.00  0.00     0.009 C 
ENDBRANCH  13  18
ENDBRANCH   9  12
ENDBRANCH   8   9
ENDBRANCH   6   8
ENDBRANCH   5   6
ENDBRANCH   4   5
ENDBRANCH   3   4
ENDBRANCH   2   3
ENDBRANCH   1   2
BRANCH   1  20
ATOM     20  C   UNL A   1      34.463  32.757  28.753  1.00  0.00     0.188 C 
BRANCH  20  21
ATOM     21  O   UNL A   1      33.597  33.711  29.343  1.00  0.00    -0.376 OA
BRANCH  21  22
ATOM     22  C   UNL A   1      33.894  35.055  28.995  1.00  0.00     0.202 C 
BRANCH  22  23
ATOM     23  C   UNL A   1      32.853  36.006  29.594  1.00  0.00     0.261 C 
BRANCH  23  24
ATOM     24  O   UNL A   1      33.220  36.511  30.900  1.00  0.00    -0.460 OA
BRANCH  24  25
ATOM     25  C   UNL A   1      32.790  35.749  31.927  1.00  0.00     0.338 C 
ATOM     26  O   UNL A   1      31.632  35.595  32.264  1.00  0.00    -0.246 OA
BRANCH  25  27
ATOM     27  C   UNL A   1      33.917  35.076  32.601  1.00  0.00     0.060 A 
ATOM     28  C   UNL A   1      35.210  35.603  32.526  1.00  0.00     0.016 A 
ATOM     29  C   UNL A   1      33.713  33.807  33.137  1.00  0.00     0.016 A 
ATOM     30  C   UNL A   1      36.308  34.840  32.934  1.00  0.00     0.010 A 
ATOM     31  C   UNL A   1      34.810  33.058  33.580  1.00  0.00     0.010 A 
ATOM     32  C   UNL A   1      36.119  33.555  33.457  1.00  0.00    -0.014 A 
BRANCH  32  33
ATOM     33  C   UNL A   1      37.276  32.712  33.861  1.00  0.00     0.031 A 
ATOM     34  C   UNL A   1      37.985  32.968  35.162  1.00  0.00     0.074 A 
ATOM     35  C   UNL A   1      37.709  31.728  33.050  1.00  0.00     0.049 A 
ATOM     36  N   UNL A   1      39.139  32.512  35.582  1.00  0.00    -0.248 NA
ATOM     37  C   UNL A   1      37.302  33.849  36.122  1.00  0.00     0.031 C 
ATOM     38  C   UNL A   1      37.066  31.320  31.802  1.00  0.00     0.029 A 
ATOM     39  N   UNL A   1      38.810  30.913  33.143  1.00  0.00    -0.354 N 
ATOM     40  C   UNL A   1      39.341  33.079  36.835  1.00  0.00     0.074 A 
ATOM     41  C   UNL A   1      38.182  33.901  37.115  1.00  0.00     0.031 C 
ATOM     42  C   UNL A   1      37.793  30.345  31.235  1.00  0.00     0.029 A 
ATOM     43  C   UNL A   1      38.994  30.122  32.034  1.00  0.00     0.049 A 
ATOM     44  H   UNL A   1      39.407  30.895  33.926  1.00  0.00     0.167 HD
ATOM     45  C   UNL A   1      40.403  32.930  37.662  1.00  0.00     0.037 A 
ATOM     46  C   UNL A   1      40.042  29.363  31.662  1.00  0.00     0.037 A 
ATOM     47  C   UNL A   1      41.540  32.090  37.385  1.00  0.00     0.049 A 
ATOM     48  C   UNL A   1      41.252  29.290  32.552  1.00  0.00     0.074 A 
ATOM     49  C   UNL A   1      42.658  31.859  38.170  1.00  0.00     0.029 A 
ATOM     50  N   UNL A   1      41.707  31.341  36.229  1.00  0.00    -0.354 N 
ATOM     51  N   UNL A   1      41.460  29.865  33.710  1.00  0.00    -0.248 NA
ATOM     52  C   UNL A   1      42.379  28.478  32.072  1.00  0.00     0.031 C 
ATOM     53  C   UNL A   1      43.522  31.012  37.468  1.00  0.00     0.029 A 
ATOM     54  C   UNL A   1      42.921  30.673  36.267  1.00  0.00     0.049 A 
ATOM     55  H   UNL A   1      41.058  31.292  35.490  1.00  0.00     0.167 HD
ATOM     56  C   UNL A   1      42.733  29.474  34.106  1.00  0.00     0.074 A 
ATOM     57  C   UNL A   1      43.243  28.600  33.069  1.00  0.00     0.031 C 
ATOM     58  C   UNL A   1      43.417  29.812  35.226  1.00  0.00     0.037 A 
BRANCH  45  59
ATOM     59  C   UNL A   1      40.425  33.729  38.934  1.00  0.00     0.064 A 
ATOM     60  C   UNL A   1      39.801  33.281  40.105  1.00  0.00     0.173 A 
ATOM     61  C   UNL A   1      41.153  34.928  38.994  1.00  0.00     0.173 A 
ATOM     62  F   UNL A   1      39.083  32.148  40.097  1.00  0.00    -0.203 F 
ATOM     63  C   UNL A   1      39.898  34.008  41.291  1.00  0.00     0.198 A 
ATOM     64  C   UNL A   1      41.268  35.640  40.186  1.00  0.00     0.198 A 
ATOM     65  F   UNL A   1      41.774  35.398  37.902  1.00  0.00    -0.203 F 
ATOM     66  F   UNL A   1      39.273  33.575  42.395  1.00  0.00    -0.200 F 
ATOM     67  C   UNL A   1      40.638  35.181  41.332  1.00  0.00     0.200 A 
ATOM     68  F   UNL A   1      41.994  36.766  40.225  1.00  0.00    -0.200 F 
ATOM     69  F   UNL A   1      40.742  35.871  42.476  1.00  0.00    -0.200 F 
ENDBRANCH  45  59
BRANCH  46  70
ATOM     70  C   UNL A   1      40.018  28.675  30.345  1.00  0.00     0.064 A 
ATOM     71  C   UNL A   1      40.590  29.261  29.210  1.00  0.00     0.173 A 
ATOM     72  C   UNL A   1      39.433  27.407  30.203  1.00  0.00     0.173 A 
ATOM     73  F   UNL A   1      41.136  30.484  29.290  1.00  0.00    -0.203 F 
ATOM     74  C   UNL A   1      40.574  28.607  27.979  1.00  0.00     0.198 A 
ATOM     75  C   UNL A   1      39.446  26.741  28.981  1.00  0.00     0.198 A 
ATOM     76  F   UNL A   1      38.868  26.805  31.259  1.00  0.00    -0.203 F 
ATOM     77  F   UNL A   1      41.096  29.204  26.898  1.00  0.00    -0.200 F 
ATOM     78  C   UNL A   1      40.012  27.343  27.869  1.00  0.00     0.200 A 
ATOM     79  F   UNL A   1      38.916  25.514  28.884  1.00  0.00    -0.200 F 
ATOM     80  F   UNL A   1      40.012  26.708  26.688  1.00  0.00    -0.200 F 
ENDBRANCH  46  70
BRANCH  58  81
ATOM     81  C   UNL A   1      44.780  29.209  35.398  1.00  0.00     0.064 A 
ATOM     82  C   UNL A   1      45.935  29.864  34.944  1.00  0.00     0.173 A 
ATOM     83  C   UNL A   1      44.934  27.970  36.037  1.00  0.00     0.173 A 
ATOM     84  F   UNL A   1      45.837  31.042  34.310  1.00  0.00    -0.203 F 
ATOM     85  C   UNL A   1      47.192  29.286  35.100  1.00  0.00     0.198 A 
ATOM     86  C   UNL A   1      46.195  27.408  36.214  1.00  0.00     0.198 A 
ATOM     87  F   UNL A   1      43.861  27.306  36.493  1.00  0.00    -0.203 F 
ATOM     88  F   UNL A   1      48.276  29.906  34.615  1.00  0.00    -0.200 F 
ATOM     89  C   UNL A   1      47.321  28.062  35.739  1.00  0.00     0.200 A 
ATOM     90  F   UNL A   1      46.320  26.229  36.841  1.00  0.00    -0.200 F 
ATOM     91  F   UNL A   1      48.532  27.507  35.888  1.00  0.00    -0.200 F 
ENDBRANCH  58  81
ENDBRANCH  32  33
ENDBRANCH  25  27
ENDBRANCH  24  25
ENDBRANCH  23  24
ENDBRANCH  22  23
ENDBRANCH  21  22
ENDBRANCH  20  21
ENDBRANCH   1  20
TORSDOF 20
ENDMDL
MODEL 3
REMARK VINA RESULT:      -8.4      6.114     10.151
REMARK SMILES CCc1ccc(S(=O)(=O)CC(=O)OCCOCCOCCOC(=O)c2ccc(-c3c4nc(c(-c5c(F)c(F)c(F)c(F)c5F)c5ccc([nH]5)c(-c5c(F)c(F)c(F)c(F)c5F)c5nc(c(-c6c(F)c(F)c(F)c(F)c6F)c6ccc3[nH]6)C=C5)C=C4)cc2)cc1
REMARK SMILES IDX 17 1 16 2 15 3 14 4 13 5 11 6 12 7 10 8 7 9 8 10 9 11 6 12
REMARK SMILES IDX 3 13 4 14 89 15 5 16 88 17 2 18 1 19 18 20 19 21 20 22 21 23
REMARK SMILES IDX 22 24 23 25 24 26 25 27 26 28 87 29 27 30 86 31 28 32 29 33
REMARK SMILES IDX 30 34 80 35 31 36 85 37 79 38 81 39 32 40 84 41 78 42 77 43
REMARK SMILES IDX 33 45 65 46 45 47 64 48 46 49 49 50 63 51 82 52 47 53 48 54
REMARK SMILES IDX 62 56 83 57 50 58 34 59 35 60 43 61 36 62 37 63 41 64 44 65
REMARK SMILES IDX 38 66 39 67 42 68 40 69 66 70 67 71 75 72 68 73 69 74 73 75
REMARK SMILES IDX 76 76 70 77 71 78 74 79 72 80 51 81 52 82 60 83 53 84 54 85
REMARK SMILES IDX 58 86 61 87 55 88 56 89 59 90 57 91
REMARK H PARENT 81 44 49 55
REMARK Flexibility Score: inf
ROOT
ATOM      1  C   UNL A   1      31.859  28.261  25.712  1.00  0.00     0.188 C 
ENDROOT
BRANCH   1   2
ATOM      2  O   UNL A   1      30.698  27.817  25.015  1.00  0.00    -0.376 OA
BRANCH   2   3
ATOM      3  C   UNL A   1      30.567  26.423  24.738  1.00  0.00     0.202 C 
BRANCH   3   4
ATOM      4  C   UNL A   1      30.506  25.526  25.978  1.00  0.00     0.261 C 
BRANCH   4   5
ATOM      5  O   UNL A   1      30.503  24.143  25.578  1.00  0.00    -0.462 OA
BRANCH   5   6
ATOM      6  C   UNL A   1      31.150  23.250  26.363  1.00  0.00     0.321 C 
ATOM      7  O   UNL A   1      31.185  23.309  27.585  1.00  0.00    -0.251 OA
BRANCH   6   8
ATOM      8  C   UNL A   1      31.574  22.044  25.585  1.00  0.00     0.264 C 
BRANCH   8   9
ATOM      9  S   UNL A   1      33.242  22.098  25.010  1.00  0.00     0.189 S 
ATOM     10  O   UNL A   1      33.396  21.068  24.002  1.00  0.00    -0.223 OA
ATOM     11  O   UNL A   1      34.149  22.169  26.139  1.00  0.00    -0.223 OA
BRANCH   9  12
ATOM     12  C   UNL A   1      33.425  23.652  24.117  1.00  0.00     0.067 A 
ATOM     13  C   UNL A   1      33.546  26.115  22.737  1.00  0.00    -0.048 A 
ATOM     14  C   UNL A   1      32.970  24.987  22.138  1.00  0.00     0.005 A 
ATOM     15  C   UNL A   1      34.088  25.981  24.025  1.00  0.00     0.005 A 
ATOM     16  C   UNL A   1      32.903  23.764  22.822  1.00  0.00     0.020 A 
ATOM     17  C   UNL A   1      34.026  24.760  24.719  1.00  0.00     0.020 A 
BRANCH  13  18
ATOM     18  C   UNL A   1      33.499  27.468  22.055  1.00  0.00     0.032 C 
ATOM     19  C   UNL A   1      34.130  28.613  22.827  1.00  0.00     0.009 C 
ENDBRANCH  13  18
ENDBRANCH   9  12
ENDBRANCH   8   9
ENDBRANCH   6   8
ENDBRANCH   5   6
ENDBRANCH   4   5
ENDBRANCH   3   4
ENDBRANCH   2   3
ENDBRANCH   1   2
BRANCH   1  20
ATOM     20  C   UNL A   1      31.686  29.261  26.870  1.00  0.00     0.188 C 
BRANCH  20  21
ATOM     21  O   UNL A   1      32.911  29.604  27.496  1.00  0.00    -0.376 OA
BRANCH  21  22
ATOM     22  C   UNL A   1      33.666  30.579  26.792  1.00  0.00     0.202 C 
BRANCH  22  23
ATOM     23  C   UNL A   1      33.978  31.773  27.700  1.00  0.00     0.261 C 
BRANCH  23  24
ATOM     24  O   UNL A   1      32.961  32.802  27.664  1.00  0.00    -0.460 OA
BRANCH  24  25
ATOM     25  C   UNL A   1      33.246  33.885  28.419  1.00  0.00     0.338 C 
ATOM     26  O   UNL A   1      32.610  34.919  28.448  1.00  0.00    -0.246 OA
BRANCH  25  27
ATOM     27  C   UNL A   1      34.439  33.653  29.255  1.00  0.00     0.060 A 
ATOM     28  C   UNL A   1      35.676  34.200  28.901  1.00  0.00     0.016 A 
ATOM     29  C   UNL A   1      34.361  32.717  30.284  1.00  0.00     0.016 A 
ATOM     30  C   UNL A   1      36.845  33.771  29.536  1.00  0.00     0.010 A 
ATOM     31  C   UNL A   1      35.528  32.315  30.944  1.00  0.00     0.010 A 
ATOM     32  C   UNL A   1      36.784  32.816  30.559  1.00  0.00    -0.014 A 
BRANCH  32  33
ATOM     33  C   UNL A   1      38.019  32.319  31.221  1.00  0.00     0.031 A 
ATOM     34  C   UNL A   1      38.798  31.181  30.622  1.00  0.00     0.074 A 
ATOM     35  C   UNL A   1      38.434  32.874  32.376  1.00  0.00     0.049 A 
ATOM     36  N   UNL A   1      39.750  30.456  31.154  1.00  0.00    -0.248 NA
ATOM     37  C   UNL A   1      38.466  30.814  29.236  1.00  0.00     0.031 C 
ATOM     38  C   UNL A   1      37.822  34.033  33.023  1.00  0.00     0.029 A 
ATOM     39  N   UNL A   1      39.453  32.515  33.224  1.00  0.00    -0.354 N 
ATOM     40  C   UNL A   1      40.105  29.523  30.188  1.00  0.00     0.074 A 
ATOM     41  C   UNL A   1      39.276  29.783  29.029  1.00  0.00     0.031 C 
ATOM     42  C   UNL A   1      38.463  34.280  34.175  1.00  0.00     0.029 A 
ATOM     43  C   UNL A   1      39.471  33.246  34.388  1.00  0.00     0.049 A 
ATOM     44  H   UNL A   1      40.105  31.807  33.019  1.00  0.00     0.167 HD
ATOM     45  C   UNL A   1      41.029  28.536  30.273  1.00  0.00     0.037 A 
ATOM     46  C   UNL A   1      40.164  33.063  35.528  1.00  0.00     0.037 A 
ATOM     47  C   UNL A   1      41.866  28.301  31.423  1.00  0.00     0.049 A 
ATOM     48  C   UNL A   1      41.114  31.902  35.635  1.00  0.00     0.074 A 
ATOM     49  C   UNL A   1      42.845  27.337  31.596  1.00  0.00     0.029 A 
ATOM     50  N   UNL A   1      41.821  29.037  32.597  1.00  0.00    -0.354 N 
ATOM     51  N   UNL A   1      41.411  30.994  34.739  1.00  0.00    -0.248 NA
ATOM     52  C   UNL A   1      41.809  31.732  36.918  1.00  0.00     0.031 C 
ATOM     53  C   UNL A   1      43.357  27.459  32.893  1.00  0.00     0.029 A 
ATOM     54  C   UNL A   1      42.733  28.530  33.510  1.00  0.00     0.049 A 
ATOM     55  H   UNL A   1      41.228  29.806  32.758  1.00  0.00     0.167 HD
ATOM     56  C   UNL A   1      42.337  30.153  35.342  1.00  0.00     0.074 A 
ATOM     57  C   UNL A   1      42.564  30.669  36.676  1.00  0.00     0.031 C 
ATOM     58  C   UNL A   1      42.943  29.051  34.836  1.00  0.00     0.037 A 
BRANCH  45  59
ATOM     59  C   UNL A   1      41.163  27.592  29.113  1.00  0.00     0.064 A 
ATOM     60  C   UNL A   1      42.225  27.674  28.204  1.00  0.00     0.173 A 
ATOM     61  C   UNL A   1      40.248  26.537  28.960  1.00  0.00     0.173 A 
ATOM     62  F   UNL A   1      43.120  28.670  28.299  1.00  0.00    -0.203 F 
ATOM     63  C   UNL A   1      42.365  26.740  27.178  1.00  0.00     0.198 A 
ATOM     64  C   UNL A   1      40.403  25.592  27.949  1.00  0.00     0.198 A 
ATOM     65  F   UNL A   1      39.216  26.409  29.808  1.00  0.00    -0.203 F 
ATOM     66  F   UNL A   1      43.374  26.851  26.304  1.00  0.00    -0.200 F 
ATOM     67  C   UNL A   1      41.460  25.696  27.058  1.00  0.00     0.200 A 
ATOM     68  F   UNL A   1      39.534  24.577  27.843  1.00  0.00    -0.200 F 
ATOM     69  F   UNL A   1      41.603  24.790  26.080  1.00  0.00    -0.200 F 
ENDBRANCH  45  59
BRANCH  46  70
ATOM     70  C   UNL A   1      39.920  33.960  36.687  1.00  0.00     0.064 A 
ATOM     71  C   UNL A   1      39.023  33.608  37.702  1.00  0.00     0.173 A 
ATOM     72  C   UNL A   1      40.594  35.186  36.806  1.00  0.00     0.173 A 
ATOM     73  F   UNL A   1      38.334  32.460  37.618  1.00  0.00    -0.203 F 
ATOM     74  C   UNL A   1      38.806  34.449  38.791  1.00  0.00     0.198 A 
ATOM     75  C   UNL A   1      40.400  36.011  37.910  1.00  0.00     0.198 A 
ATOM     76  F   UNL A   1      41.460  35.572  35.857  1.00  0.00    -0.203 F 
ATOM     77  F   UNL A   1      37.915  34.106  39.733  1.00  0.00    -0.200 F 
ATOM     78  C   UNL A   1      39.503  35.644  38.900  1.00  0.00     0.200 A 
ATOM     79  F   UNL A   1      41.088  37.155  38.017  1.00  0.00    -0.200 F 
ATOM     80  F   UNL A   1      39.305  36.445  39.957  1.00  0.00    -0.200 F 
ENDBRANCH  46  70
BRANCH  58  81
ATOM     81  C   UNL A   1      43.929  28.349  35.722  1.00  0.00     0.064 A 
ATOM     82  C   UNL A   1      43.541  27.294  36.560  1.00  0.00     0.173 A 
ATOM     83  C   UNL A   1      45.280  28.727  35.720  1.00  0.00     0.173 A 
ATOM     84  F   UNL A   1      42.258  26.909  36.610  1.00  0.00    -0.203 F 
ATOM     85  C   UNL A   1      44.467  26.660  37.385  1.00  0.00     0.198 A 
ATOM     86  C   UNL A   1      46.207  28.074  36.528  1.00  0.00     0.198 A 
ATOM     87  F   UNL A   1      45.702  29.728  34.933  1.00  0.00    -0.203 F 
ATOM     88  F   UNL A   1      44.065  25.687  38.215  1.00  0.00    -0.200 F 
ATOM     89  C   UNL A   1      45.799  27.048  37.365  1.00  0.00     0.200 A 
ATOM     90  F   UNL A   1      47.495  28.443  36.500  1.00  0.00    -0.200 F 
ATOM     91  F   UNL A   1      46.688  26.437  38.161  1.00  0.00    -0.200 F 
ENDBRANCH  58  81
ENDBRANCH  32  33
ENDBRANCH  25  27
ENDBRANCH  24  25
ENDBRANCH  23  24
ENDBRANCH  22  23
ENDBRANCH  21  22
ENDBRANCH  20  21
ENDBRANCH   1  20
TORSDOF 20
ENDMDL
