MODEL 1
REMARK VINA RESULT:      -7.5      0.000      0.000
REMARK SMILES CCN1C(=O)/C(=C/c2ccccc2O[C@H](C)C(=O)OCCOCCOCCOC(=O)c2ccc(-c3c4nc(c(-c5c(F)c(F)c(F)c(F)c5F)c5ccc([nH]5)c(-c5c(F)c(F)c(F)c(F)c5F)c5nc(c(-c6c(F)c(F)c(F)c(F)c6F)c6ccc3[nH]6)C=C5)C=C4)cc2)S/C1=[NH+]\c1ccc(C)cc1O
REMARK SMILES IDX 22 1 21 2 20 3 19 4 17 5 18 6 15 7 16 8 14 9 13 10 8 11 9 12
REMARK SMILES IDX 10 13 12 14 11 15 7 16 3 17 4 18 95 19 5 20 6 21 94 22 96 23
REMARK SMILES IDX 2 25 1 26 97 27 98 28 103 29 99 30 102 31 100 32 101 33
REMARK SMILES IDX 104 34 23 36 24 37 25 38 26 39 27 40 28 41 29 42 30 43 31 44
REMARK SMILES IDX 32 45 93 46 33 47 92 48 34 49 35 50 36 51 86 52 37 53 91 54
REMARK SMILES IDX 85 55 87 56 38 57 90 58 84 59 83 60 39 62 71 63 51 64 70 65
REMARK SMILES IDX 52 66 55 67 69 68 88 69 53 70 54 71 68 73 89 74 56 75 40 76
REMARK SMILES IDX 41 77 49 78 42 79 43 80 47 81 50 82 44 83 45 84 48 85 46 86
REMARK SMILES IDX 72 87 73 88 81 89 74 90 75 91 79 92 82 93 76 94 77 95 80 96
REMARK SMILES IDX 78 97 57 98 58 99 66 100 59 101 60 102 64 103 67 104 61 105
REMARK SMILES IDX 62 106 65 107 63 108
REMARK H PARENT 96 24 104 35 87 61 55 72
REMARK Flexibility Score: inf
ROOT
ATOM      1  O   UNL A   1      34.211  34.240  31.663  1.00  0.00    -0.376 OA
ENDROOT
BRANCH   1   2
ATOM      2  C   UNL A   1      34.775  33.147  30.932  1.00  0.00     0.202 C 
BRANCH   2   3
ATOM      3  C   UNL A   1      35.176  33.438  29.476  1.00  0.00     0.261 C 
BRANCH   3   4
ATOM      4  O   UNL A   1      35.741  32.281  28.829  1.00  0.00    -0.461 OA
BRANCH   4   5
ATOM      5  C   UNL A   1      37.105  32.169  28.855  1.00  0.00     0.347 C 
ATOM      6  O   UNL A   1      37.861  33.102  29.096  1.00  0.00    -0.248 OA
BRANCH   5   7
ATOM      7  C   UNL A   1      37.540  30.687  28.759  1.00  0.00     0.279 C 
ATOM      8  C   UNL A   1      37.111  29.987  27.468  1.00  0.00     0.066 C 
BRANCH   7   9
ATOM      9  O   UNL A   1      38.874  30.420  29.204  1.00  0.00    -0.478 OA
BRANCH   9  10
ATOM     10  C   UNL A   1      39.015  29.569  30.264  1.00  0.00     0.127 A 
ATOM     11  C   UNL A   1      40.266  29.074  30.661  1.00  0.00     0.018 A 
ATOM     12  C   UNL A   1      40.318  28.202  31.762  1.00  0.00     0.012 A 
ATOM     13  C   UNL A   1      39.164  27.898  32.490  1.00  0.00     0.001 A 
ATOM     14  C   UNL A   1      37.879  29.328  31.045  1.00  0.00     0.047 A 
ATOM     15  C   UNL A   1      37.948  28.478  32.146  1.00  0.00     0.004 A 
BRANCH  11  16
ATOM     16  C   UNL A   1      41.545  29.427  30.019  1.00  0.00     0.036 C 
ATOM     17  N   UNL A   1      44.105  28.055  27.837  1.00  0.00    -0.186 N 
ATOM     18  C   UNL A   1      43.549  29.079  28.594  1.00  0.00     0.348 C 
ATOM     19  C   UNL A   1      43.398  26.876  27.807  1.00  0.00     0.324 C 
ATOM     20  O   UNL A   1      44.016  30.204  28.734  1.00  0.00    -0.240 OA
ATOM     21  C   UNL A   1      42.271  28.638  29.213  1.00  0.00     0.110 C 
ATOM     22  S   UNL A   1      41.929  27.029  28.737  1.00  0.00     0.007 SA
ATOM     23  N   UNL A   1      43.774  25.831  27.143  1.00  0.00    -0.231 N 
ATOM     24  H   UNL A   1      44.574  25.889  26.573  1.00  0.00     0.313 HD
BRANCH  17  25
ATOM     25  C   UNL A   1      45.440  28.278  27.282  1.00  0.00     0.244 C 
ATOM     26  C   UNL A   1      45.560  29.018  25.959  1.00  0.00     0.055 C 
ENDBRANCH  17  25
BRANCH  23  27
ATOM     27  C   UNL A   1      43.070  24.612  27.214  1.00  0.00     0.167 A 
ATOM     28  C   UNL A   1      43.368  23.736  28.262  1.00  0.00     0.056 A 
ATOM     29  C   UNL A   1      42.130  24.197  26.257  1.00  0.00     0.162 A 
ATOM     30  C   UNL A   1      42.697  22.516  28.391  1.00  0.00     0.008 A 
ATOM     31  C   UNL A   1      41.430  23.000  26.396  1.00  0.00     0.054 A 
ATOM     32  C   UNL A   1      41.701  22.152  27.475  1.00  0.00    -0.047 A 
ATOM     33  C   UNL A   1      40.977  20.848  27.626  1.00  0.00     0.044 C 
BRANCH  29  34
ATOM     34  O   UNL A   1      41.863  24.950  25.145  1.00  0.00    -0.504 OA
ATOM     35  H   UNL A   1      42.136  24.653  24.300  1.00  0.00     0.293 HD
ENDBRANCH  29  34
ENDBRANCH  23  27
ENDBRANCH  11  16
ENDBRANCH   9  10
ENDBRANCH   7   9
ENDBRANCH   5   7
ENDBRANCH   4   5
ENDBRANCH   3   4
ENDBRANCH   2   3
ENDBRANCH   1   2
BRANCH   1  36
ATOM     36  C   UNL A   1      35.098  34.974  32.497  1.00  0.00     0.188 C 
BRANCH  36  37
ATOM     37  C   UNL A   1      34.951  34.766  34.007  1.00  0.00     0.188 C 
BRANCH  37  38
ATOM     38  O   UNL A   1      35.276  33.466  34.482  1.00  0.00    -0.376 OA
BRANCH  38  39
ATOM     39  C   UNL A   1      36.603  33.011  34.181  1.00  0.00     0.202 C 
BRANCH  39  40
ATOM     40  C   UNL A   1      37.451  32.576  35.392  1.00  0.00     0.261 C 
BRANCH  40  41
ATOM     41  O   UNL A   1      38.767  33.164  35.442  1.00  0.00    -0.460 OA
BRANCH  41  42
ATOM     42  C   UNL A   1      39.732  32.470  36.093  1.00  0.00     0.338 C 
ATOM     43  O   UNL A   1      39.644  31.951  37.185  1.00  0.00    -0.246 OA
BRANCH  42  44
ATOM     44  C   UNL A   1      40.843  32.216  35.135  1.00  0.00     0.060 A 
ATOM     45  C   UNL A   1      40.512  31.898  33.810  1.00  0.00     0.016 A 
ATOM     46  C   UNL A   1      42.186  32.349  35.503  1.00  0.00     0.016 A 
ATOM     47  C   UNL A   1      41.517  31.667  32.867  1.00  0.00     0.010 A 
ATOM     48  C   UNL A   1      43.192  32.113  34.562  1.00  0.00     0.010 A 
ATOM     49  C   UNL A   1      42.864  31.734  33.248  1.00  0.00    -0.014 A 
BRANCH  49  50
ATOM     50  C   UNL A   1      43.919  31.206  32.347  1.00  0.00     0.031 A 
ATOM     51  C   UNL A   1      44.274  29.747  32.447  1.00  0.00     0.074 A 
ATOM     52  C   UNL A   1      44.548  31.985  31.449  1.00  0.00     0.049 A 
ATOM     53  N   UNL A   1      45.187  29.062  31.805  1.00  0.00    -0.248 NA
ATOM     54  C   UNL A   1      43.491  28.955  33.408  1.00  0.00     0.031 C 
ATOM     55  C   UNL A   1      44.282  33.401  31.220  1.00  0.00     0.029 A 
ATOM     56  N   UNL A   1      45.558  31.682  30.566  1.00  0.00    -0.354 N 
ATOM     57  C   UNL A   1      45.091  27.764  32.289  1.00  0.00     0.074 A 
ATOM     58  C   UNL A   1      44.056  27.763  33.302  1.00  0.00     0.031 C 
ATOM     59  C   UNL A   1      45.118  33.852  30.267  1.00  0.00     0.029 A 
ATOM     60  C   UNL A   1      45.996  32.761  29.840  1.00  0.00     0.049 A 
ATOM     61  H   UNL A   1      45.930  30.777  30.464  1.00  0.00     0.167 HD
ATOM     62  C   UNL A   1      45.791  26.667  31.918  1.00  0.00     0.037 A 
ATOM     63  C   UNL A   1      47.006  32.860  28.951  1.00  0.00     0.037 A 
ATOM     64  C   UNL A   1      46.823  26.660  30.917  1.00  0.00     0.049 A 
ATOM     65  C   UNL A   1      47.827  31.641  28.609  1.00  0.00     0.074 A 
ATOM     66  C   UNL A   1      47.572  25.591  30.457  1.00  0.00     0.029 A 
ATOM     67  N   UNL A   1      47.262  27.781  30.228  1.00  0.00    -0.354 N 
ATOM     68  N   UNL A   1      47.708  30.411  29.044  1.00  0.00    -0.248 NA
ATOM     69  C   UNL A   1      48.924  31.829  27.646  1.00  0.00     0.031 C 
ATOM     70  C   UNL A   1      48.502  26.074  29.531  1.00  0.00     0.029 A 
ATOM     71  C   UNL A   1      48.293  27.434  29.369  1.00  0.00     0.049 A 
ATOM     72  H   UNL A   1      46.895  28.689  30.333  1.00  0.00     0.167 HD
ATOM     73  C   UNL A   1      48.690  29.675  28.390  1.00  0.00     0.074 A 
ATOM     74  C   UNL A   1      49.391  30.595  27.520  1.00  0.00     0.031 C 
ATOM     75  C   UNL A   1      48.983  28.355  28.500  1.00  0.00     0.037 A 
BRANCH  62  76
ATOM     76  C   UNL A   1      45.482  25.383  32.631  1.00  0.00     0.064 A 
ATOM     77  C   UNL A   1      44.457  24.527  32.198  1.00  0.00     0.173 A 
ATOM     78  C   UNL A   1      46.227  25.001  33.756  1.00  0.00     0.173 A 
ATOM     79  F   UNL A   1      43.704  24.858  31.138  1.00  0.00    -0.203 F 
ATOM     80  C   UNL A   1      44.170  23.351  32.886  1.00  0.00     0.198 A 
ATOM     81  C   UNL A   1      45.957  23.810  34.423  1.00  0.00     0.198 A 
ATOM     82  F   UNL A   1      47.217  25.784  34.209  1.00  0.00    -0.203 F 
ATOM     83  F   UNL A   1      43.149  22.578  32.490  1.00  0.00    -0.200 F 
ATOM     84  C   UNL A   1      44.923  22.991  33.994  1.00  0.00     0.200 A 
ATOM     85  F   UNL A   1      46.692  23.457  35.486  1.00  0.00    -0.200 F 
ATOM     86  F   UNL A   1      44.645  21.859  34.654  1.00  0.00    -0.200 F 
ENDBRANCH  62  76
BRANCH  63  87
ATOM     87  C   UNL A   1      47.312  34.172  28.322  1.00  0.00     0.064 A 
ATOM     88  C   UNL A   1      46.675  34.576  27.141  1.00  0.00     0.173 A 
ATOM     89  C   UNL A   1      48.265  35.039  28.878  1.00  0.00     0.173 A 
ATOM     90  F   UNL A   1      45.778  33.769  26.554  1.00  0.00    -0.203 F 
ATOM     91  C   UNL A   1      46.992  35.788  26.531  1.00  0.00     0.198 A 
ATOM     92  C   UNL A   1      48.560  36.263  28.283  1.00  0.00     0.198 A 
ATOM     93  F   UNL A   1      48.908  34.695  30.004  1.00  0.00    -0.203 F 
ATOM     94  F   UNL A   1      46.402  36.129  25.376  1.00  0.00    -0.200 F 
ATOM     95  C   UNL A   1      47.928  36.634  27.106  1.00  0.00     0.200 A 
ATOM     96  F   UNL A   1      49.460  37.080  28.847  1.00  0.00    -0.200 F 
ATOM     97  F   UNL A   1      48.229  37.800  26.521  1.00  0.00    -0.200 F 
ENDBRANCH  63  87
BRANCH  75  98
ATOM     98  C   UNL A   1      50.083  27.807  27.635  1.00  0.00     0.064 A 
ATOM     99  C   UNL A   1      49.833  27.313  26.346  1.00  0.00     0.173 A 
ATOM    100  C   UNL A   1      51.413  27.827  28.082  1.00  0.00     0.173 A 
ATOM    101  F   UNL A   1      48.578  27.260  25.875  1.00  0.00    -0.203 F 
ATOM    102  C   UNL A   1      50.871  26.838  25.547  1.00  0.00     0.198 A 
ATOM    103  C   UNL A   1      52.452  27.381  27.268  1.00  0.00     0.198 A 
ATOM    104  F   UNL A   1      51.710  28.298  29.303  1.00  0.00    -0.203 F 
ATOM    105  F   UNL A   1      50.603  26.331  24.336  1.00  0.00    -0.200 F 
ATOM    106  C   UNL A   1      52.179  26.881  26.005  1.00  0.00     0.200 A 
ATOM    107  F   UNL A   1      53.717  27.438  27.708  1.00  0.00    -0.200 F 
ATOM    108  F   UNL A   1      53.178  26.434  25.231  1.00  0.00    -0.200 F 
ENDBRANCH  75  98
ENDBRANCH  49  50
ENDBRANCH  42  44
ENDBRANCH  41  42
ENDBRANCH  40  41
ENDBRANCH  39  40
ENDBRANCH  38  39
ENDBRANCH  37  38
ENDBRANCH  36  37
ENDBRANCH   1  36
TORSDOF 23
ENDMDL
MODEL 2
REMARK VINA RESULT:      -7.3      4.423      7.207
REMARK SMILES CCN1C(=O)/C(=C/c2ccccc2O[C@H](C)C(=O)OCCOCCOCCOC(=O)c2ccc(-c3c4nc(c(-c5c(F)c(F)c(F)c(F)c5F)c5ccc([nH]5)c(-c5c(F)c(F)c(F)c(F)c5F)c5nc(c(-c6c(F)c(F)c(F)c(F)c6F)c6ccc3[nH]6)C=C5)C=C4)cc2)S/C1=[NH+]\c1ccc(C)cc1O
REMARK SMILES IDX 22 1 21 2 20 3 19 4 17 5 18 6 15 7 16 8 14 9 13 10 8 11 9 12
REMARK SMILES IDX 10 13 12 14 11 15 7 16 3 17 4 18 95 19 5 20 6 21 94 22 96 23
REMARK SMILES IDX 2 25 1 26 97 27 98 28 103 29 99 30 102 31 100 32 101 33
REMARK SMILES IDX 104 34 23 36 24 37 25 38 26 39 27 40 28 41 29 42 30 43 31 44
REMARK SMILES IDX 32 45 93 46 33 47 92 48 34 49 35 50 36 51 86 52 37 53 91 54
REMARK SMILES IDX 85 55 87 56 38 57 90 58 84 59 83 60 39 62 71 63 51 64 70 65
REMARK SMILES IDX 52 66 55 67 69 68 88 69 53 70 54 71 68 73 89 74 56 75 40 76
REMARK SMILES IDX 41 77 49 78 42 79 43 80 47 81 50 82 44 83 45 84 48 85 46 86
REMARK SMILES IDX 72 87 73 88 81 89 74 90 75 91 79 92 82 93 76 94 77 95 80 96
REMARK SMILES IDX 78 97 57 98 58 99 66 100 59 101 60 102 64 103 67 104 61 105
REMARK SMILES IDX 62 106 65 107 63 108
REMARK H PARENT 96 24 104 35 87 61 55 72
REMARK Flexibility Score: inf
ROOT
ATOM      1  O   UNL A   1      35.027  35.713  32.992  1.00  0.00    -0.376 OA
ENDROOT
BRANCH   1   2
ATOM      2  C   UNL A   1      33.945  36.565  32.605  1.00  0.00     0.202 C 
BRANCH   2   3
ATOM      3  C   UNL A   1      33.428  36.395  31.165  1.00  0.00     0.261 C 
BRANCH   3   4
ATOM      4  O   UNL A   1      33.135  35.019  30.856  1.00  0.00    -0.461 OA
BRANCH   4   5
ATOM      5  C   UNL A   1      33.362  34.619  29.566  1.00  0.00     0.347 C 
ATOM      6  O   UNL A   1      32.831  35.133  28.589  1.00  0.00    -0.248 OA
BRANCH   5   7
ATOM      7  C   UNL A   1      34.524  33.599  29.501  1.00  0.00     0.279 C 
ATOM      8  C   UNL A   1      34.567  32.618  30.673  1.00  0.00     0.066 C 
BRANCH   7   9
ATOM      9  O   UNL A   1      34.763  33.039  28.206  1.00  0.00    -0.478 OA
BRANCH   9  10
ATOM     10  C   UNL A   1      35.421  31.842  28.159  1.00  0.00     0.127 A 
ATOM     11  C   UNL A   1      34.891  30.724  27.496  1.00  0.00     0.018 A 
ATOM     12  C   UNL A   1      35.636  29.533  27.500  1.00  0.00     0.012 A 
ATOM     13  C   UNL A   1      36.906  29.484  28.082  1.00  0.00     0.001 A 
ATOM     14  C   UNL A   1      36.725  31.810  28.666  1.00  0.00     0.047 A 
ATOM     15  C   UNL A   1      37.461  30.629  28.645  1.00  0.00     0.004 A 
BRANCH  11  16
ATOM     16  C   UNL A   1      33.612  30.718  26.765  1.00  0.00     0.036 C 
ATOM     17  N   UNL A   1      31.423  28.511  24.884  1.00  0.00    -0.186 N 
ATOM     18  C   UNL A   1      31.746  29.738  25.449  1.00  0.00     0.348 C 
ATOM     19  C   UNL A   1      32.334  27.500  25.076  1.00  0.00     0.324 C 
ATOM     20  O   UNL A   1      31.061  30.755  25.402  1.00  0.00    -0.240 OA
ATOM     21  C   UNL A   1      33.052  29.661  26.157  1.00  0.00     0.110 C 
ATOM     22  S   UNL A   1      33.670  28.068  26.047  1.00  0.00     0.007 SA
ATOM     23  N   UNL A   1      32.179  26.298  24.624  1.00  0.00    -0.231 N 
ATOM     24  H   UNL A   1      31.338  26.063  24.169  1.00  0.00     0.313 HD
BRANCH  17  25
ATOM     25  C   UNL A   1      30.240  28.457  24.025  1.00  0.00     0.244 C 
ATOM     26  C   UNL A   1      30.398  28.802  22.553  1.00  0.00     0.055 C 
ENDBRANCH  17  25
BRANCH  23  27
ATOM     27  C   UNL A   1      33.181  25.315  24.762  1.00  0.00     0.167 A 
ATOM     28  C   UNL A   1      33.346  24.711  26.012  1.00  0.00     0.056 A 
ATOM     29  C   UNL A   1      34.063  24.951  23.733  1.00  0.00     0.162 A 
ATOM     30  C   UNL A   1      34.316  23.723  26.209  1.00  0.00     0.008 A 
ATOM     31  C   UNL A   1      35.009  23.942  23.909  1.00  0.00     0.054 A 
ATOM     32  C   UNL A   1      35.134  23.310  25.150  1.00  0.00    -0.047 A 
ATOM     33  C   UNL A   1      36.164  22.241  25.365  1.00  0.00     0.044 C 
BRANCH  29  34
ATOM     34  O   UNL A   1      34.034  25.573  22.514  1.00  0.00    -0.504 OA
ATOM     35  H   UNL A   1      33.810  25.088  21.744  1.00  0.00     0.293 HD
ENDBRANCH  29  34
ENDBRANCH  23  27
ENDBRANCH  11  16
ENDBRANCH   9  10
ENDBRANCH   7   9
ENDBRANCH   5   7
ENDBRANCH   4   5
ENDBRANCH   3   4
ENDBRANCH   2   3
ENDBRANCH   1   2
BRANCH   1  36
ATOM     36  C   UNL A   1      34.731  34.701  33.946  1.00  0.00     0.188 C 
BRANCH  36  37
ATOM     37  C   UNL A   1      35.910  34.156  34.757  1.00  0.00     0.188 C 
BRANCH  37  38
ATOM     38  O   UNL A   1      36.314  32.830  34.437  1.00  0.00    -0.376 OA
BRANCH  38  39
ATOM     39  C   UNL A   1      36.979  32.674  33.176  1.00  0.00     0.202 C 
BRANCH  39  40
ATOM     40  C   UNL A   1      38.360  33.351  33.061  1.00  0.00     0.261 C 
BRANCH  40  41
ATOM     41  O   UNL A   1      39.439  32.453  32.729  1.00  0.00    -0.460 OA
BRANCH  41  42
ATOM     42  C   UNL A   1      39.794  32.367  31.423  1.00  0.00     0.338 C 
ATOM     43  O   UNL A   1      39.359  33.031  30.506  1.00  0.00    -0.246 OA
BRANCH  42  44
ATOM     44  C   UNL A   1      41.004  31.505  31.330  1.00  0.00     0.060 A 
ATOM     45  C   UNL A   1      40.824  30.115  31.307  1.00  0.00     0.016 A 
ATOM     46  C   UNL A   1      42.289  32.042  31.200  1.00  0.00     0.016 A 
ATOM     47  C   UNL A   1      41.925  29.262  31.203  1.00  0.00     0.010 A 
ATOM     48  C   UNL A   1      43.393  31.189  31.102  1.00  0.00     0.010 A 
ATOM     49  C   UNL A   1      43.220  29.794  31.141  1.00  0.00    -0.014 A 
BRANCH  49  50
ATOM     50  C   UNL A   1      44.398  28.909  31.331  1.00  0.00     0.031 A 
ATOM     51  C   UNL A   1      44.827  28.591  32.737  1.00  0.00     0.074 A 
ATOM     52  C   UNL A   1      45.073  28.385  30.292  1.00  0.00     0.049 A 
ATOM     53  N   UNL A   1      45.845  27.885  33.161  1.00  0.00    -0.248 NA
ATOM     54  C   UNL A   1      43.994  29.152  33.812  1.00  0.00     0.031 C 
ATOM     55  C   UNL A   1      44.747  28.580  28.883  1.00  0.00     0.029 A 
ATOM     56  N   UNL A   1      46.189  27.582  30.276  1.00  0.00    -0.354 N 
ATOM     57  C   UNL A   1      45.776  27.922  34.548  1.00  0.00     0.074 A 
ATOM     58  C   UNL A   1      44.639  28.748  34.895  1.00  0.00     0.031 C 
ATOM     59  C   UNL A   1      45.653  27.925  28.134  1.00  0.00     0.029 A 
ATOM     60  C   UNL A   1      46.638  27.290  29.012  1.00  0.00     0.049 A 
ATOM     61  H   UNL A   1      46.625  27.249  31.093  1.00  0.00     0.167 HD
ATOM     62  C   UNL A   1      46.578  27.316  35.453  1.00  0.00     0.037 A 
ATOM     63  C   UNL A   1      47.730  26.608  28.612  1.00  0.00     0.037 A 
ATOM     64  C   UNL A   1      47.712  26.498  35.117  1.00  0.00     0.049 A 
ATOM     65  C   UNL A   1      48.657  26.006  29.639  1.00  0.00     0.074 A 
ATOM     66  C   UNL A   1      48.570  25.822  35.967  1.00  0.00     0.029 A 
ATOM     67  N   UNL A   1      48.155  26.254  33.826  1.00  0.00    -0.354 N 
ATOM     68  N   UNL A   1      48.566  26.016  30.947  1.00  0.00    -0.248 NA
ATOM     69  C   UNL A   1      49.839  25.293  29.130  1.00  0.00     0.031 C 
ATOM     70  C   UNL A   1      49.565  25.216  35.194  1.00  0.00     0.029 A 
ATOM     71  C   UNL A   1      49.292  25.462  33.858  1.00  0.00     0.049 A 
ATOM     72  H   UNL A   1      47.723  26.591  33.008  1.00  0.00     0.167 HD
ATOM     73  C   UNL A   1      49.657  25.291  31.414  1.00  0.00     0.074 A 
ATOM     74  C   UNL A   1      50.391  24.845  30.249  1.00  0.00     0.031 C 
ATOM     75  C   UNL A   1      50.015  25.018  32.693  1.00  0.00     0.037 A 
BRANCH  62  76
ATOM     76  C   UNL A   1      46.271  27.547  36.904  1.00  0.00     0.064 A 
ATOM     77  C   UNL A   1      45.427  26.690  37.626  1.00  0.00     0.173 A 
ATOM     78  C   UNL A   1      46.838  28.638  37.581  1.00  0.00     0.173 A 
ATOM     79  F   UNL A   1      44.846  25.645  37.017  1.00  0.00    -0.203 F 
ATOM     80  C   UNL A   1      45.136  26.935  38.965  1.00  0.00     0.198 A 
ATOM     81  C   UNL A   1      46.569  28.861  38.929  1.00  0.00     0.198 A 
ATOM     82  F   UNL A   1      47.652  29.486  36.937  1.00  0.00    -0.203 F 
ATOM     83  F   UNL A   1      44.281  26.136  39.619  1.00  0.00    -0.200 F 
ATOM     84  C   UNL A   1      45.712  28.015  39.617  1.00  0.00     0.200 A 
ATOM     85  F   UNL A   1      47.134  29.898  39.560  1.00  0.00    -0.200 F 
ATOM     86  F   UNL A   1      45.431  28.248  40.906  1.00  0.00    -0.200 F 
ENDBRANCH  62  76
BRANCH  63  87
ATOM     87  C   UNL A   1      48.022  26.464  27.161  1.00  0.00     0.064 A 
ATOM     88  C   UNL A   1      48.873  27.361  26.501  1.00  0.00     0.173 A 
ATOM     89  C   UNL A   1      47.437  25.440  26.401  1.00  0.00     0.173 A 
ATOM     90  F   UNL A   1      49.432  28.375  27.178  1.00  0.00    -0.203 F 
ATOM     91  C   UNL A   1      49.114  27.250  25.133  1.00  0.00     0.198 A 
ATOM     92  C   UNL A   1      47.702  25.312  25.039  1.00  0.00     0.198 A 
ATOM     93  F   UNL A   1      46.609  24.561  26.984  1.00  0.00    -0.203 F 
ATOM     94  F   UNL A   1      49.894  28.149  24.517  1.00  0.00    -0.200 F 
ATOM     95  C   UNL A   1      48.534  26.222  24.404  1.00  0.00     0.200 A 
ATOM     96  F   UNL A   1      47.145  24.313  24.341  1.00  0.00    -0.200 F 
ATOM     97  F   UNL A   1      48.770  26.113  23.090  1.00  0.00    -0.200 F 
ENDBRANCH  63  87
BRANCH  75  98
ATOM     98  C   UNL A   1      51.235  24.166  32.912  1.00  0.00     0.064 A 
ATOM     99  C   UNL A   1      51.140  22.793  33.178  1.00  0.00     0.173 A 
ATOM    100  C   UNL A   1      52.518  24.724  32.799  1.00  0.00     0.173 A 
ATOM    101  F   UNL A   1      49.937  22.212  33.308  1.00  0.00    -0.203 F 
ATOM    102  C   UNL A   1      52.283  22.014  33.347  1.00  0.00     0.198 A 
ATOM    103  C   UNL A   1      53.659  23.936  32.937  1.00  0.00     0.198 A 
ATOM    104  F   UNL A   1      52.668  26.031  32.535  1.00  0.00    -0.203 F 
ATOM    105  F   UNL A   1      52.166  20.712  33.644  1.00  0.00    -0.200 F 
ATOM    106  C   UNL A   1      53.540  22.585  33.217  1.00  0.00     0.200 A 
ATOM    107  F   UNL A   1      54.873  24.487  32.796  1.00  0.00    -0.200 F 
ATOM    108  F   UNL A   1      54.639  21.832  33.369  1.00  0.00    -0.200 F 
ENDBRANCH  75  98
ENDBRANCH  49  50
ENDBRANCH  42  44
ENDBRANCH  41  42
ENDBRANCH  40  41
ENDBRANCH  39  40
ENDBRANCH  38  39
ENDBRANCH  37  38
ENDBRANCH  36  37
ENDBRANCH   1  36
TORSDOF 23
ENDMDL
MODEL 3
REMARK VINA RESULT:      -7.2      7.262     13.425
REMARK SMILES CCN1C(=O)/C(=C/c2ccccc2O[C@H](C)C(=O)OCCOCCOCCOC(=O)c2ccc(-c3c4nc(c(-c5c(F)c(F)c(F)c(F)c5F)c5ccc([nH]5)c(-c5c(F)c(F)c(F)c(F)c5F)c5nc(c(-c6c(F)c(F)c(F)c(F)c6F)c6ccc3[nH]6)C=C5)C=C4)cc2)S/C1=[NH+]\c1ccc(C)cc1O
REMARK SMILES IDX 22 1 21 2 20 3 19 4 17 5 18 6 15 7 16 8 14 9 13 10 8 11 9 12
REMARK SMILES IDX 10 13 12 14 11 15 7 16 3 17 4 18 95 19 5 20 6 21 94 22 96 23
REMARK SMILES IDX 2 25 1 26 97 27 98 28 103 29 99 30 102 31 100 32 101 33
REMARK SMILES IDX 104 34 23 36 24 37 25 38 26 39 27 40 28 41 29 42 30 43 31 44
REMARK SMILES IDX 32 45 93 46 33 47 92 48 34 49 35 50 36 51 86 52 37 53 91 54
REMARK SMILES IDX 85 55 87 56 38 57 90 58 84 59 83 60 39 62 71 63 51 64 70 65
REMARK SMILES IDX 52 66 55 67 69 68 88 69 53 70 54 71 68 73 89 74 56 75 40 76
REMARK SMILES IDX 41 77 49 78 42 79 43 80 47 81 50 82 44 83 45 84 48 85 46 86
REMARK SMILES IDX 72 87 73 88 81 89 74 90 75 91 79 92 82 93 76 94 77 95 80 96
REMARK SMILES IDX 78 97 57 98 58 99 66 100 59 101 60 102 64 103 67 104 61 105
REMARK SMILES IDX 62 106 65 107 63 108
REMARK H PARENT 96 24 104 35 87 61 55 72
REMARK Flexibility Score: inf
ROOT
ATOM      1  O   UNL A   1      52.342  23.339  42.623  1.00  0.00    -0.376 OA
ENDROOT
BRANCH   1   2
ATOM      2  C   UNL A   1      51.272  22.741  43.362  1.00  0.00     0.202 C 
BRANCH   2   3
ATOM      3  C   UNL A   1      51.347  21.216  43.551  1.00  0.00     0.261 C 
BRANCH   3   4
ATOM      4  O   UNL A   1      50.045  20.600  43.498  1.00  0.00    -0.461 OA
BRANCH   4   5
ATOM      5  C   UNL A   1      49.974  19.365  42.911  1.00  0.00     0.347 C 
ATOM      6  O   UNL A   1      50.914  18.828  42.339  1.00  0.00    -0.248 OA
BRANCH   5   7
ATOM      7  C   UNL A   1      48.637  18.666  43.253  1.00  0.00     0.279 C 
ATOM      8  C   UNL A   1      48.491  18.271  44.723  1.00  0.00     0.066 C 
BRANCH   7   9
ATOM      9  O   UNL A   1      47.479  19.246  42.642  1.00  0.00    -0.478 OA
BRANCH   9  10
ATOM     10  C   UNL A   1      46.667  18.408  41.931  1.00  0.00     0.127 A 
ATOM     11  C   UNL A   1      47.043  17.885  40.685  1.00  0.00     0.018 A 
ATOM     12  C   UNL A   1      46.144  17.032  40.023  1.00  0.00     0.012 A 
ATOM     13  C   UNL A   1      44.940  16.653  40.624  1.00  0.00     0.001 A 
ATOM     14  C   UNL A   1      45.502  17.960  42.564  1.00  0.00     0.047 A 
ATOM     15  C   UNL A   1      44.629  17.098  41.905  1.00  0.00     0.004 A 
BRANCH  11  16
ATOM     16  C   UNL A   1      48.335  18.145  40.027  1.00  0.00     0.036 C 
ATOM     17  N   UNL A   1      49.824  20.117  37.364  1.00  0.00    -0.186 N 
ATOM     18  C   UNL A   1      49.895  19.210  38.414  1.00  0.00     0.348 C 
ATOM     19  C   UNL A   1      48.576  20.624  37.088  1.00  0.00     0.324 C 
ATOM     20  O   UNL A   1      50.913  18.661  38.822  1.00  0.00    -0.240 OA
ATOM     21  C   UNL A   1      48.551  18.998  39.014  1.00  0.00     0.110 C 
ATOM     22  S   UNL A   1      47.403  19.981  38.210  1.00  0.00     0.007 SA
ATOM     23  N   UNL A   1      48.341  21.483  36.151  1.00  0.00    -0.231 N 
ATOM     24  H   UNL A   1      49.097  21.852  35.639  1.00  0.00     0.313 HD
BRANCH  17  25
ATOM     25  C   UNL A   1      51.035  20.324  36.571  1.00  0.00     0.244 C 
ATOM     26  C   UNL A   1      51.058  19.816  35.138  1.00  0.00     0.055 C 
ENDBRANCH  17  25
BRANCH  23  27
ATOM     27  C   UNL A   1      47.033  21.907  35.839  1.00  0.00     0.167 A 
ATOM     28  C   UNL A   1      46.379  22.750  36.741  1.00  0.00     0.056 A 
ATOM     29  C   UNL A   1      46.325  21.482  34.704  1.00  0.00     0.162 A 
ATOM     30  C   UNL A   1      45.083  23.211  36.484  1.00  0.00     0.008 A 
ATOM     31  C   UNL A   1      45.049  21.964  34.419  1.00  0.00     0.054 A 
ATOM     32  C   UNL A   1      44.421  22.845  35.305  1.00  0.00    -0.047 A 
ATOM     33  C   UNL A   1      43.037  23.354  35.029  1.00  0.00     0.044 C 
BRANCH  29  34
ATOM     34  O   UNL A   1      46.858  20.573  33.829  1.00  0.00    -0.504 OA
ATOM     35  H   UNL A   1      46.931  19.672  34.075  1.00  0.00     0.293 HD
ENDBRANCH  29  34
ENDBRANCH  23  27
ENDBRANCH  11  16
ENDBRANCH   9  10
ENDBRANCH   7   9
ENDBRANCH   5   7
ENDBRANCH   4   5
ENDBRANCH   3   4
ENDBRANCH   2   3
ENDBRANCH   1   2
BRANCH   1  36
ATOM     36  C   UNL A   1      52.029  23.817  41.322  1.00  0.00     0.188 C 
BRANCH  36  37
ATOM     37  C   UNL A   1      50.542  23.956  40.980  1.00  0.00     0.188 C 
BRANCH  37  38
ATOM     38  O   UNL A   1      50.242  24.108  39.599  1.00  0.00    -0.376 OA
BRANCH  38  39
ATOM     39  C   UNL A   1      49.239  25.085  39.287  1.00  0.00     0.202 C 
BRANCH  39  40
ATOM     40  C   UNL A   1      48.595  24.960  37.892  1.00  0.00     0.261 C 
BRANCH  40  41
ATOM     41  O   UNL A   1      47.598  25.961  37.602  1.00  0.00    -0.460 OA
BRANCH  41  42
ATOM     42  C   UNL A   1      47.947  26.954  36.747  1.00  0.00     0.338 C 
ATOM     43  O   UNL A   1      49.065  27.380  36.545  1.00  0.00    -0.246 OA
BRANCH  42  44
ATOM     44  C   UNL A   1      46.767  27.264  35.894  1.00  0.00     0.060 A 
ATOM     45  C   UNL A   1      46.915  28.228  34.887  1.00  0.00     0.016 A 
ATOM     46  C   UNL A   1      45.555  26.579  36.029  1.00  0.00     0.016 A 
ATOM     47  C   UNL A   1      45.843  28.543  34.048  1.00  0.00     0.010 A 
ATOM     48  C   UNL A   1      44.480  26.899  35.193  1.00  0.00     0.010 A 
ATOM     49  C   UNL A   1      44.607  27.908  34.223  1.00  0.00    -0.014 A 
BRANCH  49  50
ATOM     50  C   UNL A   1      43.396  28.439  33.548  1.00  0.00     0.031 A 
ATOM     51  C   UNL A   1      43.160  28.059  32.111  1.00  0.00     0.074 A 
ATOM     52  C   UNL A   1      42.512  29.231  34.182  1.00  0.00     0.049 A 
ATOM     53  N   UNL A   1      42.206  28.429  31.294  1.00  0.00    -0.248 NA
ATOM     54  C   UNL A   1      44.140  27.138  31.516  1.00  0.00     0.031 C 
ATOM     55  C   UNL A   1      42.596  29.649  35.578  1.00  0.00     0.029 A 
ATOM     56  N   UNL A   1      41.368  29.832  33.715  1.00  0.00    -0.354 N 
ATOM     57  C   UNL A   1      42.475  27.790  30.090  1.00  0.00     0.074 A 
ATOM     58  C   UNL A   1      43.699  27.038  30.272  1.00  0.00     0.031 C 
ATOM     59  C   UNL A   1      41.553  30.453  35.854  1.00  0.00     0.029 A 
ATOM     60  C   UNL A   1      40.746  30.628  34.645  1.00  0.00     0.049 A 
ATOM     61  H   UNL A   1      41.027  29.706  32.801  1.00  0.00     0.167 HD
ATOM     62  C   UNL A   1      41.764  27.817  28.939  1.00  0.00     0.037 A 
ATOM     63  C   UNL A   1      39.662  31.423  34.526  1.00  0.00     0.037 A 
ATOM     64  C   UNL A   1      40.551  28.564  28.749  1.00  0.00     0.049 A 
ATOM     65  C   UNL A   1      38.928  31.499  33.210  1.00  0.00     0.074 A 
ATOM     66  C   UNL A   1      39.747  28.633  27.625  1.00  0.00     0.029 A 
ATOM     67  N   UNL A   1      39.971  29.385  29.705  1.00  0.00    -0.354 N 
ATOM     68  N   UNL A   1      39.168  30.867  32.087  1.00  0.00    -0.248 NA
ATOM     69  C   UNL A   1      37.768  32.402  33.149  1.00  0.00     0.031 C 
ATOM     70  C   UNL A   1      38.713  29.538  27.880  1.00  0.00     0.029 A 
ATOM     71  C   UNL A   1      38.836  29.988  29.185  1.00  0.00     0.049 A 
ATOM     72  H   UNL A   1      40.314  29.518  30.618  1.00  0.00     0.167 HD
ATOM     73  C   UNL A   1      38.177  31.270  31.199  1.00  0.00     0.074 A 
ATOM     74  C   UNL A   1      37.326  32.195  31.916  1.00  0.00     0.031 C 
ATOM     75  C   UNL A   1      37.989  30.904  29.907  1.00  0.00     0.037 A 
BRANCH  62  76
ATOM     76  C   UNL A   1      42.307  27.033  27.781  1.00  0.00     0.064 A 
ATOM     77  C   UNL A   1      41.923  25.704  27.543  1.00  0.00     0.173 A 
ATOM     78  C   UNL A   1      43.217  27.624  26.892  1.00  0.00     0.173 A 
ATOM     79  F   UNL A   1      41.070  25.089  28.376  1.00  0.00    -0.203 F 
ATOM     80  C   UNL A   1      42.456  24.986  26.476  1.00  0.00     0.198 A 
ATOM     81  C   UNL A   1      43.723  26.912  25.808  1.00  0.00     0.198 A 
ATOM     82  F   UNL A   1      43.615  28.891  27.073  1.00  0.00    -0.203 F 
ATOM     83  F   UNL A   1      42.120  23.700  26.303  1.00  0.00    -0.200 F 
ATOM     84  C   UNL A   1      43.350  25.592  25.606  1.00  0.00     0.200 A 
ATOM     85  F   UNL A   1      44.578  27.502  24.962  1.00  0.00    -0.200 F 
ATOM     86  F   UNL A   1      43.861  24.899  24.580  1.00  0.00    -0.200 F 
ENDBRANCH  62  76
BRANCH  63  87
ATOM     87  C   UNL A   1      39.205  32.229  35.689  1.00  0.00     0.064 A 
ATOM     88  C   UNL A   1      38.307  31.703  36.627  1.00  0.00     0.173 A 
ATOM     89  C   UNL A   1      39.640  33.550  35.872  1.00  0.00     0.173 A 
ATOM     90  F   UNL A   1      37.839  30.455  36.479  1.00  0.00    -0.203 F 
ATOM     91  C   UNL A   1      37.848  32.473  37.694  1.00  0.00     0.198 A 
ATOM     92  C   UNL A   1      39.203  34.310  36.955  1.00  0.00     0.198 A 
ATOM     93  F   UNL A   1      40.494  34.103  34.997  1.00  0.00    -0.203 F 
ATOM     94  F   UNL A   1      36.952  31.961  38.550  1.00  0.00    -0.200 F 
ATOM     95  C   UNL A   1      38.301  33.773  37.861  1.00  0.00     0.200 A 
ATOM     96  F   UNL A   1      39.650  35.562  37.116  1.00  0.00    -0.200 F 
ATOM     97  F   UNL A   1      37.862  34.511  38.889  1.00  0.00    -0.200 F 
ENDBRANCH  63  87
BRANCH  75  98
ATOM     98  C   UNL A   1      36.798  31.469  29.185  1.00  0.00     0.064 A 
ATOM     99  C   UNL A   1      35.677  30.684  28.881  1.00  0.00     0.173 A 
ATOM    100  C   UNL A   1      36.757  32.830  28.843  1.00  0.00     0.173 A 
ATOM    101  F   UNL A   1      35.669  29.375  29.175  1.00  0.00    -0.203 F 
ATOM    102  C   UNL A   1      34.569  31.235  28.239  1.00  0.00     0.198 A 
ATOM    103  C   UNL A   1      35.635  33.384  28.230  1.00  0.00     0.198 A 
ATOM    104  F   UNL A   1      37.799  33.630  29.120  1.00  0.00    -0.203 F 
ATOM    105  F   UNL A   1      33.527  30.455  27.919  1.00  0.00    -0.200 F 
ATOM    106  C   UNL A   1      34.546  32.585  27.923  1.00  0.00     0.200 A 
ATOM    107  F   UNL A   1      35.610  34.692  27.939  1.00  0.00    -0.200 F 
ATOM    108  F   UNL A   1      33.476  33.115  27.315  1.00  0.00    -0.200 F 
ENDBRANCH  75  98
ENDBRANCH  49  50
ENDBRANCH  42  44
ENDBRANCH  41  42
ENDBRANCH  40  41
ENDBRANCH  39  40
ENDBRANCH  38  39
ENDBRANCH  37  38
ENDBRANCH  36  37
ENDBRANCH   1  36
TORSDOF 23
ENDMDL
