MODEL 1
REMARK VINA RESULT:     -11.1      0.000      0.000
REMARK SMILES C[C@H]1OCC[C@@H]1C(=O)Nc1ccc(Cl)c(C(=O)OCCOCCOCCOC(=O)c2ccc(-c3c4nc(c(-c5c(F)c(F)c(F)c(F)c5F)c5ccc([nH]5)c(-c5c(F)c(F)c(F)c(F)c5F)c5nc(c(-c6c(F)c(F)c(F)c(F)c6F)c6ccc3[nH]6)C=C5)C=C4)cc2)c1
REMARK SMILES IDX 22 1 21 2 20 3 19 4 18 5 16 6 17 7 15 8 10 9 11 10 93 11
REMARK SMILES IDX 12 12 13 13 14 14 9 15 7 16 8 17 6 19 1 20 2 21 3 22 4 23
REMARK SMILES IDX 5 24 23 25 24 26 25 27 26 28 27 29 28 30 29 31 30 32 31 33
REMARK SMILES IDX 92 34 32 35 91 36 33 37 34 38 35 39 85 40 36 41 90 42 84 43
REMARK SMILES IDX 86 44 37 45 89 46 83 47 82 48 38 50 70 51 50 52 69 53 51 54
REMARK SMILES IDX 54 55 68 56 87 57 52 58 53 59 67 61 88 62 55 63 39 64 40 65
REMARK SMILES IDX 48 66 41 67 42 68 46 69 49 70 43 71 44 72 47 73 45 74 71 75
REMARK SMILES IDX 72 76 80 77 73 78 74 79 78 80 81 81 75 82 76 83 79 84 77 85
REMARK SMILES IDX 56 86 57 87 65 88 58 89 59 90 63 91 66 92 60 93 61 94 64 95
REMARK SMILES IDX 62 96
REMARK H PARENT 9 18 86 49 54 60
REMARK Flexibility Score: inf
ROOT
ATOM      1  C   UNL A   1      40.528  21.781  27.288  1.00  0.00     0.188 C 
ENDROOT
BRANCH   1   2
ATOM      2  O   UNL A   1      39.859  23.018  27.524  1.00  0.00    -0.376 OA
BRANCH   2   3
ATOM      3  C   UNL A   1      39.015  23.553  26.504  1.00  0.00     0.202 C 
BRANCH   3   4
ATOM      4  C   UNL A   1      37.916  22.641  25.950  1.00  0.00     0.261 C 
BRANCH   4   5
ATOM      5  O   UNL A   1      36.696  23.360  25.713  1.00  0.00    -0.460 OA
BRANCH   5   6
ATOM      6  C   UNL A   1      36.193  23.294  24.459  1.00  0.00     0.339 C 
ATOM      7  O   UNL A   1      36.825  23.255  23.414  1.00  0.00    -0.246 OA
BRANCH   6   8
ATOM      8  C   UNL A   1      34.754  22.980  24.532  1.00  0.00     0.080 A 
ATOM      9  C   UNL A   1      33.080  21.432  25.351  1.00  0.00     0.042 A 
ATOM     10  C   UNL A   1      32.076  22.271  24.877  1.00  0.00     0.028 A 
ATOM     11  C   UNL A   1      34.413  21.814  25.241  1.00  0.00     0.043 A 
ATOM     12  C   UNL A   1      32.408  23.441  24.189  1.00  0.00     0.023 A 
ATOM     13  C   UNL A   1      33.750  23.785  23.987  1.00  0.00     0.055 A 
ATOM     14  Cl  UNL A   1      34.079  25.201  23.057  1.00  0.00    -0.083 Cl
BRANCH   9  15
ATOM     15  N   UNL A   1      32.769  20.227  25.982  1.00  0.00    -0.326 N 
ATOM     16  C   UNL A   1      32.847  18.955  25.486  1.00  0.00     0.230 C 
ATOM     17  O   UNL A   1      32.452  18.043  26.221  1.00  0.00    -0.274 OA
ATOM     18  H   UNL A   1      32.452  20.302  26.911  1.00  0.00     0.169 HD
BRANCH  16  19
ATOM     19  C   UNL A   1      33.460  18.606  24.128  1.00  0.00     0.110 C 
ATOM     20  C   UNL A   1      32.404  18.554  21.813  1.00  0.00     0.039 C 
ATOM     21  C   UNL A   1      32.489  17.900  23.187  1.00  0.00     0.127 C 
ATOM     22  O   UNL A   1      32.974  16.559  23.032  1.00  0.00    -0.378 OA
ATOM     23  C   UNL A   1      34.385  16.564  23.259  1.00  0.00     0.161 C 
ATOM     24  C   UNL A   1      34.695  17.733  24.172  1.00  0.00     0.044 C 
ENDBRANCH  16  19
ENDBRANCH   9  15
ENDBRANCH   6   8
ENDBRANCH   5   6
ENDBRANCH   4   5
ENDBRANCH   3   4
ENDBRANCH   2   3
ENDBRANCH   1   2
BRANCH   1  25
ATOM     25  C   UNL A   1      41.539  21.692  26.126  1.00  0.00     0.188 C 
BRANCH  25  26
ATOM     26  O   UNL A   1      41.526  20.439  25.478  1.00  0.00    -0.376 OA
BRANCH  26  27
ATOM     27  C   UNL A   1      42.089  19.330  26.151  1.00  0.00     0.202 C 
BRANCH  27  28
ATOM     28  C   UNL A   1      43.346  18.641  25.590  1.00  0.00     0.261 C 
BRANCH  28  29
ATOM     29  O   UNL A   1      43.788  19.045  24.285  1.00  0.00    -0.460 OA
BRANCH  29  30
ATOM     30  C   UNL A   1      45.033  19.557  24.176  1.00  0.00     0.338 C 
ATOM     31  O   UNL A   1      45.999  19.048  23.640  1.00  0.00    -0.246 OA
BRANCH  30  32
ATOM     32  C   UNL A   1      44.985  20.949  24.678  1.00  0.00     0.060 A 
ATOM     33  C   UNL A   1      44.574  21.972  23.814  1.00  0.00     0.016 A 
ATOM     34  C   UNL A   1      45.333  21.237  26.002  1.00  0.00     0.016 A 
ATOM     35  C   UNL A   1      44.524  23.292  24.270  1.00  0.00     0.010 A 
ATOM     36  C   UNL A   1      45.300  22.561  26.449  1.00  0.00     0.010 A 
ATOM     37  C   UNL A   1      44.913  23.597  25.582  1.00  0.00    -0.014 A 
BRANCH  37  38
ATOM     38  C   UNL A   1      45.051  25.010  26.016  1.00  0.00     0.031 A 
ATOM     39  C   UNL A   1      46.407  25.656  25.956  1.00  0.00     0.074 A 
ATOM     40  C   UNL A   1      43.994  25.705  26.469  1.00  0.00     0.049 A 
ATOM     41  N   UNL A   1      46.783  26.844  26.355  1.00  0.00    -0.248 NA
ATOM     42  C   UNL A   1      47.487  24.847  25.368  1.00  0.00     0.031 C 
ATOM     43  C   UNL A   1      42.624  25.205  26.546  1.00  0.00     0.029 A 
ATOM     44  N   UNL A   1      43.917  26.983  26.969  1.00  0.00    -0.354 N 
ATOM     45  C   UNL A   1      48.139  26.926  26.068  1.00  0.00     0.074 A 
ATOM     46  C   UNL A   1      48.527  25.659  25.485  1.00  0.00     0.031 C 
ATOM     47  C   UNL A   1      41.842  26.160  27.081  1.00  0.00     0.029 A 
ATOM     48  C   UNL A   1      42.664  27.323  27.415  1.00  0.00     0.049 A 
ATOM     49  H   UNL A   1      44.687  27.595  27.004  1.00  0.00     0.167 HD
ATOM     50  C   UNL A   1      48.982  27.966  26.269  1.00  0.00     0.037 A 
ATOM     51  C   UNL A   1      42.239  28.435  28.047  1.00  0.00     0.037 A 
ATOM     52  C   UNL A   1      48.600  29.221  26.859  1.00  0.00     0.049 A 
ATOM     53  C   UNL A   1      43.218  29.545  28.339  1.00  0.00     0.074 A 
ATOM     54  C   UNL A   1      49.380  30.341  27.088  1.00  0.00     0.029 A 
ATOM     55  N   UNL A   1      47.329  29.517  27.328  1.00  0.00    -0.354 N 
ATOM     56  N   UNL A   1      44.492  29.627  28.041  1.00  0.00    -0.248 NA
ATOM     57  C   UNL A   1      42.698  30.717  29.059  1.00  0.00     0.031 C 
ATOM     58  C   UNL A   1      48.594  31.296  27.741  1.00  0.00     0.029 A 
ATOM     59  C   UNL A   1      47.311  30.791  27.873  1.00  0.00     0.049 A 
ATOM     60  H   UNL A   1      46.554  28.911  27.281  1.00  0.00     0.167 HD
ATOM     61  C   UNL A   1      44.917  30.863  28.512  1.00  0.00     0.074 A 
ATOM     62  C   UNL A   1      43.763  31.504  29.105  1.00  0.00     0.031 C 
ATOM     63  C   UNL A   1      46.154  31.417  28.459  1.00  0.00     0.037 A 
BRANCH  50  64
ATOM     64  C   UNL A   1      50.416  27.778  25.870  1.00  0.00     0.064 A 
ATOM     65  C   UNL A   1      51.399  27.422  26.805  1.00  0.00     0.173 A 
ATOM     66  C   UNL A   1      50.805  27.926  24.529  1.00  0.00     0.173 A 
ATOM     67  F   UNL A   1      51.081  27.284  28.100  1.00  0.00    -0.203 F 
ATOM     68  C   UNL A   1      52.724  27.242  26.415  1.00  0.00     0.198 A 
ATOM     69  C   UNL A   1      52.125  27.720  24.140  1.00  0.00     0.198 A 
ATOM     70  F   UNL A   1      49.902  28.265  23.598  1.00  0.00    -0.203 F 
ATOM     71  F   UNL A   1      53.656  26.944  27.331  1.00  0.00    -0.200 F 
ATOM     72  C   UNL A   1      53.085  27.385  25.084  1.00  0.00     0.200 A 
ATOM     73  F   UNL A   1      52.469  27.849  22.852  1.00  0.00    -0.200 F 
ATOM     74  F   UNL A   1      54.359  27.206  24.710  1.00  0.00    -0.200 F 
ENDBRANCH  50  64
BRANCH  51  75
ATOM     75  C   UNL A   1      40.821  28.551  28.478  1.00  0.00     0.064 A 
ATOM     76  C   UNL A   1      39.840  29.056  27.613  1.00  0.00     0.173 A 
ATOM     77  C   UNL A   1      40.423  28.191  29.774  1.00  0.00     0.173 A 
ATOM     78  F   UNL A   1      40.178  29.445  26.375  1.00  0.00    -0.203 F 
ATOM     79  C   UNL A   1      38.521  29.211  28.032  1.00  0.00     0.198 A 
ATOM     80  C   UNL A   1      39.098  28.320  30.183  1.00  0.00     0.198 A 
ATOM     81  F   UNL A   1      41.324  27.711  30.645  1.00  0.00    -0.203 F 
ATOM     82  F   UNL A   1      37.614  29.743  27.200  1.00  0.00    -0.200 F 
ATOM     83  C   UNL A   1      38.149  28.838  29.315  1.00  0.00     0.200 A 
ATOM     84  F   UNL A   1      38.742  27.953  31.422  1.00  0.00    -0.200 F 
ATOM     85  F   UNL A   1      36.880  28.988  29.718  1.00  0.00    -0.200 F 
ENDBRANCH  51  75
BRANCH  63  86
ATOM     86  C   UNL A   1      46.320  32.797  29.030  1.00  0.00     0.064 A 
ATOM     87  C   UNL A   1      46.711  32.999  30.361  1.00  0.00     0.173 A 
ATOM     88  C   UNL A   1      46.126  33.928  28.222  1.00  0.00     0.173 A 
ATOM     89  F   UNL A   1      46.894  31.952  31.179  1.00  0.00    -0.203 F 
ATOM     90  C   UNL A   1      46.881  34.285  30.869  1.00  0.00     0.198 A 
ATOM     91  C   UNL A   1      46.326  35.210  28.725  1.00  0.00     0.198 A 
ATOM     92  F   UNL A   1      45.760  33.789  26.940  1.00  0.00    -0.203 F 
ATOM     93  F   UNL A   1      47.213  34.457  32.156  1.00  0.00    -0.200 F 
ATOM     94  C   UNL A   1      46.696  35.388  30.049  1.00  0.00     0.200 A 
ATOM     95  F   UNL A   1      46.160  36.275  27.928  1.00  0.00    -0.200 F 
ATOM     96  F   UNL A   1      46.869  36.625  30.537  1.00  0.00    -0.200 F 
ENDBRANCH  63  86
ENDBRANCH  37  38
ENDBRANCH  30  32
ENDBRANCH  29  30
ENDBRANCH  28  29
ENDBRANCH  27  28
ENDBRANCH  26  27
ENDBRANCH  25  26
ENDBRANCH   1  25
TORSDOF 19
ENDMDL
MODEL 2
REMARK VINA RESULT:     -10.9      5.115      7.699
REMARK SMILES C[C@H]1OCC[C@@H]1C(=O)Nc1ccc(Cl)c(C(=O)OCCOCCOCCOC(=O)c2ccc(-c3c4nc(c(-c5c(F)c(F)c(F)c(F)c5F)c5ccc([nH]5)c(-c5c(F)c(F)c(F)c(F)c5F)c5nc(c(-c6c(F)c(F)c(F)c(F)c6F)c6ccc3[nH]6)C=C5)C=C4)cc2)c1
REMARK SMILES IDX 22 1 21 2 20 3 19 4 18 5 16 6 17 7 15 8 10 9 11 10 93 11
REMARK SMILES IDX 12 12 13 13 14 14 9 15 7 16 8 17 6 19 1 20 2 21 3 22 4 23
REMARK SMILES IDX 5 24 23 25 24 26 25 27 26 28 27 29 28 30 29 31 30 32 31 33
REMARK SMILES IDX 92 34 32 35 91 36 33 37 34 38 35 39 85 40 36 41 90 42 84 43
REMARK SMILES IDX 86 44 37 45 89 46 83 47 82 48 38 50 70 51 50 52 69 53 51 54
REMARK SMILES IDX 54 55 68 56 87 57 52 58 53 59 67 61 88 62 55 63 39 64 40 65
REMARK SMILES IDX 48 66 41 67 42 68 46 69 49 70 43 71 44 72 47 73 45 74 71 75
REMARK SMILES IDX 72 76 80 77 73 78 74 79 78 80 81 81 75 82 76 83 79 84 77 85
REMARK SMILES IDX 56 86 57 87 65 88 58 89 59 90 63 91 66 92 60 93 61 94 64 95
REMARK SMILES IDX 62 96
REMARK H PARENT 9 18 86 49 54 60
REMARK Flexibility Score: inf
ROOT
ATOM      1  C   UNL A   1      40.210  21.789  26.316  1.00  0.00     0.188 C 
ENDROOT
BRANCH   1   2
ATOM      2  O   UNL A   1      38.889  22.230  26.621  1.00  0.00    -0.376 OA
BRANCH   2   3
ATOM      3  C   UNL A   1      37.893  22.188  25.598  1.00  0.00     0.202 C 
BRANCH   3   4
ATOM      4  C   UNL A   1      36.683  23.115  25.756  1.00  0.00     0.261 C 
BRANCH   4   5
ATOM      5  O   UNL A   1      35.446  22.388  25.713  1.00  0.00    -0.460 OA
BRANCH   5   6
ATOM      6  C   UNL A   1      34.601  22.698  24.703  1.00  0.00     0.339 C 
ATOM      7  O   UNL A   1      34.811  22.577  23.506  1.00  0.00    -0.246 OA
BRANCH   6   8
ATOM      8  C   UNL A   1      33.255  22.939  25.256  1.00  0.00     0.080 A 
ATOM      9  C   UNL A   1      31.784  24.544  26.319  1.00  0.00     0.042 A 
ATOM     10  C   UNL A   1      30.738  23.628  26.247  1.00  0.00     0.028 A 
ATOM     11  C   UNL A   1      33.021  24.229  25.765  1.00  0.00     0.043 A 
ATOM     12  C   UNL A   1      30.960  22.352  25.724  1.00  0.00     0.023 A 
ATOM     13  C   UNL A   1      32.228  21.991  25.254  1.00  0.00     0.055 A 
ATOM     14  Cl  UNL A   1      32.443  20.372  24.699  1.00  0.00    -0.083 Cl
BRANCH   9  15
ATOM     15  N   UNL A   1      31.599  25.799  26.898  1.00  0.00    -0.326 N 
ATOM     16  C   UNL A   1      31.502  27.019  26.287  1.00  0.00     0.230 C 
ATOM     17  O   UNL A   1      31.403  28.007  27.024  1.00  0.00    -0.274 OA
ATOM     18  H   UNL A   1      31.528  25.809  27.880  1.00  0.00     0.169 HD
BRANCH  16  19
ATOM     19  C   UNL A   1      31.429  27.209  24.770  1.00  0.00     0.110 C 
ATOM     20  C   UNL A   1      32.899  28.586  23.214  1.00  0.00     0.039 C 
ATOM     21  C   UNL A   1      31.842  28.604  24.313  1.00  0.00     0.127 C 
ATOM     22  O   UNL A   1      30.659  29.235  23.806  1.00  0.00    -0.378 OA
ATOM     23  C   UNL A   1      29.766  28.214  23.355  1.00  0.00     0.161 C 
ATOM     24  C   UNL A   1      30.075  26.957  24.143  1.00  0.00     0.044 C 
ENDBRANCH  16  19
ENDBRANCH   9  15
ENDBRANCH   6   8
ENDBRANCH   5   6
ENDBRANCH   4   5
ENDBRANCH   3   4
ENDBRANCH   2   3
ENDBRANCH   1   2
BRANCH   1  25
ATOM     25  C   UNL A   1      40.751  20.523  27.012  1.00  0.00     0.188 C 
BRANCH  25  26
ATOM     26  O   UNL A   1      42.160  20.451  27.008  1.00  0.00    -0.376 OA
BRANCH  26  27
ATOM     27  C   UNL A   1      42.823  20.352  25.763  1.00  0.00     0.202 C 
BRANCH  27  28
ATOM     28  C   UNL A   1      43.758  21.481  25.293  1.00  0.00     0.261 C 
BRANCH  28  29
ATOM     29  O   UNL A   1      43.149  22.733  24.941  1.00  0.00    -0.460 OA
BRANCH  29  30
ATOM     30  C   UNL A   1      43.929  23.834  24.956  1.00  0.00     0.338 C 
ATOM     31  O   UNL A   1      44.856  24.096  24.211  1.00  0.00    -0.246 OA
BRANCH  30  32
ATOM     32  C   UNL A   1      43.351  24.775  25.941  1.00  0.00     0.060 A 
ATOM     33  C   UNL A   1      43.701  26.129  25.878  1.00  0.00     0.016 A 
ATOM     34  C   UNL A   1      42.456  24.320  26.914  1.00  0.00     0.016 A 
ATOM     35  C   UNL A   1      43.166  27.033  26.801  1.00  0.00     0.010 A 
ATOM     36  C   UNL A   1      41.937  25.222  27.848  1.00  0.00     0.010 A 
ATOM     37  C   UNL A   1      42.302  26.578  27.808  1.00  0.00    -0.014 A 
BRANCH  37  38
ATOM     38  C   UNL A   1      41.885  27.486  28.906  1.00  0.00     0.031 A 
ATOM     39  C   UNL A   1      42.661  27.469  30.193  1.00  0.00     0.074 A 
ATOM     40  C   UNL A   1      40.825  28.301  28.769  1.00  0.00     0.049 A 
ATOM     41  N   UNL A   1      42.435  28.110  31.311  1.00  0.00    -0.248 NA
ATOM     42  C   UNL A   1      43.853  26.607  30.222  1.00  0.00     0.031 C 
ATOM     43  C   UNL A   1      40.012  28.435  27.564  1.00  0.00     0.029 A 
ATOM     44  N   UNL A   1      40.243  29.162  29.668  1.00  0.00    -0.354 N 
ATOM     45  C   UNL A   1      43.453  27.730  32.175  1.00  0.00     0.074 A 
ATOM     46  C   UNL A   1      44.284  26.783  31.463  1.00  0.00     0.031 C 
ATOM     47  C   UNL A   1      39.021  29.314  27.803  1.00  0.00     0.029 A 
ATOM     48  C   UNL A   1      39.112  29.775  29.188  1.00  0.00     0.049 A 
ATOM     49  H   UNL A   1      40.602  29.322  30.570  1.00  0.00     0.167 HD
ATOM     50  C   UNL A   1      43.677  28.138  33.447  1.00  0.00     0.037 A 
ATOM     51  C   UNL A   1      38.237  30.591  29.808  1.00  0.00     0.037 A 
ATOM     52  C   UNL A   1      42.844  29.069  34.160  1.00  0.00     0.049 A 
ATOM     53  C   UNL A   1      38.460  30.962  31.253  1.00  0.00     0.074 A 
ATOM     54  C   UNL A   1      43.000  29.557  35.446  1.00  0.00     0.029 A 
ATOM     55  N   UNL A   1      41.689  29.644  33.652  1.00  0.00    -0.354 N 
ATOM     56  N   UNL A   1      39.439  30.621  32.055  1.00  0.00    -0.248 NA
ATOM     57  C   UNL A   1      37.451  31.830  31.878  1.00  0.00     0.031 C 
ATOM     58  C   UNL A   1      41.912  30.388  35.733  1.00  0.00     0.029 A 
ATOM     59  C   UNL A   1      41.106  30.459  34.609  1.00  0.00     0.049 A 
ATOM     60  H   UNL A   1      41.337  29.497  32.745  1.00  0.00     0.167 HD
ATOM     61  C   UNL A   1      39.179  31.250  33.266  1.00  0.00     0.074 A 
ATOM     62  C   UNL A   1      37.956  32.005  33.091  1.00  0.00     0.031 C 
ATOM     63  C   UNL A   1      39.889  31.206  34.421  1.00  0.00     0.037 A 
BRANCH  50  64
ATOM     64  C   UNL A   1      44.859  27.553  34.160  1.00  0.00     0.064 A 
ATOM     65  C   UNL A   1      44.763  26.358  34.888  1.00  0.00     0.173 A 
ATOM     66  C   UNL A   1      46.112  28.182  34.090  1.00  0.00     0.173 A 
ATOM     67  F   UNL A   1      43.584  25.729  34.999  1.00  0.00    -0.203 F 
ATOM     68  C   UNL A   1      45.874  25.825  35.537  1.00  0.00     0.198 A 
ATOM     69  C   UNL A   1      47.225  27.631  34.718  1.00  0.00     0.198 A 
ATOM     70  F   UNL A   1      46.257  29.326  33.405  1.00  0.00    -0.203 F 
ATOM     71  F   UNL A   1      45.749  24.705  36.263  1.00  0.00    -0.200 F 
ATOM     72  C   UNL A   1      47.104  26.457  35.446  1.00  0.00     0.200 A 
ATOM     73  F   UNL A   1      48.416  28.238  34.621  1.00  0.00    -0.200 F 
ATOM     74  F   UNL A   1      48.173  25.939  36.067  1.00  0.00    -0.200 F 
ENDBRANCH  50  64
BRANCH  51  75
ATOM     75  C   UNL A   1      37.046  31.098  29.077  1.00  0.00     0.064 A 
ATOM     76  C   UNL A   1      36.972  32.431  28.648  1.00  0.00     0.173 A 
ATOM     77  C   UNL A   1      35.943  30.269  28.820  1.00  0.00     0.173 A 
ATOM     78  F   UNL A   1      37.986  33.270  28.898  1.00  0.00    -0.203 F 
ATOM     79  C   UNL A   1      35.835  32.918  28.006  1.00  0.00     0.198 A 
ATOM     80  C   UNL A   1      34.819  30.751  28.154  1.00  0.00     0.198 A 
ATOM     81  F   UNL A   1      35.959  28.988  29.218  1.00  0.00    -0.203 F 
ATOM     82  F   UNL A   1      35.772  34.209  27.652  1.00  0.00    -0.200 F 
ATOM     83  C   UNL A   1      34.762  32.077  27.755  1.00  0.00     0.200 A 
ATOM     84  F   UNL A   1      33.786  29.933  27.908  1.00  0.00    -0.200 F 
ATOM     85  F   UNL A   1      33.669  32.547  27.139  1.00  0.00    -0.200 F 
ENDBRANCH  51  75
BRANCH  63  86
ATOM     86  C   UNL A   1      39.381  32.018  35.578  1.00  0.00     0.064 A 
ATOM     87  C   UNL A   1      39.731  33.366  35.738  1.00  0.00     0.173 A 
ATOM     88  C   UNL A   1      38.500  31.452  36.511  1.00  0.00     0.173 A 
ATOM     89  F   UNL A   1      40.582  33.951  34.882  1.00  0.00    -0.203 F 
ATOM     90  C   UNL A   1      39.233  34.112  36.804  1.00  0.00     0.198 A 
ATOM     91  C   UNL A   1      37.982  32.208  37.559  1.00  0.00     0.198 A 
ATOM     92  F   UNL A   1      38.127  30.169  36.398  1.00  0.00    -0.203 F 
ATOM     93  F   UNL A   1      39.615  35.387  36.964  1.00  0.00    -0.200 F 
ATOM     94  C   UNL A   1      38.354  33.535  37.709  1.00  0.00     0.200 A 
ATOM     95  F   UNL A   1      37.121  31.653  38.423  1.00  0.00    -0.200 F 
ATOM     96  F   UNL A   1      37.870  34.257  38.729  1.00  0.00    -0.200 F 
ENDBRANCH  63  86
ENDBRANCH  37  38
ENDBRANCH  30  32
ENDBRANCH  29  30
ENDBRANCH  28  29
ENDBRANCH  27  28
ENDBRANCH  26  27
ENDBRANCH  25  26
ENDBRANCH   1  25
TORSDOF 19
ENDMDL
MODEL 3
REMARK VINA RESULT:     -10.7      1.852      3.613
REMARK SMILES C[C@H]1OCC[C@@H]1C(=O)Nc1ccc(Cl)c(C(=O)OCCOCCOCCOC(=O)c2ccc(-c3c4nc(c(-c5c(F)c(F)c(F)c(F)c5F)c5ccc([nH]5)c(-c5c(F)c(F)c(F)c(F)c5F)c5nc(c(-c6c(F)c(F)c(F)c(F)c6F)c6ccc3[nH]6)C=C5)C=C4)cc2)c1
REMARK SMILES IDX 22 1 21 2 20 3 19 4 18 5 16 6 17 7 15 8 10 9 11 10 93 11
REMARK SMILES IDX 12 12 13 13 14 14 9 15 7 16 8 17 6 19 1 20 2 21 3 22 4 23
REMARK SMILES IDX 5 24 23 25 24 26 25 27 26 28 27 29 28 30 29 31 30 32 31 33
REMARK SMILES IDX 92 34 32 35 91 36 33 37 34 38 35 39 85 40 36 41 90 42 84 43
REMARK SMILES IDX 86 44 37 45 89 46 83 47 82 48 38 50 70 51 50 52 69 53 51 54
REMARK SMILES IDX 54 55 68 56 87 57 52 58 53 59 67 61 88 62 55 63 39 64 40 65
REMARK SMILES IDX 48 66 41 67 42 68 46 69 49 70 43 71 44 72 47 73 45 74 71 75
REMARK SMILES IDX 72 76 80 77 73 78 74 79 78 80 81 81 75 82 76 83 79 84 77 85
REMARK SMILES IDX 56 86 57 87 65 88 58 89 59 90 63 91 66 92 60 93 61 94 64 95
REMARK SMILES IDX 62 96
REMARK H PARENT 9 18 86 49 54 60
REMARK Flexibility Score: inf
ROOT
ATOM      1  C   UNL A   1      40.484  21.663  26.170  1.00  0.00     0.188 C 
ENDROOT
BRANCH   1   2
ATOM      2  O   UNL A   1      39.072  21.577  25.992  1.00  0.00    -0.376 OA
BRANCH   2   3
ATOM      3  C   UNL A   1      38.320  22.782  25.836  1.00  0.00     0.202 C 
BRANCH   3   4
ATOM      4  C   UNL A   1      36.800  22.650  25.708  1.00  0.00     0.261 C 
BRANCH   4   5
ATOM      5  O   UNL A   1      36.253  23.632  24.815  1.00  0.00    -0.460 OA
BRANCH   5   6
ATOM      6  C   UNL A   1      35.913  23.198  23.579  1.00  0.00     0.339 C 
ATOM      7  O   UNL A   1      36.661  22.745  22.727  1.00  0.00    -0.246 OA
BRANCH   6   8
ATOM      8  C   UNL A   1      34.445  23.076  23.497  1.00  0.00     0.080 A 
ATOM      9  C   UNL A   1      32.389  24.105  22.733  1.00  0.00     0.042 A 
ATOM     10  C   UNL A   1      31.678  22.980  23.142  1.00  0.00     0.028 A 
ATOM     11  C   UNL A   1      33.776  24.128  22.847  1.00  0.00     0.043 A 
ATOM     12  C   UNL A   1      32.341  21.924  23.771  1.00  0.00     0.023 A 
ATOM     13  C   UNL A   1      33.724  21.981  23.980  1.00  0.00     0.055 A 
ATOM     14  Cl  UNL A   1      34.457  20.675  24.837  1.00  0.00    -0.083 Cl
BRANCH   9  15
ATOM     15  N   UNL A   1      31.736  25.198  22.163  1.00  0.00    -0.326 N 
ATOM     16  C   UNL A   1      31.547  26.449  22.682  1.00  0.00     0.230 C 
ATOM     17  O   UNL A   1      30.875  27.238  22.009  1.00  0.00    -0.274 OA
ATOM     18  H   UNL A   1      31.362  25.049  21.265  1.00  0.00     0.169 HD
BRANCH  16  19
ATOM     19  C   UNL A   1      32.180  26.935  23.988  1.00  0.00     0.110 C 
ATOM     20  C   UNL A   1      31.223  27.027  26.344  1.00  0.00     0.039 C 
ATOM     21  C   UNL A   1      31.187  27.602  24.933  1.00  0.00     0.127 C 
ATOM     22  O   UNL A   1      31.546  28.989  24.990  1.00  0.00    -0.378 OA
ATOM     23  C   UNL A   1      32.940  29.103  24.697  1.00  0.00     0.161 C 
ATOM     24  C   UNL A   1      33.323  27.915  23.837  1.00  0.00     0.044 C 
ENDBRANCH  16  19
ENDBRANCH   9  15
ENDBRANCH   6   8
ENDBRANCH   5   6
ENDBRANCH   4   5
ENDBRANCH   3   4
ENDBRANCH   2   3
ENDBRANCH   1   2
BRANCH   1  25
ATOM     25  C   UNL A   1      41.089  21.263  27.532  1.00  0.00     0.188 C 
BRANCH  25  26
ATOM     26  O   UNL A   1      41.855  20.080  27.468  1.00  0.00    -0.376 OA
BRANCH  26  27
ATOM     27  C   UNL A   1      41.707  19.245  26.336  1.00  0.00     0.202 C 
BRANCH  27  28
ATOM     28  C   UNL A   1      42.924  18.497  25.763  1.00  0.00     0.261 C 
BRANCH  28  29
ATOM     29  O   UNL A   1      43.404  18.915  24.476  1.00  0.00    -0.460 OA
BRANCH  29  30
ATOM     30  C   UNL A   1      44.665  19.393  24.404  1.00  0.00     0.338 C 
ATOM     31  O   UNL A   1      45.644  18.836  23.942  1.00  0.00    -0.246 OA
BRANCH  30  32
ATOM     32  C   UNL A   1      44.628  20.809  24.832  1.00  0.00     0.060 A 
ATOM     33  C   UNL A   1      44.456  21.809  23.867  1.00  0.00     0.016 A 
ATOM     34  C   UNL A   1      44.748  21.144  26.184  1.00  0.00     0.016 A 
ATOM     35  C   UNL A   1      44.419  23.153  24.252  1.00  0.00     0.010 A 
ATOM     36  C   UNL A   1      44.731  22.489  26.564  1.00  0.00     0.010 A 
ATOM     37  C   UNL A   1      44.584  23.501  25.600  1.00  0.00    -0.014 A 
BRANCH  37  38
ATOM     38  C   UNL A   1      44.743  24.922  25.995  1.00  0.00     0.031 A 
ATOM     39  C   UNL A   1      46.102  25.556  25.887  1.00  0.00     0.074 A 
ATOM     40  C   UNL A   1      43.702  25.637  26.456  1.00  0.00     0.049 A 
ATOM     41  N   UNL A   1      46.495  26.751  26.247  1.00  0.00    -0.248 NA
ATOM     42  C   UNL A   1      47.161  24.725  25.294  1.00  0.00     0.031 C 
ATOM     43  C   UNL A   1      42.331  25.150  26.578  1.00  0.00     0.029 A 
ATOM     44  N   UNL A   1      43.646  26.927  26.926  1.00  0.00    -0.354 N 
ATOM     45  C   UNL A   1      47.844  26.816  25.926  1.00  0.00     0.074 A 
ATOM     46  C   UNL A   1      48.210  25.532  25.366  1.00  0.00     0.031 C 
ATOM     47  C   UNL A   1      41.568  26.123  27.108  1.00  0.00     0.029 A 
ATOM     48  C   UNL A   1      42.406  27.288  27.393  1.00  0.00     0.049 A 
ATOM     49  H   UNL A   1      44.420  27.534  26.927  1.00  0.00     0.167 HD
ATOM     50  C   UNL A   1      48.700  27.853  26.081  1.00  0.00     0.037 A 
ATOM     51  C   UNL A   1      42.005  28.418  28.008  1.00  0.00     0.037 A 
ATOM     52  C   UNL A   1      48.341  29.125  26.649  1.00  0.00     0.049 A 
ATOM     53  C   UNL A   1      42.999  29.528  28.248  1.00  0.00     0.074 A 
ATOM     54  C   UNL A   1      49.134  30.244  26.831  1.00  0.00     0.029 A 
ATOM     55  N   UNL A   1      47.084  29.443  27.141  1.00  0.00    -0.354 N 
ATOM     56  N   UNL A   1      44.266  29.592  27.918  1.00  0.00    -0.248 NA
ATOM     57  C   UNL A   1      42.504  30.720  28.951  1.00  0.00     0.031 C 
ATOM     58  C   UNL A   1      48.371  31.221  27.479  1.00  0.00     0.029 A 
ATOM     59  C   UNL A   1      47.088  30.730  27.654  1.00  0.00     0.049 A 
ATOM     60  H   UNL A   1      46.304  28.842  27.127  1.00  0.00     0.167 HD
ATOM     61  C   UNL A   1      44.711  30.836  28.348  1.00  0.00     0.074 A 
ATOM     62  C   UNL A   1      43.576  31.500  28.952  1.00  0.00     0.031 C 
ATOM     63  C   UNL A   1      45.950  31.379  28.251  1.00  0.00     0.037 A 
BRANCH  50  64
ATOM     64  C   UNL A   1      50.122  27.644  25.653  1.00  0.00     0.064 A 
ATOM     65  C   UNL A   1      50.512  27.766  24.311  1.00  0.00     0.173 A 
ATOM     66  C   UNL A   1      51.112  27.346  26.601  1.00  0.00     0.173 A 
ATOM     67  F   UNL A   1      49.600  28.033  23.365  1.00  0.00    -0.203 F 
ATOM     68  C   UNL A   1      51.839  27.577  23.932  1.00  0.00     0.198 A 
ATOM     69  C   UNL A   1      52.441  27.183  26.222  1.00  0.00     0.198 A 
ATOM     70  F   UNL A   1      50.791  27.219  27.897  1.00  0.00    -0.203 F 
ATOM     71  F   UNL A   1      52.182  27.656  22.639  1.00  0.00    -0.200 F 
ATOM     72  C   UNL A   1      52.803  27.293  24.887  1.00  0.00     0.200 A 
ATOM     73  F   UNL A   1      53.373  26.918  27.148  1.00  0.00    -0.200 F 
ATOM     74  F   UNL A   1      54.079  27.116  24.522  1.00  0.00    -0.200 F 
ENDBRANCH  50  64
BRANCH  51  75
ATOM     75  C   UNL A   1      40.598  28.556  28.469  1.00  0.00     0.064 A 
ATOM     76  C   UNL A   1      39.598  29.032  27.610  1.00  0.00     0.173 A 
ATOM     77  C   UNL A   1      40.232  28.246  29.787  1.00  0.00     0.173 A 
ATOM     78  F   UNL A   1      39.905  29.372  26.350  1.00  0.00    -0.203 F 
ATOM     79  C   UNL A   1      38.289  29.207  28.056  1.00  0.00     0.198 A 
ATOM     80  C   UNL A   1      38.918  28.396  30.224  1.00  0.00     0.198 A 
ATOM     81  F   UNL A   1      41.153  27.797  30.653  1.00  0.00    -0.203 F 
ATOM     82  F   UNL A   1      37.364  29.710  27.227  1.00  0.00    -0.200 F 
ATOM     83  C   UNL A   1      37.949  28.885  29.361  1.00  0.00     0.200 A 
ATOM     84  F   UNL A   1      38.592  28.077  31.484  1.00  0.00    -0.200 F 
ATOM     85  F   UNL A   1      36.691  29.054  29.790  1.00  0.00    -0.200 F 
ENDBRANCH  51  75
BRANCH  63  86
ATOM     86  C   UNL A   1      46.139  32.771  28.784  1.00  0.00     0.064 A 
ATOM     87  C   UNL A   1      45.903  33.900  27.987  1.00  0.00     0.173 A 
ATOM     88  C   UNL A   1      46.519  32.976  30.119  1.00  0.00     0.173 A 
ATOM     89  F   UNL A   1      45.553  33.760  26.700  1.00  0.00    -0.203 F 
ATOM     90  C   UNL A   1      46.061  35.185  28.503  1.00  0.00     0.198 A 
ATOM     91  C   UNL A   1      46.648  34.261  30.639  1.00  0.00     0.198 A 
ATOM     92  F   UNL A   1      46.749  31.929  30.925  1.00  0.00    -0.203 F 
ATOM     93  F   UNL A   1      45.873  36.251  27.712  1.00  0.00    -0.200 F 
ATOM     94  C   UNL A   1      46.426  35.364  29.829  1.00  0.00     0.200 A 
ATOM     95  F   UNL A   1      46.987  34.432  31.924  1.00  0.00    -0.200 F 
ATOM     96  F   UNL A   1      46.570  36.601  30.325  1.00  0.00    -0.200 F 
ENDBRANCH  63  86
ENDBRANCH  37  38
ENDBRANCH  30  32
ENDBRANCH  29  30
ENDBRANCH  28  29
ENDBRANCH  27  28
ENDBRANCH  26  27
ENDBRANCH  25  26
ENDBRANCH   1  25
TORSDOF 19
ENDMDL
