MODEL 1
REMARK VINA RESULT:     -10.6      0.000      0.000
REMARK SMILES C[C@@H]([NH3+])CCC(=O)N1CC(n2cc(C(=O)OCCOCCOCCOC(=O)c3ccc(-c4c5nc(c(-c6c(F)c(F)c(F)c(F)c6F)c6ccc([nH]6)c(-c6c(F)c(F)c(F)c(F)c6F)c6nc(c(-c7c(F)c(F)c(F)c(F)c7F)c7ccc4[nH]7)C=C6)C=C5)cc3)nn2)C1
REMARK SMILES IDX 19 1 18 2 17 3 16 4 14 5 15 6 13 7 11 8 12 9 92 10 91 11
REMARK SMILES IDX 10 12 6 13 7 14 8 15 9 16 93 17 5 18 4 19 2 20 1 21 3 22
REMARK SMILES IDX 20 26 21 27 22 28 23 29 24 30 25 31 26 32 27 33 28 34 29 35
REMARK SMILES IDX 90 36 30 37 89 38 31 39 32 40 33 41 83 42 34 43 88 44 82 45
REMARK SMILES IDX 84 46 35 47 87 48 81 49 80 50 36 52 68 53 48 54 67 55 49 56
REMARK SMILES IDX 52 57 66 58 85 59 50 60 51 61 65 63 86 64 53 65 37 66 38 67
REMARK SMILES IDX 46 68 39 69 40 70 44 71 47 72 41 73 42 74 45 75 43 76 69 77
REMARK SMILES IDX 70 78 78 79 71 80 72 81 76 82 79 83 73 84 74 85 77 86 75 87
REMARK SMILES IDX 54 88 55 89 63 90 56 91 57 92 61 93 64 94 58 95 59 96 62 97
REMARK SMILES IDX 60 98
REMARK H PARENT 3 23 3 24 3 25 84 51 52 62
REMARK Flexibility Score: inf
ROOT
ATOM      1  O   UNL A   1      39.633  20.518  25.924  1.00  0.00    -0.376 OA
ENDROOT
BRANCH   1   2
ATOM      2  C   UNL A   1      38.815  21.674  25.869  1.00  0.00     0.202 C 
BRANCH   2   3
ATOM      3  C   UNL A   1      37.345  21.705  25.398  1.00  0.00     0.261 C 
BRANCH   3   4
ATOM      4  O   UNL A   1      36.475  22.637  26.047  1.00  0.00    -0.458 OA
BRANCH   4   5
ATOM      5  C   UNL A   1      35.141  22.502  25.761  1.00  0.00     0.360 C 
ATOM      6  O   UNL A   1      34.354  21.875  26.448  1.00  0.00    -0.244 OA
BRANCH   5   7
ATOM      7  C   UNL A   1      34.735  23.295  24.605  1.00  0.00     0.190 A 
ATOM      8  N   UNL A   1      34.001  24.787  23.210  1.00  0.00    -0.245 N 
ATOM      9  C   UNL A   1      34.144  24.542  24.551  1.00  0.00     0.147 A 
ATOM     10  N   UNL A   1      34.408  23.737  22.482  1.00  0.00    -0.066 NA
ATOM     11  N   UNL A   1      34.863  22.819  23.321  1.00  0.00    -0.123 NA
BRANCH   8  12
ATOM     12  C   UNL A   1      33.711  26.081  22.667  1.00  0.00     0.148 C 
ATOM     13  C   UNL A   1      31.445  28.445  22.518  1.00  0.00     0.222 C 
ATOM     14  O   UNL A   1      32.081  29.477  22.310  1.00  0.00    -0.275 OA
ATOM     15  N   UNL A   1      32.044  27.299  22.985  1.00  0.00    -0.338 N 
ATOM     16  C   UNL A   1      33.360  27.201  23.643  1.00  0.00     0.148 C 
ATOM     17  C   UNL A   1      32.261  26.092  22.203  1.00  0.00     0.148 C 
BRANCH  13  18
ATOM     18  C   UNL A   1      29.919  28.425  22.449  1.00  0.00     0.106 C 
BRANCH  18  19
ATOM     19  C   UNL A   1      29.107  28.004  23.680  1.00  0.00     0.074 C 
BRANCH  19  20
ATOM     20  C   UNL A   1      28.929  26.500  23.949  1.00  0.00     0.178 C 
ATOM     21  C   UNL A   1      29.738  25.956  25.122  1.00  0.00     0.075 C 
BRANCH  20  22
ATOM     22  N   UNL A   1      27.512  26.181  24.147  1.00  0.00    -0.355 N 
ATOM     23  H   UNL A   1      27.428  25.251  24.558  1.00  0.00     0.344 HD
ATOM     24  H   UNL A   1      27.031  26.199  23.247  1.00  0.00     0.344 HD
ATOM     25  H   UNL A   1      27.092  26.868  24.772  1.00  0.00     0.344 HD
ENDBRANCH  20  22
ENDBRANCH  19  20
ENDBRANCH  18  19
ENDBRANCH  13  18
ENDBRANCH   8  12
ENDBRANCH   5   7
ENDBRANCH   4   5
ENDBRANCH   3   4
ENDBRANCH   2   3
ENDBRANCH   1   2
BRANCH   1  26
ATOM     26  C   UNL A   1      40.872  20.525  26.596  1.00  0.00     0.188 C 
BRANCH  26  27
ATOM     27  C   UNL A   1      41.890  19.393  26.358  1.00  0.00     0.188 C 
BRANCH  27  28
ATOM     28  O   UNL A   1      42.648  19.334  25.170  1.00  0.00    -0.376 OA
BRANCH  28  29
ATOM     29  C   UNL A   1      44.039  19.053  25.138  1.00  0.00     0.202 C 
BRANCH  29  30
ATOM     30  C   UNL A   1      45.053  19.638  24.156  1.00  0.00     0.261 C 
BRANCH  30  31
ATOM     31  O   UNL A   1      44.759  20.922  23.653  1.00  0.00    -0.460 OA
BRANCH  31  32
ATOM     32  C   UNL A   1      45.457  21.897  24.267  1.00  0.00     0.338 C 
ATOM     33  O   UNL A   1      46.628  22.190  24.094  1.00  0.00    -0.246 OA
BRANCH  32  34
ATOM     34  C   UNL A   1      44.605  22.531  25.270  1.00  0.00     0.060 A 
ATOM     35  C   UNL A   1      43.564  23.314  24.775  1.00  0.00     0.016 A 
ATOM     36  C   UNL A   1      45.066  22.628  26.591  1.00  0.00     0.016 A 
ATOM     37  C   UNL A   1      43.169  24.393  25.523  1.00  0.00     0.010 A 
ATOM     38  C   UNL A   1      44.676  23.713  27.334  1.00  0.00     0.010 A 
ATOM     39  C   UNL A   1      43.817  24.632  26.741  1.00  0.00    -0.014 A 
BRANCH  39  40
ATOM     40  C   UNL A   1      43.542  25.894  27.386  1.00  0.00     0.031 A 
ATOM     41  C   UNL A   1      44.533  26.937  27.065  1.00  0.00     0.074 A 
ATOM     42  C   UNL A   1      42.458  26.074  28.162  1.00  0.00     0.049 A 
ATOM     43  N   UNL A   1      45.340  27.537  27.873  1.00  0.00    -0.248 NA
ATOM     44  C   UNL A   1      44.758  27.237  25.643  1.00  0.00     0.031 C 
ATOM     45  C   UNL A   1      41.298  25.194  28.327  1.00  0.00     0.029 A 
ATOM     46  N   UNL A   1      42.126  27.160  28.906  1.00  0.00    -0.354 N 
ATOM     47  C   UNL A   1      46.060  28.425  27.085  1.00  0.00     0.074 A 
ATOM     48  C   UNL A   1      45.781  28.087  25.714  1.00  0.00     0.031 C 
ATOM     49  C   UNL A   1      40.300  25.885  28.926  1.00  0.00     0.029 A 
ATOM     50  C   UNL A   1      40.796  27.201  29.294  1.00  0.00     0.049 A 
ATOM     51  H   UNL A   1      42.775  27.860  29.149  1.00  0.00     0.167 HD
ATOM     52  C   UNL A   1      46.628  29.532  27.628  1.00  0.00     0.037 A 
ATOM     53  C   UNL A   1      40.149  28.284  29.791  1.00  0.00     0.037 A 
ATOM     54  C   UNL A   1      46.833  29.378  29.045  1.00  0.00     0.049 A 
ATOM     55  C   UNL A   1      41.181  29.237  30.279  1.00  0.00     0.074 A 
ATOM     56  C   UNL A   1      47.563  28.500  29.823  1.00  0.00     0.029 A 
ATOM     57  N   UNL A   1      45.950  29.985  29.902  1.00  0.00    -0.354 N 
ATOM     58  N   UNL A   1      41.934  29.026  31.322  1.00  0.00    -0.248 NA
ATOM     59  C   UNL A   1      41.683  30.229  29.338  1.00  0.00     0.031 C 
ATOM     60  C   UNL A   1      46.768  28.282  30.987  1.00  0.00     0.029 A 
ATOM     61  C   UNL A   1      45.625  29.073  30.873  1.00  0.00     0.049 A 
ATOM     62  H   UNL A   1      45.609  30.906  29.832  1.00  0.00     0.167 HD
ATOM     63  C   UNL A   1      43.181  29.519  30.963  1.00  0.00     0.074 A 
ATOM     64  C   UNL A   1      42.943  30.328  29.771  1.00  0.00     0.031 C 
ATOM     65  C   UNL A   1      44.323  28.994  31.492  1.00  0.00     0.037 A 
BRANCH  52  66
ATOM     66  C   UNL A   1      46.621  30.874  26.943  1.00  0.00     0.064 A 
ATOM     67  C   UNL A   1      47.814  31.616  26.886  1.00  0.00     0.173 A 
ATOM     68  C   UNL A   1      45.443  31.586  26.623  1.00  0.00     0.173 A 
ATOM     69  F   UNL A   1      48.988  31.044  27.192  1.00  0.00    -0.203 F 
ATOM     70  C   UNL A   1      47.816  32.986  26.613  1.00  0.00     0.198 A 
ATOM     71  C   UNL A   1      45.455  32.939  26.295  1.00  0.00     0.198 A 
ATOM     72  F   UNL A   1      44.223  31.043  26.724  1.00  0.00    -0.203 F 
ATOM     73  F   UNL A   1      48.959  33.678  26.704  1.00  0.00    -0.200 F 
ATOM     74  C   UNL A   1      46.636  33.647  26.325  1.00  0.00     0.200 A 
ATOM     75  F   UNL A   1      44.297  33.564  26.039  1.00  0.00    -0.200 F 
ATOM     76  F   UNL A   1      46.626  34.972  26.131  1.00  0.00    -0.200 F 
ENDBRANCH  52  66
BRANCH  53  77
ATOM     77  C   UNL A   1      38.744  28.691  29.551  1.00  0.00     0.064 A 
ATOM     78  C   UNL A   1      37.886  28.990  30.621  1.00  0.00     0.173 A 
ATOM     79  C   UNL A   1      38.294  29.061  28.268  1.00  0.00     0.173 A 
ATOM     80  F   UNL A   1      38.259  28.715  31.881  1.00  0.00    -0.203 F 
ATOM     81  C   UNL A   1      36.664  29.642  30.423  1.00  0.00     0.198 A 
ATOM     82  C   UNL A   1      37.070  29.700  28.070  1.00  0.00     0.198 A 
ATOM     83  F   UNL A   1      39.072  28.898  27.189  1.00  0.00    -0.203 F 
ATOM     84  F   UNL A   1      35.902  29.968  31.476  1.00  0.00    -0.200 F 
ATOM     85  C   UNL A   1      36.261  30.005  29.149  1.00  0.00     0.200 A 
ATOM     86  F   UNL A   1      36.711  30.078  26.835  1.00  0.00    -0.200 F 
ATOM     87  F   UNL A   1      35.120  30.681  28.964  1.00  0.00    -0.200 F 
ENDBRANCH  53  77
BRANCH  65  88
ATOM     88  C   UNL A   1      44.186  28.066  32.667  1.00  0.00     0.064 A 
ATOM     89  C   UNL A   1      44.011  28.500  33.994  1.00  0.00     0.173 A 
ATOM     90  C   UNL A   1      44.089  26.691  32.421  1.00  0.00     0.173 A 
ATOM     91  F   UNL A   1      43.985  29.805  34.295  1.00  0.00    -0.203 F 
ATOM     92  C   UNL A   1      43.800  27.591  35.028  1.00  0.00     0.198 A 
ATOM     93  C   UNL A   1      43.841  25.788  33.451  1.00  0.00     0.198 A 
ATOM     94  F   UNL A   1      44.191  26.224  31.166  1.00  0.00    -0.203 F 
ATOM     95  F   UNL A   1      43.653  28.028  36.288  1.00  0.00    -0.200 F 
ATOM     96  C   UNL A   1      43.708  26.237  34.755  1.00  0.00     0.200 A 
ATOM     97  F   UNL A   1      43.702  24.485  33.175  1.00  0.00    -0.200 F 
ATOM     98  F   UNL A   1      43.465  25.365  35.744  1.00  0.00    -0.200 F 
ENDBRANCH  65  88
ENDBRANCH  39  40
ENDBRANCH  32  34
ENDBRANCH  31  32
ENDBRANCH  30  31
ENDBRANCH  29  30
ENDBRANCH  28  29
ENDBRANCH  27  28
ENDBRANCH  26  27
ENDBRANCH   1  26
TORSDOF 22
ENDMDL
MODEL 2
REMARK VINA RESULT:     -10.3      0.947      1.989
REMARK SMILES C[C@@H]([NH3+])CCC(=O)N1CC(n2cc(C(=O)OCCOCCOCCOC(=O)c3ccc(-c4c5nc(c(-c6c(F)c(F)c(F)c(F)c6F)c6ccc([nH]6)c(-c6c(F)c(F)c(F)c(F)c6F)c6nc(c(-c7c(F)c(F)c(F)c(F)c7F)c7ccc4[nH]7)C=C6)C=C5)cc3)nn2)C1
REMARK SMILES IDX 19 1 18 2 17 3 16 4 14 5 15 6 13 7 11 8 12 9 92 10 91 11
REMARK SMILES IDX 10 12 6 13 7 14 8 15 9 16 93 17 5 18 4 19 2 20 1 21 3 22
REMARK SMILES IDX 20 26 21 27 22 28 23 29 24 30 25 31 26 32 27 33 28 34 29 35
REMARK SMILES IDX 90 36 30 37 89 38 31 39 32 40 33 41 83 42 34 43 88 44 82 45
REMARK SMILES IDX 84 46 35 47 87 48 81 49 80 50 36 52 68 53 48 54 67 55 49 56
REMARK SMILES IDX 52 57 66 58 85 59 50 60 51 61 65 63 86 64 53 65 37 66 38 67
REMARK SMILES IDX 46 68 39 69 40 70 44 71 47 72 41 73 42 74 45 75 43 76 69 77
REMARK SMILES IDX 70 78 78 79 71 80 72 81 76 82 79 83 73 84 74 85 77 86 75 87
REMARK SMILES IDX 54 88 55 89 63 90 56 91 57 92 61 93 64 94 58 95 59 96 62 97
REMARK SMILES IDX 60 98
REMARK H PARENT 3 23 3 24 3 25 84 51 52 62
REMARK Flexibility Score: inf
ROOT
ATOM      1  O   UNL A   1      39.573  20.101  25.737  1.00  0.00    -0.376 OA
ENDROOT
BRANCH   1   2
ATOM      2  C   UNL A   1      38.807  21.286  25.598  1.00  0.00     0.202 C 
BRANCH   2   3
ATOM      3  C   UNL A   1      37.394  21.368  24.984  1.00  0.00     0.261 C 
BRANCH   3   4
ATOM      4  O   UNL A   1      36.567  22.460  25.400  1.00  0.00    -0.458 OA
BRANCH   4   5
ATOM      5  C   UNL A   1      35.220  22.207  25.425  1.00  0.00     0.360 C 
ATOM      6  O   UNL A   1      34.663  21.547  26.285  1.00  0.00    -0.244 OA
BRANCH   5   7
ATOM      7  C   UNL A   1      34.499  22.920  24.376  1.00  0.00     0.190 A 
ATOM      8  N   UNL A   1      33.079  23.990  23.129  1.00  0.00    -0.245 N 
ATOM      9  C   UNL A   1      33.209  23.414  24.366  1.00  0.00     0.147 A 
ATOM     10  N   UNL A   1      34.185  23.806  22.394  1.00  0.00    -0.066 NA
ATOM     11  N   UNL A   1      35.063  23.157  23.144  1.00  0.00    -0.123 NA
BRANCH   8  12
ATOM     12  C   UNL A   1      32.019  24.888  22.780  1.00  0.00     0.148 C 
ATOM     13  C   UNL A   1      30.933  27.962  23.118  1.00  0.00     0.222 C 
ATOM     14  O   UNL A   1      30.234  28.160  22.125  1.00  0.00    -0.275 OA
ATOM     15  N   UNL A   1      31.839  26.931  23.180  1.00  0.00    -0.338 N 
ATOM     16  C   UNL A   1      32.387  26.172  22.041  1.00  0.00     0.148 C 
ATOM     17  C   UNL A   1      31.691  25.739  24.001  1.00  0.00     0.148 C 
BRANCH  13  18
ATOM     18  C   UNL A   1      30.974  28.963  24.271  1.00  0.00     0.106 C 
BRANCH  18  19
ATOM     19  C   UNL A   1      32.325  29.442  24.816  1.00  0.00     0.074 C 
BRANCH  19  20
ATOM     20  C   UNL A   1      32.788  28.902  26.179  1.00  0.00     0.178 C 
ATOM     21  C   UNL A   1      31.682  28.307  27.045  1.00  0.00     0.075 C 
BRANCH  20  22
ATOM     22  N   UNL A   1      33.852  27.910  26.001  1.00  0.00    -0.355 N 
ATOM     23  H   UNL A   1      34.670  28.187  26.545  1.00  0.00     0.344 HD
ATOM     24  H   UNL A   1      34.103  27.854  25.014  1.00  0.00     0.344 HD
ATOM     25  H   UNL A   1      33.524  26.999  26.321  1.00  0.00     0.344 HD
ENDBRANCH  20  22
ENDBRANCH  19  20
ENDBRANCH  18  19
ENDBRANCH  13  18
ENDBRANCH   8  12
ENDBRANCH   5   7
ENDBRANCH   4   5
ENDBRANCH   3   4
ENDBRANCH   2   3
ENDBRANCH   1   2
BRANCH   1  26
ATOM     26  C   UNL A   1      40.731  20.063  26.540  1.00  0.00     0.188 C 
BRANCH  26  27
ATOM     27  C   UNL A   1      41.847  19.043  26.243  1.00  0.00     0.188 C 
BRANCH  27  28
ATOM     28  O   UNL A   1      42.682  19.186  25.114  1.00  0.00    -0.376 OA
BRANCH  28  29
ATOM     29  C   UNL A   1      44.098  19.115  25.169  1.00  0.00     0.202 C 
BRANCH  29  30
ATOM     30  C   UNL A   1      45.071  19.777  24.196  1.00  0.00     0.261 C 
BRANCH  30  31
ATOM     31  O   UNL A   1      44.725  21.072  23.759  1.00  0.00    -0.460 OA
BRANCH  31  32
ATOM     32  C   UNL A   1      45.449  22.037  24.360  1.00  0.00     0.338 C 
ATOM     33  O   UNL A   1      46.634  22.279  24.203  1.00  0.00    -0.246 OA
BRANCH  32  34
ATOM     34  C   UNL A   1      44.603  22.733  25.325  1.00  0.00     0.060 A 
ATOM     35  C   UNL A   1      43.655  23.602  24.786  1.00  0.00     0.016 A 
ATOM     36  C   UNL A   1      45.004  22.787  26.668  1.00  0.00     0.016 A 
ATOM     37  C   UNL A   1      43.312  24.706  25.524  1.00  0.00     0.010 A 
ATOM     38  C   UNL A   1      44.668  23.896  27.401  1.00  0.00     0.010 A 
ATOM     39  C   UNL A   1      43.917  24.885  26.775  1.00  0.00    -0.014 A 
BRANCH  39  40
ATOM     40  C   UNL A   1      43.714  26.162  27.417  1.00  0.00     0.031 A 
ATOM     41  C   UNL A   1      44.780  27.136  27.119  1.00  0.00     0.074 A 
ATOM     42  C   UNL A   1      42.628  26.414  28.169  1.00  0.00     0.049 A 
ATOM     43  N   UNL A   1      45.608  27.679  27.946  1.00  0.00    -0.248 NA
ATOM     44  C   UNL A   1      45.055  27.422  25.703  1.00  0.00     0.031 C 
ATOM     45  C   UNL A   1      41.408  25.615  28.307  1.00  0.00     0.029 A 
ATOM     46  N   UNL A   1      42.354  27.520  28.909  1.00  0.00    -0.354 N 
ATOM     47  C   UNL A   1      46.403  28.518  27.176  1.00  0.00     0.074 A 
ATOM     48  C   UNL A   1      46.131  28.201  25.799  1.00  0.00     0.031 C 
ATOM     49  C   UNL A   1      40.447  26.371  28.886  1.00  0.00     0.029 A 
ATOM     50  C   UNL A   1      41.022  27.650  29.268  1.00  0.00     0.049 A 
ATOM     51  H   UNL A   1      43.044  28.173  29.167  1.00  0.00     0.167 HD
ATOM     52  C   UNL A   1      47.033  29.583  27.734  1.00  0.00     0.037 A 
ATOM     53  C   UNL A   1      40.439  28.774  29.753  1.00  0.00     0.037 A 
ATOM     54  C   UNL A   1      47.196  29.414  29.154  1.00  0.00     0.049 A 
ATOM     55  C   UNL A   1      41.522  29.654  30.266  1.00  0.00     0.074 A 
ATOM     56  C   UNL A   1      47.848  28.488  29.946  1.00  0.00     0.029 A 
ATOM     57  N   UNL A   1      46.338  30.079  29.993  1.00  0.00    -0.354 N 
ATOM     58  N   UNL A   1      42.237  29.392  31.324  1.00  0.00    -0.248 NA
ATOM     59  C   UNL A   1      42.111  30.611  29.338  1.00  0.00     0.031 C 
ATOM     60  C   UNL A   1      47.016  28.323  31.091  1.00  0.00     0.029 A 
ATOM     61  C   UNL A   1      45.932  29.190  30.955  1.00  0.00     0.049 A 
ATOM     62  H   UNL A   1      46.062  31.021  29.918  1.00  0.00     0.167 HD
ATOM     63  C   UNL A   1      43.521  29.800  30.993  1.00  0.00     0.074 A 
ATOM     64  C   UNL A   1      43.364  30.624  29.799  1.00  0.00     0.031 C 
ATOM     65  C   UNL A   1      44.614  29.198  31.546  1.00  0.00     0.037 A 
BRANCH  52  66
ATOM     66  C   UNL A   1      47.131  30.923  27.051  1.00  0.00     0.064 A 
ATOM     67  C   UNL A   1      48.379  31.568  26.995  1.00  0.00     0.173 A 
ATOM     68  C   UNL A   1      46.013  31.727  26.734  1.00  0.00     0.173 A 
ATOM     69  F   UNL A   1      49.505  30.904  27.298  1.00  0.00    -0.203 F 
ATOM     70  C   UNL A   1      48.489  32.934  26.726  1.00  0.00     0.198 A 
ATOM     71  C   UNL A   1      46.131  33.076  26.411  1.00  0.00     0.198 A 
ATOM     72  F   UNL A   1      44.754  31.282  26.836  1.00  0.00    -0.203 F 
ATOM     73  F   UNL A   1      49.683  33.533  26.816  1.00  0.00    -0.200 F 
ATOM     74  C   UNL A   1      47.365  33.688  26.441  1.00  0.00     0.200 A 
ATOM     75  F   UNL A   1      45.026  33.791  26.157  1.00  0.00    -0.200 F 
ATOM     76  F   UNL A   1      47.460  35.009  26.249  1.00  0.00    -0.200 F 
ENDBRANCH  52  66
BRANCH  53  77
ATOM     77  C   UNL A   1      39.070  29.275  29.484  1.00  0.00     0.064 A 
ATOM     78  C   UNL A   1      38.632  29.508  28.172  1.00  0.00     0.173 A 
ATOM     79  C   UNL A   1      38.076  29.272  30.484  1.00  0.00     0.173 A 
ATOM     80  F   UNL A   1      39.506  29.480  27.154  1.00  0.00    -0.203 F 
ATOM     81  C   UNL A   1      37.279  29.703  27.873  1.00  0.00     0.198 A 
ATOM     82  C   UNL A   1      36.729  29.476  30.186  1.00  0.00     0.198 A 
ATOM     83  F   UNL A   1      38.376  28.974  31.755  1.00  0.00    -0.203 F 
ATOM     84  F   UNL A   1      36.891  29.858  26.599  1.00  0.00    -0.200 F 
ATOM     85  C   UNL A   1      36.327  29.677  28.879  1.00  0.00     0.200 A 
ATOM     86  F   UNL A   1      35.816  29.412  31.166  1.00  0.00    -0.200 F 
ATOM     87  F   UNL A   1      35.026  29.804  28.587  1.00  0.00    -0.200 F 
ENDBRANCH  53  77
BRANCH  65  88
ATOM     88  C   UNL A   1      44.389  28.281  32.715  1.00  0.00     0.064 A 
ATOM     89  C   UNL A   1      44.045  26.922  32.592  1.00  0.00     0.173 A 
ATOM     90  C   UNL A   1      44.666  28.761  34.001  1.00  0.00     0.173 A 
ATOM     91  F   UNL A   1      43.867  26.362  31.389  1.00  0.00    -0.203 F 
ATOM     92  C   UNL A   1      43.936  26.102  33.713  1.00  0.00     0.198 A 
ATOM     93  C   UNL A   1      44.594  27.930  35.115  1.00  0.00     0.198 A 
ATOM     94  F   UNL A   1      45.054  30.035  34.173  1.00  0.00    -0.203 F 
ATOM     95  F   UNL A   1      43.591  24.813  33.572  1.00  0.00    -0.200 F 
ATOM     96  C   UNL A   1      44.218  26.604  34.972  1.00  0.00     0.200 A 
ATOM     97  F   UNL A   1      44.916  28.408  36.324  1.00  0.00    -0.200 F 
ATOM     98  F   UNL A   1      44.153  25.805  36.047  1.00  0.00    -0.200 F 
ENDBRANCH  65  88
ENDBRANCH  39  40
ENDBRANCH  32  34
ENDBRANCH  31  32
ENDBRANCH  30  31
ENDBRANCH  29  30
ENDBRANCH  28  29
ENDBRANCH  27  28
ENDBRANCH  26  27
ENDBRANCH   1  26
TORSDOF 22
ENDMDL
MODEL 3
REMARK VINA RESULT:      -9.9      3.249      9.459
REMARK SMILES C[C@@H]([NH3+])CCC(=O)N1CC(n2cc(C(=O)OCCOCCOCCOC(=O)c3ccc(-c4c5nc(c(-c6c(F)c(F)c(F)c(F)c6F)c6ccc([nH]6)c(-c6c(F)c(F)c(F)c(F)c6F)c6nc(c(-c7c(F)c(F)c(F)c(F)c7F)c7ccc4[nH]7)C=C6)C=C5)cc3)nn2)C1
REMARK SMILES IDX 19 1 18 2 17 3 16 4 14 5 15 6 13 7 11 8 12 9 92 10 91 11
REMARK SMILES IDX 10 12 6 13 7 14 8 15 9 16 93 17 5 18 4 19 2 20 1 21 3 22
REMARK SMILES IDX 20 26 21 27 22 28 23 29 24 30 25 31 26 32 27 33 28 34 29 35
REMARK SMILES IDX 90 36 30 37 89 38 31 39 32 40 33 41 83 42 34 43 88 44 82 45
REMARK SMILES IDX 84 46 35 47 87 48 81 49 80 50 36 52 68 53 48 54 67 55 49 56
REMARK SMILES IDX 52 57 66 58 85 59 50 60 51 61 65 63 86 64 53 65 37 66 38 67
REMARK SMILES IDX 46 68 39 69 40 70 44 71 47 72 41 73 42 74 45 75 43 76 69 77
REMARK SMILES IDX 70 78 78 79 71 80 72 81 76 82 79 83 73 84 74 85 77 86 75 87
REMARK SMILES IDX 54 88 55 89 63 90 56 91 57 92 61 93 64 94 58 95 59 96 62 97
REMARK SMILES IDX 60 98
REMARK H PARENT 3 23 3 24 3 25 84 51 52 62
REMARK Flexibility Score: inf
ROOT
ATOM      1  O   UNL A   1      31.591  31.136  25.700  1.00  0.00    -0.376 OA
ENDROOT
BRANCH   1   2
ATOM      2  C   UNL A   1      31.735  29.727  25.730  1.00  0.00     0.202 C 
BRANCH   2   3
ATOM      3  C   UNL A   1      31.428  28.773  24.555  1.00  0.00     0.261 C 
BRANCH   3   4
ATOM      4  O   UNL A   1      31.593  27.373  24.795  1.00  0.00    -0.458 OA
BRANCH   4   5
ATOM      5  C   UNL A   1      30.510  26.588  24.495  1.00  0.00     0.360 C 
ATOM      6  O   UNL A   1      29.469  27.011  24.023  1.00  0.00    -0.244 OA
BRANCH   5   7
ATOM      7  C   UNL A   1      30.781  25.167  24.683  1.00  0.00     0.190 A 
ATOM      8  N   UNL A   1      31.354  23.079  24.527  1.00  0.00    -0.245 N 
ATOM      9  C   UNL A   1      31.338  24.249  23.814  1.00  0.00     0.147 A 
ATOM     10  N   UNL A   1      30.783  23.239  25.729  1.00  0.00    -0.066 NA
ATOM     11  N   UNL A   1      30.432  24.512  25.840  1.00  0.00    -0.123 NA
BRANCH   8  12
ATOM     12  C   UNL A   1      32.116  21.927  24.143  1.00  0.00     0.148 C 
ATOM     13  C   UNL A   1      34.755  20.129  24.882  1.00  0.00     0.222 C 
ATOM     14  O   UNL A   1      34.499  19.004  24.455  1.00  0.00    -0.275 OA
ATOM     15  N   UNL A   1      33.778  21.075  25.079  1.00  0.00    -0.338 N 
ATOM     16  C   UNL A   1      32.328  20.833  25.187  1.00  0.00     0.148 C 
ATOM     17  C   UNL A   1      33.595  22.268  24.266  1.00  0.00     0.148 C 
BRANCH  13  18
ATOM     18  C   UNL A   1      36.148  20.484  25.400  1.00  0.00     0.106 C 
BRANCH  18  19
ATOM     19  C   UNL A   1      37.071  21.370  24.556  1.00  0.00     0.074 C 
BRANCH  19  20
ATOM     20  C   UNL A   1      36.906  22.895  24.663  1.00  0.00     0.178 C 
ATOM     21  C   UNL A   1      37.859  23.579  25.638  1.00  0.00     0.075 C 
BRANCH  20  22
ATOM     22  N   UNL A   1      37.034  23.518  23.343  1.00  0.00    -0.355 N 
ATOM     23  H   UNL A   1      36.484  24.376  23.316  1.00  0.00     0.344 HD
ATOM     24  H   UNL A   1      36.693  22.874  22.629  1.00  0.00     0.344 HD
ATOM     25  H   UNL A   1      38.014  23.737  23.163  1.00  0.00     0.344 HD
ENDBRANCH  20  22
ENDBRANCH  19  20
ENDBRANCH  18  19
ENDBRANCH  13  18
ENDBRANCH   8  12
ENDBRANCH   5   7
ENDBRANCH   4   5
ENDBRANCH   3   4
ENDBRANCH   2   3
ENDBRANCH   1   2
BRANCH   1  26
ATOM     26  C   UNL A   1      31.346  31.877  26.874  1.00  0.00     0.188 C 
BRANCH  26  27
ATOM     27  C   UNL A   1      32.198  33.119  27.200  1.00  0.00     0.188 C 
BRANCH  27  28
ATOM     28  O   UNL A   1      33.417  33.002  27.900  1.00  0.00    -0.376 OA
BRANCH  28  29
ATOM     29  C   UNL A   1      33.810  33.875  28.947  1.00  0.00     0.202 C 
BRANCH  29  30
ATOM     30  C   UNL A   1      34.654  33.499  30.164  1.00  0.00     0.261 C 
BRANCH  30  31
ATOM     31  O   UNL A   1      34.672  32.132  30.508  1.00  0.00    -0.460 OA
BRANCH  31  32
ATOM     32  C   UNL A   1      35.731  31.799  31.273  1.00  0.00     0.338 C 
ATOM     33  O   UNL A   1      35.900  32.057  32.453  1.00  0.00    -0.246 OA
BRANCH  32  34
ATOM     34  C   UNL A   1      36.727  31.130  30.440  1.00  0.00     0.060 A 
ATOM     35  C   UNL A   1      36.541  29.760  30.255  1.00  0.00     0.016 A 
ATOM     36  C   UNL A   1      37.950  31.770  30.194  1.00  0.00     0.016 A 
ATOM     37  C   UNL A   1      37.659  28.984  30.091  1.00  0.00     0.010 A 
ATOM     38  C   UNL A   1      39.068  30.991  30.038  1.00  0.00     0.010 A 
ATOM     39  C   UNL A   1      38.913  29.610  30.099  1.00  0.00    -0.014 A 
BRANCH  39  40
ATOM     40  C   UNL A   1      40.069  28.748  30.156  1.00  0.00     0.031 A 
ATOM     41  C   UNL A   1      40.603  28.586  31.522  1.00  0.00     0.074 A 
ATOM     42  C   UNL A   1      40.555  28.139  29.061  1.00  0.00     0.049 A 
ATOM     43  N   UNL A   1      41.760  28.944  31.965  1.00  0.00    -0.248 NA
ATOM     44  C   UNL A   1      39.674  28.106  32.556  1.00  0.00     0.031 C 
ATOM     45  C   UNL A   1      39.949  28.030  27.732  1.00  0.00     0.029 A 
ATOM     46  N   UNL A   1      41.682  27.390  28.945  1.00  0.00    -0.354 N 
ATOM     47  C   UNL A   1      41.774  28.572  33.303  1.00  0.00     0.074 A 
ATOM     48  C   UNL A   1      40.424  28.215  33.651  1.00  0.00     0.031 C 
ATOM     49  C   UNL A   1      40.596  27.072  27.028  1.00  0.00     0.029 A 
ATOM     50  C   UNL A   1      41.727  26.599  27.808  1.00  0.00     0.049 A 
ATOM     51  H   UNL A   1      42.406  27.406  29.613  1.00  0.00     0.167 HD
ATOM     52  C   UNL A   1      42.947  28.342  33.948  1.00  0.00     0.037 A 
ATOM     53  C   UNL A   1      42.585  25.571  27.592  1.00  0.00     0.037 A 
ATOM     54  C   UNL A   1      44.045  29.004  33.293  1.00  0.00     0.049 A 
ATOM     55  C   UNL A   1      43.729  25.738  28.526  1.00  0.00     0.074 A 
ATOM     56  C   UNL A   1      44.345  30.323  33.008  1.00  0.00     0.029 A 
ATOM     57  N   UNL A   1      44.878  28.255  32.500  1.00  0.00    -0.354 N 
ATOM     58  N   UNL A   1      44.615  26.690  28.433  1.00  0.00    -0.248 NA
ATOM     59  C   UNL A   1      43.630  25.106  29.835  1.00  0.00     0.031 C 
ATOM     60  C   UNL A   1      44.988  30.293  31.736  1.00  0.00     0.029 A 
ATOM     61  C   UNL A   1      45.085  28.959  31.341  1.00  0.00     0.049 A 
ATOM     62  H   UNL A   1      45.257  27.374  32.720  1.00  0.00     0.167 HD
ATOM     63  C   UNL A   1      44.870  27.065  29.744  1.00  0.00     0.074 A 
ATOM     64  C   UNL A   1      44.308  25.997  30.564  1.00  0.00     0.031 C 
ATOM     65  C   UNL A   1      45.255  28.339  30.048  1.00  0.00     0.037 A 
BRANCH  52  66
ATOM     66  C   UNL A   1      43.136  27.208  34.921  1.00  0.00     0.064 A 
ATOM     67  C   UNL A   1      43.437  27.505  36.262  1.00  0.00     0.173 A 
ATOM     68  C   UNL A   1      43.339  25.865  34.531  1.00  0.00     0.173 A 
ATOM     69  F   UNL A   1      43.301  28.754  36.732  1.00  0.00    -0.203 F 
ATOM     70  C   UNL A   1      43.982  26.548  37.122  1.00  0.00     0.198 A 
ATOM     71  C   UNL A   1      43.829  24.900  35.408  1.00  0.00     0.198 A 
ATOM     72  F   UNL A   1      43.187  25.451  33.268  1.00  0.00    -0.203 F 
ATOM     73  F   UNL A   1      44.380  26.910  38.348  1.00  0.00    -0.200 F 
ATOM     74  C   UNL A   1      44.184  25.249  36.692  1.00  0.00     0.200 A 
ATOM     75  F   UNL A   1      44.034  23.652  34.964  1.00  0.00    -0.200 F 
ATOM     76  F   UNL A   1      44.768  24.349  37.492  1.00  0.00    -0.200 F 
ENDBRANCH  52  66
BRANCH  53  77
ATOM     77  C   UNL A   1      42.310  24.292  26.894  1.00  0.00     0.064 A 
ATOM     78  C   UNL A   1      43.250  23.735  26.012  1.00  0.00     0.173 A 
ATOM     79  C   UNL A   1      41.247  23.454  27.285  1.00  0.00     0.173 A 
ATOM     80  F   UNL A   1      44.319  24.449  25.627  1.00  0.00    -0.203 F 
ATOM     81  C   UNL A   1      43.146  22.413  25.568  1.00  0.00     0.198 A 
ATOM     82  C   UNL A   1      41.139  22.139  26.834  1.00  0.00     0.198 A 
ATOM     83  F   UNL A   1      40.345  23.858  28.190  1.00  0.00    -0.203 F 
ATOM     84  F   UNL A   1      44.097  21.896  24.777  1.00  0.00    -0.200 F 
ATOM     85  C   UNL A   1      42.096  21.613  25.986  1.00  0.00     0.200 A 
ATOM     86  F   UNL A   1      40.137  21.365  27.277  1.00  0.00    -0.200 F 
ATOM     87  F   UNL A   1      42.028  20.329  25.610  1.00  0.00    -0.200 F 
ENDBRANCH  53  77
BRANCH  65  88
ATOM     88  C   UNL A   1      45.657  29.236  28.912  1.00  0.00     0.064 A 
ATOM     89  C   UNL A   1      44.749  29.998  28.154  1.00  0.00     0.173 A 
ATOM     90  C   UNL A   1      47.022  29.437  28.673  1.00  0.00     0.173 A 
ATOM     91  F   UNL A   1      43.433  29.941  28.393  1.00  0.00    -0.203 F 
ATOM     92  C   UNL A   1      45.192  30.879  27.170  1.00  0.00     0.198 A 
ATOM     93  C   UNL A   1      47.463  30.346  27.717  1.00  0.00     0.198 A 
ATOM     94  F   UNL A   1      47.936  28.779  29.406  1.00  0.00    -0.203 F 
ATOM     95  F   UNL A   1      44.306  31.583  26.448  1.00  0.00    -0.200 F 
ATOM     96  C   UNL A   1      46.549  31.058  26.958  1.00  0.00     0.200 A 
ATOM     97  F   UNL A   1      48.776  30.553  27.550  1.00  0.00    -0.200 F 
ATOM     98  F   UNL A   1      46.977  31.937  26.040  1.00  0.00    -0.200 F 
ENDBRANCH  65  88
ENDBRANCH  39  40
ENDBRANCH  32  34
ENDBRANCH  31  32
ENDBRANCH  30  31
ENDBRANCH  29  30
ENDBRANCH  28  29
ENDBRANCH  27  28
ENDBRANCH  26  27
ENDBRANCH   1  26
TORSDOF 22
ENDMDL
