MODEL 1
REMARK VINA RESULT:     -12.1      0.000      0.000
REMARK SMILES Cc1cc(F)cc(N[C@H](C(=O)OCCOCCOCCOC(=O)c2ccc(-c3c4nc(c(-c5c(F)c(F)c(F)c(F)c5F)c5ccc([nH]5)c(-c5c(F)c(F)c(F)c(F)c5F)c5nc(c(-c6c(F)c(F)c(F)c(F)c6F)c6ccc3[nH]6)C=C5)C=C4)cc2)c2cc(C)cc(C)c2)c1
REMARK SMILES IDX 16 1 15 2 14 3 13 4 12 5 10 6 11 7 9 8 8 9 7 11 1 12 2 13
REMARK SMILES IDX 3 14 95 15 4 16 5 17 6 18 87 19 88 20 94 21 89 22 92 23
REMARK SMILES IDX 90 24 91 25 93 26 17 27 18 28 19 29 20 30 21 31 22 32 23 33
REMARK SMILES IDX 24 34 25 35 86 36 26 37 85 38 27 39 28 40 29 41 79 42 30 43
REMARK SMILES IDX 84 44 78 45 80 46 31 47 83 48 77 49 76 50 32 52 64 53 44 54
REMARK SMILES IDX 63 55 45 56 48 57 62 58 81 59 46 60 47 61 61 63 82 64 49 65
REMARK SMILES IDX 33 66 34 67 42 68 35 69 36 70 40 71 43 72 37 73 38 74 41 75
REMARK SMILES IDX 39 76 65 77 66 78 74 79 67 80 68 81 72 82 75 83 69 84 70 85
REMARK SMILES IDX 73 86 71 87 50 88 51 89 59 90 52 91 53 92 57 93 60 94 54 95
REMARK SMILES IDX 55 96 58 97 56 98
REMARK H PARENT 8 10 80 51 48 62
REMARK Flexibility Score: inf
ROOT
ATOM      1  C   UNL A   1      34.101  31.997  27.614  1.00  0.00     0.188 C 
ENDROOT
BRANCH   1   2
ATOM      2  O   UNL A   1      33.322  30.830  27.488  1.00  0.00    -0.376 OA
BRANCH   2   3
ATOM      3  C   UNL A   1      33.917  29.567  27.232  1.00  0.00     0.202 C 
BRANCH   3   4
ATOM      4  C   UNL A   1      33.957  28.867  25.853  1.00  0.00     0.261 C 
BRANCH   4   5
ATOM      5  O   UNL A   1      33.067  29.335  24.842  1.00  0.00    -0.461 OA
BRANCH   5   6
ATOM      6  C   UNL A   1      33.196  28.731  23.625  1.00  0.00     0.333 C 
ATOM      7  O   UNL A   1      34.100  29.002  22.843  1.00  0.00    -0.249 OA
BRANCH   6   8
ATOM      8  C   UNL A   1      32.182  27.553  23.503  1.00  0.00     0.221 C 
BRANCH   8   9
ATOM      9  N   UNL A   1      31.180  27.761  22.434  1.00  0.00    -0.369 N 
ATOM     10  H   UNL A   1      31.373  27.346  21.563  1.00  0.00     0.161 HD
BRANCH   9  11
ATOM     11  C   UNL A   1      29.998  28.474  22.530  1.00  0.00     0.038 A 
ATOM     12  C   UNL A   1      28.786  32.048  21.852  1.00  0.00     0.044 C 
ATOM     13  C   UNL A   1      28.808  30.610  22.271  1.00  0.00    -0.046 A 
ATOM     14  C   UNL A   1      27.654  30.044  22.812  1.00  0.00     0.042 A 
ATOM     15  C   UNL A   1      29.976  29.828  22.159  1.00  0.00     0.029 A 
ATOM     16  C   UNL A   1      27.670  28.717  23.190  1.00  0.00     0.125 A 
ATOM     17  F   UNL A   1      26.570  28.157  23.711  1.00  0.00    -0.207 F 
ATOM     18  C   UNL A   1      28.812  27.946  23.035  1.00  0.00     0.065 A 
ENDBRANCH   9  11
ENDBRANCH   8   9
BRANCH   8  19
ATOM     19  C   UNL A   1      32.797  26.161  23.483  1.00  0.00    -0.014 A 
ATOM     20  C   UNL A   1      33.636  25.739  24.519  1.00  0.00     0.010 A 
ATOM     21  C   UNL A   1      32.589  25.281  22.408  1.00  0.00     0.010 A 
ATOM     22  C   UNL A   1      34.402  24.584  24.428  1.00  0.00    -0.051 A 
ATOM     23  C   UNL A   1      33.248  24.041  22.365  1.00  0.00    -0.051 A 
ATOM     24  C   UNL A   1      35.513  24.405  25.416  1.00  0.00     0.044 C 
ATOM     25  C   UNL A   1      34.198  23.729  23.349  1.00  0.00     0.006 A 
ATOM     26  C   UNL A   1      32.999  23.064  21.254  1.00  0.00     0.044 C 
ENDBRANCH   8  19
ENDBRANCH   6   8
ENDBRANCH   5   6
ENDBRANCH   4   5
ENDBRANCH   3   4
ENDBRANCH   2   3
ENDBRANCH   1   2
BRANCH   1  27
ATOM     27  C   UNL A   1      33.491  33.292  28.196  1.00  0.00     0.188 C 
BRANCH  27  28
ATOM     28  O   UNL A   1      34.423  34.279  28.575  1.00  0.00    -0.376 OA
BRANCH  28  29
ATOM     29  C   UNL A   1      35.753  33.964  28.967  1.00  0.00     0.202 C 
BRANCH  29  30
ATOM     30  C   UNL A   1      36.152  33.234  30.254  1.00  0.00     0.261 C 
BRANCH  30  31
ATOM     31  O   UNL A   1      36.296  31.833  30.110  1.00  0.00    -0.460 OA
BRANCH  31  32
ATOM     32  C   UNL A   1      37.454  31.491  29.543  1.00  0.00     0.338 C 
ATOM     33  O   UNL A   1      38.536  32.098  29.584  1.00  0.00    -0.246 OA
BRANCH  32  34
ATOM     34  C   UNL A   1      37.334  30.196  28.881  1.00  0.00     0.060 A 
ATOM     35  C   UNL A   1      37.188  29.128  29.793  1.00  0.00     0.016 A 
ATOM     36  C   UNL A   1      38.128  30.129  27.745  1.00  0.00     0.016 A 
ATOM     37  C   UNL A   1      38.180  28.195  29.842  1.00  0.00     0.010 A 
ATOM     38  C   UNL A   1      39.148  29.229  27.818  1.00  0.00     0.010 A 
ATOM     39  C   UNL A   1      39.216  28.389  28.944  1.00  0.00    -0.014 A 
BRANCH  39  40
ATOM     40  C   UNL A   1      40.528  27.892  29.227  1.00  0.00     0.031 A 
ATOM     41  C   UNL A   1      40.835  26.553  28.762  1.00  0.00     0.074 A 
ATOM     42  C   UNL A   1      41.409  28.754  29.774  1.00  0.00     0.049 A 
ATOM     43  N   UNL A   1      41.804  25.847  29.209  1.00  0.00    -0.248 NA
ATOM     44  C   UNL A   1      39.988  25.855  27.803  1.00  0.00     0.031 C 
ATOM     45  C   UNL A   1      42.858  28.664  29.787  1.00  0.00     0.029 A 
ATOM     46  N   UNL A   1      41.109  29.842  30.609  1.00  0.00    -0.354 N 
ATOM     47  C   UNL A   1      41.945  24.796  28.339  1.00  0.00     0.074 A 
ATOM     48  C   UNL A   1      40.708  24.750  27.601  1.00  0.00     0.031 C 
ATOM     49  C   UNL A   1      43.333  29.474  30.748  1.00  0.00     0.029 A 
ATOM     50  C   UNL A   1      42.189  29.962  31.502  1.00  0.00     0.049 A 
ATOM     51  H   UNL A   1      40.304  30.407  30.576  1.00  0.00     0.167 HD
ATOM     52  C   UNL A   1      43.189  24.253  28.221  1.00  0.00     0.037 A 
ATOM     53  C   UNL A   1      41.996  29.713  32.831  1.00  0.00     0.037 A 
ATOM     54  C   UNL A   1      44.099  24.860  29.204  1.00  0.00     0.049 A 
ATOM     55  C   UNL A   1      42.768  28.509  33.332  1.00  0.00     0.074 A 
ATOM     56  C   UNL A   1      45.087  25.830  29.115  1.00  0.00     0.029 A 
ATOM     57  N   UNL A   1      43.792  24.758  30.560  1.00  0.00    -0.354 N 
ATOM     58  N   UNL A   1      43.204  27.530  32.585  1.00  0.00    -0.248 NA
ATOM     59  C   UNL A   1      43.122  28.338  34.731  1.00  0.00     0.031 C 
ATOM     60  C   UNL A   1      45.396  26.278  30.430  1.00  0.00     0.029 A 
ATOM     61  C   UNL A   1      44.599  25.581  31.322  1.00  0.00     0.049 A 
ATOM     62  H   UNL A   1      43.091  24.173  30.928  1.00  0.00     0.167 HD
ATOM     63  C   UNL A   1      43.923  26.634  33.348  1.00  0.00     0.074 A 
ATOM     64  C   UNL A   1      43.821  27.191  34.687  1.00  0.00     0.031 C 
ATOM     65  C   UNL A   1      44.531  25.535  32.782  1.00  0.00     0.037 A 
BRANCH  52  66
ATOM     66  C   UNL A   1      43.641  23.461  27.012  1.00  0.00     0.064 A 
ATOM     67  C   UNL A   1      43.213  22.129  26.830  1.00  0.00     0.173 A 
ATOM     68  C   UNL A   1      44.543  23.918  26.030  1.00  0.00     0.173 A 
ATOM     69  F   UNL A   1      42.271  21.583  27.608  1.00  0.00    -0.203 F 
ATOM     70  C   UNL A   1      43.735  21.298  25.834  1.00  0.00     0.198 A 
ATOM     71  C   UNL A   1      45.104  23.076  25.064  1.00  0.00     0.198 A 
ATOM     72  F   UNL A   1      44.867  25.209  25.916  1.00  0.00    -0.203 F 
ATOM     73  F   UNL A   1      43.294  20.037  25.725  1.00  0.00    -0.200 F 
ATOM     74  C   UNL A   1      44.707  21.761  24.973  1.00  0.00     0.200 A 
ATOM     75  F   UNL A   1      46.026  23.559  24.218  1.00  0.00    -0.200 F 
ATOM     76  F   UNL A   1      45.231  20.957  24.039  1.00  0.00    -0.200 F 
ENDBRANCH  52  66
BRANCH  53  77
ATOM     77  C   UNL A   1      40.672  30.175  33.333  1.00  0.00     0.064 A 
ATOM     78  C   UNL A   1      40.495  31.551  33.593  1.00  0.00     0.173 A 
ATOM     79  C   UNL A   1      39.516  29.395  33.209  1.00  0.00     0.173 A 
ATOM     80  F   UNL A   1      41.569  32.346  33.733  1.00  0.00    -0.203 F 
ATOM     81  C   UNL A   1      39.228  32.133  33.628  1.00  0.00     0.198 A 
ATOM     82  C   UNL A   1      38.247  29.983  33.241  1.00  0.00     0.198 A 
ATOM     83  F   UNL A   1      39.608  28.080  32.961  1.00  0.00    -0.203 F 
ATOM     84  F   UNL A   1      39.101  33.457  33.803  1.00  0.00    -0.200 F 
ATOM     85  C   UNL A   1      38.105  31.351  33.422  1.00  0.00     0.200 A 
ATOM     86  F   UNL A   1      37.156  29.231  33.026  1.00  0.00    -0.200 F 
ATOM     87  F   UNL A   1      36.888  31.915  33.369  1.00  0.00    -0.200 F 
ENDBRANCH  53  77
BRANCH  65  88
ATOM     88  C   UNL A   1      45.194  24.321  33.453  1.00  0.00     0.064 A 
ATOM     89  C   UNL A   1      44.576  23.103  33.767  1.00  0.00     0.173 A 
ATOM     90  C   UNL A   1      46.584  24.352  33.787  1.00  0.00     0.173 A 
ATOM     91  F   UNL A   1      43.285  22.877  33.535  1.00  0.00    -0.203 F 
ATOM     92  C   UNL A   1      45.266  22.025  34.344  1.00  0.00     0.198 A 
ATOM     93  C   UNL A   1      47.275  23.271  34.336  1.00  0.00     0.198 A 
ATOM     94  F   UNL A   1      47.354  25.428  33.586  1.00  0.00    -0.203 F 
ATOM     95  F   UNL A   1      44.601  20.895  34.624  1.00  0.00    -0.200 F 
ATOM     96  C   UNL A   1      46.614  22.104  34.618  1.00  0.00     0.200 A 
ATOM     97  F   UNL A   1      48.591  23.377  34.573  1.00  0.00    -0.200 F 
ATOM     98  F   UNL A   1      47.269  21.064  35.149  1.00  0.00    -0.200 F 
ENDBRANCH  65  88
ENDBRANCH  39  40
ENDBRANCH  32  34
ENDBRANCH  31  32
ENDBRANCH  30  31
ENDBRANCH  29  30
ENDBRANCH  28  29
ENDBRANCH  27  28
ENDBRANCH   1  27
TORSDOF 20
ENDMDL
MODEL 2
REMARK VINA RESULT:     -12.0      1.140      3.398
REMARK SMILES Cc1cc(F)cc(N[C@H](C(=O)OCCOCCOCCOC(=O)c2ccc(-c3c4nc(c(-c5c(F)c(F)c(F)c(F)c5F)c5ccc([nH]5)c(-c5c(F)c(F)c(F)c(F)c5F)c5nc(c(-c6c(F)c(F)c(F)c(F)c6F)c6ccc3[nH]6)C=C5)C=C4)cc2)c2cc(C)cc(C)c2)c1
REMARK SMILES IDX 16 1 15 2 14 3 13 4 12 5 10 6 11 7 9 8 8 9 7 11 1 12 2 13
REMARK SMILES IDX 3 14 95 15 4 16 5 17 6 18 87 19 88 20 94 21 89 22 92 23
REMARK SMILES IDX 90 24 91 25 93 26 17 27 18 28 19 29 20 30 21 31 22 32 23 33
REMARK SMILES IDX 24 34 25 35 86 36 26 37 85 38 27 39 28 40 29 41 79 42 30 43
REMARK SMILES IDX 84 44 78 45 80 46 31 47 83 48 77 49 76 50 32 52 64 53 44 54
REMARK SMILES IDX 63 55 45 56 48 57 62 58 81 59 46 60 47 61 61 63 82 64 49 65
REMARK SMILES IDX 33 66 34 67 42 68 35 69 36 70 40 71 43 72 37 73 38 74 41 75
REMARK SMILES IDX 39 76 65 77 66 78 74 79 67 80 68 81 72 82 75 83 69 84 70 85
REMARK SMILES IDX 73 86 71 87 50 88 51 89 59 90 52 91 53 92 57 93 60 94 54 95
REMARK SMILES IDX 55 96 58 97 56 98
REMARK H PARENT 8 10 80 51 48 62
REMARK Flexibility Score: inf
ROOT
ATOM      1  C   UNL A   1      33.756  32.649  27.903  1.00  0.00     0.188 C 
ENDROOT
BRANCH   1   2
ATOM      2  O   UNL A   1      34.253  31.500  27.258  1.00  0.00    -0.376 OA
BRANCH   2   3
ATOM      3  C   UNL A   1      33.440  30.353  27.058  1.00  0.00     0.202 C 
BRANCH   3   4
ATOM      4  C   UNL A   1      33.535  29.398  25.846  1.00  0.00     0.261 C 
BRANCH   4   5
ATOM      5  O   UNL A   1      32.372  29.227  25.038  1.00  0.00    -0.461 OA
BRANCH   5   6
ATOM      6  C   UNL A   1      32.610  28.946  23.724  1.00  0.00     0.333 C 
ATOM      7  O   UNL A   1      33.622  29.317  23.140  1.00  0.00    -0.249 OA
BRANCH   6   8
ATOM      8  C   UNL A   1      31.540  27.947  23.189  1.00  0.00     0.221 C 
BRANCH   8   9
ATOM      9  N   UNL A   1      31.477  26.691  23.970  1.00  0.00    -0.369 N 
ATOM     10  H   UNL A   1      30.743  26.614  24.620  1.00  0.00     0.161 HD
BRANCH   9  11
ATOM     11  C   UNL A   1      32.341  25.614  23.881  1.00  0.00     0.038 A 
ATOM     12  C   UNL A   1      32.257  22.021  22.543  1.00  0.00     0.044 C 
ATOM     13  C   UNL A   1      32.726  23.283  23.200  1.00  0.00    -0.046 A 
ATOM     14  C   UNL A   1      34.001  23.318  23.767  1.00  0.00     0.042 A 
ATOM     15  C   UNL A   1      31.900  24.421  23.285  1.00  0.00     0.029 A 
ATOM     16  C   UNL A   1      34.439  24.482  24.364  1.00  0.00     0.125 A 
ATOM     17  F   UNL A   1      35.660  24.534  24.913  1.00  0.00    -0.207 F 
ATOM     18  C   UNL A   1      33.632  25.609  24.403  1.00  0.00     0.065 A 
ENDBRANCH   9  11
ENDBRANCH   8   9
BRANCH   8  19
ATOM     19  C   UNL A   1      30.169  28.546  22.910  1.00  0.00    -0.014 A 
ATOM     20  C   UNL A   1      30.049  29.752  22.212  1.00  0.00     0.010 A 
ATOM     21  C   UNL A   1      28.993  27.944  23.386  1.00  0.00     0.010 A 
ATOM     22  C   UNL A   1      28.850  30.451  22.143  1.00  0.00    -0.051 A 
ATOM     23  C   UNL A   1      27.748  28.569  23.203  1.00  0.00    -0.051 A 
ATOM     24  C   UNL A   1      28.901  31.876  21.685  1.00  0.00     0.044 C 
ATOM     25  C   UNL A   1      27.695  29.850  22.633  1.00  0.00     0.006 A 
ATOM     26  C   UNL A   1      26.475  27.917  23.656  1.00  0.00     0.044 C 
ENDBRANCH   8  19
ENDBRANCH   6   8
ENDBRANCH   5   6
ENDBRANCH   4   5
ENDBRANCH   3   4
ENDBRANCH   2   3
ENDBRANCH   1   2
BRANCH   1  27
ATOM     27  C   UNL A   1      34.540  33.981  27.856  1.00  0.00     0.188 C 
BRANCH  27  28
ATOM     28  O   UNL A   1      34.893  34.516  29.111  1.00  0.00    -0.376 OA
BRANCH  28  29
ATOM     29  C   UNL A   1      34.978  33.719  30.285  1.00  0.00     0.202 C 
BRANCH  29  30
ATOM     30  C   UNL A   1      36.258  33.086  30.840  1.00  0.00     0.261 C 
BRANCH  30  31
ATOM     31  O   UNL A   1      36.417  31.716  30.524  1.00  0.00    -0.460 OA
BRANCH  31  32
ATOM     32  C   UNL A   1      37.315  31.511  29.560  1.00  0.00     0.338 C 
ATOM     33  O   UNL A   1      38.213  32.275  29.175  1.00  0.00    -0.246 OA
BRANCH  32  34
ATOM     34  C   UNL A   1      37.176  30.166  29.011  1.00  0.00     0.060 A 
ATOM     35  C   UNL A   1      37.111  29.171  30.013  1.00  0.00     0.016 A 
ATOM     36  C   UNL A   1      37.893  30.019  27.833  1.00  0.00     0.016 A 
ATOM     37  C   UNL A   1      38.122  28.258  30.066  1.00  0.00     0.010 A 
ATOM     38  C   UNL A   1      38.933  29.142  27.906  1.00  0.00     0.010 A 
ATOM     39  C   UNL A   1      39.091  28.394  29.088  1.00  0.00    -0.014 A 
BRANCH  39  40
ATOM     40  C   UNL A   1      40.429  27.940  29.319  1.00  0.00     0.031 A 
ATOM     41  C   UNL A   1      40.759  26.610  28.844  1.00  0.00     0.074 A 
ATOM     42  C   UNL A   1      41.303  28.831  29.829  1.00  0.00     0.049 A 
ATOM     43  N   UNL A   1      41.766  25.936  29.253  1.00  0.00    -0.248 NA
ATOM     44  C   UNL A   1      39.897  25.883  27.920  1.00  0.00     0.031 C 
ATOM     45  C   UNL A   1      42.754  28.785  29.784  1.00  0.00     0.029 A 
ATOM     46  N   UNL A   1      41.003  29.910  30.674  1.00  0.00    -0.354 N 
ATOM     47  C   UNL A   1      41.906  24.888  28.379  1.00  0.00     0.074 A 
ATOM     48  C   UNL A   1      40.642  24.801  27.691  1.00  0.00     0.031 C 
ATOM     49  C   UNL A   1      43.241  29.612  30.725  1.00  0.00     0.029 A 
ATOM     50  C   UNL A   1      42.113  30.066  31.523  1.00  0.00     0.049 A 
ATOM     51  H   UNL A   1      40.180  30.450  30.673  1.00  0.00     0.167 HD
ATOM     52  C   UNL A   1      43.160  24.383  28.212  1.00  0.00     0.037 A 
ATOM     53  C   UNL A   1      41.982  29.815  32.859  1.00  0.00     0.037 A 
ATOM     54  C   UNL A   1      44.089  25.021  29.157  1.00  0.00     0.049 A 
ATOM     55  C   UNL A   1      42.811  28.637  33.331  1.00  0.00     0.074 A 
ATOM     56  C   UNL A   1      45.042  26.021  29.028  1.00  0.00     0.029 A 
ATOM     57  N   UNL A   1      43.840  24.913  30.524  1.00  0.00    -0.354 N 
ATOM     58  N   UNL A   1      43.246  27.670  32.568  1.00  0.00    -0.248 NA
ATOM     59  C   UNL A   1      43.225  28.481  34.714  1.00  0.00     0.031 C 
ATOM     60  C   UNL A   1      45.389  26.481  30.329  1.00  0.00     0.029 A 
ATOM     61  C   UNL A   1      44.651  25.762  31.252  1.00  0.00     0.049 A 
ATOM     62  H   UNL A   1      43.173  24.307  30.921  1.00  0.00     0.167 HD
ATOM     63  C   UNL A   1      44.023  26.799  33.303  1.00  0.00     0.074 A 
ATOM     64  C   UNL A   1      43.958  27.356  34.644  1.00  0.00     0.031 C 
ATOM     65  C   UNL A   1      44.642  25.718  32.714  1.00  0.00     0.037 A 
BRANCH  52  66
ATOM     66  C   UNL A   1      43.588  23.602  26.986  1.00  0.00     0.064 A 
ATOM     67  C   UNL A   1      43.181  22.263  26.815  1.00  0.00     0.173 A 
ATOM     68  C   UNL A   1      44.449  24.079  25.977  1.00  0.00     0.173 A 
ATOM     69  F   UNL A   1      42.274  21.697  27.621  1.00  0.00    -0.203 F 
ATOM     70  C   UNL A   1      43.686  21.445  25.801  1.00  0.00     0.198 A 
ATOM     71  C   UNL A   1      44.995  23.250  24.992  1.00  0.00     0.198 A 
ATOM     72  F   UNL A   1      44.744  25.376  25.857  1.00  0.00    -0.203 F 
ATOM     73  F   UNL A   1      43.266  20.175  25.702  1.00  0.00    -0.200 F 
ATOM     74  C   UNL A   1      44.620  21.928  24.910  1.00  0.00     0.200 A 
ATOM     75  F   UNL A   1      45.880  23.752  24.118  1.00  0.00    -0.200 F 
ATOM     76  F   UNL A   1      45.130  21.136  23.957  1.00  0.00    -0.200 F 
ENDBRANCH  52  66
BRANCH  53  77
ATOM     77  C   UNL A   1      40.665  30.237  33.413  1.00  0.00     0.064 A 
ATOM     78  C   UNL A   1      40.462  31.604  33.695  1.00  0.00     0.173 A 
ATOM     79  C   UNL A   1      39.526  29.428  33.320  1.00  0.00     0.173 A 
ATOM     80  F   UNL A   1      41.519  32.426  33.806  1.00  0.00    -0.203 F 
ATOM     81  C   UNL A   1      39.183  32.153  33.782  1.00  0.00     0.198 A 
ATOM     82  C   UNL A   1      38.245  29.982  33.405  1.00  0.00     0.198 A 
ATOM     83  F   UNL A   1      39.643  28.119  33.054  1.00  0.00    -0.203 F 
ATOM     84  F   UNL A   1      39.027  33.471  33.976  1.00  0.00    -0.200 F 
ATOM     85  C   UNL A   1      38.073  31.344  33.606  1.00  0.00     0.200 A 
ATOM     86  F   UNL A   1      37.166  29.204  33.219  1.00  0.00    -0.200 F 
ATOM     87  F   UNL A   1      36.841  31.876  33.603  1.00  0.00    -0.200 F 
ENDBRANCH  53  77
BRANCH  65  88
ATOM     88  C   UNL A   1      45.369  24.527  33.359  1.00  0.00     0.064 A 
ATOM     89  C   UNL A   1      46.720  24.478  33.730  1.00  0.00     0.173 A 
ATOM     90  C   UNL A   1      44.654  23.329  33.672  1.00  0.00     0.173 A 
ATOM     91  F   UNL A   1      47.555  25.494  33.521  1.00  0.00    -0.203 F 
ATOM     92  C   UNL A   1      47.299  23.361  34.354  1.00  0.00     0.198 A 
ATOM     93  C   UNL A   1      45.224  22.230  34.317  1.00  0.00     0.198 A 
ATOM     94  F   UNL A   1      43.358  23.162  33.384  1.00  0.00    -0.203 F 
ATOM     95  F   UNL A   1      48.602  23.389  34.669  1.00  0.00    -0.200 F 
ATOM     96  C   UNL A   1      46.551  22.244  34.656  1.00  0.00     0.200 A 
ATOM     97  F   UNL A   1      44.462  21.166  34.612  1.00  0.00    -0.200 F 
ATOM     98  F   UNL A   1      47.106  21.192  35.271  1.00  0.00    -0.200 F 
ENDBRANCH  65  88
ENDBRANCH  39  40
ENDBRANCH  32  34
ENDBRANCH  31  32
ENDBRANCH  30  31
ENDBRANCH  29  30
ENDBRANCH  28  29
ENDBRANCH  27  28
ENDBRANCH   1  27
TORSDOF 20
ENDMDL
MODEL 3
REMARK VINA RESULT:     -11.9      4.365     10.343
REMARK SMILES Cc1cc(F)cc(N[C@H](C(=O)OCCOCCOCCOC(=O)c2ccc(-c3c4nc(c(-c5c(F)c(F)c(F)c(F)c5F)c5ccc([nH]5)c(-c5c(F)c(F)c(F)c(F)c5F)c5nc(c(-c6c(F)c(F)c(F)c(F)c6F)c6ccc3[nH]6)C=C5)C=C4)cc2)c2cc(C)cc(C)c2)c1
REMARK SMILES IDX 16 1 15 2 14 3 13 4 12 5 10 6 11 7 9 8 8 9 7 11 1 12 2 13
REMARK SMILES IDX 3 14 95 15 4 16 5 17 6 18 87 19 88 20 94 21 89 22 92 23
REMARK SMILES IDX 90 24 91 25 93 26 17 27 18 28 19 29 20 30 21 31 22 32 23 33
REMARK SMILES IDX 24 34 25 35 86 36 26 37 85 38 27 39 28 40 29 41 79 42 30 43
REMARK SMILES IDX 84 44 78 45 80 46 31 47 83 48 77 49 76 50 32 52 64 53 44 54
REMARK SMILES IDX 63 55 45 56 48 57 62 58 81 59 46 60 47 61 61 63 82 64 49 65
REMARK SMILES IDX 33 66 34 67 42 68 35 69 36 70 40 71 43 72 37 73 38 74 41 75
REMARK SMILES IDX 39 76 65 77 66 78 74 79 67 80 68 81 72 82 75 83 69 84 70 85
REMARK SMILES IDX 73 86 71 87 50 88 51 89 59 90 52 91 53 92 57 93 60 94 54 95
REMARK SMILES IDX 55 96 58 97 56 98
REMARK H PARENT 8 10 80 51 48 62
REMARK Flexibility Score: inf
ROOT
ATOM      1  C   UNL A   1      40.412  20.309  26.468  1.00  0.00     0.188 C 
ENDROOT
BRANCH   1   2
ATOM      2  O   UNL A   1      39.890  21.465  25.855  1.00  0.00    -0.376 OA
BRANCH   2   3
ATOM      3  C   UNL A   1      38.564  21.905  26.109  1.00  0.00     0.202 C 
BRANCH   3   4
ATOM      4  C   UNL A   1      37.965  23.245  25.624  1.00  0.00     0.261 C 
BRANCH   4   5
ATOM      5  O   UNL A   1      36.610  23.533  25.965  1.00  0.00    -0.461 OA
BRANCH   5   6
ATOM      6  C   UNL A   1      35.689  23.218  25.010  1.00  0.00     0.333 C 
ATOM      7  O   UNL A   1      35.984  23.059  23.831  1.00  0.00    -0.249 OA
BRANCH   6   8
ATOM      8  C   UNL A   1      34.315  22.903  25.676  1.00  0.00     0.221 C 
BRANCH   8   9
ATOM      9  N   UNL A   1      33.514  24.116  25.954  1.00  0.00    -0.369 N 
ATOM     10  H   UNL A   1      32.853  24.050  26.679  1.00  0.00     0.161 HD
BRANCH   9  11
ATOM     11  C   UNL A   1      33.600  25.335  25.304  1.00  0.00     0.038 A 
ATOM     12  C   UNL A   1      33.943  29.034  26.256  1.00  0.00     0.044 C 
ATOM     13  C   UNL A   1      33.783  27.782  25.448  1.00  0.00    -0.046 A 
ATOM     14  C   UNL A   1      33.657  27.883  24.062  1.00  0.00     0.042 A 
ATOM     15  C   UNL A   1      33.728  26.513  26.058  1.00  0.00     0.029 A 
ATOM     16  C   UNL A   1      33.519  26.732  23.315  1.00  0.00     0.125 A 
ATOM     17  F   UNL A   1      33.397  26.809  21.983  1.00  0.00    -0.207 F 
ATOM     18  C   UNL A   1      33.509  25.485  23.923  1.00  0.00     0.065 A 
ENDBRANCH   9  11
ENDBRANCH   8   9
BRANCH   8  19
ATOM     19  C   UNL A   1      33.508  21.794  25.015  1.00  0.00    -0.014 A 
ATOM     20  C   UNL A   1      33.268  20.592  25.689  1.00  0.00     0.010 A 
ATOM     21  C   UNL A   1      33.028  21.916  23.701  1.00  0.00     0.010 A 
ATOM     22  C   UNL A   1      32.750  19.474  25.046  1.00  0.00    -0.051 A 
ATOM     23  C   UNL A   1      32.374  20.841  23.078  1.00  0.00    -0.051 A 
ATOM     24  C   UNL A   1      32.857  18.156  25.749  1.00  0.00     0.044 C 
ATOM     25  C   UNL A   1      32.293  19.606  23.739  1.00  0.00     0.006 A 
ATOM     26  C   UNL A   1      31.807  20.969  21.695  1.00  0.00     0.044 C 
ENDBRANCH   8  19
ENDBRANCH   6   8
ENDBRANCH   5   6
ENDBRANCH   4   5
ENDBRANCH   3   4
ENDBRANCH   2   3
ENDBRANCH   1   2
BRANCH   1  27
ATOM     27  C   UNL A   1      41.883  19.893  26.242  1.00  0.00     0.188 C 
BRANCH  27  28
ATOM     28  O   UNL A   1      42.641  20.770  25.440  1.00  0.00    -0.376 OA
BRANCH  28  29
ATOM     29  C   UNL A   1      43.441  21.808  25.991  1.00  0.00     0.202 C 
BRANCH  29  30
ATOM     30  C   UNL A   1      42.984  23.250  26.235  1.00  0.00     0.261 C 
BRANCH  30  31
ATOM     31  O   UNL A   1      41.806  23.365  27.011  1.00  0.00    -0.460 OA
BRANCH  31  32
ATOM     32  C   UNL A   1      41.745  24.514  27.686  1.00  0.00     0.338 C 
ATOM     33  O   UNL A   1      42.609  25.016  28.422  1.00  0.00    -0.246 OA
BRANCH  32  34
ATOM     34  C   UNL A   1      40.499  25.213  27.392  1.00  0.00     0.060 A 
ATOM     35  C   UNL A   1      40.661  26.238  26.433  1.00  0.00     0.016 A 
ATOM     36  C   UNL A   1      39.707  25.341  28.523  1.00  0.00     0.016 A 
ATOM     37  C   UNL A   1      40.437  27.522  26.834  1.00  0.00     0.010 A 
ATOM     38  C   UNL A   1      39.527  26.624  28.947  1.00  0.00     0.010 A 
ATOM     39  C   UNL A   1      40.031  27.666  28.150  1.00  0.00    -0.014 A 
BRANCH  39  40
ATOM     40  C   UNL A   1      40.301  28.876  28.867  1.00  0.00     0.031 A 
ATOM     41  C   UNL A   1      39.253  29.879  28.874  1.00  0.00     0.074 A 
ATOM     42  C   UNL A   1      41.440  28.925  29.586  1.00  0.00     0.049 A 
ATOM     43  N   UNL A   1      39.446  31.109  29.164  1.00  0.00    -0.248 NA
ATOM     44  C   UNL A   1      37.892  29.578  28.448  1.00  0.00     0.031 C 
ATOM     45  C   UNL A   1      41.762  29.812  30.689  1.00  0.00     0.029 A 
ATOM     46  N   UNL A   1      42.637  28.247  29.309  1.00  0.00    -0.354 N 
ATOM     47  C   UNL A   1      38.202  31.659  29.347  1.00  0.00     0.074 A 
ATOM     48  C   UNL A   1      37.287  30.733  28.729  1.00  0.00     0.031 C 
ATOM     49  C   UNL A   1      43.095  29.821  30.861  1.00  0.00     0.029 A 
ATOM     50  C   UNL A   1      43.677  29.085  29.750  1.00  0.00     0.049 A 
ATOM     51  H   UNL A   1      42.730  27.362  28.889  1.00  0.00     0.167 HD
ATOM     52  C   UNL A   1      38.114  32.721  30.196  1.00  0.00     0.037 A 
ATOM     53  C   UNL A   1      44.529  29.640  28.838  1.00  0.00     0.037 A 
ATOM     54  C   UNL A   1      39.458  33.134  30.629  1.00  0.00     0.049 A 
ATOM     55  C   UNL A   1      44.432  31.151  28.771  1.00  0.00     0.074 A 
ATOM     56  C   UNL A   1      40.186  32.935  31.793  1.00  0.00     0.029 A 
ATOM     57  N   UNL A   1      40.386  33.524  29.665  1.00  0.00    -0.354 N 
ATOM     58  N   UNL A   1      43.399  31.857  29.148  1.00  0.00    -0.248 NA
ATOM     59  C   UNL A   1      45.520  31.980  28.282  1.00  0.00     0.031 C 
ATOM     60  C   UNL A   1      41.549  33.247  31.527  1.00  0.00     0.029 A 
ATOM     61  C   UNL A   1      41.652  33.639  30.204  1.00  0.00     0.049 A 
ATOM     62  H   UNL A   1      40.166  33.698  28.721  1.00  0.00     0.167 HD
ATOM     63  C   UNL A   1      43.669  33.203  29.015  1.00  0.00     0.074 A 
ATOM     64  C   UNL A   1      45.010  33.212  28.453  1.00  0.00     0.031 C 
ATOM     65  C   UNL A   1      42.754  34.159  29.395  1.00  0.00     0.037 A 
BRANCH  52  66
ATOM     66  C   UNL A   1      36.829  33.130  30.887  1.00  0.00     0.064 A 
ATOM     67  C   UNL A   1      35.841  33.854  30.187  1.00  0.00     0.173 A 
ATOM     68  C   UNL A   1      36.529  32.907  32.246  1.00  0.00     0.173 A 
ATOM     69  F   UNL A   1      35.920  34.048  28.865  1.00  0.00    -0.203 F 
ATOM     70  C   UNL A   1      34.723  34.407  30.817  1.00  0.00     0.198 A 
ATOM     71  C   UNL A   1      35.438  33.502  32.889  1.00  0.00     0.198 A 
ATOM     72  F   UNL A   1      37.233  32.053  32.993  1.00  0.00    -0.203 F 
ATOM     73  F   UNL A   1      33.828  35.095  30.093  1.00  0.00    -0.200 F 
ATOM     74  C   UNL A   1      34.539  34.261  32.174  1.00  0.00     0.200 A 
ATOM     75  F   UNL A   1      35.265  33.320  34.206  1.00  0.00    -0.200 F 
ATOM     76  F   UNL A   1      33.485  34.818  32.785  1.00  0.00    -0.200 F 
ENDBRANCH  52  66
BRANCH  53  77
ATOM     77  C   UNL A   1      44.853  28.732  27.702  1.00  0.00     0.064 A 
ATOM     78  C   UNL A   1      45.796  27.704  27.913  1.00  0.00     0.173 A 
ATOM     79  C   UNL A   1      44.020  28.616  26.583  1.00  0.00     0.173 A 
ATOM     80  F   UNL A   1      46.628  27.768  28.966  1.00  0.00    -0.203 F 
ATOM     81  C   UNL A   1      45.837  26.570  27.102  1.00  0.00     0.198 A 
ATOM     82  C   UNL A   1      44.062  27.477  25.773  1.00  0.00     0.198 A 
ATOM     83  F   UNL A   1      43.100  29.556  26.321  1.00  0.00    -0.203 F 
ATOM     84  F   UNL A   1      46.696  25.577  27.376  1.00  0.00    -0.200 F 
ATOM     85  C   UNL A   1      44.948  26.445  26.048  1.00  0.00     0.200 A 
ATOM     86  F   UNL A   1      43.192  27.343  24.760  1.00  0.00    -0.200 F 
ATOM     87  F   UNL A   1      44.922  25.321  25.314  1.00  0.00    -0.200 F 
ENDBRANCH  53  77
BRANCH  65  88
ATOM     88  C   UNL A   1      42.757  35.678  29.153  1.00  0.00     0.064 A 
ATOM     89  C   UNL A   1      42.065  36.360  28.143  1.00  0.00     0.173 A 
ATOM     90  C   UNL A   1      43.488  36.545  30.024  1.00  0.00     0.173 A 
ATOM     91  F   UNL A   1      41.329  35.731  27.231  1.00  0.00    -0.203 F 
ATOM     92  C   UNL A   1      42.089  37.759  28.016  1.00  0.00     0.198 A 
ATOM     93  C   UNL A   1      43.488  37.936  29.912  1.00  0.00     0.198 A 
ATOM     94  F   UNL A   1      44.230  36.094  31.041  1.00  0.00    -0.203 F 
ATOM     95  F   UNL A   1      41.407  38.337  27.016  1.00  0.00    -0.200 F 
ATOM     96  C   UNL A   1      42.789  38.546  28.904  1.00  0.00     0.200 A 
ATOM     97  F   UNL A   1      44.167  38.672  30.805  1.00  0.00    -0.200 F 
ATOM     98  F   UNL A   1      42.789  39.880  28.787  1.00  0.00    -0.200 F 
ENDBRANCH  65  88
ENDBRANCH  39  40
ENDBRANCH  32  34
ENDBRANCH  31  32
ENDBRANCH  30  31
ENDBRANCH  29  30
ENDBRANCH  28  29
ENDBRANCH  27  28
ENDBRANCH   1  27
TORSDOF 20
ENDMDL
