MODEL 1
REMARK VINA RESULT:     -11.0      0.000      0.000
REMARK SMILES C[C@@H](C(=O)OCCOCCOCCOC(=O)c1ccc(-c2c3nc(c(-c4c(F)c(F)c(F)c(F)c4F)c4ccc([nH]4)c(-c4c(F)c(F)c(F)c(F)c4F)c4nc(c(-c5c(F)c(F)c(F)c(F)c5F)c5ccc2[nH]5)C=C4)C=C3)cc1)c1ccc(C[C@H]2CCC[C@@H]2O)cc1Br
REMARK SMILES IDX 9 1 8 2 7 3 6 4 5 5 3 6 4 7 2 8 1 9 80 10 81 11 92 12 82 13
REMARK SMILES IDX 91 14 93 15 83 16 84 17 85 18 86 19 89 20 87 21 88 22 90 23
REMARK SMILES IDX 10 25 11 26 12 27 13 28 14 29 15 30 16 31 17 32 18 33 79 34
REMARK SMILES IDX 19 35 78 36 20 37 21 38 22 39 72 40 23 41 77 42 71 43 73 44
REMARK SMILES IDX 24 45 76 46 70 47 69 48 25 50 57 51 37 52 56 53 38 54 41 55
REMARK SMILES IDX 55 56 74 57 39 58 40 59 54 61 75 62 42 63 26 64 27 65 35 66
REMARK SMILES IDX 28 67 29 68 33 69 36 70 30 71 31 72 34 73 32 74 58 75 59 76
REMARK SMILES IDX 67 77 60 78 61 79 65 80 68 81 62 82 63 83 66 84 64 85 43 86
REMARK SMILES IDX 44 87 52 88 45 89 46 90 50 91 53 92 47 93 48 94 51 95 49 96
REMARK H PARENT 90 24 73 49 41 60
REMARK Flexibility Score: inf
ROOT
ATOM      1  C   UNL A   1      41.233  21.662  27.935  1.00  0.00     0.188 C 
ENDROOT
BRANCH   1   2
ATOM      2  O   UNL A   1      40.086  22.418  27.566  1.00  0.00    -0.376 OA
BRANCH   2   3
ATOM      3  C   UNL A   1      39.810  22.373  26.174  1.00  0.00     0.202 C 
BRANCH   3   4
ATOM      4  C   UNL A   1      38.467  21.724  25.815  1.00  0.00     0.261 C 
BRANCH   4   5
ATOM      5  O   UNL A   1      37.347  22.619  25.678  1.00  0.00    -0.463 OA
BRANCH   5   6
ATOM      6  C   UNL A   1      36.102  22.097  25.501  1.00  0.00     0.313 C 
ATOM      7  O   UNL A   1      35.534  21.410  26.340  1.00  0.00    -0.252 OA
BRANCH   6   8
ATOM      8  C   UNL A   1      35.577  22.338  24.077  1.00  0.00     0.127 C 
ATOM      9  C   UNL A   1      36.573  22.912  23.048  1.00  0.00     0.025 C 
BRANCH   8  10
ATOM     10  C   UNL A   1      34.238  23.070  23.940  1.00  0.00    -0.020 A 
ATOM     11  C   UNL A   1      34.287  24.426  23.557  1.00  0.00     0.006 A 
ATOM     12  C   UNL A   1      32.974  22.568  24.274  1.00  0.00     0.022 A 
ATOM     13  C   UNL A   1      33.143  25.235  23.552  1.00  0.00     0.004 A 
ATOM     14  C   UNL A   1      31.872  23.420  24.413  1.00  0.00     0.019 A 
ATOM     15  Br  UNL A   1      32.498  20.748  24.357  1.00  0.00    -0.050 Br
ATOM     16  C   UNL A   1      31.930  24.758  24.042  1.00  0.00    -0.047 A 
BRANCH  16  17
ATOM     17  C   UNL A   1      30.666  25.577  24.096  1.00  0.00     0.041 C 
BRANCH  17  18
ATOM     18  C   UNL A   1      30.679  26.847  24.950  1.00  0.00     0.022 C 
ATOM     19  C   UNL A   1      31.532  26.819  26.228  1.00  0.00     0.007 C 
ATOM     20  C   UNL A   1      31.125  28.107  24.211  1.00  0.00     0.117 C 
ATOM     21  C   UNL A   1      32.142  28.220  26.350  1.00  0.00     0.003 C 
ATOM     22  C   UNL A   1      31.393  29.083  25.343  1.00  0.00     0.032 C 
BRANCH  20  23
ATOM     23  O   UNL A   1      30.140  28.571  23.309  1.00  0.00    -0.393 OA
ATOM     24  H   UNL A   1      29.571  29.216  23.757  1.00  0.00     0.210 HD
ENDBRANCH  20  23
ENDBRANCH  17  18
ENDBRANCH  16  17
ENDBRANCH   8  10
ENDBRANCH   6   8
ENDBRANCH   5   6
ENDBRANCH   4   5
ENDBRANCH   3   4
ENDBRANCH   2   3
ENDBRANCH   1   2
BRANCH   1  25
ATOM     25  C   UNL A   1      42.148  21.396  26.743  1.00  0.00     0.188 C 
BRANCH  25  26
ATOM     26  O   UNL A   1      43.483  21.866  26.746  1.00  0.00    -0.376 OA
BRANCH  26  27
ATOM     27  C   UNL A   1      44.270  21.647  25.592  1.00  0.00     0.202 C 
BRANCH  27  28
ATOM     28  C   UNL A   1      44.004  22.530  24.365  1.00  0.00     0.261 C 
BRANCH  28  29
ATOM     29  O   UNL A   1      43.379  23.793  24.627  1.00  0.00    -0.460 OA
BRANCH  29  30
ATOM     30  C   UNL A   1      44.210  24.786  25.044  1.00  0.00     0.338 C 
ATOM     31  O   UNL A   1      45.319  25.032  24.640  1.00  0.00    -0.246 OA
BRANCH  30  32
ATOM     32  C   UNL A   1      43.465  25.623  26.028  1.00  0.00     0.060 A 
ATOM     33  C   UNL A   1      43.877  26.945  26.232  1.00  0.00     0.016 A 
ATOM     34  C   UNL A   1      42.367  25.118  26.734  1.00  0.00     0.016 A 
ATOM     35  C   UNL A   1      43.218  27.748  27.170  1.00  0.00     0.010 A 
ATOM     36  C   UNL A   1      41.715  25.917  27.680  1.00  0.00     0.010 A 
ATOM     37  C   UNL A   1      42.154  27.227  27.925  1.00  0.00    -0.014 A 
BRANCH  37  38
ATOM     38  C   UNL A   1      41.631  27.982  29.093  1.00  0.00     0.031 A 
ATOM     39  C   UNL A   1      42.361  27.870  30.401  1.00  0.00     0.074 A 
ATOM     40  C   UNL A   1      40.530  28.749  29.012  1.00  0.00     0.049 A 
ATOM     41  N   UNL A   1      42.105  28.445  31.549  1.00  0.00    -0.248 NA
ATOM     42  C   UNL A   1      43.527  26.974  30.419  1.00  0.00     0.031 C 
ATOM     43  C   UNL A   1      39.708  28.912  27.822  1.00  0.00     0.029 A 
ATOM     44  N   UNL A   1      39.916  29.541  29.953  1.00  0.00    -0.354 N 
ATOM     45  C   UNL A   1      43.076  27.982  32.424  1.00  0.00     0.074 A 
ATOM     46  C   UNL A   1      43.913  27.061  31.683  1.00  0.00     0.031 C 
ATOM     47  C   UNL A   1      38.727  29.794  28.079  1.00  0.00     0.029 A 
ATOM     48  C   UNL A   1      38.809  30.204  29.480  1.00  0.00     0.049 A 
ATOM     49  H   UNL A   1      40.239  29.625  30.879  1.00  0.00     0.167 HD
ATOM     50  C   UNL A   1      43.255  28.288  33.731  1.00  0.00     0.037 A 
ATOM     51  C   UNL A   1      37.949  31.028  30.112  1.00  0.00     0.037 A 
ATOM     52  C   UNL A   1      42.399  29.162  34.487  1.00  0.00     0.049 A 
ATOM     53  C   UNL A   1      38.140  31.315  31.582  1.00  0.00     0.074 A 
ATOM     54  C   UNL A   1      42.495  29.522  35.821  1.00  0.00     0.029 A 
ATOM     55  N   UNL A   1      41.275  29.798  33.981  1.00  0.00    -0.354 N 
ATOM     56  N   UNL A   1      39.090  30.911  32.389  1.00  0.00    -0.248 NA
ATOM     57  C   UNL A   1      37.126  32.160  32.231  1.00  0.00     0.031 C 
ATOM     58  C   UNL A   1      41.399  30.333  36.135  1.00  0.00     0.029 A 
ATOM     59  C   UNL A   1      40.654  30.529  34.982  1.00  0.00     0.049 A 
ATOM     60  H   UNL A   1      40.964  29.740  33.049  1.00  0.00     0.167 HD
ATOM     61  C   UNL A   1      38.799  31.463  33.631  1.00  0.00     0.074 A 
ATOM     62  C   UNL A   1      37.597  32.253  33.467  1.00  0.00     0.031 C 
ATOM     63  C   UNL A   1      39.463  31.320  34.805  1.00  0.00     0.037 A 
BRANCH  50  64
ATOM     64  C   UNL A   1      44.407  27.632  34.433  1.00  0.00     0.064 A 
ATOM     65  C   UNL A   1      44.276  26.371  35.036  1.00  0.00     0.173 A 
ATOM     66  C   UNL A   1      45.655  28.267  34.499  1.00  0.00     0.173 A 
ATOM     67  F   UNL A   1      43.097  25.732  35.015  1.00  0.00    -0.203 F 
ATOM     68  C   UNL A   1      45.346  25.786  35.706  1.00  0.00     0.198 A 
ATOM     69  C   UNL A   1      46.731  27.665  35.145  1.00  0.00     0.198 A 
ATOM     70  F   UNL A   1      45.831  29.473  33.938  1.00  0.00    -0.203 F 
ATOM     71  F   UNL A   1      45.184  24.606  36.322  1.00  0.00    -0.200 F 
ATOM     72  C   UNL A   1      46.573  26.430  35.756  1.00  0.00     0.200 A 
ATOM     73  F   UNL A   1      47.919  28.284  35.183  1.00  0.00    -0.200 F 
ATOM     74  F   UNL A   1      47.602  25.864  36.401  1.00  0.00    -0.200 F 
ENDBRANCH  50  64
BRANCH  51  75
ATOM     75  C   UNL A   1      36.803  31.631  29.375  1.00  0.00     0.064 A 
ATOM     76  C   UNL A   1      36.770  33.003  29.090  1.00  0.00     0.173 A 
ATOM     77  C   UNL A   1      35.701  30.858  28.979  1.00  0.00     0.173 A 
ATOM     78  F   UNL A   1      37.786  33.791  29.474  1.00  0.00    -0.203 F 
ATOM     79  C   UNL A   1      35.669  33.583  28.461  1.00  0.00     0.198 A 
ATOM     80  C   UNL A   1      34.616  31.433  28.319  1.00  0.00     0.198 A 
ATOM     81  F   UNL A   1      35.677  29.542  29.234  1.00  0.00    -0.203 F 
ATOM     82  F   UNL A   1      35.638  34.907  28.259  1.00  0.00    -0.200 F 
ATOM     83  C   UNL A   1      34.596  32.797  28.071  1.00  0.00     0.200 A 
ATOM     84  F   UNL A   1      33.587  30.667  27.937  1.00  0.00    -0.200 F 
ATOM     85  F   UNL A   1      33.536  33.355  27.470  1.00  0.00    -0.200 F 
ENDBRANCH  51  75
BRANCH  63  86
ATOM     86  C   UNL A   1      38.932  32.060  36.002  1.00  0.00     0.064 A 
ATOM     87  C   UNL A   1      38.114  31.435  36.954  1.00  0.00     0.173 A 
ATOM     88  C   UNL A   1      39.293  33.398  36.226  1.00  0.00     0.173 A 
ATOM     89  F   UNL A   1      37.728  30.161  36.782  1.00  0.00    -0.203 F 
ATOM     90  C   UNL A   1      37.658  32.128  38.074  1.00  0.00     0.198 A 
ATOM     91  C   UNL A   1      38.861  34.078  37.361  1.00  0.00     0.198 A 
ATOM     92  F   UNL A   1      40.079  34.041  35.350  1.00  0.00    -0.203 F 
ATOM     93  F   UNL A   1      36.841  31.524  38.947  1.00  0.00    -0.200 F 
ATOM     94  C   UNL A   1      38.039  33.446  38.280  1.00  0.00     0.200 A 
ATOM     95  F   UNL A   1      39.243  35.347  37.566  1.00  0.00    -0.200 F 
ATOM     96  F   UNL A   1      37.609  34.108  39.363  1.00  0.00    -0.200 F 
ENDBRANCH  63  86
ENDBRANCH  37  38
ENDBRANCH  30  32
ENDBRANCH  29  30
ENDBRANCH  28  29
ENDBRANCH  27  28
ENDBRANCH  26  27
ENDBRANCH  25  26
ENDBRANCH   1  25
TORSDOF 21
ENDMDL
MODEL 2
REMARK VINA RESULT:     -10.7      1.271      2.126
REMARK SMILES C[C@@H](C(=O)OCCOCCOCCOC(=O)c1ccc(-c2c3nc(c(-c4c(F)c(F)c(F)c(F)c4F)c4ccc([nH]4)c(-c4c(F)c(F)c(F)c(F)c4F)c4nc(c(-c5c(F)c(F)c(F)c(F)c5F)c5ccc2[nH]5)C=C4)C=C3)cc1)c1ccc(C[C@H]2CCC[C@@H]2O)cc1Br
REMARK SMILES IDX 9 1 8 2 7 3 6 4 5 5 3 6 4 7 2 8 1 9 80 10 81 11 92 12 82 13
REMARK SMILES IDX 91 14 93 15 83 16 84 17 85 18 86 19 89 20 87 21 88 22 90 23
REMARK SMILES IDX 10 25 11 26 12 27 13 28 14 29 15 30 16 31 17 32 18 33 79 34
REMARK SMILES IDX 19 35 78 36 20 37 21 38 22 39 72 40 23 41 77 42 71 43 73 44
REMARK SMILES IDX 24 45 76 46 70 47 69 48 25 50 57 51 37 52 56 53 38 54 41 55
REMARK SMILES IDX 55 56 74 57 39 58 40 59 54 61 75 62 42 63 26 64 27 65 35 66
REMARK SMILES IDX 28 67 29 68 33 69 36 70 30 71 31 72 34 73 32 74 58 75 59 76
REMARK SMILES IDX 67 77 60 78 61 79 65 80 68 81 62 82 63 83 66 84 64 85 43 86
REMARK SMILES IDX 44 87 52 88 45 89 46 90 50 91 53 92 47 93 48 94 51 95 49 96
REMARK H PARENT 90 24 73 49 41 60
REMARK Flexibility Score: inf
ROOT
ATOM      1  C   UNL A   1      38.747  21.985  25.794  1.00  0.00     0.188 C 
ENDROOT
BRANCH   1   2
ATOM      2  O   UNL A   1      37.839  21.497  24.815  1.00  0.00    -0.376 OA
BRANCH   2   3
ATOM      3  C   UNL A   1      36.814  20.678  25.359  1.00  0.00     0.202 C 
BRANCH   3   4
ATOM      4  C   UNL A   1      35.470  20.774  24.626  1.00  0.00     0.261 C 
BRANCH   4   5
ATOM      5  O   UNL A   1      34.443  21.542  25.282  1.00  0.00    -0.463 OA
BRANCH   5   6
ATOM      6  C   UNL A   1      33.622  22.325  24.530  1.00  0.00     0.313 C 
ATOM      7  O   UNL A   1      32.632  21.901  23.949  1.00  0.00    -0.252 OA
BRANCH   6   8
ATOM      8  C   UNL A   1      34.176  23.751  24.374  1.00  0.00     0.127 C 
ATOM      9  C   UNL A   1      35.314  24.171  25.326  1.00  0.00     0.025 C 
BRANCH   8  10
ATOM     10  C   UNL A   1      33.156  24.890  24.278  1.00  0.00    -0.020 A 
ATOM     11  C   UNL A   1      33.193  25.686  23.115  1.00  0.00     0.006 A 
ATOM     12  C   UNL A   1      32.270  25.304  25.281  1.00  0.00     0.022 A 
ATOM     13  C   UNL A   1      32.418  26.846  22.986  1.00  0.00     0.004 A 
ATOM     14  C   UNL A   1      31.620  26.541  25.204  1.00  0.00     0.019 A 
ATOM     15  Br  UNL A   1      31.641  24.241  26.703  1.00  0.00    -0.050 Br
ATOM     16  C   UNL A   1      31.668  27.324  24.057  1.00  0.00    -0.047 A 
BRANCH  16  17
ATOM     17  C   UNL A   1      30.834  28.578  24.004  1.00  0.00     0.041 C 
BRANCH  17  18
ATOM     18  C   UNL A   1      29.726  28.650  22.949  1.00  0.00     0.022 C 
ATOM     19  C   UNL A   1      28.293  28.360  23.424  1.00  0.00     0.007 C 
ATOM     20  C   UNL A   1      29.632  29.984  22.214  1.00  0.00     0.117 C 
ATOM     21  C   UNL A   1      27.396  29.322  22.637  1.00  0.00     0.003 C 
ATOM     22  C   UNL A   1      28.276  29.901  21.537  1.00  0.00     0.032 C 
BRANCH  20  23
ATOM     23  O   UNL A   1      30.693  30.162  21.296  1.00  0.00    -0.393 OA
ATOM     24  H   UNL A   1      30.344  30.519  20.465  1.00  0.00     0.210 HD
ENDBRANCH  20  23
ENDBRANCH  17  18
ENDBRANCH  16  17
ENDBRANCH   8  10
ENDBRANCH   6   8
ENDBRANCH   5   6
ENDBRANCH   4   5
ENDBRANCH   3   4
ENDBRANCH   2   3
ENDBRANCH   1   2
BRANCH   1  25
ATOM     25  C   UNL A   1      39.948  21.059  25.968  1.00  0.00     0.188 C 
BRANCH  25  26
ATOM     26  O   UNL A   1      41.031  21.440  26.796  1.00  0.00    -0.376 OA
BRANCH  26  27
ATOM     27  C   UNL A   1      42.304  20.887  26.525  1.00  0.00     0.202 C 
BRANCH  27  28
ATOM     28  C   UNL A   1      43.196  21.606  25.503  1.00  0.00     0.261 C 
BRANCH  28  29
ATOM     29  O   UNL A   1      42.660  22.812  24.945  1.00  0.00    -0.460 OA
BRANCH  29  30
ATOM     30  C   UNL A   1      43.478  23.899  24.995  1.00  0.00     0.338 C 
ATOM     31  O   UNL A   1      44.464  24.104  24.332  1.00  0.00    -0.246 OA
BRANCH  30  32
ATOM     32  C   UNL A   1      42.878  24.881  25.942  1.00  0.00     0.060 A 
ATOM     33  C   UNL A   1      43.537  26.098  26.152  1.00  0.00     0.016 A 
ATOM     34  C   UNL A   1      41.677  24.614  26.609  1.00  0.00     0.016 A 
ATOM     35  C   UNL A   1      43.016  27.030  27.057  1.00  0.00     0.010 A 
ATOM     36  C   UNL A   1      41.162  25.540  27.523  1.00  0.00     0.010 A 
ATOM     37  C   UNL A   1      41.843  26.741  27.774  1.00  0.00    -0.014 A 
BRANCH  37  38
ATOM     38  C   UNL A   1      41.438  27.602  28.916  1.00  0.00     0.031 A 
ATOM     39  C   UNL A   1      42.252  27.547  30.177  1.00  0.00     0.074 A 
ATOM     40  C   UNL A   1      40.369  28.416  28.852  1.00  0.00     0.049 A 
ATOM     41  N   UNL A   1      42.103  28.213  31.294  1.00  0.00    -0.248 NA
ATOM     42  C   UNL A   1      43.375  26.597  30.184  1.00  0.00     0.031 C 
ATOM     43  C   UNL A   1      39.474  28.535  27.710  1.00  0.00     0.029 A 
ATOM     44  N   UNL A   1      39.860  29.302  29.770  1.00  0.00    -0.354 N 
ATOM     45  C   UNL A   1      43.111  27.765  32.134  1.00  0.00     0.074 A 
ATOM     46  C   UNL A   1      43.852  26.754  31.409  1.00  0.00     0.031 C 
ATOM     47  C   UNL A   1      38.555  29.481  27.966  1.00  0.00     0.029 A 
ATOM     48  C   UNL A   1      38.754  29.985  29.324  1.00  0.00     0.049 A 
ATOM     49  H   UNL A   1      40.250  29.435  30.664  1.00  0.00     0.167 HD
ATOM     50  C   UNL A   1      43.395  28.154  33.400  1.00  0.00     0.037 A 
ATOM     51  C   UNL A   1      37.977  30.893  29.949  1.00  0.00     0.037 A 
ATOM     52  C   UNL A   1      42.635  29.122  34.144  1.00  0.00     0.049 A 
ATOM     53  C   UNL A   1      38.283  31.274  31.377  1.00  0.00     0.074 A 
ATOM     54  C   UNL A   1      42.839  29.570  35.438  1.00  0.00     0.029 A 
ATOM     55  N   UNL A   1      41.508  29.775  33.669  1.00  0.00    -0.354 N 
ATOM     56  N   UNL A   1      39.269  30.881  32.148  1.00  0.00    -0.248 NA
ATOM     57  C   UNL A   1      37.357  32.212  32.029  1.00  0.00     0.031 C 
ATOM     58  C   UNL A   1      41.806  30.454  35.764  1.00  0.00     0.029 A 
ATOM     59  C   UNL A   1      40.992  30.605  34.652  1.00  0.00     0.049 A 
ATOM     60  H   UNL A   1      41.130  29.667  32.766  1.00  0.00     0.167 HD
ATOM     61  C   UNL A   1      39.091  31.533  33.362  1.00  0.00     0.074 A 
ATOM     62  C   UNL A   1      37.917  32.369  33.220  1.00  0.00     0.031 C 
ATOM     63  C   UNL A   1      39.828  31.441  34.496  1.00  0.00     0.037 A 
BRANCH  50  64
ATOM     64  C   UNL A   1      44.562  27.492  34.070  1.00  0.00     0.064 A 
ATOM     65  C   UNL A   1      45.841  28.071  34.057  1.00  0.00     0.173 A 
ATOM     66  C   UNL A   1      44.401  26.269  34.736  1.00  0.00     0.173 A 
ATOM     67  F   UNL A   1      46.049  29.232  33.417  1.00  0.00    -0.203 F 
ATOM     68  C   UNL A   1      46.920  27.433  34.660  1.00  0.00     0.198 A 
ATOM     69  C   UNL A   1      45.477  25.648  35.363  1.00  0.00     0.198 A 
ATOM     70  F   UNL A   1      43.198  25.675  34.778  1.00  0.00    -0.203 F 
ATOM     71  F   UNL A   1      48.143  27.978  34.588  1.00  0.00    -0.200 F 
ATOM     72  C   UNL A   1      46.737  26.226  35.317  1.00  0.00     0.200 A 
ATOM     73  F   UNL A   1      45.297  24.487  36.007  1.00  0.00    -0.200 F 
ATOM     74  F   UNL A   1      47.778  25.613  35.897  1.00  0.00    -0.200 F 
ENDBRANCH  50  64
BRANCH  51  75
ATOM     75  C   UNL A   1      36.811  31.499  29.247  1.00  0.00     0.064 A 
ATOM     76  C   UNL A   1      36.806  32.856  28.896  1.00  0.00     0.173 A 
ATOM     77  C   UNL A   1      35.665  30.748  28.953  1.00  0.00     0.173 A 
ATOM     78  F   UNL A   1      37.867  33.626  29.182  1.00  0.00    -0.203 F 
ATOM     79  C   UNL A   1      35.690  33.443  28.300  1.00  0.00     0.198 A 
ATOM     80  C   UNL A   1      34.562  31.327  28.326  1.00  0.00     0.198 A 
ATOM     81  F   UNL A   1      35.613  29.447  29.275  1.00  0.00    -0.203 F 
ATOM     82  F   UNL A   1      35.689  34.756  28.033  1.00  0.00    -0.200 F 
ATOM     83  C   UNL A   1      34.572  32.677  28.011  1.00  0.00     0.200 A 
ATOM     84  F   UNL A   1      33.488  30.579  28.041  1.00  0.00    -0.200 F 
ATOM     85  F   UNL A   1      33.498  33.241  27.442  1.00  0.00    -0.200 F 
ENDBRANCH  51  75
BRANCH  63  86
ATOM     86  C   UNL A   1      39.416  32.289  35.668  1.00  0.00     0.064 A 
ATOM     87  C   UNL A   1      38.503  31.831  36.628  1.00  0.00     0.173 A 
ATOM     88  C   UNL A   1      39.986  33.558  35.860  1.00  0.00     0.173 A 
ATOM     89  F   UNL A   1      37.918  30.631  36.486  1.00  0.00    -0.203 F 
ATOM     90  C   UNL A   1      38.158  32.619  37.725  1.00  0.00     0.198 A 
ATOM     91  C   UNL A   1      39.663  34.330  36.972  1.00  0.00     0.198 A 
ATOM     92  F   UNL A   1      40.871  34.042  34.976  1.00  0.00    -0.203 F 
ATOM     93  F   UNL A   1      37.249  32.178  38.605  1.00  0.00    -0.200 F 
ATOM     94  C   UNL A   1      38.745  33.864  37.899  1.00  0.00     0.200 A 
ATOM     95  F   UNL A   1      40.243  35.526  37.148  1.00  0.00    -0.200 F 
ATOM     96  F   UNL A   1      38.420  34.615  38.960  1.00  0.00    -0.200 F 
ENDBRANCH  63  86
ENDBRANCH  37  38
ENDBRANCH  30  32
ENDBRANCH  29  30
ENDBRANCH  28  29
ENDBRANCH  27  28
ENDBRANCH  26  27
ENDBRANCH  25  26
ENDBRANCH   1  25
TORSDOF 21
ENDMDL
MODEL 3
REMARK VINA RESULT:     -10.6      4.876      7.395
REMARK SMILES C[C@@H](C(=O)OCCOCCOCCOC(=O)c1ccc(-c2c3nc(c(-c4c(F)c(F)c(F)c(F)c4F)c4ccc([nH]4)c(-c4c(F)c(F)c(F)c(F)c4F)c4nc(c(-c5c(F)c(F)c(F)c(F)c5F)c5ccc2[nH]5)C=C4)C=C3)cc1)c1ccc(C[C@H]2CCC[C@@H]2O)cc1Br
REMARK SMILES IDX 9 1 8 2 7 3 6 4 5 5 3 6 4 7 2 8 1 9 80 10 81 11 92 12 82 13
REMARK SMILES IDX 91 14 93 15 83 16 84 17 85 18 86 19 89 20 87 21 88 22 90 23
REMARK SMILES IDX 10 25 11 26 12 27 13 28 14 29 15 30 16 31 17 32 18 33 79 34
REMARK SMILES IDX 19 35 78 36 20 37 21 38 22 39 72 40 23 41 77 42 71 43 73 44
REMARK SMILES IDX 24 45 76 46 70 47 69 48 25 50 57 51 37 52 56 53 38 54 41 55
REMARK SMILES IDX 55 56 74 57 39 58 40 59 54 61 75 62 42 63 26 64 27 65 35 66
REMARK SMILES IDX 28 67 29 68 33 69 36 70 30 71 31 72 34 73 32 74 58 75 59 76
REMARK SMILES IDX 67 77 60 78 61 79 65 80 68 81 62 82 63 83 66 84 64 85 43 86
REMARK SMILES IDX 44 87 52 88 45 89 46 90 50 91 53 92 47 93 48 94 51 95 49 96
REMARK H PARENT 90 24 73 49 41 60
REMARK Flexibility Score: inf
ROOT
ATOM      1  C   UNL A   1      41.450  21.764  26.315  1.00  0.00     0.188 C 
ENDROOT
BRANCH   1   2
ATOM      2  O   UNL A   1      40.053  21.863  26.067  1.00  0.00    -0.376 OA
BRANCH   2   3
ATOM      3  C   UNL A   1      39.432  22.922  26.781  1.00  0.00     0.202 C 
BRANCH   3   4
ATOM      4  C   UNL A   1      38.229  23.549  26.064  1.00  0.00     0.261 C 
BRANCH   4   5
ATOM      5  O   UNL A   1      36.975  22.856  26.203  1.00  0.00    -0.463 OA
BRANCH   5   6
ATOM      6  C   UNL A   1      36.620  21.937  25.265  1.00  0.00     0.313 C 
ATOM      7  O   UNL A   1      37.108  20.816  25.200  1.00  0.00    -0.252 OA
BRANCH   6   8
ATOM      8  C   UNL A   1      35.665  22.529  24.215  1.00  0.00     0.127 C 
ATOM      9  C   UNL A   1      36.300  23.100  22.931  1.00  0.00     0.025 C 
BRANCH   8  10
ATOM     10  C   UNL A   1      34.590  23.499  24.716  1.00  0.00    -0.020 A 
ATOM     11  C   UNL A   1      34.612  24.806  24.191  1.00  0.00     0.006 A 
ATOM     12  C   UNL A   1      33.659  23.259  25.736  1.00  0.00     0.022 A 
ATOM     13  C   UNL A   1      33.780  25.819  24.687  1.00  0.00     0.004 A 
ATOM     14  C   UNL A   1      32.947  24.310  26.325  1.00  0.00     0.019 A 
ATOM     15  Br  UNL A   1      33.054  21.567  26.300  1.00  0.00    -0.050 Br
ATOM     16  C   UNL A   1      32.982  25.599  25.806  1.00  0.00    -0.047 A 
BRANCH  16  17
ATOM     17  C   UNL A   1      32.084  26.646  26.415  1.00  0.00     0.041 C 
BRANCH  17  18
ATOM     18  C   UNL A   1      30.908  27.148  25.574  1.00  0.00     0.022 C 
ATOM     19  C   UNL A   1      31.210  28.238  24.534  1.00  0.00     0.007 C 
ATOM     20  C   UNL A   1      30.170  26.060  24.797  1.00  0.00     0.117 C 
ATOM     21  C   UNL A   1      30.327  27.912  23.324  1.00  0.00     0.003 C 
ATOM     22  C   UNL A   1      29.339  26.858  23.809  1.00  0.00     0.032 C 
BRANCH  20  23
ATOM     23  O   UNL A   1      29.383  25.244  25.642  1.00  0.00    -0.393 OA
ATOM     24  H   UNL A   1      29.572  24.311  25.456  1.00  0.00     0.210 HD
ENDBRANCH  20  23
ENDBRANCH  17  18
ENDBRANCH  16  17
ENDBRANCH   8  10
ENDBRANCH   6   8
ENDBRANCH   5   6
ENDBRANCH   4   5
ENDBRANCH   3   4
ENDBRANCH   2   3
ENDBRANCH   1   2
BRANCH   1  25
ATOM     25  C   UNL A   1      41.753  20.869  27.514  1.00  0.00     0.188 C 
BRANCH  25  26
ATOM     26  O   UNL A   1      42.288  19.573  27.323  1.00  0.00    -0.376 OA
BRANCH  26  27
ATOM     27  C   UNL A   1      42.252  19.023  26.021  1.00  0.00     0.202 C 
BRANCH  27  28
ATOM     28  C   UNL A   1      43.576  18.544  25.408  1.00  0.00     0.261 C 
BRANCH  28  29
ATOM     29  O   UNL A   1      43.945  19.151  24.164  1.00  0.00    -0.460 OA
BRANCH  29  30
ATOM     30  C   UNL A   1      45.171  19.743  24.137  1.00  0.00     0.338 C 
ATOM     31  O   UNL A   1      46.181  19.314  23.638  1.00  0.00    -0.246 OA
BRANCH  30  32
ATOM     32  C   UNL A   1      45.037  21.101  24.737  1.00  0.00     0.060 A 
ATOM     33  C   UNL A   1      44.643  22.162  23.913  1.00  0.00     0.016 A 
ATOM     34  C   UNL A   1      45.285  21.328  26.096  1.00  0.00     0.016 A 
ATOM     35  C   UNL A   1      44.535  23.455  24.438  1.00  0.00     0.010 A 
ATOM     36  C   UNL A   1      45.190  22.623  26.618  1.00  0.00     0.010 A 
ATOM     37  C   UNL A   1      44.843  23.699  25.787  1.00  0.00    -0.014 A 
BRANCH  37  38
ATOM     38  C   UNL A   1      44.985  25.094  26.277  1.00  0.00     0.031 A 
ATOM     39  C   UNL A   1      46.333  25.752  26.181  1.00  0.00     0.074 A 
ATOM     40  C   UNL A   1      43.952  25.776  26.803  1.00  0.00     0.049 A 
ATOM     41  N   UNL A   1      46.696  26.960  26.527  1.00  0.00    -0.248 NA
ATOM     42  C   UNL A   1      47.421  24.924  25.638  1.00  0.00     0.031 C 
ATOM     43  C   UNL A   1      42.609  25.246  26.992  1.00  0.00     0.029 A 
ATOM     44  N   UNL A   1      43.872  27.065  27.272  1.00  0.00    -0.354 N 
ATOM     45  C   UNL A   1      48.051  27.039  26.243  1.00  0.00     0.074 A 
ATOM     46  C   UNL A   1      48.452  25.751  25.719  1.00  0.00     0.031 C 
ATOM     47  C   UNL A   1      41.818  26.214  27.485  1.00  0.00     0.029 A 
ATOM     48  C   UNL A   1      42.619  27.415  27.715  1.00  0.00     0.049 A 
ATOM     49  H   UNL A   1      44.640  27.680  27.289  1.00  0.00     0.167 HD
ATOM     50  C   UNL A   1      48.892  28.088  26.410  1.00  0.00     0.037 A 
ATOM     51  C   UNL A   1      42.177  28.564  28.265  1.00  0.00     0.037 A 
ATOM     52  C   UNL A   1      48.513  29.355  26.975  1.00  0.00     0.049 A 
ATOM     53  C   UNL A   1      43.145  29.701  28.486  1.00  0.00     0.074 A 
ATOM     54  C   UNL A   1      49.300  30.472  27.195  1.00  0.00     0.029 A 
ATOM     55  N   UNL A   1      47.241  29.665  27.434  1.00  0.00    -0.354 N 
ATOM     56  N   UNL A   1      44.414  29.784  28.169  1.00  0.00    -0.248 NA
ATOM     57  C   UNL A   1      42.620  30.900  29.159  1.00  0.00     0.031 C 
ATOM     58  C   UNL A   1      48.517  31.440  27.834  1.00  0.00     0.029 A 
ATOM     59  C   UNL A   1      47.227  30.949  27.957  1.00  0.00     0.049 A 
ATOM     60  H   UNL A   1      46.463  29.064  27.393  1.00  0.00     0.167 HD
ATOM     61  C   UNL A   1      44.833  31.042  28.587  1.00  0.00     0.074 A 
ATOM     62  C   UNL A   1      43.676  31.700  29.157  1.00  0.00     0.031 C 
ATOM     63  C   UNL A   1      46.067  31.598  28.513  1.00  0.00     0.037 A 
BRANCH  50  64
ATOM     64  C   UNL A   1      50.322  27.884  26.006  1.00  0.00     0.064 A 
ATOM     65  C   UNL A   1      51.320  27.609  26.954  1.00  0.00     0.173 A 
ATOM     66  C   UNL A   1      50.699  27.961  24.658  1.00  0.00     0.173 A 
ATOM     67  F   UNL A   1      51.012  27.543  28.258  1.00  0.00    -0.203 F 
ATOM     68  C   UNL A   1      52.647  27.448  26.568  1.00  0.00     0.198 A 
ATOM     69  C   UNL A   1      52.022  27.771  24.272  1.00  0.00     0.198 A 
ATOM     70  F   UNL A   1      49.782  28.222  23.713  1.00  0.00    -0.203 F 
ATOM     71  F   UNL A   1      53.592  27.239  27.495  1.00  0.00    -0.200 F 
ATOM     72  C   UNL A   1      52.996  27.524  25.228  1.00  0.00     0.200 A 
ATOM     73  F   UNL A   1      52.357  27.834  22.976  1.00  0.00    -0.200 F 
ATOM     74  F   UNL A   1      54.275  27.368  24.858  1.00  0.00    -0.200 F 
ENDBRANCH  50  64
BRANCH  51  75
ATOM     75  C   UNL A   1      40.752  28.704  28.676  1.00  0.00     0.064 A 
ATOM     76  C   UNL A   1      40.336  28.361  29.970  1.00  0.00     0.173 A 
ATOM     77  C   UNL A   1      39.771  29.139  27.773  1.00  0.00     0.173 A 
ATOM     78  F   UNL A   1      41.231  27.910  30.863  1.00  0.00    -0.203 F 
ATOM     79  C   UNL A   1      38.993  28.425  30.338  1.00  0.00     0.198 A 
ATOM     80  C   UNL A   1      38.433  29.236  28.152  1.00  0.00     0.198 A 
ATOM     81  F   UNL A   1      40.111  29.472  26.519  1.00  0.00    -0.203 F 
ATOM     82  F   UNL A   1      38.617  28.030  31.562  1.00  0.00    -0.200 F 
ATOM     83  C   UNL A   1      38.044  28.868  29.431  1.00  0.00     0.200 A 
ATOM     84  F   UNL A   1      37.521  29.673  27.273  1.00  0.00    -0.200 F 
ATOM     85  F   UNL A   1      36.752  28.926  29.782  1.00  0.00    -0.200 F 
ENDBRANCH  51  75
BRANCH  63  86
ATOM     86  C   UNL A   1      46.232  33.002  29.026  1.00  0.00     0.064 A 
ATOM     87  C   UNL A   1      46.031  34.119  28.203  1.00  0.00     0.173 A 
ATOM     88  C   UNL A   1      46.544  33.232  30.376  1.00  0.00     0.173 A 
ATOM     89  F   UNL A   1      45.745  33.956  26.902  1.00  0.00    -0.203 F 
ATOM     90  C   UNL A   1      46.158  35.413  28.704  1.00  0.00     0.198 A 
ATOM     91  C   UNL A   1      46.639  34.525  30.882  1.00  0.00     0.198 A 
ATOM     92  F   UNL A   1      46.740  32.199  31.209  1.00  0.00    -0.203 F 
ATOM     93  F   UNL A   1      46.005  36.464  27.888  1.00  0.00    -0.200 F 
ATOM     94  C   UNL A   1      46.453  35.614  30.045  1.00  0.00     0.200 A 
ATOM     95  F   UNL A   1      46.909  34.717  32.181  1.00  0.00    -0.200 F 
ATOM     96  F   UNL A   1      46.563  36.859  30.529  1.00  0.00    -0.200 F 
ENDBRANCH  63  86
ENDBRANCH  37  38
ENDBRANCH  30  32
ENDBRANCH  29  30
ENDBRANCH  28  29
ENDBRANCH  27  28
ENDBRANCH  26  27
ENDBRANCH  25  26
ENDBRANCH   1  25
TORSDOF 21
ENDMDL
