MODEL 1
REMARK VINA RESULT:     -11.4      0.000      0.000
REMARK SMILES CCn1c(=O)n(CC)c2cc(C(=O)OCCOCCOCCOC(=O)c3ccc(-c4c5nc(c(-c6c(F)c(F)c(F)c(F)c6F)c6ccc([nH]6)c(-c6c(F)c(F)c(F)c(F)c6F)c6nc(c(-c7c(F)c(F)c(F)c(F)c7F)c7ccc4[nH]7)C=C6)C=C5)cc3)ccc21
REMARK SMILES IDX 19 1 18 2 17 3 16 4 15 5 14 6 12 7 13 8 11 9 3 10 4 11 91 12
REMARK SMILES IDX 5 13 6 14 9 15 90 16 10 17 89 18 2 19 1 20 7 21 8 22 20 23
REMARK SMILES IDX 21 24 22 25 23 26 24 27 25 28 26 29 27 30 88 31 28 32 87 33
REMARK SMILES IDX 29 34 30 35 31 36 81 37 32 38 86 39 80 40 82 41 33 42 85 43
REMARK SMILES IDX 79 44 78 45 34 47 66 48 46 49 65 50 47 51 50 52 64 53 83 54
REMARK SMILES IDX 48 55 49 56 63 58 84 59 51 60 35 61 36 62 44 63 37 64 38 65
REMARK SMILES IDX 42 66 45 67 39 68 40 69 43 70 41 71 67 72 68 73 76 74 69 75
REMARK SMILES IDX 70 76 74 77 77 78 71 79 72 80 75 81 73 82 52 83 53 84 61 85
REMARK SMILES IDX 54 86 55 87 59 88 62 89 56 90 57 91 60 92 58 93
REMARK H PARENT 82 46 50 57
REMARK Flexibility Score: inf
ROOT
ATOM      1  C   UNL A   1      31.503  27.925  26.900  1.00  0.00     0.188 C 
ENDROOT
BRANCH   1   2
ATOM      2  C   UNL A   1      31.592  27.668  25.380  1.00  0.00     0.188 C 
BRANCH   2   3
ATOM      3  O   UNL A   1      30.422  27.160  24.800  1.00  0.00    -0.376 OA
BRANCH   3   4
ATOM      4  C   UNL A   1      30.471  26.684  23.480  1.00  0.00     0.202 C 
BRANCH   4   5
ATOM      5  C   UNL A   1      31.472  27.213  22.431  1.00  0.00     0.261 C 
BRANCH   5   6
ATOM      6  O   UNL A   1      32.858  26.780  22.509  1.00  0.00    -0.460 OA
BRANCH   6   7
ATOM      7  C   UNL A   1      33.110  25.530  22.030  1.00  0.00     0.338 C 
ATOM      8  O   UNL A   1      33.254  25.290  20.841  1.00  0.00    -0.246 OA
BRANCH   7   9
ATOM      9  C   UNL A   1      33.202  24.418  23.057  1.00  0.00     0.062 A 
ATOM     10  N   UNL A   1      33.994  20.669  24.715  1.00  0.00    -0.292 N 
ATOM     11  C   UNL A   1      35.379  20.686  24.877  1.00  0.00     0.329 A 
ATOM     12  C   UNL A   1      33.566  21.905  24.209  1.00  0.00     0.069 A 
ATOM     13  O   UNL A   1      36.097  19.752  25.222  1.00  0.00    -0.248 OA
ATOM     14  N   UNL A   1      35.813  21.992  24.594  1.00  0.00    -0.292 N 
ATOM     15  C   UNL A   1      34.667  22.760  24.167  1.00  0.00     0.070 A 
ATOM     16  C   UNL A   1      32.306  22.275  23.741  1.00  0.00     0.029 A 
ATOM     17  C   UNL A   1      34.441  24.049  23.667  1.00  0.00     0.044 A 
ATOM     18  C   UNL A   1      32.132  23.529  23.134  1.00  0.00     0.018 A 
BRANCH  10  19
ATOM     19  C   UNL A   1      33.208  19.489  24.916  1.00  0.00     0.124 C 
ATOM     20  C   UNL A   1      33.495  18.427  23.861  1.00  0.00     0.028 C 
ENDBRANCH  10  19
BRANCH  14  21
ATOM     21  C   UNL A   1      37.175  22.290  24.960  1.00  0.00     0.124 C 
ATOM     22  C   UNL A   1      37.510  23.699  25.482  1.00  0.00     0.028 C 
ENDBRANCH  14  21
ENDBRANCH   7   9
ENDBRANCH   6   7
ENDBRANCH   5   6
ENDBRANCH   4   5
ENDBRANCH   3   4
ENDBRANCH   2   3
ENDBRANCH   1   2
BRANCH   1  23
ATOM     23  O   UNL A   1      31.418  29.267  27.348  1.00  0.00    -0.376 OA
BRANCH  23  24
ATOM     24  C   UNL A   1      31.803  30.278  26.417  1.00  0.00     0.202 C 
BRANCH  24  25
ATOM     25  C   UNL A   1      32.849  31.320  26.873  1.00  0.00     0.261 C 
BRANCH  25  26
ATOM     26  O   UNL A   1      33.789  30.806  27.852  1.00  0.00    -0.460 OA
BRANCH  26  27
ATOM     27  C   UNL A   1      34.735  31.666  28.330  1.00  0.00     0.338 C 
ATOM     28  O   UNL A   1      34.539  32.630  29.050  1.00  0.00    -0.246 OA
BRANCH  27  29
ATOM     29  C   UNL A   1      36.070  31.002  28.191  1.00  0.00     0.060 A 
ATOM     30  C   UNL A   1      36.264  29.664  27.816  1.00  0.00     0.016 A 
ATOM     31  C   UNL A   1      37.132  31.685  28.769  1.00  0.00     0.016 A 
ATOM     32  C   UNL A   1      37.466  28.980  28.156  1.00  0.00     0.010 A 
ATOM     33  C   UNL A   1      38.288  30.987  29.136  1.00  0.00     0.010 A 
ATOM     34  C   UNL A   1      38.483  29.602  28.902  1.00  0.00    -0.014 A 
BRANCH  34  35
ATOM     35  C   UNL A   1      39.866  28.970  29.040  1.00  0.00     0.031 A 
ATOM     36  C   UNL A   1      40.156  28.775  30.487  1.00  0.00     0.074 A 
ATOM     37  C   UNL A   1      40.787  28.440  28.149  1.00  0.00     0.049 A 
ATOM     38  N   UNL A   1      41.251  29.141  31.056  1.00  0.00    -0.248 NA
ATOM     39  C   UNL A   1      39.144  28.259  31.429  1.00  0.00     0.031 C 
ATOM     40  C   UNL A   1      40.788  28.533  26.704  1.00  0.00     0.029 A 
ATOM     41  N   UNL A   1      41.865  27.547  28.310  1.00  0.00    -0.354 N 
ATOM     42  C   UNL A   1      41.179  28.663  32.350  1.00  0.00     0.074 A 
ATOM     43  C   UNL A   1      39.824  28.254  32.576  1.00  0.00     0.031 C 
ATOM     44  C   UNL A   1      41.429  27.487  26.115  1.00  0.00     0.029 A 
ATOM     45  C   UNL A   1      42.169  26.776  27.137  1.00  0.00     0.049 A 
ATOM     46  H   UNL A   1      42.367  27.459  29.153  1.00  0.00     0.167 HD
ATOM     47  C   UNL A   1      42.333  28.403  33.008  1.00  0.00     0.037 A 
ATOM     48  C   UNL A   1      43.115  25.802  26.920  1.00  0.00     0.037 A 
ATOM     49  C   UNL A   1      43.430  29.111  32.397  1.00  0.00     0.049 A 
ATOM     50  C   UNL A   1      44.231  26.164  27.808  1.00  0.00     0.074 A 
ATOM     51  C   UNL A   1      43.779  30.442  32.308  1.00  0.00     0.029 A 
ATOM     52  N   UNL A   1      44.076  28.448  31.387  1.00  0.00    -0.354 N 
ATOM     53  N   UNL A   1      44.951  27.233  27.623  1.00  0.00    -0.248 NA
ATOM     54  C   UNL A   1      44.436  25.463  29.067  1.00  0.00     0.031 C 
ATOM     55  C   UNL A   1      44.564  30.579  31.132  1.00  0.00     0.029 A 
ATOM     56  C   UNL A   1      44.739  29.324  30.560  1.00  0.00     0.049 A 
ATOM     57  H   UNL A   1      44.066  27.471  31.269  1.00  0.00     0.167 HD
ATOM     58  C   UNL A   1      45.287  27.601  28.900  1.00  0.00     0.074 A 
ATOM     59  C   UNL A   1      45.151  26.394  29.704  1.00  0.00     0.031 C 
ATOM     60  C   UNL A   1      45.210  28.911  29.257  1.00  0.00     0.037 A 
BRANCH  47  61
ATOM     61  C   UNL A   1      42.542  27.216  33.902  1.00  0.00     0.064 A 
ATOM     62  C   UNL A   1      42.197  27.328  35.262  1.00  0.00     0.173 A 
ATOM     63  C   UNL A   1      43.337  26.100  33.558  1.00  0.00     0.173 A 
ATOM     64  F   UNL A   1      41.458  28.361  35.694  1.00  0.00    -0.203 F 
ATOM     65  C   UNL A   1      42.673  26.428  36.217  1.00  0.00     0.198 A 
ATOM     66  C   UNL A   1      43.778  25.182  34.509  1.00  0.00     0.198 A 
ATOM     67  F   UNL A   1      43.798  25.911  32.316  1.00  0.00    -0.203 F 
ATOM     68  F   UNL A   1      42.407  26.634  37.513  1.00  0.00    -0.200 F 
ATOM     69  C   UNL A   1      43.470  25.363  35.841  1.00  0.00     0.200 A 
ATOM     70  F   UNL A   1      44.565  24.166  34.129  1.00  0.00    -0.200 F 
ATOM     71  F   UNL A   1      43.974  24.534  36.764  1.00  0.00    -0.200 F 
ENDBRANCH  47  61
BRANCH  48  72
ATOM     72  C   UNL A   1      43.322  24.640  25.974  1.00  0.00     0.064 A 
ATOM     73  C   UNL A   1      44.466  24.542  25.143  1.00  0.00     0.173 A 
ATOM     74  C   UNL A   1      42.593  23.449  26.100  1.00  0.00     0.173 A 
ATOM     75  F   UNL A   1      45.238  25.614  24.917  1.00  0.00    -0.203 F 
ATOM     76  C   UNL A   1      44.891  23.331  24.567  1.00  0.00     0.198 A 
ATOM     77  C   UNL A   1      43.020  22.233  25.532  1.00  0.00     0.198 A 
ATOM     78  F   UNL A   1      41.476  23.436  26.826  1.00  0.00    -0.203 F 
ATOM     79  F   UNL A   1      46.020  23.289  23.843  1.00  0.00    -0.200 F 
ATOM     80  C   UNL A   1      44.185  22.169  24.790  1.00  0.00     0.200 A 
ATOM     81  F   UNL A   1      42.324  21.106  25.736  1.00  0.00    -0.200 F 
ATOM     82  F   UNL A   1      44.628  20.995  24.313  1.00  0.00    -0.200 F 
ENDBRANCH  48  72
BRANCH  60  83
ATOM     83  C   UNL A   1      45.402  29.968  28.202  1.00  0.00     0.064 A 
ATOM     84  C   UNL A   1      44.375  30.721  27.612  1.00  0.00     0.173 A 
ATOM     85  C   UNL A   1      46.716  30.332  27.883  1.00  0.00     0.173 A 
ATOM     86  F   UNL A   1      43.094  30.467  27.880  1.00  0.00    -0.203 F 
ATOM     87  C   UNL A   1      44.647  31.799  26.770  1.00  0.00     0.198 A 
ATOM     88  C   UNL A   1      46.990  31.427  27.068  1.00  0.00     0.198 A 
ATOM     89  F   UNL A   1      47.745  29.658  28.420  1.00  0.00    -0.203 F 
ATOM     90  F   UNL A   1      43.641  32.511  26.240  1.00  0.00    -0.200 F 
ATOM     91  C   UNL A   1      45.957  32.163  26.515  1.00  0.00     0.200 A 
ATOM     92  F   UNL A   1      48.261  31.794  26.855  1.00  0.00    -0.200 F 
ATOM     93  F   UNL A   1      46.222  33.238  25.758  1.00  0.00    -0.200 F 
ENDBRANCH  60  83
ENDBRANCH  34  35
ENDBRANCH  27  29
ENDBRANCH  26  27
ENDBRANCH  25  26
ENDBRANCH  24  25
ENDBRANCH  23  24
ENDBRANCH   1  23
TORSDOF 19
ENDMDL
MODEL 2
REMARK VINA RESULT:     -11.1      1.774      2.750
REMARK SMILES CCn1c(=O)n(CC)c2cc(C(=O)OCCOCCOCCOC(=O)c3ccc(-c4c5nc(c(-c6c(F)c(F)c(F)c(F)c6F)c6ccc([nH]6)c(-c6c(F)c(F)c(F)c(F)c6F)c6nc(c(-c7c(F)c(F)c(F)c(F)c7F)c7ccc4[nH]7)C=C6)C=C5)cc3)ccc21
REMARK SMILES IDX 19 1 18 2 17 3 16 4 15 5 14 6 12 7 13 8 11 9 3 10 4 11 91 12
REMARK SMILES IDX 5 13 6 14 9 15 90 16 10 17 89 18 2 19 1 20 7 21 8 22 20 23
REMARK SMILES IDX 21 24 22 25 23 26 24 27 25 28 26 29 27 30 88 31 28 32 87 33
REMARK SMILES IDX 29 34 30 35 31 36 81 37 32 38 86 39 80 40 82 41 33 42 85 43
REMARK SMILES IDX 79 44 78 45 34 47 66 48 46 49 65 50 47 51 50 52 64 53 83 54
REMARK SMILES IDX 48 55 49 56 63 58 84 59 51 60 35 61 36 62 44 63 37 64 38 65
REMARK SMILES IDX 42 66 45 67 39 68 40 69 43 70 41 71 67 72 68 73 76 74 69 75
REMARK SMILES IDX 70 76 74 77 77 78 71 79 72 80 75 81 73 82 52 83 53 84 61 85
REMARK SMILES IDX 54 86 55 87 59 88 62 89 56 90 57 91 60 92 58 93
REMARK H PARENT 82 46 50 57
REMARK Flexibility Score: inf
ROOT
ATOM      1  C   UNL A   1      33.829  28.655  26.431  1.00  0.00     0.188 C 
ENDROOT
BRANCH   1   2
ATOM      2  C   UNL A   1      33.042  28.499  25.110  1.00  0.00     0.188 C 
BRANCH   2   3
ATOM      3  O   UNL A   1      31.650  28.435  25.260  1.00  0.00    -0.376 OA
BRANCH   3   4
ATOM      4  C   UNL A   1      30.895  27.766  24.284  1.00  0.00     0.202 C 
BRANCH   4   5
ATOM      5  C   UNL A   1      29.858  26.673  24.623  1.00  0.00     0.261 C 
BRANCH   5   6
ATOM      6  O   UNL A   1      30.292  25.286  24.652  1.00  0.00    -0.460 OA
BRANCH   6   7
ATOM      7  C   UNL A   1      31.304  25.006  25.520  1.00  0.00     0.338 C 
ATOM      8  O   UNL A   1      31.261  25.290  26.706  1.00  0.00    -0.246 OA
BRANCH   7   9
ATOM      9  C   UNL A   1      32.523  24.317  24.936  1.00  0.00     0.062 A 
ATOM     10  N   UNL A   1      36.048  22.088  24.742  1.00  0.00    -0.292 N 
ATOM     11  C   UNL A   1      35.595  20.776  24.878  1.00  0.00     0.329 A 
ATOM     12  C   UNL A   1      34.953  22.964  24.733  1.00  0.00     0.069 A 
ATOM     13  O   UNL A   1      36.280  19.765  25.003  1.00  0.00    -0.248 OA
ATOM     14  N   UNL A   1      34.192  20.814  24.823  1.00  0.00    -0.292 N 
ATOM     15  C   UNL A   1      33.787  22.198  24.736  1.00  0.00     0.070 A 
ATOM     16  C   UNL A   1      34.939  24.357  24.786  1.00  0.00     0.029 A 
ATOM     17  C   UNL A   1      32.575  22.901  24.748  1.00  0.00     0.044 A 
ATOM     18  C   UNL A   1      33.716  25.034  24.918  1.00  0.00     0.018 A 
BRANCH  10  19
ATOM     19  C   UNL A   1      37.438  22.431  24.761  1.00  0.00     0.124 C 
ATOM     20  C   UNL A   1      37.863  23.013  26.103  1.00  0.00     0.028 C 
ENDBRANCH  10  19
BRANCH  14  21
ATOM     21  C   UNL A   1      33.538  19.537  24.677  1.00  0.00     0.124 C 
ATOM     22  C   UNL A   1      32.523  19.352  23.535  1.00  0.00     0.028 C 
ENDBRANCH  14  21
ENDBRANCH   7   9
ENDBRANCH   6   7
ENDBRANCH   5   6
ENDBRANCH   4   5
ENDBRANCH   3   4
ENDBRANCH   2   3
ENDBRANCH   1   2
BRANCH   1  23
ATOM     23  O   UNL A   1      33.404  29.646  27.350  1.00  0.00    -0.376 OA
BRANCH  23  24
ATOM     24  C   UNL A   1      33.819  30.985  27.083  1.00  0.00     0.202 C 
BRANCH  24  25
ATOM     25  C   UNL A   1      34.007  31.937  28.286  1.00  0.00     0.261 C 
BRANCH  25  26
ATOM     26  O   UNL A   1      35.088  31.544  29.172  1.00  0.00    -0.460 OA
BRANCH  26  27
ATOM     27  C   UNL A   1      36.263  32.232  29.077  1.00  0.00     0.338 C 
ATOM     28  O   UNL A   1      36.451  33.392  29.401  1.00  0.00    -0.246 OA
BRANCH  27  29
ATOM     29  C   UNL A   1      37.368  31.232  28.923  1.00  0.00     0.060 A 
ATOM     30  C   UNL A   1      37.183  29.874  28.628  1.00  0.00     0.016 A 
ATOM     31  C   UNL A   1      38.603  31.639  29.409  1.00  0.00     0.016 A 
ATOM     32  C   UNL A   1      38.183  28.915  28.959  1.00  0.00     0.010 A 
ATOM     33  C   UNL A   1      39.557  30.680  29.769  1.00  0.00     0.010 A 
ATOM     34  C   UNL A   1      39.369  29.283  29.618  1.00  0.00    -0.014 A 
BRANCH  34  35
ATOM     35  C   UNL A   1      40.545  28.316  29.736  1.00  0.00     0.031 A 
ATOM     36  C   UNL A   1      40.932  28.213  31.169  1.00  0.00     0.074 A 
ATOM     37  C   UNL A   1      41.189  27.457  28.859  1.00  0.00     0.049 A 
ATOM     38  N   UNL A   1      42.141  28.328  31.596  1.00  0.00    -0.248 NA
ATOM     39  C   UNL A   1      39.932  28.105  32.249  1.00  0.00     0.031 C 
ATOM     40  C   UNL A   1      41.055  27.382  27.419  1.00  0.00     0.029 A 
ATOM     41  N   UNL A   1      42.007  26.327  29.059  1.00  0.00    -0.354 N 
ATOM     42  C   UNL A   1      42.090  28.037  32.947  1.00  0.00     0.074 A 
ATOM     43  C   UNL A   1      40.709  28.043  33.330  1.00  0.00     0.031 C 
ATOM     44  C   UNL A   1      41.330  26.141  26.934  1.00  0.00     0.029 A 
ATOM     45  C   UNL A   1      41.966  25.375  27.985  1.00  0.00     0.049 A 
ATOM     46  H   UNL A   1      42.559  26.200  29.866  1.00  0.00     0.167 HD
ATOM     47  C   UNL A   1      43.202  27.547  33.544  1.00  0.00     0.037 A 
ATOM     48  C   UNL A   1      42.594  24.160  27.834  1.00  0.00     0.037 A 
ATOM     49  C   UNL A   1      44.371  27.853  32.759  1.00  0.00     0.049 A 
ATOM     50  C   UNL A   1      43.857  24.300  28.575  1.00  0.00     0.074 A 
ATOM     51  C   UNL A   1      45.044  29.019  32.459  1.00  0.00     0.029 A 
ATOM     52  N   UNL A   1      44.704  26.929  31.804  1.00  0.00    -0.354 N 
ATOM     53  N   UNL A   1      44.807  25.104  28.189  1.00  0.00    -0.248 NA
ATOM     54  C   UNL A   1      44.010  23.717  29.899  1.00  0.00     0.031 C 
ATOM     55  C   UNL A   1      45.702  28.801  31.219  1.00  0.00     0.029 A 
ATOM     56  C   UNL A   1      45.478  27.491  30.815  1.00  0.00     0.049 A 
ATOM     57  H   UNL A   1      44.426  25.985  31.824  1.00  0.00     0.167 HD
ATOM     58  C   UNL A   1      45.367  25.507  29.373  1.00  0.00     0.074 A 
ATOM     59  C   UNL A   1      45.010  24.483  30.345  1.00  0.00     0.031 C 
ATOM     60  C   UNL A   1      45.676  26.819  29.549  1.00  0.00     0.037 A 
BRANCH  47  61
ATOM     61  C   UNL A   1      43.190  26.457  34.576  1.00  0.00     0.064 A 
ATOM     62  C   UNL A   1      43.282  26.814  35.933  1.00  0.00     0.173 A 
ATOM     63  C   UNL A   1      43.401  25.092  34.282  1.00  0.00     0.173 A 
ATOM     64  F   UNL A   1      43.115  28.089  36.315  1.00  0.00    -0.203 F 
ATOM     65  C   UNL A   1      43.631  25.885  36.916  1.00  0.00     0.198 A 
ATOM     66  C   UNL A   1      43.710  24.160  35.270  1.00  0.00     0.198 A 
ATOM     67  F   UNL A   1      43.416  24.628  33.026  1.00  0.00    -0.203 F 
ATOM     68  F   UNL A   1      43.810  26.291  38.179  1.00  0.00    -0.200 F 
ATOM     69  C   UNL A   1      43.853  24.562  36.582  1.00  0.00     0.200 A 
ATOM     70  F   UNL A   1      43.941  22.885  34.926  1.00  0.00    -0.200 F 
ATOM     71  F   UNL A   1      44.244  23.683  37.514  1.00  0.00    -0.200 F 
ENDBRANCH  47  61
BRANCH  48  72
ATOM     72  C   UNL A   1      42.383  22.887  27.045  1.00  0.00     0.064 A 
ATOM     73  C   UNL A   1      43.377  22.366  26.179  1.00  0.00     0.173 A 
ATOM     74  C   UNL A   1      41.363  21.981  27.368  1.00  0.00     0.173 A 
ATOM     75  F   UNL A   1      44.396  23.135  25.771  1.00  0.00    -0.203 F 
ATOM     76  C   UNL A   1      43.392  21.026  25.752  1.00  0.00     0.198 A 
ATOM     77  C   UNL A   1      41.379  20.636  26.950  1.00  0.00     0.198 A 
ATOM     78  F   UNL A   1      40.354  22.377  28.144  1.00  0.00    -0.203 F 
ATOM     79  F   UNL A   1      44.397  20.575  24.985  1.00  0.00    -0.200 F 
ATOM     80  C   UNL A   1      42.410  20.152  26.166  1.00  0.00     0.200 A 
ATOM     81  F   UNL A   1      40.415  19.791  27.339  1.00  0.00    -0.200 F 
ATOM     82  F   UNL A   1      42.463  18.854  25.831  1.00  0.00    -0.200 F 
ENDBRANCH  48  72
BRANCH  60  83
ATOM     83  C   UNL A   1      46.020  27.657  28.347  1.00  0.00     0.064 A 
ATOM     84  C   UNL A   1      47.181  27.523  27.569  1.00  0.00     0.173 A 
ATOM     85  C   UNL A   1      45.045  28.546  27.877  1.00  0.00     0.173 A 
ATOM     86  F   UNL A   1      48.150  26.678  27.921  1.00  0.00    -0.203 F 
ATOM     87  C   UNL A   1      47.347  28.219  26.372  1.00  0.00     0.198 A 
ATOM     88  C   UNL A   1      45.194  29.216  26.666  1.00  0.00     0.198 A 
ATOM     89  F   UNL A   1      43.906  28.715  28.568  1.00  0.00    -0.203 F 
ATOM     90  F   UNL A   1      48.460  28.049  25.643  1.00  0.00    -0.200 F 
ATOM     91  C   UNL A   1      46.343  29.050  25.911  1.00  0.00     0.200 A 
ATOM     92  F   UNL A   1      44.202  29.993  26.211  1.00  0.00    -0.200 F 
ATOM     93  F   UNL A   1      46.470  29.670  24.730  1.00  0.00    -0.200 F 
ENDBRANCH  60  83
ENDBRANCH  34  35
ENDBRANCH  27  29
ENDBRANCH  26  27
ENDBRANCH  25  26
ENDBRANCH  24  25
ENDBRANCH  23  24
ENDBRANCH   1  23
TORSDOF 19
ENDMDL
MODEL 3
REMARK VINA RESULT:     -10.6      1.615      2.566
REMARK SMILES CCn1c(=O)n(CC)c2cc(C(=O)OCCOCCOCCOC(=O)c3ccc(-c4c5nc(c(-c6c(F)c(F)c(F)c(F)c6F)c6ccc([nH]6)c(-c6c(F)c(F)c(F)c(F)c6F)c6nc(c(-c7c(F)c(F)c(F)c(F)c7F)c7ccc4[nH]7)C=C6)C=C5)cc3)ccc21
REMARK SMILES IDX 19 1 18 2 17 3 16 4 15 5 14 6 12 7 13 8 11 9 3 10 4 11 91 12
REMARK SMILES IDX 5 13 6 14 9 15 90 16 10 17 89 18 2 19 1 20 7 21 8 22 20 23
REMARK SMILES IDX 21 24 22 25 23 26 24 27 25 28 26 29 27 30 88 31 28 32 87 33
REMARK SMILES IDX 29 34 30 35 31 36 81 37 32 38 86 39 80 40 82 41 33 42 85 43
REMARK SMILES IDX 79 44 78 45 34 47 66 48 46 49 65 50 47 51 50 52 64 53 83 54
REMARK SMILES IDX 48 55 49 56 63 58 84 59 51 60 35 61 36 62 44 63 37 64 38 65
REMARK SMILES IDX 42 66 45 67 39 68 40 69 43 70 41 71 67 72 68 73 76 74 69 75
REMARK SMILES IDX 70 76 74 77 77 78 71 79 72 80 75 81 73 82 52 83 53 84 61 85
REMARK SMILES IDX 54 86 55 87 59 88 62 89 56 90 57 91 60 92 58 93
REMARK H PARENT 82 46 50 57
REMARK Flexibility Score: inf
ROOT
ATOM      1  C   UNL A   1      33.749  30.532  27.253  1.00  0.00     0.188 C 
ENDROOT
BRANCH   1   2
ATOM      2  C   UNL A   1      32.628  29.474  27.141  1.00  0.00     0.188 C 
BRANCH   2   3
ATOM      3  O   UNL A   1      33.051  28.149  27.314  1.00  0.00    -0.376 OA
BRANCH   3   4
ATOM      4  C   UNL A   1      32.592  27.169  26.420  1.00  0.00     0.202 C 
BRANCH   4   5
ATOM      5  C   UNL A   1      31.105  27.009  26.037  1.00  0.00     0.261 C 
BRANCH   5   6
ATOM      6  O   UNL A   1      30.614  25.686  25.686  1.00  0.00    -0.460 OA
BRANCH   6   7
ATOM      7  C   UNL A   1      30.658  25.376  24.361  1.00  0.00     0.338 C 
ATOM      8  O   UNL A   1      29.818  25.754  23.560  1.00  0.00    -0.246 OA
BRANCH   7   9
ATOM      9  C   UNL A   1      31.820  24.513  23.908  1.00  0.00     0.062 A 
ATOM     10  N   UNL A   1      35.308  22.225  24.091  1.00  0.00    -0.292 N 
ATOM     11  C   UNL A   1      34.863  21.022  24.637  1.00  0.00     0.329 A 
ATOM     12  C   UNL A   1      34.220  23.091  23.915  1.00  0.00     0.069 A 
ATOM     13  O   UNL A   1      35.552  20.071  24.996  1.00  0.00    -0.248 OA
ATOM     14  N   UNL A   1      33.460  21.081  24.685  1.00  0.00    -0.292 N 
ATOM     15  C   UNL A   1      33.055  22.392  24.232  1.00  0.00     0.070 A 
ATOM     16  C   UNL A   1      34.216  24.440  23.561  1.00  0.00     0.029 A 
ATOM     17  C   UNL A   1      31.851  23.102  24.136  1.00  0.00     0.044 A 
ATOM     18  C   UNL A   1      33.011  25.161  23.588  1.00  0.00     0.018 A 
BRANCH  10  19
ATOM     19  C   UNL A   1      36.696  22.519  23.898  1.00  0.00     0.124 C 
ATOM     20  C   UNL A   1      37.273  23.329  25.053  1.00  0.00     0.028 C 
ENDBRANCH  10  19
BRANCH  14  21
ATOM     21  C   UNL A   1      32.792  19.836  24.969  1.00  0.00     0.124 C 
ATOM     22  C   UNL A   1      32.524  18.859  23.810  1.00  0.00     0.028 C 
ENDBRANCH  14  21
ENDBRANCH   7   9
ENDBRANCH   6   7
ENDBRANCH   5   6
ENDBRANCH   4   5
ENDBRANCH   3   4
ENDBRANCH   2   3
ENDBRANCH   1   2
BRANCH   1  23
ATOM     23  O   UNL A   1      33.378  31.872  27.530  1.00  0.00    -0.376 OA
BRANCH  23  24
ATOM     24  C   UNL A   1      34.412  32.737  27.999  1.00  0.00     0.202 C 
BRANCH  24  25
ATOM     25  C   UNL A   1      34.445  33.070  29.509  1.00  0.00     0.261 C 
BRANCH  25  26
ATOM     26  O   UNL A   1      34.792  31.936  30.345  1.00  0.00    -0.460 OA
BRANCH  26  27
ATOM     27  C   UNL A   1      35.802  32.103  31.247  1.00  0.00     0.338 C 
ATOM     28  O   UNL A   1      35.708  32.602  32.355  1.00  0.00    -0.246 OA
BRANCH  27  29
ATOM     29  C   UNL A   1      36.929  31.202  30.844  1.00  0.00     0.060 A 
ATOM     30  C   UNL A   1      36.814  29.821  30.632  1.00  0.00     0.016 A 
ATOM     31  C   UNL A   1      38.200  31.742  31.001  1.00  0.00     0.016 A 
ATOM     32  C   UNL A   1      37.955  28.973  30.724  1.00  0.00     0.010 A 
ATOM     33  C   UNL A   1      39.303  30.891  31.133  1.00  0.00     0.010 A 
ATOM     34  C   UNL A   1      39.223  29.477  31.061  1.00  0.00    -0.014 A 
BRANCH  34  35
ATOM     35  C   UNL A   1      40.483  28.627  30.904  1.00  0.00     0.031 A 
ATOM     36  C   UNL A   1      41.063  28.385  32.253  1.00  0.00     0.074 A 
ATOM     37  C   UNL A   1      41.077  27.956  29.847  1.00  0.00     0.049 A 
ATOM     38  N   UNL A   1      42.303  28.567  32.545  1.00  0.00    -0.248 NA
ATOM     39  C   UNL A   1      40.226  28.040  33.419  1.00  0.00     0.031 C 
ATOM     40  C   UNL A   1      40.761  28.050  28.437  1.00  0.00     0.029 A 
ATOM     41  N   UNL A   1      42.007  26.899  29.791  1.00  0.00    -0.354 N 
ATOM     42  C   UNL A   1      42.455  28.105  33.839  1.00  0.00     0.074 A 
ATOM     43  C   UNL A   1      41.141  27.922  34.380  1.00  0.00     0.031 C 
ATOM     44  C   UNL A   1      41.075  26.914  27.756  1.00  0.00     0.029 A 
ATOM     45  C   UNL A   1      41.907  26.090  28.608  1.00  0.00     0.049 A 
ATOM     46  H   UNL A   1      42.669  26.729  30.500  1.00  0.00     0.167 HD
ATOM     47  C   UNL A   1      43.673  27.659  34.226  1.00  0.00     0.037 A 
ATOM     48  C   UNL A   1      42.610  24.975  28.217  1.00  0.00     0.037 A 
ATOM     49  C   UNL A   1      44.699  28.179  33.357  1.00  0.00     0.049 A 
ATOM     50  C   UNL A   1      43.943  25.148  28.815  1.00  0.00     0.074 A 
ATOM     51  C   UNL A   1      45.225  29.436  33.143  1.00  0.00     0.029 A 
ATOM     52  N   UNL A   1      44.981  27.422  32.251  1.00  0.00    -0.354 N 
ATOM     53  N   UNL A   1      44.762  26.087  28.433  1.00  0.00    -0.248 NA
ATOM     54  C   UNL A   1      44.318  24.422  30.019  1.00  0.00     0.031 C 
ATOM     55  C   UNL A   1      45.730  29.445  31.815  1.00  0.00     0.029 A 
ATOM     56  C   UNL A   1      45.566  28.180  31.264  1.00  0.00     0.049 A 
ATOM     57  H   UNL A   1      44.789  26.459  32.174  1.00  0.00     0.167 HD
ATOM     58  C   UNL A   1      45.437  26.392  29.586  1.00  0.00     0.074 A 
ATOM     59  C   UNL A   1      45.299  25.223  30.443  1.00  0.00     0.031 C 
ATOM     60  C   UNL A   1      45.653  27.697  29.904  1.00  0.00     0.037 A 
BRANCH  47  61
ATOM     61  C   UNL A   1      43.890  26.453  35.092  1.00  0.00     0.064 A 
ATOM     62  C   UNL A   1      44.460  26.631  36.365  1.00  0.00     0.173 A 
ATOM     63  C   UNL A   1      43.851  25.124  34.615  1.00  0.00     0.173 A 
ATOM     64  F   UNL A   1      44.560  27.857  36.901  1.00  0.00    -0.203 F 
ATOM     65  C   UNL A   1      45.015  25.567  37.078  1.00  0.00     0.198 A 
ATOM     66  C   UNL A   1      44.371  24.058  35.347  1.00  0.00     0.198 A 
ATOM     67  F   UNL A   1      43.403  24.820  33.391  1.00  0.00    -0.203 F 
ATOM     68  F   UNL A   1      45.642  25.800  38.238  1.00  0.00    -0.200 F 
ATOM     69  C   UNL A   1      44.978  24.284  36.564  1.00  0.00     0.200 A 
ATOM     70  F   UNL A   1      44.343  22.823  34.825  1.00  0.00    -0.200 F 
ATOM     71  F   UNL A   1      45.561  23.272  37.220  1.00  0.00    -0.200 F 
ENDBRANCH  47  61
BRANCH  48  72
ATOM     72  C   UNL A   1      42.406  23.797  27.291  1.00  0.00     0.064 A 
ATOM     73  C   UNL A   1      42.861  23.808  25.948  1.00  0.00     0.173 A 
ATOM     74  C   UNL A   1      42.074  22.525  27.780  1.00  0.00     0.173 A 
ATOM     75  F   UNL A   1      43.189  24.962  25.350  1.00  0.00    -0.203 F 
ATOM     76  C   UNL A   1      43.054  22.635  25.197  1.00  0.00     0.198 A 
ATOM     77  C   UNL A   1      42.273  21.348  27.032  1.00  0.00     0.198 A 
ATOM     78  F   UNL A   1      41.596  22.401  29.018  1.00  0.00    -0.203 F 
ATOM     79  F   UNL A   1      43.550  22.707  23.952  1.00  0.00    -0.200 F 
ATOM     80  C   UNL A   1      42.790  21.401  25.752  1.00  0.00     0.200 A 
ATOM     81  F   UNL A   1      42.001  20.149  27.568  1.00  0.00    -0.200 F 
ATOM     82  F   UNL A   1      43.049  20.274  25.071  1.00  0.00    -0.200 F 
ENDBRANCH  48  72
BRANCH  60  83
ATOM     83  C   UNL A   1      45.764  28.710  28.796  1.00  0.00     0.064 A 
ATOM     84  C   UNL A   1      44.748  29.595  28.402  1.00  0.00     0.173 A 
ATOM     85  C   UNL A   1      47.020  28.886  28.203  1.00  0.00     0.173 A 
ATOM     86  F   UNL A   1      43.528  29.523  28.934  1.00  0.00    -0.203 F 
ATOM     87  C   UNL A   1      44.983  30.619  27.484  1.00  0.00     0.198 A 
ATOM     88  C   UNL A   1      47.264  29.927  27.311  1.00  0.00     0.198 A 
ATOM     89  F   UNL A   1      48.038  28.078  28.541  1.00  0.00    -0.203 F 
ATOM     90  F   UNL A   1      43.994  31.460  27.147  1.00  0.00    -0.200 F 
ATOM     91  C   UNL A   1      46.248  30.796  26.955  1.00  0.00     0.200 A 
ATOM     92  F   UNL A   1      48.501  30.112  26.830  1.00  0.00    -0.200 F 
ATOM     93  F   UNL A   1      46.493  31.818  26.123  1.00  0.00    -0.200 F 
ENDBRANCH  60  83
ENDBRANCH  34  35
ENDBRANCH  27  29
ENDBRANCH  26  27
ENDBRANCH  25  26
ENDBRANCH  24  25
ENDBRANCH  23  24
ENDBRANCH   1  23
TORSDOF 19
ENDMDL
