MODEL 1
REMARK VINA RESULT:     -11.2      0.000      0.000
REMARK SMILES C#Cc1cc(Cl)c2c(c1)C=C(C(=O)OCCOCCOCCOC(=O)c1ccc(-c3c4nc(c(-c5c(F)c(F)c(F)c(F)c5F)c5ccc([nH]5)c(-c5c(F)c(F)c(F)c(F)c5F)c5nc(c(-c6c(F)c(F)c(F)c(F)c6F)c6ccc3[nH]6)C=C5)C=C4)cc1)[C@@H](C(F)(F)F)O2
REMARK SMILES IDX 19 1 18 2 17 3 16 4 15 5 14 6 12 7 13 8 11 9 3 10 4 11 9 12
REMARK SMILES IDX 5 13 8 14 6 15 7 16 10 17 94 18 89 19 2 20 1 21 90 22 91 23
REMARK SMILES IDX 92 24 93 25 20 26 21 27 22 28 23 29 24 30 25 31 26 32 27 33
REMARK SMILES IDX 88 34 28 35 87 36 29 37 30 38 31 39 81 40 32 41 86 42 80 43
REMARK SMILES IDX 82 44 33 45 85 46 79 47 78 48 34 50 66 51 46 52 65 53 47 54
REMARK SMILES IDX 50 55 64 56 83 57 48 58 49 59 63 61 84 62 51 63 35 64 36 65
REMARK SMILES IDX 44 66 37 67 38 68 42 69 45 70 39 71 40 72 43 73 41 74 67 75
REMARK SMILES IDX 68 76 76 77 69 78 70 79 74 80 77 81 71 82 72 83 75 84 73 85
REMARK SMILES IDX 52 86 53 87 61 88 54 89 55 90 59 91 62 92 56 93 57 94 60 95
REMARK SMILES IDX 58 96
REMARK H PARENT 82 49 50 60
REMARK Flexibility Score: inf
ROOT
ATOM      1  C   UNL A   1      41.285  20.086  27.313  1.00  0.00     0.188 C 
ENDROOT
BRANCH   1   2
ATOM      2  C   UNL A   1      40.217  20.268  26.214  1.00  0.00     0.188 C 
BRANCH   2   3
ATOM      3  O   UNL A   1      39.917  21.570  25.765  1.00  0.00    -0.376 OA
BRANCH   3   4
ATOM      4  C   UNL A   1      38.766  22.254  26.229  1.00  0.00     0.202 C 
BRANCH   4   5
ATOM      5  C   UNL A   1      37.428  22.353  25.468  1.00  0.00     0.261 C 
BRANCH   5   6
ATOM      6  O   UNL A   1      36.779  23.630  25.437  1.00  0.00    -0.460 OA
BRANCH   6   7
ATOM      7  C   UNL A   1      35.500  23.652  25.882  1.00  0.00     0.338 C 
ATOM      8  O   UNL A   1      35.078  23.163  26.918  1.00  0.00    -0.246 OA
BRANCH   7   9
ATOM      9  C   UNL A   1      34.690  24.528  25.007  1.00  0.00     0.087 C 
ATOM     10  C   UNL A   1      32.062  28.532  24.513  1.00  0.00     0.027 A 
ATOM     11  C   UNL A   1      31.574  28.064  23.292  1.00  0.00     0.041 A 
ATOM     12  C   UNL A   1      33.025  27.796  25.207  1.00  0.00     0.029 A 
ATOM     13  C   UNL A   1      32.070  26.874  22.758  1.00  0.00     0.084 A 
ATOM     14  C   UNL A   1      33.485  26.575  24.695  1.00  0.00     0.020 A 
ATOM     15  Cl  UNL A   1      31.428  26.327  21.250  1.00  0.00    -0.080 Cl
ATOM     16  C   UNL A   1      33.031  26.124  23.451  1.00  0.00     0.146 A 
ATOM     17  C   UNL A   1      34.364  25.734  25.492  1.00  0.00     0.027 C 
ATOM     18  O   UNL A   1      33.484  24.971  22.872  1.00  0.00    -0.474 OA
ATOM     19  C   UNL A   1      34.293  24.042  23.640  1.00  0.00     0.316 C 
BRANCH  10  20
ATOM     20  C   UNL A   1      31.537  29.741  25.073  1.00  0.00    -0.070 C 
ATOM     21  C   UNL A   1      31.076  30.741  25.545  1.00  0.00     0.010 C 
ENDBRANCH  10  20
BRANCH  19  22
ATOM     22  C   UNL A   1      33.565  22.694  23.699  1.00  0.00     0.430 C 
ATOM     23  F   UNL A   1      33.009  22.377  22.507  1.00  0.00    -0.167 F 
ATOM     24  F   UNL A   1      34.410  21.684  24.016  1.00  0.00    -0.167 F 
ATOM     25  F   UNL A   1      32.578  22.700  24.623  1.00  0.00    -0.167 F 
ENDBRANCH  19  22
ENDBRANCH   7   9
ENDBRANCH   6   7
ENDBRANCH   5   6
ENDBRANCH   4   5
ENDBRANCH   3   4
ENDBRANCH   2   3
ENDBRANCH   1   2
BRANCH   1  26
ATOM     26  O   UNL A   1      42.560  19.645  26.917  1.00  0.00    -0.376 OA
BRANCH  26  27
ATOM     27  C   UNL A   1      43.089  20.077  25.672  1.00  0.00     0.202 C 
BRANCH  27  28
ATOM     28  C   UNL A   1      43.789  21.433  25.402  1.00  0.00     0.261 C 
BRANCH  28  29
ATOM     29  O   UNL A   1      42.984  22.584  25.113  1.00  0.00    -0.460 OA
BRANCH  29  30
ATOM     30  C   UNL A   1      43.636  23.773  25.047  1.00  0.00     0.338 C 
ATOM     31  O   UNL A   1      44.500  24.099  24.253  1.00  0.00    -0.246 OA
BRANCH  30  32
ATOM     32  C   UNL A   1      42.984  24.727  25.971  1.00  0.00     0.060 A 
ATOM     33  C   UNL A   1      43.441  26.054  26.021  1.00  0.00     0.016 A 
ATOM     34  C   UNL A   1      41.939  24.314  26.795  1.00  0.00     0.016 A 
ATOM     35  C   UNL A   1      42.852  26.972  26.891  1.00  0.00     0.010 A 
ATOM     36  C   UNL A   1      41.376  25.224  27.697  1.00  0.00     0.010 A 
ATOM     37  C   UNL A   1      41.843  26.549  27.765  1.00  0.00    -0.014 A 
BRANCH  37  38
ATOM     38  C   UNL A   1      41.417  27.434  28.879  1.00  0.00     0.031 A 
ATOM     39  C   UNL A   1      42.207  27.399  30.158  1.00  0.00     0.074 A 
ATOM     40  C   UNL A   1      40.371  28.273  28.754  1.00  0.00     0.049 A 
ATOM     41  N   UNL A   1      41.993  28.025  31.286  1.00  0.00    -0.248 NA
ATOM     42  C   UNL A   1      43.404  26.540  30.165  1.00  0.00     0.031 C 
ATOM     43  C   UNL A   1      39.562  28.443  27.552  1.00  0.00     0.029 A 
ATOM     44  N   UNL A   1      39.808  29.135  29.665  1.00  0.00    -0.354 N 
ATOM     45  C   UNL A   1      43.021  27.635  32.134  1.00  0.00     0.074 A 
ATOM     46  C   UNL A   1      43.840  26.690  31.407  1.00  0.00     0.031 C 
ATOM     47  C   UNL A   1      38.598  29.348  27.799  1.00  0.00     0.029 A 
ATOM     48  C   UNL A   1      38.699  29.792  29.190  1.00  0.00     0.049 A 
ATOM     49  H   UNL A   1      40.166  29.272  30.572  1.00  0.00     0.167 HD
ATOM     50  C   UNL A   1      43.268  28.041  33.401  1.00  0.00     0.037 A 
ATOM     51  C   UNL A   1      37.849  30.634  29.815  1.00  0.00     0.037 A 
ATOM     52  C   UNL A   1      42.455  28.984  34.121  1.00  0.00     0.049 A 
ATOM     53  C   UNL A   1      38.091  30.990  31.262  1.00  0.00     0.074 A 
ATOM     54  C   UNL A   1      42.631  29.460  35.408  1.00  0.00     0.029 A 
ATOM     55  N   UNL A   1      41.314  29.590  33.621  1.00  0.00    -0.354 N 
ATOM     56  N   UNL A   1      39.076  30.634  32.051  1.00  0.00    -0.248 NA
ATOM     57  C   UNL A   1      37.102  31.869  31.908  1.00  0.00     0.031 C 
ATOM     58  C   UNL A   1      41.562  30.305  35.710  1.00  0.00     0.029 A 
ATOM     59  C   UNL A   1      40.759  30.414  34.588  1.00  0.00     0.049 A 
ATOM     60  H   UNL A   1      40.952  29.456  32.716  1.00  0.00     0.167 HD
ATOM     61  C   UNL A   1      38.845  31.268  33.267  1.00  0.00     0.074 A 
ATOM     62  C   UNL A   1      37.637  32.048  33.108  1.00  0.00     0.031 C 
ATOM     63  C   UNL A   1      39.566  31.204  34.413  1.00  0.00     0.037 A 
BRANCH  50  64
ATOM     64  C   UNL A   1      44.464  27.471  34.106  1.00  0.00     0.064 A 
ATOM     65  C   UNL A   1      44.389  26.266  34.819  1.00  0.00     0.173 A 
ATOM     66  C   UNL A   1      45.721  28.081  33.977  1.00  0.00     0.173 A 
ATOM     67  F   UNL A   1      43.207  25.651  34.983  1.00  0.00    -0.203 F 
ATOM     68  C   UNL A   1      45.527  25.692  35.378  1.00  0.00     0.198 A 
ATOM     69  C   UNL A   1      46.863  27.488  34.509  1.00  0.00     0.198 A 
ATOM     70  F   UNL A   1      45.848  29.233  33.302  1.00  0.00    -0.203 F 
ATOM     71  F   UNL A   1      45.428  24.552  36.074  1.00  0.00    -0.200 F 
ATOM     72  C   UNL A   1      46.765  26.295  35.209  1.00  0.00     0.200 A 
ATOM     73  F   UNL A   1      48.060  28.061  34.327  1.00  0.00    -0.200 F 
ATOM     74  F   UNL A   1      47.865  25.724  35.718  1.00  0.00    -0.200 F 
ENDBRANCH  50  64
BRANCH  51  75
ATOM     75  C   UNL A   1      36.681  31.200  29.084  1.00  0.00     0.064 A 
ATOM     76  C   UNL A   1      36.646  32.551  28.713  1.00  0.00     0.173 A 
ATOM     77  C   UNL A   1      35.564  30.412  28.765  1.00  0.00     0.173 A 
ATOM     78  F   UNL A   1      37.674  33.356  29.020  1.00  0.00    -0.203 F 
ATOM     79  C   UNL A   1      35.535  33.097  28.070  1.00  0.00     0.198 A 
ATOM     80  C   UNL A   1      34.469  30.949  28.090  1.00  0.00     0.198 A 
ATOM     81  F   UNL A   1      35.537  29.114  29.103  1.00  0.00    -0.203 F 
ATOM     82  F   UNL A   1      35.509  34.404  27.779  1.00  0.00    -0.200 F 
ATOM     83  C   UNL A   1      34.452  32.294  27.751  1.00  0.00     0.200 A 
ATOM     84  F   UNL A   1      33.428  30.166  27.773  1.00  0.00    -0.200 F 
ATOM     85  F   UNL A   1      33.387  32.816  27.128  1.00  0.00    -0.200 F 
ENDBRANCH  51  75
BRANCH  63  86
ATOM     86  C   UNL A   1      39.104  32.020  35.589  1.00  0.00     0.064 A 
ATOM     87  C   UNL A   1      38.291  31.473  36.592  1.00  0.00     0.173 A 
ATOM     88  C   UNL A   1      39.557  33.339  35.761  1.00  0.00     0.173 A 
ATOM     89  F   UNL A   1      37.823  30.220  36.473  1.00  0.00    -0.203 F 
ATOM     90  C   UNL A   1      37.935  32.218  37.712  1.00  0.00     0.198 A 
ATOM     91  C   UNL A   1      39.231  34.067  36.901  1.00  0.00     0.198 A 
ATOM     92  F   UNL A   1      40.349  33.908  34.839  1.00  0.00    -0.203 F 
ATOM     93  F   UNL A   1      37.125  31.687  38.638  1.00  0.00    -0.200 F 
ATOM     94  C   UNL A   1      38.416  33.510  37.872  1.00  0.00     0.200 A 
ATOM     95  F   UNL A   1      39.717  35.306  37.065  1.00  0.00    -0.200 F 
ATOM     96  F   UNL A   1      38.092  34.216  38.965  1.00  0.00    -0.200 F 
ENDBRANCH  63  86
ENDBRANCH  37  38
ENDBRANCH  30  32
ENDBRANCH  29  30
ENDBRANCH  28  29
ENDBRANCH  27  28
ENDBRANCH  26  27
ENDBRANCH   1  26
TORSDOF 19
ENDMDL
MODEL 2
REMARK VINA RESULT:     -11.1      5.290     10.712
REMARK SMILES C#Cc1cc(Cl)c2c(c1)C=C(C(=O)OCCOCCOCCOC(=O)c1ccc(-c3c4nc(c(-c5c(F)c(F)c(F)c(F)c5F)c5ccc([nH]5)c(-c5c(F)c(F)c(F)c(F)c5F)c5nc(c(-c6c(F)c(F)c(F)c(F)c6F)c6ccc3[nH]6)C=C5)C=C4)cc1)[C@@H](C(F)(F)F)O2
REMARK SMILES IDX 19 1 18 2 17 3 16 4 15 5 14 6 12 7 13 8 11 9 3 10 4 11 9 12
REMARK SMILES IDX 5 13 8 14 6 15 7 16 10 17 94 18 89 19 2 20 1 21 90 22 91 23
REMARK SMILES IDX 92 24 93 25 20 26 21 27 22 28 23 29 24 30 25 31 26 32 27 33
REMARK SMILES IDX 88 34 28 35 87 36 29 37 30 38 31 39 81 40 32 41 86 42 80 43
REMARK SMILES IDX 82 44 33 45 85 46 79 47 78 48 34 50 66 51 46 52 65 53 47 54
REMARK SMILES IDX 50 55 64 56 83 57 48 58 49 59 63 61 84 62 51 63 35 64 36 65
REMARK SMILES IDX 44 66 37 67 38 68 42 69 45 70 39 71 40 72 43 73 41 74 67 75
REMARK SMILES IDX 68 76 76 77 69 78 70 79 74 80 77 81 71 82 72 83 75 84 73 85
REMARK SMILES IDX 52 86 53 87 61 88 54 89 55 90 59 91 62 92 56 93 57 94 60 95
REMARK SMILES IDX 58 96
REMARK H PARENT 82 49 50 60
REMARK Flexibility Score: inf
ROOT
ATOM      1  C   UNL A   1      33.655  34.254  29.130  1.00  0.00     0.188 C 
ENDROOT
BRANCH   1   2
ATOM      2  C   UNL A   1      34.746  33.227  28.756  1.00  0.00     0.188 C 
BRANCH   2   3
ATOM      3  O   UNL A   1      34.426  31.855  28.778  1.00  0.00    -0.376 OA
BRANCH   3   4
ATOM      4  C   UNL A   1      34.276  31.122  27.574  1.00  0.00     0.202 C 
BRANCH   4   5
ATOM      5  C   UNL A   1      34.633  29.632  27.396  1.00  0.00     0.261 C 
BRANCH   5   6
ATOM      6  O   UNL A   1      33.567  28.731  27.071  1.00  0.00    -0.460 OA
BRANCH   6   7
ATOM      7  C   UNL A   1      33.620  28.175  25.838  1.00  0.00     0.338 C 
ATOM      8  O   UNL A   1      34.038  28.697  24.818  1.00  0.00    -0.246 OA
BRANCH   7   9
ATOM      9  C   UNL A   1      33.256  26.743  25.929  1.00  0.00     0.087 C 
ATOM     10  C   UNL A   1      34.591  22.137  25.496  1.00  0.00     0.027 A 
ATOM     11  C   UNL A   1      33.253  21.743  25.534  1.00  0.00     0.041 A 
ATOM     12  C   UNL A   1      34.927  23.483  25.665  1.00  0.00     0.029 A 
ATOM     13  C   UNL A   1      32.258  22.693  25.766  1.00  0.00     0.084 A 
ATOM     14  C   UNL A   1      33.923  24.444  25.847  1.00  0.00     0.020 A 
ATOM     15  Cl  UNL A   1      30.614  22.161  25.793  1.00  0.00    -0.080 Cl
ATOM     16  C   UNL A   1      32.585  24.047  25.929  1.00  0.00     0.146 A 
ATOM     17  C   UNL A   1      34.261  25.858  25.861  1.00  0.00     0.027 C 
ATOM     18  O   UNL A   1      31.564  24.929  26.162  1.00  0.00    -0.474 OA
ATOM     19  C   UNL A   1      31.813  26.358  26.104  1.00  0.00     0.316 C 
BRANCH  10  20
ATOM     20  C   UNL A   1      35.612  21.167  25.235  1.00  0.00    -0.070 C 
ATOM     21  C   UNL A   1      36.477  20.372  25.001  1.00  0.00     0.010 C 
ENDBRANCH  10  20
BRANCH  19  22
ATOM     22  C   UNL A   1      30.921  26.964  25.015  1.00  0.00     0.430 C 
ATOM     23  F   UNL A   1      31.495  26.872  23.793  1.00  0.00    -0.167 F 
ATOM     24  F   UNL A   1      29.729  26.326  24.934  1.00  0.00    -0.167 F 
ATOM     25  F   UNL A   1      30.664  28.271  25.250  1.00  0.00    -0.167 F 
ENDBRANCH  19  22
ENDBRANCH   7   9
ENDBRANCH   6   7
ENDBRANCH   5   6
ENDBRANCH   4   5
ENDBRANCH   3   4
ENDBRANCH   2   3
ENDBRANCH   1   2
BRANCH   1  26
ATOM     26  O   UNL A   1      33.410  34.477  30.495  1.00  0.00    -0.376 OA
BRANCH  26  27
ATOM     27  C   UNL A   1      34.480  34.364  31.421  1.00  0.00     0.202 C 
BRANCH  27  28
ATOM     28  C   UNL A   1      34.541  33.393  32.627  1.00  0.00     0.261 C 
BRANCH  28  29
ATOM     29  O   UNL A   1      35.282  32.172  32.499  1.00  0.00    -0.460 OA
BRANCH  29  30
ATOM     30  C   UNL A   1      36.447  32.098  33.194  1.00  0.00     0.338 C 
ATOM     31  O   UNL A   1      36.616  32.327  34.377  1.00  0.00    -0.246 OA
BRANCH  30  32
ATOM     32  C   UNL A   1      37.478  31.480  32.332  1.00  0.00     0.060 A 
ATOM     33  C   UNL A   1      38.620  30.917  32.926  1.00  0.00     0.016 A 
ATOM     34  C   UNL A   1      37.330  31.467  30.946  1.00  0.00     0.016 A 
ATOM     35  C   UNL A   1      39.614  30.337  32.137  1.00  0.00     0.010 A 
ATOM     36  C   UNL A   1      38.346  30.922  30.154  1.00  0.00     0.010 A 
ATOM     37  C   UNL A   1      39.501  30.375  30.742  1.00  0.00    -0.014 A 
BRANCH  37  38
ATOM     38  C   UNL A   1      40.673  30.024  29.900  1.00  0.00     0.031 A 
ATOM     39  C   UNL A   1      40.747  28.635  29.327  1.00  0.00     0.074 A 
ATOM     40  C   UNL A   1      41.637  30.920  29.623  1.00  0.00     0.049 A 
ATOM     41  N   UNL A   1      41.696  28.075  28.622  1.00  0.00    -0.248 NA
ATOM     42  C   UNL A   1      39.592  27.758  29.584  1.00  0.00     0.031 C 
ATOM     43  C   UNL A   1      41.654  32.310  30.069  1.00  0.00     0.029 A 
ATOM     44  N   UNL A   1      42.800  30.784  28.903  1.00  0.00    -0.354 N 
ATOM     45  C   UNL A   1      41.255  26.785  28.356  1.00  0.00     0.074 A 
ATOM     46  C   UNL A   1      39.972  26.629  29.004  1.00  0.00     0.031 C 
ATOM     47  C   UNL A   1      42.776  32.899  29.619  1.00  0.00     0.029 A 
ATOM     48  C   UNL A   1      43.577  31.917  28.888  1.00  0.00     0.049 A 
ATOM     49  H   UNL A   1      43.053  29.953  28.438  1.00  0.00     0.167 HD
ATOM     50  C   UNL A   1      41.861  25.823  27.624  1.00  0.00     0.037 A 
ATOM     51  C   UNL A   1      44.804  32.127  28.366  1.00  0.00     0.037 A 
ATOM     52  C   UNL A   1      43.136  25.981  26.976  1.00  0.00     0.049 A 
ATOM     53  C   UNL A   1      45.502  31.002  27.640  1.00  0.00     0.074 A 
ATOM     54  C   UNL A   1      43.827  25.062  26.207  1.00  0.00     0.029 A 
ATOM     55  N   UNL A   1      43.913  27.128  27.025  1.00  0.00    -0.354 N 
ATOM     56  N   UNL A   1      45.071  29.792  27.374  1.00  0.00    -0.248 NA
ATOM     57  C   UNL A   1      46.860  31.271  27.139  1.00  0.00     0.031 C 
ATOM     58  C   UNL A   1      45.049  25.629  25.843  1.00  0.00     0.029 A 
ATOM     59  C   UNL A   1      45.090  26.927  26.323  1.00  0.00     0.049 A 
ATOM     60  H   UNL A   1      43.665  27.960  27.488  1.00  0.00     0.167 HD
ATOM     61  C   UNL A   1      46.084  29.172  26.651  1.00  0.00     0.074 A 
ATOM     62  C   UNL A   1      47.145  30.144  26.501  1.00  0.00     0.031 C 
ATOM     63  C   UNL A   1      46.132  27.909  26.161  1.00  0.00     0.037 A 
BRANCH  50  64
ATOM     64  C   UNL A   1      41.165  24.501  27.476  1.00  0.00     0.064 A 
ATOM     65  C   UNL A   1      40.039  24.355  26.655  1.00  0.00     0.173 A 
ATOM     66  C   UNL A   1      41.696  23.349  28.076  1.00  0.00     0.173 A 
ATOM     67  F   UNL A   1      39.485  25.429  26.070  1.00  0.00    -0.203 F 
ATOM     68  C   UNL A   1      39.467  23.104  26.440  1.00  0.00     0.198 A 
ATOM     69  C   UNL A   1      41.142  22.095  27.834  1.00  0.00     0.198 A 
ATOM     70  F   UNL A   1      42.775  23.434  28.868  1.00  0.00    -0.203 F 
ATOM     71  F   UNL A   1      38.377  22.990  25.669  1.00  0.00    -0.200 F 
ATOM     72  C   UNL A   1      40.028  21.974  27.016  1.00  0.00     0.200 A 
ATOM     73  F   UNL A   1      41.697  21.003  28.375  1.00  0.00    -0.200 F 
ATOM     74  F   UNL A   1      39.497  20.766  26.781  1.00  0.00    -0.200 F 
ENDBRANCH  50  64
BRANCH  51  75
ATOM     75  C   UNL A   1      45.463  33.455  28.511  1.00  0.00     0.064 A 
ATOM     76  C   UNL A   1      45.353  34.430  27.509  1.00  0.00     0.173 A 
ATOM     77  C   UNL A   1      46.239  33.769  29.638  1.00  0.00     0.173 A 
ATOM     78  F   UNL A   1      44.649  34.170  26.397  1.00  0.00    -0.203 F 
ATOM     79  C   UNL A   1      46.007  35.657  27.619  1.00  0.00     0.198 A 
ATOM     80  C   UNL A   1      46.862  35.010  29.764  1.00  0.00     0.198 A 
ATOM     81  F   UNL A   1      46.387  32.872  30.624  1.00  0.00    -0.203 F 
ATOM     82  F   UNL A   1      45.928  36.545  26.619  1.00  0.00    -0.200 F 
ATOM     83  C   UNL A   1      46.753  35.949  28.749  1.00  0.00     0.200 A 
ATOM     84  F   UNL A   1      47.572  35.292  30.864  1.00  0.00    -0.200 F 
ATOM     85  F   UNL A   1      47.375  37.131  28.858  1.00  0.00    -0.200 F 
ENDBRANCH  51  75
BRANCH  63  86
ATOM     86  C   UNL A   1      47.351  27.497  25.382  1.00  0.00     0.064 A 
ATOM     87  C   UNL A   1      47.449  27.709  23.999  1.00  0.00     0.173 A 
ATOM     88  C   UNL A   1      48.472  26.968  26.043  1.00  0.00     0.173 A 
ATOM     89  F   UNL A   1      46.404  28.203  23.316  1.00  0.00    -0.203 F 
ATOM     90  C   UNL A   1      48.614  27.391  23.305  1.00  0.00     0.198 A 
ATOM     91  C   UNL A   1      49.648  26.688  25.354  1.00  0.00     0.198 A 
ATOM     92  F   UNL A   1      48.439  26.757  27.368  1.00  0.00    -0.203 F 
ATOM     93  F   UNL A   1      48.669  27.566  21.978  1.00  0.00    -0.200 F 
ATOM     94  C   UNL A   1      49.716  26.894  23.985  1.00  0.00     0.200 A 
ATOM     95  F   UNL A   1      50.720  26.231  26.017  1.00  0.00    -0.200 F 
ATOM     96  F   UNL A   1      50.845  26.613  23.319  1.00  0.00    -0.200 F 
ENDBRANCH  63  86
ENDBRANCH  37  38
ENDBRANCH  30  32
ENDBRANCH  29  30
ENDBRANCH  28  29
ENDBRANCH  27  28
ENDBRANCH  26  27
ENDBRANCH   1  26
TORSDOF 19
ENDMDL
MODEL 3
REMARK VINA RESULT:     -10.6      3.795      9.079
REMARK SMILES C#Cc1cc(Cl)c2c(c1)C=C(C(=O)OCCOCCOCCOC(=O)c1ccc(-c3c4nc(c(-c5c(F)c(F)c(F)c(F)c5F)c5ccc([nH]5)c(-c5c(F)c(F)c(F)c(F)c5F)c5nc(c(-c6c(F)c(F)c(F)c(F)c6F)c6ccc3[nH]6)C=C5)C=C4)cc1)[C@@H](C(F)(F)F)O2
REMARK SMILES IDX 19 1 18 2 17 3 16 4 15 5 14 6 12 7 13 8 11 9 3 10 4 11 9 12
REMARK SMILES IDX 5 13 8 14 6 15 7 16 10 17 94 18 89 19 2 20 1 21 90 22 91 23
REMARK SMILES IDX 92 24 93 25 20 26 21 27 22 28 23 29 24 30 25 31 26 32 27 33
REMARK SMILES IDX 88 34 28 35 87 36 29 37 30 38 31 39 81 40 32 41 86 42 80 43
REMARK SMILES IDX 82 44 33 45 85 46 79 47 78 48 34 50 66 51 46 52 65 53 47 54
REMARK SMILES IDX 50 55 64 56 83 57 48 58 49 59 63 61 84 62 51 63 35 64 36 65
REMARK SMILES IDX 44 66 37 67 38 68 42 69 45 70 39 71 40 72 43 73 41 74 67 75
REMARK SMILES IDX 68 76 76 77 69 78 70 79 74 80 77 81 71 82 72 83 75 84 73 85
REMARK SMILES IDX 52 86 53 87 61 88 54 89 55 90 59 91 62 92 56 93 57 94 60 95
REMARK SMILES IDX 58 96
REMARK H PARENT 82 49 50 60
REMARK Flexibility Score: inf
ROOT
ATOM      1  C   UNL A   1      34.359  33.033  28.958  1.00  0.00     0.188 C 
ENDROOT
BRANCH   1   2
ATOM      2  C   UNL A   1      35.007  31.738  28.424  1.00  0.00     0.188 C 
BRANCH   2   3
ATOM      3  O   UNL A   1      34.201  30.805  27.741  1.00  0.00    -0.376 OA
BRANCH   3   4
ATOM      4  C   UNL A   1      34.780  29.734  27.016  1.00  0.00     0.202 C 
BRANCH   4   5
ATOM      5  C   UNL A   1      33.994  28.571  26.377  1.00  0.00     0.261 C 
BRANCH   5   6
ATOM      6  O   UNL A   1      33.867  28.565  24.950  1.00  0.00    -0.460 OA
BRANCH   6   7
ATOM      7  C   UNL A   1      33.414  27.412  24.403  1.00  0.00     0.338 C 
ATOM      8  O   UNL A   1      33.998  26.341  24.367  1.00  0.00    -0.246 OA
BRANCH   7   9
ATOM      9  C   UNL A   1      32.000  27.581  24.000  1.00  0.00     0.087 C 
ATOM     10  C   UNL A   1      28.640  30.294  21.869  1.00  0.00     0.027 A 
ATOM     11  C   UNL A   1      27.640  29.499  22.429  1.00  0.00     0.041 A 
ATOM     12  C   UNL A   1      29.984  29.962  22.061  1.00  0.00     0.029 A 
ATOM     13  C   UNL A   1      27.986  28.359  23.157  1.00  0.00     0.084 A 
ATOM     14  C   UNL A   1      30.332  28.847  22.836  1.00  0.00     0.020 A 
ATOM     15  Cl  UNL A   1      26.714  27.411  23.842  1.00  0.00    -0.080 Cl
ATOM     16  C   UNL A   1      29.332  28.023  23.361  1.00  0.00     0.146 A 
ATOM     17  C   UNL A   1      31.726  28.596  23.168  1.00  0.00     0.027 C 
ATOM     18  O   UNL A   1      29.608  26.889  24.077  1.00  0.00    -0.474 OA
ATOM     19  C   UNL A   1      30.965  26.622  24.518  1.00  0.00     0.316 C 
BRANCH  10  20
ATOM     20  C   UNL A   1      28.287  31.475  21.141  1.00  0.00    -0.070 C 
ATOM     21  C   UNL A   1      27.992  32.451  20.511  1.00  0.00     0.010 C 
ENDBRANCH  10  20
BRANCH  19  22
ATOM     22  C   UNL A   1      30.973  26.539  26.048  1.00  0.00     0.430 C 
ATOM     23  F   UNL A   1      32.042  25.846  26.503  1.00  0.00    -0.167 F 
ATOM     24  F   UNL A   1      31.036  27.768  26.614  1.00  0.00    -0.167 F 
ATOM     25  F   UNL A   1      29.860  25.934  26.522  1.00  0.00    -0.167 F 
ENDBRANCH  19  22
ENDBRANCH   7   9
ENDBRANCH   6   7
ENDBRANCH   5   6
ENDBRANCH   4   5
ENDBRANCH   3   4
ENDBRANCH   2   3
ENDBRANCH   1   2
BRANCH   1  26
ATOM     26  O   UNL A   1      34.498  34.199  28.187  1.00  0.00    -0.376 OA
BRANCH  26  27
ATOM     27  C   UNL A   1      34.125  35.450  28.744  1.00  0.00     0.202 C 
BRANCH  27  28
ATOM     28  C   UNL A   1      32.875  35.720  29.619  1.00  0.00     0.261 C 
BRANCH  28  29
ATOM     29  O   UNL A   1      33.042  36.366  30.889  1.00  0.00    -0.460 OA
BRANCH  29  30
ATOM     30  C   UNL A   1      32.681  35.647  31.983  1.00  0.00     0.338 C 
ATOM     31  O   UNL A   1      31.552  35.427  32.382  1.00  0.00    -0.246 OA
BRANCH  30  32
ATOM     32  C   UNL A   1      33.879  34.971  32.527  1.00  0.00     0.060 A 
ATOM     33  C   UNL A   1      35.136  35.579  32.377  1.00  0.00     0.016 A 
ATOM     34  C   UNL A   1      33.768  33.737  33.166  1.00  0.00     0.016 A 
ATOM     35  C   UNL A   1      36.285  34.958  32.871  1.00  0.00     0.010 A 
ATOM     36  C   UNL A   1      34.925  33.096  33.624  1.00  0.00     0.010 A 
ATOM     37  C   UNL A   1      36.189  33.691  33.460  1.00  0.00    -0.014 A 
BRANCH  37  38
ATOM     38  C   UNL A   1      37.422  32.908  33.723  1.00  0.00     0.031 A 
ATOM     39  C   UNL A   1      38.174  33.171  34.999  1.00  0.00     0.074 A 
ATOM     40  C   UNL A   1      37.855  31.964  32.867  1.00  0.00     0.049 A 
ATOM     41  N   UNL A   1      39.306  32.666  35.417  1.00  0.00    -0.248 NA
ATOM     42  C   UNL A   1      37.566  34.137  35.930  1.00  0.00     0.031 C 
ATOM     43  C   UNL A   1      37.188  31.574  31.629  1.00  0.00     0.029 A 
ATOM     44  N   UNL A   1      38.973  31.165  32.913  1.00  0.00    -0.354 N 
ATOM     45  C   UNL A   1      39.545  33.252  36.653  1.00  0.00     0.074 A 
ATOM     46  C   UNL A   1      38.464  34.178  36.904  1.00  0.00     0.031 C 
ATOM     47  C   UNL A   1      37.913  30.616  31.026  1.00  0.00     0.029 A 
ATOM     48  C   UNL A   1      39.116  30.352  31.814  1.00  0.00     0.049 A 
ATOM     49  H   UNL A   1      39.611  31.173  33.663  1.00  0.00     0.167 HD
ATOM     50  C   UNL A   1      40.568  33.025  37.509  1.00  0.00     0.037 A 
ATOM     51  C   UNL A   1      40.117  29.512  31.475  1.00  0.00     0.037 A 
ATOM     52  C   UNL A   1      41.641  32.100  37.260  1.00  0.00     0.049 A 
ATOM     53  C   UNL A   1      41.299  29.355  32.402  1.00  0.00     0.074 A 
ATOM     54  C   UNL A   1      42.720  31.799  38.073  1.00  0.00     0.029 A 
ATOM     55  N   UNL A   1      41.775  31.331  36.115  1.00  0.00    -0.354 N 
ATOM     56  N   UNL A   1      41.508  29.896  33.578  1.00  0.00    -0.248 NA
ATOM     57  C   UNL A   1      42.385  28.468  31.956  1.00  0.00     0.031 C 
ATOM     58  C   UNL A   1      43.539  30.897  37.393  1.00  0.00     0.029 A 
ATOM     59  C   UNL A   1      42.936  30.578  36.189  1.00  0.00     0.049 A 
ATOM     60  H   UNL A   1      41.140  31.321  35.363  1.00  0.00     0.167 HD
ATOM     61  C   UNL A   1      42.725  29.392  34.024  1.00  0.00     0.074 A 
ATOM     62  C   UNL A   1      43.200  28.485  33.002  1.00  0.00     0.031 C 
ATOM     63  C   UNL A   1      43.390  29.661  35.174  1.00  0.00     0.037 A 
BRANCH  50  64
ATOM     64  C   UNL A   1      40.593  33.788  38.802  1.00  0.00     0.064 A 
ATOM     65  C   UNL A   1      39.971  33.292  39.956  1.00  0.00     0.173 A 
ATOM     66  C   UNL A   1      41.338  34.972  38.912  1.00  0.00     0.173 A 
ATOM     67  F   UNL A   1      39.235  32.171  39.898  1.00  0.00    -0.203 F 
ATOM     68  C   UNL A   1      40.092  33.954  41.175  1.00  0.00     0.198 A 
ATOM     69  C   UNL A   1      41.484  35.614  40.139  1.00  0.00     0.198 A 
ATOM     70  F   UNL A   1      41.955  35.486  37.839  1.00  0.00    -0.203 F 
ATOM     71  F   UNL A   1      39.471  33.474  42.260  1.00  0.00    -0.200 F 
ATOM     72  C   UNL A   1      40.861  35.105  41.269  1.00  0.00     0.200 A 
ATOM     73  F   UNL A   1      42.243  36.714  40.232  1.00  0.00    -0.200 F 
ATOM     74  F   UNL A   1      41.004  35.722  42.449  1.00  0.00    -0.200 F 
ENDBRANCH  50  64
BRANCH  51  75
ATOM     75  C   UNL A   1      40.057  28.753  30.195  1.00  0.00     0.064 A 
ATOM     76  C   UNL A   1      39.472  27.481  30.135  1.00  0.00     0.173 A 
ATOM     77  C   UNL A   1      40.607  29.269  29.010  1.00  0.00     0.173 A 
ATOM     78  F   UNL A   1      38.959  26.928  31.245  1.00  0.00    -0.203 F 
ATOM     79  C   UNL A   1      39.455  26.747  28.950  1.00  0.00     0.198 A 
ATOM     80  C   UNL A   1      40.557  28.550  27.817  1.00  0.00     0.198 A 
ATOM     81  F   UNL A   1      41.188  30.478  29.009  1.00  0.00    -0.203 F 
ATOM     82  F   UNL A   1      38.938  25.510  28.939  1.00  0.00    -0.200 F 
ATOM     83  C   UNL A   1      39.989  27.285  27.790  1.00  0.00     0.200 A 
ATOM     84  F   UNL A   1      41.064  29.080  26.696  1.00  0.00    -0.200 F 
ATOM     85  F   UNL A   1      39.967  26.583  26.649  1.00  0.00    -0.200 F 
ENDBRANCH  51  75
BRANCH  63  86
ATOM     86  C   UNL A   1      44.692  28.950  35.423  1.00  0.00     0.064 A 
ATOM     87  C   UNL A   1      44.739  27.702  36.062  1.00  0.00     0.173 A 
ATOM     88  C   UNL A   1      45.897  29.480  34.934  1.00  0.00     0.173 A 
ATOM     89  F   UNL A   1      43.618  27.154  36.557  1.00  0.00    -0.203 F 
ATOM     90  C   UNL A   1      45.944  27.021  36.217  1.00  0.00     0.198 A 
ATOM     91  C   UNL A   1      47.093  28.779  35.056  1.00  0.00     0.198 A 
ATOM     92  F   UNL A   1      45.908  30.664  34.302  1.00  0.00    -0.203 F 
ATOM     93  F   UNL A   1      45.969  25.849  36.866  1.00  0.00    -0.200 F 
ATOM     94  C   UNL A   1      47.117  27.554  35.702  1.00  0.00     0.200 A 
ATOM     95  F   UNL A   1      48.220  29.284  34.536  1.00  0.00    -0.200 F 
ATOM     96  F   UNL A   1      48.271  26.884  35.831  1.00  0.00    -0.200 F 
ENDBRANCH  63  86
ENDBRANCH  37  38
ENDBRANCH  30  32
ENDBRANCH  29  30
ENDBRANCH  28  29
ENDBRANCH  27  28
ENDBRANCH  26  27
ENDBRANCH   1  26
TORSDOF 19
ENDMDL
