MODEL 1
REMARK VINA RESULT:     -10.9      0.000      0.000
REMARK SMILES C[C@@H](C(=O)OCCOCCOCCOC(=O)c1ccc(-c2c3nc(c(-c4c(F)c(F)c(F)c(F)c4F)c4ccc([nH]4)c(-c4c(F)c(F)c(F)c(F)c4F)c4nc(c(-c5c(F)c(F)c(F)c(F)c5F)c5ccc2[nH]5)C=C4)C=C3)cc1)c1ccc(C[C@@H]2CCC[C@@H]2O)cc1
REMARK SMILES IDX 9 1 8 2 7 3 6 4 5 5 3 6 4 7 2 8 1 9 80 10 81 11 92 12 82 13
REMARK SMILES IDX 91 14 83 15 84 16 85 17 86 18 89 19 87 20 88 21 90 22 10 24
REMARK SMILES IDX 11 25 12 26 13 27 14 28 15 29 16 30 17 31 18 32 79 33 19 34
REMARK SMILES IDX 78 35 20 36 21 37 22 38 72 39 23 40 77 41 71 42 73 43 24 44
REMARK SMILES IDX 76 45 70 46 69 47 25 49 57 50 37 51 56 52 38 53 41 54 55 55
REMARK SMILES IDX 74 56 39 57 40 58 54 60 75 61 42 62 26 63 27 64 35 65 28 66
REMARK SMILES IDX 29 67 33 68 36 69 30 70 31 71 34 72 32 73 58 74 59 75 67 76
REMARK SMILES IDX 60 77 61 78 65 79 68 80 62 81 63 82 66 83 64 84 43 85 44 86
REMARK SMILES IDX 52 87 45 88 46 89 50 90 53 91 47 92 48 93 51 94 49 95
REMARK H PARENT 90 23 73 48 41 59
REMARK Flexibility Score: inf
ROOT
ATOM      1  C   UNL A   1      34.009  27.041  23.756  1.00  0.00     0.188 C 
ENDROOT
BRANCH   1   2
ATOM      2  O   UNL A   1      33.587  25.979  22.909  1.00  0.00    -0.376 OA
BRANCH   2   3
ATOM      3  C   UNL A   1      32.964  26.297  21.669  1.00  0.00     0.202 C 
BRANCH   3   4
ATOM      4  C   UNL A   1      31.429  26.243  21.569  1.00  0.00     0.261 C 
BRANCH   4   5
ATOM      5  O   UNL A   1      30.733  27.486  21.817  1.00  0.00    -0.463 OA
BRANCH   5   6
ATOM      6  C   UNL A   1      30.068  27.584  23.002  1.00  0.00     0.313 C 
ATOM      7  O   UNL A   1      29.987  28.627  23.645  1.00  0.00    -0.252 OA
BRANCH   6   8
ATOM      8  C   UNL A   1      29.424  26.268  23.494  1.00  0.00     0.126 C 
ATOM      9  C   UNL A   1      28.037  26.318  24.141  1.00  0.00     0.025 C 
BRANCH   8  10
ATOM     10  C   UNL A   1      30.417  25.481  24.346  1.00  0.00    -0.034 A 
ATOM     11  C   UNL A   1      30.702  24.133  24.090  1.00  0.00     0.005 A 
ATOM     12  C   UNL A   1      30.976  26.071  25.486  1.00  0.00     0.005 A 
ATOM     13  C   UNL A   1      31.430  23.371  25.002  1.00  0.00     0.004 A 
ATOM     14  C   UNL A   1      31.700  25.305  26.402  1.00  0.00     0.004 A 
ATOM     15  C   UNL A   1      31.874  23.935  26.198  1.00  0.00    -0.048 A 
BRANCH  15  16
ATOM     16  C   UNL A   1      32.439  23.066  27.291  1.00  0.00     0.041 C 
BRANCH  16  17
ATOM     17  C   UNL A   1      33.925  22.673  27.154  1.00  0.00     0.022 C 
ATOM     18  C   UNL A   1      34.767  23.595  26.282  1.00  0.00     0.007 C 
ATOM     19  C   UNL A   1      34.279  21.314  26.547  1.00  0.00     0.117 C 
ATOM     20  C   UNL A   1      34.870  22.986  24.891  1.00  0.00     0.003 C 
ATOM     21  C   UNL A   1      34.395  21.549  25.042  1.00  0.00     0.032 C 
BRANCH  19  22
ATOM     22  O   UNL A   1      33.364  20.298  26.885  1.00  0.00    -0.393 OA
ATOM     23  H   UNL A   1      32.560  20.697  27.253  1.00  0.00     0.210 HD
ENDBRANCH  19  22
ENDBRANCH  16  17
ENDBRANCH  15  16
ENDBRANCH   8  10
ENDBRANCH   6   8
ENDBRANCH   5   6
ENDBRANCH   4   5
ENDBRANCH   3   4
ENDBRANCH   2   3
ENDBRANCH   1   2
BRANCH   1  24
ATOM     24  C   UNL A   1      34.066  28.467  23.178  1.00  0.00     0.188 C 
BRANCH  24  25
ATOM     25  O   UNL A   1      33.127  29.346  23.745  1.00  0.00    -0.376 OA
BRANCH  25  26
ATOM     26  C   UNL A   1      32.904  29.297  25.139  1.00  0.00     0.202 C 
BRANCH  26  27
ATOM     27  C   UNL A   1      32.060  30.392  25.811  1.00  0.00     0.261 C 
BRANCH  27  28
ATOM     28  O   UNL A   1      32.379  30.742  27.169  1.00  0.00    -0.460 OA
BRANCH  28  29
ATOM     29  C   UNL A   1      33.146  31.842  27.365  1.00  0.00     0.338 C 
ATOM     30  O   UNL A   1      32.786  33.000  27.321  1.00  0.00    -0.246 OA
BRANCH  29  31
ATOM     31  C   UNL A   1      34.486  31.393  27.826  1.00  0.00     0.060 A 
ATOM     32  C   UNL A   1      34.698  30.035  28.091  1.00  0.00     0.016 A 
ATOM     33  C   UNL A   1      35.522  32.310  28.022  1.00  0.00     0.016 A 
ATOM     34  C   UNL A   1      35.942  29.602  28.574  1.00  0.00     0.010 A 
ATOM     35  C   UNL A   1      36.756  31.878  28.527  1.00  0.00     0.010 A 
ATOM     36  C   UNL A   1      36.976  30.524  28.821  1.00  0.00    -0.014 A 
BRANCH  36  37
ATOM     37  C   UNL A   1      38.207  30.081  29.536  1.00  0.00     0.031 A 
ATOM     38  C   UNL A   1      38.367  30.422  30.985  1.00  0.00     0.074 A 
ATOM     39  C   UNL A   1      39.227  29.460  28.914  1.00  0.00     0.049 A 
ATOM     40  N   UNL A   1      39.347  30.126  31.798  1.00  0.00    -0.248 NA
ATOM     41  C   UNL A   1      37.336  31.294  31.564  1.00  0.00     0.031 C 
ATOM     42  C   UNL A   1      39.335  29.283  27.477  1.00  0.00     0.029 A 
ATOM     43  N   UNL A   1      40.358  28.842  29.413  1.00  0.00    -0.354 N 
ATOM     44  C   UNL A   1      39.107  30.855  32.951  1.00  0.00     0.074 A 
ATOM     45  C   UNL A   1      37.858  31.563  32.750  1.00  0.00     0.031 C 
ATOM     46  C   UNL A   1      40.397  28.502  27.218  1.00  0.00     0.029 A 
ATOM     47  C   UNL A   1      41.026  28.092  28.466  1.00  0.00     0.049 A 
ATOM     48  H   UNL A   1      40.655  28.926  30.347  1.00  0.00     0.167 HD
ATOM     49  C   UNL A   1      39.895  30.974  34.047  1.00  0.00     0.037 A 
ATOM     50  C   UNL A   1      41.983  27.148  28.613  1.00  0.00     0.037 A 
ATOM     51  C   UNL A   1      41.153  30.295  34.224  1.00  0.00     0.049 A 
ATOM     52  C   UNL A   1      42.699  27.080  29.938  1.00  0.00     0.074 A 
ATOM     53  C   UNL A   1      42.026  30.361  35.296  1.00  0.00     0.029 A 
ATOM     54  N   UNL A   1      41.726  29.429  33.302  1.00  0.00    -0.354 N 
ATOM     55  N   UNL A   1      42.451  27.741  31.042  1.00  0.00    -0.248 NA
ATOM     56  C   UNL A   1      43.893  26.222  30.011  1.00  0.00     0.031 C 
ATOM     57  C   UNL A   1      43.143  29.569  35.008  1.00  0.00     0.029 A 
ATOM     58  C   UNL A   1      42.937  28.954  33.785  1.00  0.00     0.049 A 
ATOM     59  H   UNL A   1      41.331  29.187  32.433  1.00  0.00     0.167 HD
ATOM     60  C   UNL A   1      43.491  27.440  31.907  1.00  0.00     0.074 A 
ATOM     61  C   UNL A   1      44.318  26.452  31.245  1.00  0.00     0.031 C 
ATOM     62  C   UNL A   1      43.770  27.988  33.114  1.00  0.00     0.037 A 
BRANCH  49  63
ATOM     63  C   UNL A   1      39.450  31.945  35.099  1.00  0.00     0.064 A 
ATOM     64  C   UNL A   1      39.791  33.305  35.048  1.00  0.00     0.173 A 
ATOM     65  C   UNL A   1      38.677  31.502  36.185  1.00  0.00     0.173 A 
ATOM     66  F   UNL A   1      40.549  33.773  34.045  1.00  0.00    -0.203 F 
ATOM     67  C   UNL A   1      39.405  34.177  36.062  1.00  0.00     0.198 A 
ATOM     68  C   UNL A   1      38.262  32.384  37.176  1.00  0.00     0.198 A 
ATOM     69  F   UNL A   1      38.329  30.211  36.286  1.00  0.00    -0.203 F 
ATOM     70  F   UNL A   1      39.801  35.457  36.026  1.00  0.00    -0.200 F 
ATOM     71  C   UNL A   1      38.635  33.719  37.120  1.00  0.00     0.200 A 
ATOM     72  F   UNL A   1      37.509  31.941  38.193  1.00  0.00    -0.200 F 
ATOM     73  F   UNL A   1      38.264  34.560  38.093  1.00  0.00    -0.200 F 
ENDBRANCH  49  63
BRANCH  50  74
ATOM     74  C   UNL A   1      42.327  26.173  27.527  1.00  0.00     0.064 A 
ATOM     75  C   UNL A   1      41.614  24.961  27.419  1.00  0.00     0.173 A 
ATOM     76  C   UNL A   1      43.359  26.378  26.603  1.00  0.00     0.173 A 
ATOM     77  F   UNL A   1      40.635  24.679  28.293  1.00  0.00    -0.203 F 
ATOM     78  C   UNL A   1      41.930  24.004  26.452  1.00  0.00     0.198 A 
ATOM     79  C   UNL A   1      43.635  25.448  25.598  1.00  0.00     0.198 A 
ATOM     80  F   UNL A   1      44.118  27.481  26.674  1.00  0.00    -0.203 F 
ATOM     81  F   UNL A   1      41.284  22.830  26.434  1.00  0.00    -0.200 F 
ATOM     82  C   UNL A   1      42.930  24.257  25.530  1.00  0.00     0.200 A 
ATOM     83  F   UNL A   1      44.596  25.705  24.701  1.00  0.00    -0.200 F 
ATOM     84  F   UNL A   1      43.228  23.349  24.591  1.00  0.00    -0.200 F 
ENDBRANCH  50  74
BRANCH  62  85
ATOM     85  C   UNL A   1      45.043  27.556  33.784  1.00  0.00     0.064 A 
ATOM     86  C   UNL A   1      46.251  28.239  33.572  1.00  0.00     0.173 A 
ATOM     87  C   UNL A   1      45.051  26.469  34.670  1.00  0.00     0.173 A 
ATOM     88  F   UNL A   1      46.302  29.280  32.726  1.00  0.00    -0.203 F 
ATOM     89  C   UNL A   1      47.427  27.829  34.196  1.00  0.00     0.198 A 
ATOM     90  C   UNL A   1      46.222  26.081  35.316  1.00  0.00     0.198 A 
ATOM     91  F   UNL A   1      43.922  25.787  34.913  1.00  0.00    -0.203 F 
ATOM     92  F   UNL A   1      48.579  28.464  33.938  1.00  0.00    -0.200 F 
ATOM     93  C   UNL A   1      47.409  26.754  35.073  1.00  0.00     0.200 A 
ATOM     94  F   UNL A   1      46.201  25.051  36.173  1.00  0.00    -0.200 F 
ATOM     95  F   UNL A   1      48.539  26.362  35.676  1.00  0.00    -0.200 F 
ENDBRANCH  62  85
ENDBRANCH  36  37
ENDBRANCH  29  31
ENDBRANCH  28  29
ENDBRANCH  27  28
ENDBRANCH  26  27
ENDBRANCH  25  26
ENDBRANCH  24  25
ENDBRANCH   1  24
TORSDOF 21
ENDMDL
MODEL 2
REMARK VINA RESULT:     -10.8      1.460      2.666
REMARK SMILES C[C@@H](C(=O)OCCOCCOCCOC(=O)c1ccc(-c2c3nc(c(-c4c(F)c(F)c(F)c(F)c4F)c4ccc([nH]4)c(-c4c(F)c(F)c(F)c(F)c4F)c4nc(c(-c5c(F)c(F)c(F)c(F)c5F)c5ccc2[nH]5)C=C4)C=C3)cc1)c1ccc(C[C@@H]2CCC[C@@H]2O)cc1
REMARK SMILES IDX 9 1 8 2 7 3 6 4 5 5 3 6 4 7 2 8 1 9 80 10 81 11 92 12 82 13
REMARK SMILES IDX 91 14 83 15 84 16 85 17 86 18 89 19 87 20 88 21 90 22 10 24
REMARK SMILES IDX 11 25 12 26 13 27 14 28 15 29 16 30 17 31 18 32 79 33 19 34
REMARK SMILES IDX 78 35 20 36 21 37 22 38 72 39 23 40 77 41 71 42 73 43 24 44
REMARK SMILES IDX 76 45 70 46 69 47 25 49 57 50 37 51 56 52 38 53 41 54 55 55
REMARK SMILES IDX 74 56 39 57 40 58 54 60 75 61 42 62 26 63 27 64 35 65 28 66
REMARK SMILES IDX 29 67 33 68 36 69 30 70 31 71 34 72 32 73 58 74 59 75 67 76
REMARK SMILES IDX 60 77 61 78 65 79 68 80 62 81 63 82 66 83 64 84 43 85 44 86
REMARK SMILES IDX 52 87 45 88 46 89 50 90 53 91 47 92 48 93 51 94 49 95
REMARK H PARENT 90 23 73 48 41 59
REMARK Flexibility Score: inf
ROOT
ATOM      1  C   UNL A   1      33.365  28.796  22.872  1.00  0.00     0.188 C 
ENDROOT
BRANCH   1   2
ATOM      2  O   UNL A   1      34.010  27.694  22.246  1.00  0.00    -0.376 OA
BRANCH   2   3
ATOM      3  C   UNL A   1      33.231  26.560  21.879  1.00  0.00     0.202 C 
BRANCH   3   4
ATOM      4  C   UNL A   1      33.508  25.211  22.566  1.00  0.00     0.261 C 
BRANCH   4   5
ATOM      5  O   UNL A   1      34.194  25.275  23.838  1.00  0.00    -0.463 OA
BRANCH   5   6
ATOM      6  C   UNL A   1      33.454  25.679  24.908  1.00  0.00     0.313 C 
ATOM      7  O   UNL A   1      33.817  26.559  25.684  1.00  0.00    -0.252 OA
BRANCH   6   8
ATOM      8  C   UNL A   1      32.113  24.932  25.087  1.00  0.00     0.126 C 
ATOM      9  C   UNL A   1      31.180  25.348  26.228  1.00  0.00     0.025 C 
BRANCH   8  10
ATOM     10  C   UNL A   1      32.344  23.423  25.068  1.00  0.00    -0.034 A 
ATOM     11  C   UNL A   1      33.158  22.788  26.015  1.00  0.00     0.005 A 
ATOM     12  C   UNL A   1      31.832  22.655  24.014  1.00  0.00     0.005 A 
ATOM     13  C   UNL A   1      33.538  21.458  25.853  1.00  0.00     0.004 A 
ATOM     14  C   UNL A   1      32.218  21.324  23.850  1.00  0.00     0.004 A 
ATOM     15  C   UNL A   1      33.128  20.736  24.732  1.00  0.00    -0.048 A 
BRANCH  15  16
ATOM     16  C   UNL A   1      33.729  19.390  24.424  1.00  0.00     0.041 C 
BRANCH  16  17
ATOM     17  C   UNL A   1      32.753  18.196  24.388  1.00  0.00     0.022 C 
ATOM     18  C   UNL A   1      32.509  17.512  25.726  1.00  0.00     0.007 C 
ATOM     19  C   UNL A   1      33.091  16.988  23.513  1.00  0.00     0.117 C 
ATOM     20  C   UNL A   1      33.407  16.285  25.814  1.00  0.00     0.003 C 
ATOM     21  C   UNL A   1      33.911  16.051  24.398  1.00  0.00     0.032 C 
BRANCH  19  22
ATOM     22  O   UNL A   1      33.742  17.334  22.313  1.00  0.00    -0.393 OA
ATOM     23  H   UNL A   1      33.690  18.294  22.183  1.00  0.00     0.210 HD
ENDBRANCH  19  22
ENDBRANCH  16  17
ENDBRANCH  15  16
ENDBRANCH   8  10
ENDBRANCH   6   8
ENDBRANCH   5   6
ENDBRANCH   4   5
ENDBRANCH   3   4
ENDBRANCH   2   3
ENDBRANCH   1   2
BRANCH   1  24
ATOM     24  C   UNL A   1      31.839  28.939  22.722  1.00  0.00     0.188 C 
BRANCH  24  25
ATOM     25  O   UNL A   1      31.169  29.169  23.937  1.00  0.00    -0.376 OA
BRANCH  25  26
ATOM     26  C   UNL A   1      31.933  29.409  25.100  1.00  0.00     0.202 C 
BRANCH  26  27
ATOM     27  C   UNL A   1      31.645  30.654  25.953  1.00  0.00     0.261 C 
BRANCH  27  28
ATOM     28  O   UNL A   1      32.360  30.794  27.194  1.00  0.00    -0.460 OA
BRANCH  28  29
ATOM     29  C   UNL A   1      33.153  31.883  27.337  1.00  0.00     0.338 C 
ATOM     30  O   UNL A   1      32.819  33.046  27.243  1.00  0.00    -0.246 OA
BRANCH  29  31
ATOM     31  C   UNL A   1      34.485  31.424  27.810  1.00  0.00     0.060 A 
ATOM     32  C   UNL A   1      34.697  30.058  28.038  1.00  0.00     0.016 A 
ATOM     33  C   UNL A   1      35.514  32.338  28.056  1.00  0.00     0.016 A 
ATOM     34  C   UNL A   1      35.932  29.615  28.531  1.00  0.00     0.010 A 
ATOM     35  C   UNL A   1      36.739  31.894  28.572  1.00  0.00     0.010 A 
ATOM     36  C   UNL A   1      36.957  30.531  28.828  1.00  0.00    -0.014 A 
BRANCH  36  37
ATOM     37  C   UNL A   1      38.175  30.070  29.553  1.00  0.00     0.031 A 
ATOM     38  C   UNL A   1      38.318  30.392  31.009  1.00  0.00     0.074 A 
ATOM     39  C   UNL A   1      39.199  29.449  28.937  1.00  0.00     0.049 A 
ATOM     40  N   UNL A   1      39.286  30.078  31.831  1.00  0.00    -0.248 NA
ATOM     41  C   UNL A   1      37.287  31.265  31.585  1.00  0.00     0.031 C 
ATOM     42  C   UNL A   1      39.324  29.289  27.499  1.00  0.00     0.029 A 
ATOM     43  N   UNL A   1      40.318  28.815  29.443  1.00  0.00    -0.354 N 
ATOM     44  C   UNL A   1      39.036  30.795  32.989  1.00  0.00     0.074 A 
ATOM     45  C   UNL A   1      37.796  31.515  32.781  1.00  0.00     0.031 C 
ATOM     46  C   UNL A   1      40.383  28.502  27.245  1.00  0.00     0.029 A 
ATOM     47  C   UNL A   1      40.993  28.072  28.496  1.00  0.00     0.049 A 
ATOM     48  H   UNL A   1      40.603  28.885  30.382  1.00  0.00     0.167 HD
ATOM     49  C   UNL A   1      39.811  30.894  34.096  1.00  0.00     0.037 A 
ATOM     50  C   UNL A   1      41.941  27.119  28.643  1.00  0.00     0.037 A 
ATOM     51  C   UNL A   1      41.061  30.203  34.282  1.00  0.00     0.049 A 
ATOM     52  C   UNL A   1      42.638  27.028  29.977  1.00  0.00     0.074 A 
ATOM     53  C   UNL A   1      41.920  30.249  35.366  1.00  0.00     0.029 A 
ATOM     54  N   UNL A   1      41.639  29.344  33.357  1.00  0.00    -0.354 N 
ATOM     55  N   UNL A   1      42.380  27.678  31.085  1.00  0.00    -0.248 NA
ATOM     56  C   UNL A   1      43.824  26.160  30.055  1.00  0.00     0.031 C 
ATOM     57  C   UNL A   1      43.034  29.452  35.083  1.00  0.00     0.029 A 
ATOM     58  C   UNL A   1      42.840  28.853  33.850  1.00  0.00     0.049 A 
ATOM     59  H   UNL A   1      41.254  29.116  32.480  1.00  0.00     0.167 HD
ATOM     60  C   UNL A   1      43.407  27.358  31.961  1.00  0.00     0.074 A 
ATOM     61  C   UNL A   1      44.234  26.372  31.297  1.00  0.00     0.031 C 
ATOM     62  C   UNL A   1      43.674  27.889  33.178  1.00  0.00     0.037 A 
BRANCH  49  63
ATOM     63  C   UNL A   1      39.359  31.856  35.154  1.00  0.00     0.064 A 
ATOM     64  C   UNL A   1      38.553  31.454  36.229  1.00  0.00     0.173 A 
ATOM     65  C   UNL A   1      39.731  33.208  35.082  1.00  0.00     0.173 A 
ATOM     66  F   UNL A   1      38.149  30.178  36.329  1.00  0.00    -0.203 F 
ATOM     67  C   UNL A   1      38.107  32.375  37.172  1.00  0.00     0.198 A 
ATOM     68  C   UNL A   1      39.314  34.119  36.047  1.00  0.00     0.198 A 
ATOM     69  F   UNL A   1      40.496  33.648  34.071  1.00  0.00    -0.203 F 
ATOM     70  F   UNL A   1      37.282  31.981  38.152  1.00  0.00    -0.200 F 
ATOM     71  C   UNL A   1      38.494  33.704  37.086  1.00  0.00     0.200 A 
ATOM     72  F   UNL A   1      39.699  35.401  35.968  1.00  0.00    -0.200 F 
ATOM     73  F   UNL A   1      38.066  34.589  37.996  1.00  0.00    -0.200 F 
ENDBRANCH  49  63
BRANCH  50  74
ATOM     74  C   UNL A   1      42.291  26.155  27.551  1.00  0.00     0.064 A 
ATOM     75  C   UNL A   1      43.341  26.455  26.658  1.00  0.00     0.173 A 
ATOM     76  C   UNL A   1      41.606  24.953  27.331  1.00  0.00     0.173 A 
ATOM     77  F   UNL A   1      44.019  27.606  26.783  1.00  0.00    -0.203 F 
ATOM     78  C   UNL A   1      43.671  25.608  25.598  1.00  0.00     0.198 A 
ATOM     79  C   UNL A   1      41.976  24.078  26.308  1.00  0.00     0.198 A 
ATOM     80  F   UNL A   1      40.560  24.623  28.103  1.00  0.00    -0.203 F 
ATOM     81  F   UNL A   1      44.621  25.967  24.722  1.00  0.00    -0.200 F 
ATOM     82  C   UNL A   1      42.999  24.410  25.435  1.00  0.00     0.200 A 
ATOM     83  F   UNL A   1      41.329  22.913  26.163  1.00  0.00    -0.200 F 
ATOM     84  F   UNL A   1      43.321  23.585  24.428  1.00  0.00    -0.200 F 
ENDBRANCH  50  74
BRANCH  62  85
ATOM     85  C   UNL A   1      44.935  27.439  33.859  1.00  0.00     0.064 A 
ATOM     86  C   UNL A   1      46.147  28.125  33.685  1.00  0.00     0.173 A 
ATOM     87  C   UNL A   1      44.926  26.330  34.717  1.00  0.00     0.173 A 
ATOM     88  F   UNL A   1      46.213  29.187  32.867  1.00  0.00    -0.203 F 
ATOM     89  C   UNL A   1      47.311  27.698  34.320  1.00  0.00     0.198 A 
ATOM     90  C   UNL A   1      46.086  25.924  35.374  1.00  0.00     0.198 A 
ATOM     91  F   UNL A   1      43.793  25.643  34.923  1.00  0.00    -0.203 F 
ATOM     92  F   UNL A   1      48.468  28.339  34.099  1.00  0.00    -0.200 F 
ATOM     93  C   UNL A   1      47.278  26.602  35.169  1.00  0.00     0.200 A 
ATOM     94  F   UNL A   1      46.049  24.873  36.204  1.00  0.00    -0.200 F 
ATOM     95  F   UNL A   1      48.396  26.194  35.782  1.00  0.00    -0.200 F 
ENDBRANCH  62  85
ENDBRANCH  36  37
ENDBRANCH  29  31
ENDBRANCH  28  29
ENDBRANCH  27  28
ENDBRANCH  26  27
ENDBRANCH  25  26
ENDBRANCH  24  25
ENDBRANCH   1  24
TORSDOF 21
ENDMDL
MODEL 3
REMARK VINA RESULT:     -10.7      1.564      7.659
REMARK SMILES C[C@@H](C(=O)OCCOCCOCCOC(=O)c1ccc(-c2c3nc(c(-c4c(F)c(F)c(F)c(F)c4F)c4ccc([nH]4)c(-c4c(F)c(F)c(F)c(F)c4F)c4nc(c(-c5c(F)c(F)c(F)c(F)c5F)c5ccc2[nH]5)C=C4)C=C3)cc1)c1ccc(C[C@@H]2CCC[C@@H]2O)cc1
REMARK SMILES IDX 9 1 8 2 7 3 6 4 5 5 3 6 4 7 2 8 1 9 80 10 81 11 92 12 82 13
REMARK SMILES IDX 91 14 83 15 84 16 85 17 86 18 89 19 87 20 88 21 90 22 10 24
REMARK SMILES IDX 11 25 12 26 13 27 14 28 15 29 16 30 17 31 18 32 79 33 19 34
REMARK SMILES IDX 78 35 20 36 21 37 22 38 72 39 23 40 77 41 71 42 73 43 24 44
REMARK SMILES IDX 76 45 70 46 69 47 25 49 57 50 37 51 56 52 38 53 41 54 55 55
REMARK SMILES IDX 74 56 39 57 40 58 54 60 75 61 42 62 26 63 27 64 35 65 28 66
REMARK SMILES IDX 29 67 33 68 36 69 30 70 31 71 34 72 32 73 58 74 59 75 67 76
REMARK SMILES IDX 60 77 61 78 65 79 68 80 62 81 63 82 66 83 64 84 43 85 44 86
REMARK SMILES IDX 52 87 45 88 46 89 50 90 53 91 47 92 48 93 51 94 49 95
REMARK H PARENT 90 23 73 48 41 59
REMARK Flexibility Score: inf
ROOT
ATOM      1  C   UNL A   1      33.299  28.979  22.653  1.00  0.00     0.188 C 
ENDROOT
BRANCH   1   2
ATOM      2  O   UNL A   1      34.032  27.822  22.271  1.00  0.00    -0.376 OA
BRANCH   2   3
ATOM      3  C   UNL A   1      33.317  26.644  21.911  1.00  0.00     0.202 C 
BRANCH   3   4
ATOM      4  C   UNL A   1      33.589  25.341  22.682  1.00  0.00     0.261 C 
BRANCH   4   5
ATOM      5  O   UNL A   1      34.250  25.487  23.960  1.00  0.00    -0.463 OA
BRANCH   5   6
ATOM      6  C   UNL A   1      33.446  25.689  25.041  1.00  0.00     0.313 C 
ATOM      7  O   UNL A   1      33.763  26.398  25.993  1.00  0.00    -0.252 OA
BRANCH   6   8
ATOM      8  C   UNL A   1      32.094  24.943  24.991  1.00  0.00     0.126 C 
ATOM      9  C   UNL A   1      30.969  25.384  25.932  1.00  0.00     0.025 C 
BRANCH   8  10
ATOM     10  C   UNL A   1      32.320  23.435  25.049  1.00  0.00    -0.034 A 
ATOM     11  C   UNL A   1      33.109  22.845  26.046  1.00  0.00     0.005 A 
ATOM     12  C   UNL A   1      31.833  22.618  24.020  1.00  0.00     0.005 A 
ATOM     13  C   UNL A   1      33.490  21.508  25.957  1.00  0.00     0.004 A 
ATOM     14  C   UNL A   1      32.220  21.280  23.930  1.00  0.00     0.004 A 
ATOM     15  C   UNL A   1      33.106  20.734  24.861  1.00  0.00    -0.048 A 
BRANCH  15  16
ATOM     16  C   UNL A   1      33.712  19.374  24.633  1.00  0.00     0.041 C 
BRANCH  16  17
ATOM     17  C   UNL A   1      32.731  18.183  24.613  1.00  0.00     0.022 C 
ATOM     18  C   UNL A   1      32.825  17.240  25.805  1.00  0.00     0.007 C 
ATOM     19  C   UNL A   1      32.803  17.183  23.458  1.00  0.00     0.117 C 
ATOM     20  C   UNL A   1      33.686  16.047  25.411  1.00  0.00     0.003 C 
ATOM     21  C   UNL A   1      33.802  16.113  23.896  1.00  0.00     0.032 C 
BRANCH  19  22
ATOM     22  O   UNL A   1      33.129  17.780  22.224  1.00  0.00    -0.393 OA
ATOM     23  H   UNL A   1      33.988  17.446  21.921  1.00  0.00     0.210 HD
ENDBRANCH  19  22
ENDBRANCH  16  17
ENDBRANCH  15  16
ENDBRANCH   8  10
ENDBRANCH   6   8
ENDBRANCH   5   6
ENDBRANCH   4   5
ENDBRANCH   3   4
ENDBRANCH   2   3
ENDBRANCH   1   2
BRANCH   1  24
ATOM     24  C   UNL A   1      31.761  28.920  22.625  1.00  0.00     0.188 C 
BRANCH  24  25
ATOM     25  O   UNL A   1      31.173  28.854  23.901  1.00  0.00    -0.376 OA
BRANCH  25  26
ATOM     26  C   UNL A   1      31.959  29.172  25.030  1.00  0.00     0.202 C 
BRANCH  26  27
ATOM     27  C   UNL A   1      31.683  30.469  25.806  1.00  0.00     0.261 C 
BRANCH  27  28
ATOM     28  O   UNL A   1      32.328  30.636  27.080  1.00  0.00    -0.460 OA
BRANCH  28  29
ATOM     29  C   UNL A   1      33.084  31.747  27.256  1.00  0.00     0.338 C 
ATOM     30  O   UNL A   1      32.734  32.899  27.103  1.00  0.00    -0.246 OA
BRANCH  29  31
ATOM     31  C   UNL A   1      34.383  31.332  27.847  1.00  0.00     0.060 A 
ATOM     32  C   UNL A   1      34.609  29.977  28.120  1.00  0.00     0.016 A 
ATOM     33  C   UNL A   1      35.365  32.277  28.158  1.00  0.00     0.016 A 
ATOM     34  C   UNL A   1      35.809  29.576  28.723  1.00  0.00     0.010 A 
ATOM     35  C   UNL A   1      36.554  31.875  28.782  1.00  0.00     0.010 A 
ATOM     36  C   UNL A   1      36.784  30.524  29.084  1.00  0.00    -0.014 A 
BRANCH  36  37
ATOM     37  C   UNL A   1      37.948  30.108  29.917  1.00  0.00     0.031 A 
ATOM     38  C   UNL A   1      39.077  29.367  29.267  1.00  0.00     0.074 A 
ATOM     39  C   UNL A   1      37.994  30.292  31.250  1.00  0.00     0.049 A 
ATOM     40  N   UNL A   1      40.186  28.925  29.800  1.00  0.00    -0.248 NA
ATOM     41  C   UNL A   1      38.882  28.990  27.862  1.00  0.00     0.031 C 
ATOM     42  C   UNL A   1      36.883  30.763  32.058  1.00  0.00     0.029 A 
ATOM     43  N   UNL A   1      39.022  30.129  32.158  1.00  0.00    -0.354 N 
ATOM     44  C   UNL A   1      40.775  28.134  28.829  1.00  0.00     0.074 A 
ATOM     45  C   UNL A   1      39.925  28.203  27.656  1.00  0.00     0.031 C 
ATOM     46  C   UNL A   1      37.319  30.966  33.312  1.00  0.00     0.029 A 
ATOM     47  C   UNL A   1      38.744  30.676  33.394  1.00  0.00     0.049 A 
ATOM     48  H   UNL A   1      39.866  29.670  31.945  1.00  0.00     0.167 HD
ATOM     49  C   UNL A   1      41.885  27.365  28.934  1.00  0.00     0.037 A 
ATOM     50  C   UNL A   1      39.565  30.960  34.431  1.00  0.00     0.037 A 
ATOM     51  C   UNL A   1      42.705  27.274  30.115  1.00  0.00     0.049 A 
ATOM     52  C   UNL A   1      40.931  30.323  34.433  1.00  0.00     0.074 A 
ATOM     53  C   UNL A   1      43.844  26.514  30.318  1.00  0.00     0.029 A 
ATOM     54  N   UNL A   1      42.471  27.958  31.300  1.00  0.00    -0.354 N 
ATOM     55  N   UNL A   1      41.505  29.604  33.500  1.00  0.00    -0.248 NA
ATOM     56  C   UNL A   1      41.722  30.439  35.670  1.00  0.00     0.031 C 
ATOM     57  C   UNL A   1      44.277  26.707  31.635  1.00  0.00     0.029 A 
ATOM     58  C   UNL A   1      43.447  27.640  32.234  1.00  0.00     0.049 A 
ATOM     59  H   UNL A   1      41.723  28.579  31.455  1.00  0.00     0.167 HD
ATOM     60  C   UNL A   1      42.680  29.123  34.059  1.00  0.00     0.074 A 
ATOM     61  C   UNL A   1      42.794  29.718  35.375  1.00  0.00     0.031 C 
ATOM     62  C   UNL A   1      43.547  28.216  33.551  1.00  0.00     0.037 A 
BRANCH  49  63
ATOM     63  C   UNL A   1      42.222  26.497  27.758  1.00  0.00     0.064 A 
ATOM     64  C   UNL A   1      41.614  25.249  27.558  1.00  0.00     0.173 A 
ATOM     65  C   UNL A   1      43.180  26.919  26.823  1.00  0.00     0.173 A 
ATOM     66  F   UNL A   1      40.711  24.789  28.438  1.00  0.00    -0.203 F 
ATOM     67  C   UNL A   1      41.978  24.440  26.485  1.00  0.00     0.198 A 
ATOM     68  C   UNL A   1      43.514  26.124  25.731  1.00  0.00     0.198 A 
ATOM     69  F   UNL A   1      43.797  28.101  26.970  1.00  0.00    -0.203 F 
ATOM     70  F   UNL A   1      41.434  23.223  26.352  1.00  0.00    -0.200 F 
ATOM     71  C   UNL A   1      42.921  24.881  25.568  1.00  0.00     0.200 A 
ATOM     72  F   UNL A   1      44.418  26.557  24.840  1.00  0.00    -0.200 F 
ATOM     73  F   UNL A   1      43.268  24.102  24.536  1.00  0.00    -0.200 F 
ENDBRANCH  49  63
BRANCH  50  74
ATOM     74  C   UNL A   1      39.172  31.889  35.539  1.00  0.00     0.064 A 
ATOM     75  C   UNL A   1      39.651  33.216  35.548  1.00  0.00     0.173 A 
ATOM     76  C   UNL A   1      38.358  31.510  36.614  1.00  0.00     0.173 A 
ATOM     77  F   UNL A   1      40.467  33.640  34.570  1.00  0.00    -0.203 F 
ATOM     78  C   UNL A   1      39.348  34.102  36.584  1.00  0.00     0.198 A 
ATOM     79  C   UNL A   1      38.006  32.414  37.618  1.00  0.00     0.198 A 
ATOM     80  F   UNL A   1      37.907  30.250  36.706  1.00  0.00    -0.203 F 
ATOM     81  F   UNL A   1      39.890  35.327  36.599  1.00  0.00    -0.200 F 
ATOM     82  C   UNL A   1      38.510  33.704  37.610  1.00  0.00     0.200 A 
ATOM     83  F   UNL A   1      37.183  32.027  38.602  1.00  0.00    -0.200 F 
ATOM     84  F   UNL A   1      38.203  34.555  38.599  1.00  0.00    -0.200 F 
ENDBRANCH  50  74
BRANCH  62  85
ATOM     85  C   UNL A   1      44.681  27.782  34.435  1.00  0.00     0.064 A 
ATOM     86  C   UNL A   1      44.563  26.672  35.288  1.00  0.00     0.173 A 
ATOM     87  C   UNL A   1      45.906  28.462  34.409  1.00  0.00     0.173 A 
ATOM     88  F   UNL A   1      43.408  25.993  35.358  1.00  0.00    -0.203 F 
ATOM     89  C   UNL A   1      45.620  26.280  36.105  1.00  0.00     0.198 A 
ATOM     90  C   UNL A   1      46.971  28.047  35.206  1.00  0.00     0.198 A 
ATOM     91  F   UNL A   1      46.074  29.524  33.608  1.00  0.00    -0.203 F 
ATOM     92  F   UNL A   1      45.467  25.249  36.949  1.00  0.00    -0.200 F 
ATOM     93  C   UNL A   1      46.825  26.964  36.059  1.00  0.00     0.200 A 
ATOM     94  F   UNL A   1      48.140  28.702  35.150  1.00  0.00    -0.200 F 
ATOM     95  F   UNL A   1      47.843  26.585  36.842  1.00  0.00    -0.200 F 
ENDBRANCH  62  85
ENDBRANCH  36  37
ENDBRANCH  29  31
ENDBRANCH  28  29
ENDBRANCH  27  28
ENDBRANCH  26  27
ENDBRANCH  25  26
ENDBRANCH  24  25
ENDBRANCH   1  24
TORSDOF 21
ENDMDL
