MODEL 1
REMARK VINA RESULT:     -10.8      0.000      0.000
REMARK SMILES Cc1ccc(CNC(=O)c2csc(/C=C/C(=O)OCCOCCOCCOC(=O)c3ccc(-c4c5nc(c(-c6c(F)c(F)c(F)c(F)c6F)c6ccc([nH]6)c(-c6c(F)c(F)c(F)c(F)c6F)c6nc(c(-c7c(F)c(F)c(F)c(F)c7F)c7ccc4[nH]7)C=C6)C=C5)cc3)c2)s1
REMARK SMILES IDX 22 1 21 2 20 3 19 4 18 5 16 6 17 7 15 8 14 9 13 10 10 11
REMARK SMILES IDX 11 12 93 13 12 14 8 15 7 16 9 18 6 19 5 20 1 21 2 22 3 23
REMARK SMILES IDX 94 24 4 25 23 26 24 27 25 28 26 29 27 30 28 31 29 32 30 33
REMARK SMILES IDX 31 34 92 35 32 36 91 37 33 38 34 39 35 40 85 41 36 42 90 43
REMARK SMILES IDX 84 44 86 45 37 46 89 47 83 48 82 49 38 51 70 52 50 53 69 54
REMARK SMILES IDX 51 55 54 56 68 57 87 58 52 59 53 60 67 62 88 63 55 64 39 65
REMARK SMILES IDX 40 66 48 67 41 68 42 69 46 70 49 71 43 72 44 73 47 74 45 75
REMARK SMILES IDX 71 76 72 77 80 78 73 79 74 80 78 81 81 82 75 83 76 84 79 85
REMARK SMILES IDX 77 86 56 87 57 88 65 89 58 90 59 91 63 92 66 93 60 94 61 95
REMARK SMILES IDX 64 96 62 97
REMARK H PARENT 7 17 86 50 54 61
REMARK Flexibility Score: inf
ROOT
ATOM      1  C   UNL A   1      30.660  27.726  22.427  1.00  0.00     0.188 C 
ENDROOT
BRANCH   1   2
ATOM      2  O   UNL A   1      30.935  26.409  22.894  1.00  0.00    -0.376 OA
BRANCH   2   3
ATOM      3  C   UNL A   1      29.930  25.681  23.589  1.00  0.00     0.202 C 
BRANCH   3   4
ATOM      4  C   UNL A   1      29.877  25.766  25.120  1.00  0.00     0.261 C 
BRANCH   4   5
ATOM      5  O   UNL A   1      30.384  26.996  25.665  1.00  0.00    -0.460 OA
BRANCH   5   6
ATOM      6  C   UNL A   1      31.441  26.870  26.502  1.00  0.00     0.330 C 
ATOM      7  O   UNL A   1      31.493  27.237  27.666  1.00  0.00    -0.247 OA
BRANCH   6   8
ATOM      8  C   UNL A   1      32.552  26.107  25.900  1.00  0.00     0.095 C 
ATOM      9  C   UNL A   1      32.986  24.903  26.301  1.00  0.00     0.026 C 
BRANCH   9  10
ATOM     10  C   UNL A   1      34.059  24.228  25.643  1.00  0.00     0.028 A 
ATOM     11  C   UNL A   1      35.672  22.572  25.170  1.00  0.00     0.051 A 
ATOM     12  C   UNL A   1      35.665  23.302  23.997  1.00  0.00     0.079 A 
ATOM     13  C   UNL A   1      34.863  23.227  26.161  1.00  0.00     0.033 A 
ATOM     14  S   UNL A   1      34.570  24.608  24.042  1.00  0.00    -0.144 S 
BRANCH  11  15
ATOM     15  C   UNL A   1      36.443  21.339  25.304  1.00  0.00     0.252 C 
ATOM     16  N   UNL A   1      35.804  20.135  25.147  1.00  0.00    -0.347 N 
ATOM     17  H   UNL A   1      36.350  19.339  25.337  1.00  0.00     0.164 HD
ATOM     18  O   UNL A   1      37.655  21.351  25.505  1.00  0.00    -0.269 OA
BRANCH  16  19
ATOM     19  C   UNL A   1      34.440  19.870  24.744  1.00  0.00     0.163 C 
BRANCH  19  20
ATOM     20  C   UNL A   1      34.152  18.405  24.751  1.00  0.00     0.024 A 
ATOM     21  C   UNL A   1      32.264  15.087  25.651  1.00  0.00     0.056 C 
ATOM     22  C   UNL A   1      33.168  16.187  25.211  1.00  0.00     0.002 A 
ATOM     23  C   UNL A   1      34.426  16.094  24.655  1.00  0.00     0.015 A 
ATOM     24  S   UNL A   1      32.677  17.813  25.394  1.00  0.00    -0.144 S 
ATOM     25  C   UNL A   1      34.991  17.373  24.383  1.00  0.00     0.017 A 
ENDBRANCH  19  20
ENDBRANCH  16  19
ENDBRANCH  11  15
ENDBRANCH   9  10
ENDBRANCH   6   8
ENDBRANCH   5   6
ENDBRANCH   4   5
ENDBRANCH   3   4
ENDBRANCH   2   3
ENDBRANCH   1   2
BRANCH   1  26
ATOM     26  C   UNL A   1      31.369  28.936  23.071  1.00  0.00     0.188 C 
BRANCH  26  27
ATOM     27  O   UNL A   1      30.507  29.773  23.810  1.00  0.00    -0.376 OA
BRANCH  27  28
ATOM     28  C   UNL A   1      30.994  30.339  25.014  1.00  0.00     0.202 C 
BRANCH  28  29
ATOM     29  C   UNL A   1      32.438  30.079  25.481  1.00  0.00     0.261 C 
BRANCH  29  30
ATOM     30  O   UNL A   1      32.722  30.266  26.874  1.00  0.00    -0.460 OA
BRANCH  30  31
ATOM     31  C   UNL A   1      33.343  31.413  27.229  1.00  0.00     0.338 C 
ATOM     32  O   UNL A   1      32.887  32.539  27.202  1.00  0.00    -0.246 OA
BRANCH  31  33
ATOM     33  C   UNL A   1      34.650  31.052  27.819  1.00  0.00     0.060 A 
ATOM     34  C   UNL A   1      34.861  29.735  28.247  1.00  0.00     0.016 A 
ATOM     35  C   UNL A   1      35.656  32.011  27.957  1.00  0.00     0.016 A 
ATOM     36  C   UNL A   1      36.076  29.379  28.837  1.00  0.00     0.010 A 
ATOM     37  C   UNL A   1      36.864  31.658  28.565  1.00  0.00     0.010 A 
ATOM     38  C   UNL A   1      37.071  30.348  29.031  1.00  0.00    -0.014 A 
BRANCH  38  39
ATOM     39  C   UNL A   1      38.258  30.038  29.866  1.00  0.00     0.031 A 
ATOM     40  C   UNL A   1      39.291  29.090  29.325  1.00  0.00     0.074 A 
ATOM     41  C   UNL A   1      38.421  30.591  31.080  1.00  0.00     0.049 A 
ATOM     42  N   UNL A   1      40.382  28.634  29.887  1.00  0.00    -0.248 NA
ATOM     43  C   UNL A   1      39.060  28.586  27.962  1.00  0.00     0.031 C 
ATOM     44  C   UNL A   1      37.514  31.553  31.701  1.00  0.00     0.029 A 
ATOM     45  N   UNL A   1      39.414  30.413  32.013  1.00  0.00    -0.354 N 
ATOM     46  C   UNL A   1      40.965  27.794  28.950  1.00  0.00     0.074 A 
ATOM     47  C   UNL A   1      40.092  27.773  27.796  1.00  0.00     0.031 C 
ATOM     48  C   UNL A   1      37.986  31.873  32.918  1.00  0.00     0.029 A 
ATOM     49  C   UNL A   1      39.211  31.116  33.174  1.00  0.00     0.049 A 
ATOM     50  H   UNL A   1      40.197  29.834  31.863  1.00  0.00     0.167 HD
ATOM     51  C   UNL A   1      42.129  27.105  29.038  1.00  0.00     0.037 A 
ATOM     52  C   UNL A   1      39.923  31.128  34.318  1.00  0.00     0.037 A 
ATOM     53  C   UNL A   1      42.991  27.115  30.190  1.00  0.00     0.049 A 
ATOM     54  C   UNL A   1      41.168  30.283  34.426  1.00  0.00     0.074 A 
ATOM     55  C   UNL A   1      44.196  26.461  30.372  1.00  0.00     0.029 A 
ATOM     56  N   UNL A   1      42.730  27.807  31.363  1.00  0.00    -0.354 N 
ATOM     57  N   UNL A   1      41.729  29.511  33.527  1.00  0.00    -0.248 NA
ATOM     58  C   UNL A   1      41.879  30.314  35.713  1.00  0.00     0.031 C 
ATOM     59  C   UNL A   1      44.639  26.715  31.674  1.00  0.00     0.029 A 
ATOM     60  C   UNL A   1      43.737  27.572  32.285  1.00  0.00     0.049 A 
ATOM     61  H   UNL A   1      41.945  28.380  31.519  1.00  0.00     0.167 HD
ATOM     62  C   UNL A   1      42.869  28.990  34.125  1.00  0.00     0.074 A 
ATOM     63  C   UNL A   1      42.927  29.542  35.462  1.00  0.00     0.031 C 
ATOM     64  C   UNL A   1      43.787  28.134  33.611  1.00  0.00     0.037 A 
BRANCH  51  65
ATOM     65  C   UNL A   1      42.518  26.261  27.860  1.00  0.00     0.064 A 
ATOM     66  C   UNL A   1      42.005  24.968  27.679  1.00  0.00     0.173 A 
ATOM     67  C   UNL A   1      43.405  26.757  26.893  1.00  0.00     0.173 A 
ATOM     68  F   UNL A   1      41.165  24.442  28.584  1.00  0.00    -0.203 F 
ATOM     69  C   UNL A   1      42.390  24.191  26.590  1.00  0.00     0.198 A 
ATOM     70  C   UNL A   1      43.764  25.989  25.789  1.00  0.00     0.198 A 
ATOM     71  F   UNL A   1      43.923  27.989  27.017  1.00  0.00    -0.203 F 
ATOM     72  F   UNL A   1      41.929  22.938  26.465  1.00  0.00    -0.200 F 
ATOM     73  C   UNL A   1      43.264  24.704  25.643  1.00  0.00     0.200 A 
ATOM     74  F   UNL A   1      44.601  26.489  24.871  1.00  0.00    -0.200 F 
ATOM     75  F   UNL A   1      43.633  23.955  24.595  1.00  0.00    -0.200 F 
ENDBRANCH  51  65
BRANCH  52  76
ATOM     76  C   UNL A   1      39.476  31.962  35.464  1.00  0.00     0.064 A 
ATOM     77  C   UNL A   1      38.604  31.446  36.433  1.00  0.00     0.173 A 
ATOM     78  C   UNL A   1      39.890  33.294  35.602  1.00  0.00     0.173 A 
ATOM     79  F   UNL A   1      38.154  30.187  36.329  1.00  0.00    -0.203 F 
ATOM     80  C   UNL A   1      38.153  32.237  37.489  1.00  0.00     0.198 A 
ATOM     81  C   UNL A   1      39.461  34.075  36.672  1.00  0.00     0.198 A 
ATOM     82  F   UNL A   1      40.717  33.838  34.696  1.00  0.00    -0.203 F 
ATOM     83  F   UNL A   1      37.283  31.734  38.375  1.00  0.00    -0.200 F 
ATOM     84  C   UNL A   1      38.586  33.549  37.611  1.00  0.00     0.200 A 
ATOM     85  F   UNL A   1      39.886  35.341  36.789  1.00  0.00    -0.200 F 
ATOM     86  F   UNL A   1      38.153  34.309  38.626  1.00  0.00    -0.200 F 
ENDBRANCH  52  76
BRANCH  64  87
ATOM     87  C   UNL A   1      44.955  27.766  34.482  1.00  0.00     0.064 A 
ATOM     88  C   UNL A   1      46.096  28.579  34.569  1.00  0.00     0.173 A 
ATOM     89  C   UNL A   1      44.912  26.609  35.275  1.00  0.00     0.173 A 
ATOM     90  F   UNL A   1      46.193  29.689  33.822  1.00  0.00    -0.203 F 
ATOM     91  C   UNL A   1      47.159  28.232  35.399  1.00  0.00     0.198 A 
ATOM     92  C   UNL A   1      45.964  26.281  36.126  1.00  0.00     0.198 A 
ATOM     93  F   UNL A   1      43.842  25.801  35.236  1.00  0.00    -0.203 F 
ATOM     94  F   UNL A   1      48.258  28.998  35.431  1.00  0.00    -0.200 F 
ATOM     95  C   UNL A   1      47.090  27.089  36.182  1.00  0.00     0.200 A 
ATOM     96  F   UNL A   1      45.888  25.184  36.892  1.00  0.00    -0.200 F 
ATOM     97  F   UNL A   1      48.111  26.762  36.985  1.00  0.00    -0.200 F 
ENDBRANCH  64  87
ENDBRANCH  38  39
ENDBRANCH  31  33
ENDBRANCH  30  31
ENDBRANCH  29  30
ENDBRANCH  28  29
ENDBRANCH  27  28
ENDBRANCH  26  27
ENDBRANCH   1  26
TORSDOF 21
ENDMDL
MODEL 2
REMARK VINA RESULT:     -10.6      2.802      8.462
REMARK SMILES Cc1ccc(CNC(=O)c2csc(/C=C/C(=O)OCCOCCOCCOC(=O)c3ccc(-c4c5nc(c(-c6c(F)c(F)c(F)c(F)c6F)c6ccc([nH]6)c(-c6c(F)c(F)c(F)c(F)c6F)c6nc(c(-c7c(F)c(F)c(F)c(F)c7F)c7ccc4[nH]7)C=C6)C=C5)cc3)c2)s1
REMARK SMILES IDX 22 1 21 2 20 3 19 4 18 5 16 6 17 7 15 8 14 9 13 10 10 11
REMARK SMILES IDX 11 12 93 13 12 14 8 15 7 16 9 18 6 19 5 20 1 21 2 22 3 23
REMARK SMILES IDX 94 24 4 25 23 26 24 27 25 28 26 29 27 30 28 31 29 32 30 33
REMARK SMILES IDX 31 34 92 35 32 36 91 37 33 38 34 39 35 40 85 41 36 42 90 43
REMARK SMILES IDX 84 44 86 45 37 46 89 47 83 48 82 49 38 51 70 52 50 53 69 54
REMARK SMILES IDX 51 55 54 56 68 57 87 58 52 59 53 60 67 62 88 63 55 64 39 65
REMARK SMILES IDX 40 66 48 67 41 68 42 69 46 70 49 71 43 72 44 73 47 74 45 75
REMARK SMILES IDX 71 76 72 77 80 78 73 79 74 80 78 81 81 82 75 83 76 84 79 85
REMARK SMILES IDX 77 86 56 87 57 88 65 89 58 90 59 91 63 92 66 93 60 94 61 95
REMARK SMILES IDX 64 96 62 97
REMARK H PARENT 7 17 86 50 54 61
REMARK Flexibility Score: inf
ROOT
ATOM      1  C   UNL A   1      35.012  33.217  29.712  1.00  0.00     0.188 C 
ENDROOT
BRANCH   1   2
ATOM      2  O   UNL A   1      34.488  31.953  29.315  1.00  0.00    -0.376 OA
BRANCH   2   3
ATOM      3  C   UNL A   1      35.122  31.220  28.272  1.00  0.00     0.202 C 
BRANCH   3   4
ATOM      4  C   UNL A   1      34.249  30.480  27.250  1.00  0.00     0.261 C 
BRANCH   4   5
ATOM      5  O   UNL A   1      32.845  30.482  27.555  1.00  0.00    -0.460 OA
BRANCH   5   6
ATOM      6  C   UNL A   1      32.021  30.693  26.501  1.00  0.00     0.330 C 
ATOM      7  O   UNL A   1      31.409  31.721  26.251  1.00  0.00    -0.247 OA
BRANCH   6   8
ATOM      8  C   UNL A   1      32.004  29.556  25.558  1.00  0.00     0.095 C 
ATOM      9  C   UNL A   1      30.991  29.229  24.742  1.00  0.00     0.026 C 
BRANCH   9  10
ATOM     10  C   UNL A   1      31.072  28.120  23.846  1.00  0.00     0.028 A 
ATOM     11  C   UNL A   1      32.016  26.437  22.488  1.00  0.00     0.051 A 
ATOM     12  C   UNL A   1      30.705  26.012  22.593  1.00  0.00     0.079 A 
ATOM     13  C   UNL A   1      32.160  27.739  23.078  1.00  0.00     0.033 A 
ATOM     14  S   UNL A   1      29.748  27.060  23.537  1.00  0.00    -0.144 S 
BRANCH  11  15
ATOM     15  C   UNL A   1      33.037  25.625  21.831  1.00  0.00     0.252 C 
ATOM     16  N   UNL A   1      33.711  24.682  22.565  1.00  0.00    -0.347 N 
ATOM     17  H   UNL A   1      34.448  24.229  22.095  1.00  0.00     0.164 HD
ATOM     18  O   UNL A   1      33.275  25.731  20.630  1.00  0.00    -0.269 OA
BRANCH  16  19
ATOM     19  C   UNL A   1      33.493  24.260  23.931  1.00  0.00     0.163 C 
BRANCH  19  20
ATOM     20  C   UNL A   1      33.080  22.826  23.992  1.00  0.00     0.024 A 
ATOM     21  C   UNL A   1      32.898  19.162  25.379  1.00  0.00     0.056 C 
ATOM     22  C   UNL A   1      32.844  20.454  24.639  1.00  0.00     0.002 A 
ATOM     23  C   UNL A   1      32.380  20.695  23.363  1.00  0.00     0.015 A 
ATOM     24  S   UNL A   1      33.424  21.881  25.380  1.00  0.00    -0.144 S 
ATOM     25  C   UNL A   1      32.510  22.064  22.992  1.00  0.00     0.017 A 
ENDBRANCH  19  20
ENDBRANCH  16  19
ENDBRANCH  11  15
ENDBRANCH   9  10
ENDBRANCH   6   8
ENDBRANCH   5   6
ENDBRANCH   4   5
ENDBRANCH   3   4
ENDBRANCH   2   3
ENDBRANCH   1   2
BRANCH   1  26
ATOM     26  C   UNL A   1      35.443  34.242  28.642  1.00  0.00     0.188 C 
BRANCH  26  27
ATOM     27  O   UNL A   1      34.472  35.230  28.378  1.00  0.00    -0.376 OA
BRANCH  27  28
ATOM     28  C   UNL A   1      33.264  35.195  29.119  1.00  0.00     0.202 C 
BRANCH  28  29
ATOM     29  C   UNL A   1      32.759  36.445  29.864  1.00  0.00     0.261 C 
BRANCH  29  30
ATOM     30  O   UNL A   1      33.159  36.602  31.232  1.00  0.00    -0.460 OA
BRANCH  30  31
ATOM     31  C   UNL A   1      32.743  35.663  32.110  1.00  0.00     0.338 C 
ATOM     32  O   UNL A   1      31.599  35.328  32.346  1.00  0.00    -0.246 OA
BRANCH  31  33
ATOM     33  C   UNL A   1      33.942  34.979  32.638  1.00  0.00     0.060 A 
ATOM     34  C   UNL A   1      35.191  35.600  32.507  1.00  0.00     0.016 A 
ATOM     35  C   UNL A   1      33.834  33.728  33.251  1.00  0.00     0.016 A 
ATOM     36  C   UNL A   1      36.341  34.957  32.970  1.00  0.00     0.010 A 
ATOM     37  C   UNL A   1      34.989  33.078  33.697  1.00  0.00     0.010 A 
ATOM     38  C   UNL A   1      36.250  33.677  33.536  1.00  0.00    -0.014 A 
BRANCH  38  39
ATOM     39  C   UNL A   1      37.481  32.895  33.807  1.00  0.00     0.031 A 
ATOM     40  C   UNL A   1      38.238  33.159  35.079  1.00  0.00     0.074 A 
ATOM     41  C   UNL A   1      37.920  31.961  32.944  1.00  0.00     0.049 A 
ATOM     42  N   UNL A   1      39.358  32.637  35.508  1.00  0.00    -0.248 NA
ATOM     43  C   UNL A   1      37.646  34.151  35.991  1.00  0.00     0.031 C 
ATOM     44  C   UNL A   1      37.259  31.585  31.698  1.00  0.00     0.029 A 
ATOM     45  N   UNL A   1      39.038  31.165  32.989  1.00  0.00    -0.354 N 
ATOM     46  C   UNL A   1      39.605  33.234  36.737  1.00  0.00     0.074 A 
ATOM     47  C   UNL A   1      38.538  34.184  36.970  1.00  0.00     0.031 C 
ATOM     48  C   UNL A   1      37.990  30.634  31.089  1.00  0.00     0.029 A 
ATOM     49  C   UNL A   1      39.185  30.360  31.886  1.00  0.00     0.049 A 
ATOM     50  H   UNL A   1      39.675  31.170  33.741  1.00  0.00     0.167 HD
ATOM     51  C   UNL A   1      40.626  33.007  37.598  1.00  0.00     0.037 A 
ATOM     52  C   UNL A   1      40.180  29.516  31.553  1.00  0.00     0.037 A 
ATOM     53  C   UNL A   1      41.694  32.073  37.361  1.00  0.00     0.049 A 
ATOM     54  C   UNL A   1      41.353  29.346  32.487  1.00  0.00     0.074 A 
ATOM     55  C   UNL A   1      42.768  31.763  38.176  1.00  0.00     0.029 A 
ATOM     56  N   UNL A   1      41.830  31.306  36.213  1.00  0.00    -0.354 N 
ATOM     57  N   UNL A   1      41.568  29.893  33.659  1.00  0.00    -0.248 NA
ATOM     58  C   UNL A   1      42.422  28.438  32.048  1.00  0.00     0.031 C 
ATOM     59  C   UNL A   1      43.581  30.847  37.501  1.00  0.00     0.029 A 
ATOM     60  C   UNL A   1      42.985  30.544  36.286  1.00  0.00     0.049 A 
ATOM     61  H   UNL A   1      41.199  31.304  35.457  1.00  0.00     0.167 HD
ATOM     62  C   UNL A   1      42.776  29.376  34.109  1.00  0.00     0.074 A 
ATOM     63  C   UNL A   1      43.243  28.461  33.089  1.00  0.00     0.031 C 
ATOM     64  C   UNL A   1      43.436  29.633  35.266  1.00  0.00     0.037 A 
BRANCH  51  65
ATOM     65  C   UNL A   1      40.645  33.809  38.866  1.00  0.00     0.064 A 
ATOM     66  C   UNL A   1      41.428  34.966  38.995  1.00  0.00     0.173 A 
ATOM     67  C   UNL A   1      39.859  33.422  39.963  1.00  0.00     0.173 A 
ATOM     68  F   UNL A   1      42.208  35.369  37.981  1.00  0.00    -0.203 F 
ATOM     69  C   UNL A   1      41.448  35.688  40.185  1.00  0.00     0.198 A 
ATOM     70  C   UNL A   1      39.859  34.164  41.140  1.00  0.00     0.198 A 
ATOM     71  F   UNL A   1      39.091  32.325  39.891  1.00  0.00    -0.203 F 
ATOM     72  F   UNL A   1      42.244  36.760  40.303  1.00  0.00    -0.200 F 
ATOM     73  C   UNL A   1      40.659  35.291  41.254  1.00  0.00     0.200 A 
ATOM     74  F   UNL A   1      39.089  33.784  42.169  1.00  0.00    -0.200 F 
ATOM     75  F   UNL A   1      40.678  35.988  42.398  1.00  0.00    -0.200 F 
ENDBRANCH  51  65
BRANCH  52  76
ATOM     76  C   UNL A   1      40.123  28.768  30.271  1.00  0.00     0.064 A 
ATOM     77  C   UNL A   1      39.492  27.519  30.192  1.00  0.00     0.173 A 
ATOM     78  C   UNL A   1      40.716  29.274  29.104  1.00  0.00     0.173 A 
ATOM     79  F   UNL A   1      38.938  26.978  31.287  1.00  0.00    -0.203 F 
ATOM     80  C   UNL A   1      39.469  26.798  28.999  1.00  0.00     0.198 A 
ATOM     81  C   UNL A   1      40.667  28.566  27.906  1.00  0.00     0.198 A 
ATOM     82  F   UNL A   1      41.339  30.462  29.129  1.00  0.00    -0.203 F 
ATOM     83  F   UNL A   1      38.901  25.585  28.963  1.00  0.00    -0.200 F 
ATOM     84  C   UNL A   1      40.051  27.324  27.855  1.00  0.00     0.200 A 
ATOM     85  F   UNL A   1      41.227  29.081  26.802  1.00  0.00    -0.200 F 
ATOM     86  F   UNL A   1      40.029  26.632  26.709  1.00  0.00    -0.200 F 
ENDBRANCH  52  76
BRANCH  64  87
ATOM     87  C   UNL A   1      44.719  28.890  35.510  1.00  0.00     0.064 A 
ATOM     88  C   UNL A   1      45.965  29.431  35.157  1.00  0.00     0.173 A 
ATOM     89  C   UNL A   1      44.704  27.639  36.147  1.00  0.00     0.173 A 
ATOM     90  F   UNL A   1      46.033  30.617  34.534  1.00  0.00    -0.203 F 
ATOM     91  C   UNL A   1      47.145  28.736  35.412  1.00  0.00     0.198 A 
ATOM     92  C   UNL A   1      45.887  26.961  36.427  1.00  0.00     0.198 A 
ATOM     93  F   UNL A   1      43.541  27.080  36.513  1.00  0.00    -0.203 F 
ATOM     94  F   UNL A   1      48.319  29.251  35.025  1.00  0.00    -0.200 F 
ATOM     95  C   UNL A   1      47.106  27.507  36.053  1.00  0.00     0.200 A 
ATOM     96  F   UNL A   1      45.848  25.781  37.060  1.00  0.00    -0.200 F 
ATOM     97  F   UNL A   1      48.243  26.845  36.304  1.00  0.00    -0.200 F 
ENDBRANCH  64  87
ENDBRANCH  38  39
ENDBRANCH  31  33
ENDBRANCH  30  31
ENDBRANCH  29  30
ENDBRANCH  28  29
ENDBRANCH  27  28
ENDBRANCH  26  27
ENDBRANCH   1  26
TORSDOF 21
ENDMDL
MODEL 3
REMARK VINA RESULT:     -10.5      1.296      2.111
REMARK SMILES Cc1ccc(CNC(=O)c2csc(/C=C/C(=O)OCCOCCOCCOC(=O)c3ccc(-c4c5nc(c(-c6c(F)c(F)c(F)c(F)c6F)c6ccc([nH]6)c(-c6c(F)c(F)c(F)c(F)c6F)c6nc(c(-c7c(F)c(F)c(F)c(F)c7F)c7ccc4[nH]7)C=C6)C=C5)cc3)c2)s1
REMARK SMILES IDX 22 1 21 2 20 3 19 4 18 5 16 6 17 7 15 8 14 9 13 10 10 11
REMARK SMILES IDX 11 12 93 13 12 14 8 15 7 16 9 18 6 19 5 20 1 21 2 22 3 23
REMARK SMILES IDX 94 24 4 25 23 26 24 27 25 28 26 29 27 30 28 31 29 32 30 33
REMARK SMILES IDX 31 34 92 35 32 36 91 37 33 38 34 39 35 40 85 41 36 42 90 43
REMARK SMILES IDX 84 44 86 45 37 46 89 47 83 48 82 49 38 51 70 52 50 53 69 54
REMARK SMILES IDX 51 55 54 56 68 57 87 58 52 59 53 60 67 62 88 63 55 64 39 65
REMARK SMILES IDX 40 66 48 67 41 68 42 69 46 70 49 71 43 72 44 73 47 74 45 75
REMARK SMILES IDX 71 76 72 77 80 78 73 79 74 80 78 81 81 82 75 83 76 84 79 85
REMARK SMILES IDX 77 86 56 87 57 88 65 89 58 90 59 91 63 92 66 93 60 94 61 95
REMARK SMILES IDX 64 96 62 97
REMARK H PARENT 7 17 86 50 54 61
REMARK Flexibility Score: inf
ROOT
ATOM      1  C   UNL A   1      28.586  31.491  22.265  1.00  0.00     0.188 C 
ENDROOT
BRANCH   1   2
ATOM      2  O   UNL A   1      27.889  30.319  21.853  1.00  0.00    -0.376 OA
BRANCH   2   3
ATOM      3  C   UNL A   1      27.265  29.488  22.825  1.00  0.00     0.202 C 
BRANCH   3   4
ATOM      4  C   UNL A   1      27.864  28.105  23.113  1.00  0.00     0.261 C 
BRANCH   4   5
ATOM      5  O   UNL A   1      29.137  28.135  23.780  1.00  0.00    -0.460 OA
BRANCH   5   6
ATOM      6  C   UNL A   1      30.179  27.644  23.069  1.00  0.00     0.330 C 
ATOM      7  O   UNL A   1      30.583  28.056  21.992  1.00  0.00    -0.247 OA
BRANCH   6   8
ATOM      8  C   UNL A   1      30.905  26.579  23.790  1.00  0.00     0.095 C 
ATOM      9  C   UNL A   1      32.101  26.709  24.384  1.00  0.00     0.026 C 
BRANCH   9  10
ATOM     10  C   UNL A   1      32.721  25.626  25.079  1.00  0.00     0.028 A 
ATOM     11  C   UNL A   1      32.946  23.600  26.267  1.00  0.00     0.051 A 
ATOM     12  C   UNL A   1      34.249  23.844  25.876  1.00  0.00     0.079 A 
ATOM     13  C   UNL A   1      32.115  24.726  25.940  1.00  0.00     0.033 A 
ATOM     14  S   UNL A   1      34.407  25.286  24.980  1.00  0.00    -0.144 S 
BRANCH  11  15
ATOM     15  C   UNL A   1      32.564  22.359  26.936  1.00  0.00     0.252 C 
ATOM     16  N   UNL A   1      32.287  21.252  26.175  1.00  0.00    -0.347 N 
ATOM     17  H   UNL A   1      31.948  20.472  26.671  1.00  0.00     0.164 HD
ATOM     18  O   UNL A   1      32.530  22.267  28.161  1.00  0.00    -0.269 OA
BRANCH  16  19
ATOM     19  C   UNL A   1      32.421  21.068  24.746  1.00  0.00     0.163 C 
BRANCH  19  20
ATOM     20  C   UNL A   1      32.552  19.621  24.400  1.00  0.00     0.024 A 
ATOM     21  C   UNL A   1      33.411  15.831  24.931  1.00  0.00     0.056 C 
ATOM     22  C   UNL A   1      33.056  17.204  24.474  1.00  0.00     0.002 A 
ATOM     23  C   UNL A   1      32.827  17.650  23.189  1.00  0.00     0.015 A 
ATOM     24  S   UNL A   1      32.903  18.466  25.617  1.00  0.00    -0.144 S 
ATOM     25  C   UNL A   1      32.530  19.043  23.147  1.00  0.00     0.017 A 
ENDBRANCH  19  20
ENDBRANCH  16  19
ENDBRANCH  11  15
ENDBRANCH   9  10
ENDBRANCH   6   8
ENDBRANCH   5   6
ENDBRANCH   4   5
ENDBRANCH   3   4
ENDBRANCH   2   3
ENDBRANCH   1   2
BRANCH   1  26
ATOM     26  C   UNL A   1      28.962  31.681  23.750  1.00  0.00     0.188 C 
BRANCH  26  27
ATOM     27  O   UNL A   1      30.029  30.862  24.175  1.00  0.00    -0.376 OA
BRANCH  27  28
ATOM     28  C   UNL A   1      30.696  31.203  25.378  1.00  0.00     0.202 C 
BRANCH  28  29
ATOM     29  C   UNL A   1      31.982  30.471  25.801  1.00  0.00     0.261 C 
BRANCH  29  30
ATOM     30  O   UNL A   1      32.475  30.718  27.125  1.00  0.00    -0.460 OA
BRANCH  30  31
ATOM     31  C   UNL A   1      33.216  31.833  27.311  1.00  0.00     0.338 C 
ATOM     32  O   UNL A   1      32.871  32.986  27.146  1.00  0.00    -0.246 OA
BRANCH  31  33
ATOM     33  C   UNL A   1      34.502  31.422  27.913  1.00  0.00     0.060 A 
ATOM     34  C   UNL A   1      34.689  30.079  28.265  1.00  0.00     0.016 A 
ATOM     35  C   UNL A   1      35.513  32.359  28.137  1.00  0.00     0.016 A 
ATOM     36  C   UNL A   1      35.883  29.674  28.864  1.00  0.00     0.010 A 
ATOM     37  C   UNL A   1      36.701  31.956  28.755  1.00  0.00     0.010 A 
ATOM     38  C   UNL A   1      36.882  30.618  29.145  1.00  0.00    -0.014 A 
BRANCH  38  39
ATOM     39  C   UNL A   1      38.042  30.244  29.991  1.00  0.00     0.031 A 
ATOM     40  C   UNL A   1      39.057  29.283  29.438  1.00  0.00     0.074 A 
ATOM     41  C   UNL A   1      38.197  30.751  31.227  1.00  0.00     0.049 A 
ATOM     42  N   UNL A   1      40.122  28.776  30.005  1.00  0.00    -0.248 NA
ATOM     43  C   UNL A   1      38.838  28.833  28.055  1.00  0.00     0.031 C 
ATOM     44  C   UNL A   1      37.307  31.718  31.862  1.00  0.00     0.029 A 
ATOM     45  N   UNL A   1      39.165  30.511  32.171  1.00  0.00    -0.354 N 
ATOM     46  C   UNL A   1      40.699  27.950  29.050  1.00  0.00     0.074 A 
ATOM     47  C   UNL A   1      39.848  27.995  27.880  1.00  0.00     0.031 C 
ATOM     48  C   UNL A   1      37.764  31.983  33.099  1.00  0.00     0.029 A 
ATOM     49  C   UNL A   1      38.960  31.180  33.352  1.00  0.00     0.049 A 
ATOM     50  H   UNL A   1      39.933  29.914  32.016  1.00  0.00     0.167 HD
ATOM     51  C   UNL A   1      41.839  27.223  29.137  1.00  0.00     0.037 A 
ATOM     52  C   UNL A   1      39.649  31.132  34.509  1.00  0.00     0.037 A 
ATOM     53  C   UNL A   1      42.678  27.168  30.305  1.00  0.00     0.049 A 
ATOM     54  C   UNL A   1      40.866  30.246  34.612  1.00  0.00     0.074 A 
ATOM     55  C   UNL A   1      43.859  26.472  30.488  1.00  0.00     0.029 A 
ATOM     56  N   UNL A   1      42.415  27.828  31.496  1.00  0.00    -0.354 N 
ATOM     57  N   UNL A   1      41.421  29.489  33.698  1.00  0.00    -0.248 NA
ATOM     58  C   UNL A   1      41.551  30.213  35.912  1.00  0.00     0.031 C 
ATOM     59  C   UNL A   1      44.283  26.668  31.806  1.00  0.00     0.029 A 
ATOM     60  C   UNL A   1      43.396  27.532  32.429  1.00  0.00     0.049 A 
ATOM     61  H   UNL A   1      41.644  28.419  31.656  1.00  0.00     0.167 HD
ATOM     62  C   UNL A   1      42.533  28.913  34.299  1.00  0.00     0.074 A 
ATOM     63  C   UNL A   1      42.581  29.418  35.655  1.00  0.00     0.031 C 
ATOM     64  C   UNL A   1      43.435  28.047  33.774  1.00  0.00     0.037 A 
BRANCH  51  65
ATOM     65  C   UNL A   1      42.227  26.408  27.939  1.00  0.00     0.064 A 
ATOM     66  C   UNL A   1      41.677  25.139  27.703  1.00  0.00     0.173 A 
ATOM     67  C   UNL A   1      43.149  26.907  27.008  1.00  0.00     0.173 A 
ATOM     68  F   UNL A   1      40.802  24.610  28.571  1.00  0.00    -0.203 F 
ATOM     69  C   UNL A   1      42.060  24.388  26.595  1.00  0.00     0.198 A 
ATOM     70  C   UNL A   1      43.508  26.166  25.886  1.00  0.00     0.198 A 
ATOM     71  F   UNL A   1      43.703  28.117  27.186  1.00  0.00    -0.203 F 
ATOM     72  F   UNL A   1      41.562  23.155  26.418  1.00  0.00    -0.200 F 
ATOM     73  C   UNL A   1      42.970  24.904  25.685  1.00  0.00     0.200 A 
ATOM     74  F   UNL A   1      44.379  26.670  25.002  1.00  0.00    -0.200 F 
ATOM     75  F   UNL A   1      43.337  24.179  24.619  1.00  0.00    -0.200 F 
ENDBRANCH  51  65
BRANCH  52  76
ATOM     76  C   UNL A   1      39.204  31.940  35.673  1.00  0.00     0.064 A 
ATOM     77  C   UNL A   1      39.680  33.244  35.871  1.00  0.00     0.173 A 
ATOM     78  C   UNL A   1      38.312  31.421  36.623  1.00  0.00     0.173 A 
ATOM     79  F   UNL A   1      40.559  33.774  35.008  1.00  0.00    -0.203 F 
ATOM     80  C   UNL A   1      39.293  33.991  36.982  1.00  0.00     0.198 A 
ATOM     81  C   UNL A   1      37.904  32.179  37.719  1.00  0.00     0.198 A 
ATOM     82  F   UNL A   1      37.834  30.175  36.485  1.00  0.00    -0.203 F 
ATOM     83  F   UNL A   1      39.801  35.216  37.172  1.00  0.00    -0.200 F 
ATOM     84  C   UNL A   1      38.401  33.460  37.902  1.00  0.00     0.200 A 
ATOM     85  F   UNL A   1      37.038  31.664  38.602  1.00  0.00    -0.200 F 
ATOM     86  F   UNL A   1      38.029  34.179  38.970  1.00  0.00    -0.200 F 
ENDBRANCH  52  76
BRANCH  64  87
ATOM     87  C   UNL A   1      44.574  27.615  34.654  1.00  0.00     0.064 A 
ATOM     88  C   UNL A   1      45.791  28.312  34.683  1.00  0.00     0.173 A 
ATOM     89  C   UNL A   1      44.428  26.515  35.513  1.00  0.00     0.173 A 
ATOM     90  F   UNL A   1      45.986  29.362  33.871  1.00  0.00    -0.203 F 
ATOM     91  C   UNL A   1      46.828  27.909  35.521  1.00  0.00     0.198 A 
ATOM     92  C   UNL A   1      45.456  26.133  36.372  1.00  0.00     0.198 A 
ATOM     93  F   UNL A   1      43.282  25.817  35.532  1.00  0.00    -0.203 F 
ATOM     94  F   UNL A   1      47.997  28.562  35.498  1.00  0.00    -0.200 F 
ATOM     95  C   UNL A   1      46.656  26.825  36.370  1.00  0.00     0.200 A 
ATOM     96  F   UNL A   1      45.283  25.095  37.202  1.00  0.00    -0.200 F 
ATOM     97  F   UNL A   1      47.652  26.445  37.181  1.00  0.00    -0.200 F 
ENDBRANCH  64  87
ENDBRANCH  38  39
ENDBRANCH  31  33
ENDBRANCH  30  31
ENDBRANCH  29  30
ENDBRANCH  28  29
ENDBRANCH  27  28
ENDBRANCH  26  27
ENDBRANCH   1  26
TORSDOF 21
ENDMDL
