MODEL 1
REMARK VINA RESULT:     -10.0      0.000      0.000
REMARK SMILES O=C(C[C@H](c1ccsc1)n1cccc1)OCCOCCOCCOC(=O)c1ccc(-c2c3nc(c(-c4c(F)c(F)c(F)c(F)c4F)c4ccc([nH]4)c(-c4c(F)c(F)c(F)c(F)c4F)c4nc(c(-c5c(F)c(F)c(F)c(F)c5F)c5ccc2[nH]5)C=C4)C=C3)cc1
REMARK SMILES IDX 19 1 18 2 17 3 16 4 15 5 2 6 1 7 3 8 4 9 10 10 11 11 14 12
REMARK SMILES IDX 12 13 13 14 5 15 6 16 9 17 7 18 8 19 20 20 21 21 22 22 23 23
REMARK SMILES IDX 24 24 25 25 26 26 27 27 28 28 89 29 29 30 88 31 30 32 31 33
REMARK SMILES IDX 32 34 82 35 33 36 87 37 81 38 83 39 34 40 86 41 80 42 79 43
REMARK SMILES IDX 35 45 67 46 47 47 66 48 48 49 51 50 65 51 84 52 49 53 50 54
REMARK SMILES IDX 64 56 85 57 52 58 36 59 37 60 45 61 38 62 39 63 43 64 46 65
REMARK SMILES IDX 40 66 41 67 44 68 42 69 68 70 69 71 77 72 70 73 71 74 75 75
REMARK SMILES IDX 78 76 72 77 73 78 76 79 74 80 53 81 54 82 62 83 55 84 56 85
REMARK SMILES IDX 60 86 63 87 57 88 58 89 61 90 59 91
REMARK H PARENT 83 44 51 55
REMARK Flexibility Score: inf
ROOT
ATOM      1  C   UNL A   1      33.651  28.143  24.157  1.00  0.00     0.188 C 
ENDROOT
BRANCH   1   2
ATOM      2  O   UNL A   1      33.436  26.774  23.887  1.00  0.00    -0.376 OA
BRANCH   2   3
ATOM      3  C   UNL A   1      32.886  25.953  24.903  1.00  0.00     0.202 C 
BRANCH   3   4
ATOM      4  C   UNL A   1      33.872  25.053  25.655  1.00  0.00     0.261 C 
BRANCH   4   5
ATOM      5  O   UNL A   1      33.357  23.996  26.505  1.00  0.00    -0.463 OA
BRANCH   5   6
ATOM      6  C   UNL A   1      32.453  23.026  26.269  1.00  0.00     0.308 C 
ATOM      7  O   UNL A   1      31.583  22.784  27.102  1.00  0.00    -0.252 OA
BRANCH   6   8
ATOM      8  C   UNL A   1      32.564  22.198  25.027  1.00  0.00     0.153 C 
BRANCH   8   9
ATOM      9  C   UNL A   1      33.582  21.082  25.224  1.00  0.00     0.128 C 
BRANCH   9  10
ATOM     10  N   UNL A   1      33.204  19.861  24.495  1.00  0.00    -0.346 N 
ATOM     11  C   UNL A   1      33.754  18.611  24.645  1.00  0.00     0.086 A 
ATOM     12  C   UNL A   1      32.356  19.841  23.409  1.00  0.00     0.086 A 
ATOM     13  C   UNL A   1      33.239  17.791  23.664  1.00  0.00     0.019 A 
ATOM     14  C   UNL A   1      32.361  18.570  22.880  1.00  0.00     0.019 A 
ENDBRANCH   9  10
BRANCH   9  15
ATOM     15  C   UNL A   1      34.978  21.557  24.897  1.00  0.00    -0.014 A 
ATOM     16  C   UNL A   1      35.358  22.319  23.738  1.00  0.00     0.017 A 
ATOM     17  C   UNL A   1      36.052  21.432  25.762  1.00  0.00     0.070 A 
ATOM     18  C   UNL A   1      36.658  22.765  23.796  1.00  0.00     0.065 A 
ATOM     19  S   UNL A   1      37.456  22.234  25.207  1.00  0.00    -0.152 S 
ENDBRANCH   9  15
ENDBRANCH   8   9
ENDBRANCH   6   8
ENDBRANCH   5   6
ENDBRANCH   4   5
ENDBRANCH   3   4
ENDBRANCH   2   3
ENDBRANCH   1   2
BRANCH   1  20
ATOM     20  C   UNL A   1      32.440  28.869  24.768  1.00  0.00     0.188 C 
BRANCH  20  21
ATOM     21  O   UNL A   1      32.588  30.085  25.488  1.00  0.00    -0.376 OA
BRANCH  21  22
ATOM     22  C   UNL A   1      33.491  30.206  26.579  1.00  0.00     0.202 C 
BRANCH  22  23
ATOM     23  C   UNL A   1      33.301  31.316  27.616  1.00  0.00     0.261 C 
BRANCH  23  24
ATOM     24  O   UNL A   1      33.718  32.613  27.192  1.00  0.00    -0.460 OA
BRANCH  24  25
ATOM     25  C   UNL A   1      33.275  33.593  27.993  1.00  0.00     0.338 C 
ATOM     26  O   UNL A   1      32.213  34.211  27.901  1.00  0.00    -0.246 OA
BRANCH  25  27
ATOM     27  C   UNL A   1      34.267  33.967  28.996  1.00  0.00     0.060 A 
ATOM     28  C   UNL A   1      35.564  34.192  28.522  1.00  0.00     0.016 A 
ATOM     29  C   UNL A   1      34.006  33.624  30.326  1.00  0.00     0.016 A 
ATOM     30  C   UNL A   1      36.629  33.833  29.320  1.00  0.00     0.010 A 
ATOM     31  C   UNL A   1      35.072  33.236  31.114  1.00  0.00     0.010 A 
ATOM     32  C   UNL A   1      36.363  33.256  30.566  1.00  0.00    -0.014 A 
BRANCH  32  33
ATOM     33  C   UNL A   1      37.471  32.588  31.267  1.00  0.00     0.031 A 
ATOM     34  C   UNL A   1      37.836  31.255  30.657  1.00  0.00     0.074 A 
ATOM     35  C   UNL A   1      37.975  33.253  32.349  1.00  0.00     0.049 A 
ATOM     36  N   UNL A   1      38.498  30.268  31.174  1.00  0.00    -0.248 NA
ATOM     37  C   UNL A   1      37.357  30.948  29.284  1.00  0.00     0.031 C 
ATOM     38  C   UNL A   1      37.472  34.560  32.813  1.00  0.00     0.029 A 
ATOM     39  N   UNL A   1      38.970  32.994  33.272  1.00  0.00    -0.354 N 
ATOM     40  C   UNL A   1      38.696  29.339  30.144  1.00  0.00     0.074 A 
ATOM     41  C   UNL A   1      37.868  29.742  29.047  1.00  0.00     0.031 C 
ATOM     42  C   UNL A   1      38.104  34.945  33.937  1.00  0.00     0.029 A 
ATOM     43  C   UNL A   1      39.098  33.958  34.306  1.00  0.00     0.049 A 
ATOM     44  H   UNL A   1      39.549  32.199  33.217  1.00  0.00     0.167 HD
ATOM     45  C   UNL A   1      39.657  28.379  30.188  1.00  0.00     0.037 A 
ATOM     46  C   UNL A   1      39.925  33.962  35.399  1.00  0.00     0.037 A 
ATOM     47  C   UNL A   1      40.325  28.365  31.446  1.00  0.00     0.049 A 
ATOM     48  C   UNL A   1      40.827  32.809  35.222  1.00  0.00     0.074 A 
ATOM     49  C   UNL A   1      39.969  27.933  32.696  1.00  0.00     0.029 A 
ATOM     50  N   UNL A   1      41.470  29.114  31.554  1.00  0.00    -0.354 N 
ATOM     51  N   UNL A   1      41.806  32.762  34.366  1.00  0.00    -0.248 NA
ATOM     52  C   UNL A   1      40.597  31.591  36.009  1.00  0.00     0.031 C 
ATOM     53  C   UNL A   1      40.743  28.709  33.587  1.00  0.00     0.029 A 
ATOM     54  C   UNL A   1      41.560  29.570  32.849  1.00  0.00     0.049 A 
ATOM     55  H   UNL A   1      42.115  29.294  30.832  1.00  0.00     0.167 HD
ATOM     56  C   UNL A   1      42.077  31.413  34.290  1.00  0.00     0.074 A 
ATOM     57  C   UNL A   1      41.548  30.817  35.493  1.00  0.00     0.031 C 
ATOM     58  C   UNL A   1      42.230  30.832  33.073  1.00  0.00     0.037 A 
BRANCH  45  59
ATOM     59  C   UNL A   1      40.232  27.568  29.069  1.00  0.00     0.064 A 
ATOM     60  C   UNL A   1      41.066  28.215  28.130  1.00  0.00     0.173 A 
ATOM     61  C   UNL A   1      39.744  26.304  28.707  1.00  0.00     0.173 A 
ATOM     62  F   UNL A   1      41.593  29.420  28.400  1.00  0.00    -0.203 F 
ATOM     63  C   UNL A   1      41.307  27.676  26.869  1.00  0.00     0.198 A 
ATOM     64  C   UNL A   1      40.028  25.745  27.460  1.00  0.00     0.198 A 
ATOM     65  F   UNL A   1      38.900  25.630  29.501  1.00  0.00    -0.203 F 
ATOM     66  F   UNL A   1      41.999  28.382  25.965  1.00  0.00    -0.200 F 
ATOM     67  C   UNL A   1      40.778  26.445  26.531  1.00  0.00     0.200 A 
ATOM     68  F   UNL A   1      39.511  24.552  27.137  1.00  0.00    -0.200 F 
ATOM     69  F   UNL A   1      40.956  25.951  25.298  1.00  0.00    -0.200 F 
ENDBRANCH  45  59
BRANCH  46  70
ATOM     70  C   UNL A   1      40.100  34.782  36.666  1.00  0.00     0.064 A 
ATOM     71  C   UNL A   1      39.253  34.777  37.783  1.00  0.00     0.173 A 
ATOM     72  C   UNL A   1      41.247  35.614  36.826  1.00  0.00     0.173 A 
ATOM     73  F   UNL A   1      38.073  34.154  37.767  1.00  0.00    -0.203 F 
ATOM     74  C   UNL A   1      39.571  35.446  38.979  1.00  0.00     0.198 A 
ATOM     75  C   UNL A   1      41.580  36.255  38.022  1.00  0.00     0.198 A 
ATOM     76  F   UNL A   1      42.102  35.836  35.820  1.00  0.00    -0.203 F 
ATOM     77  F   UNL A   1      38.724  35.385  40.017  1.00  0.00    -0.200 F 
ATOM     78  C   UNL A   1      40.748  36.157  39.109  1.00  0.00     0.200 A 
ATOM     79  F   UNL A   1      42.722  36.952  38.106  1.00  0.00    -0.200 F 
ATOM     80  F   UNL A   1      41.069  36.753  40.265  1.00  0.00    -0.200 F 
ENDBRANCH  46  70
BRANCH  58  81
ATOM     81  C   UNL A   1      42.655  31.816  32.004  1.00  0.00     0.064 A 
ATOM     82  C   UNL A   1      43.978  32.278  31.952  1.00  0.00     0.173 A 
ATOM     83  C   UNL A   1      41.746  32.434  31.129  1.00  0.00     0.173 A 
ATOM     84  F   UNL A   1      44.907  31.734  32.752  1.00  0.00    -0.203 F 
ATOM     85  C   UNL A   1      44.358  33.308  31.087  1.00  0.00     0.198 A 
ATOM     86  C   UNL A   1      42.123  33.455  30.258  1.00  0.00     0.198 A 
ATOM     87  F   UNL A   1      40.470  32.055  31.103  1.00  0.00    -0.203 F 
ATOM     88  F   UNL A   1      45.630  33.731  31.072  1.00  0.00    -0.200 F 
ATOM     89  C   UNL A   1      43.430  33.899  30.243  1.00  0.00     0.200 A 
ATOM     90  F   UNL A   1      41.215  34.003  29.435  1.00  0.00    -0.200 F 
ATOM     91  F   UNL A   1      43.796  34.884  29.412  1.00  0.00    -0.200 F 
ENDBRANCH  58  81
ENDBRANCH  32  33
ENDBRANCH  25  27
ENDBRANCH  24  25
ENDBRANCH  23  24
ENDBRANCH  22  23
ENDBRANCH  21  22
ENDBRANCH  20  21
ENDBRANCH   1  20
TORSDOF 20
ENDMDL
MODEL 2
REMARK VINA RESULT:      -9.9      5.334     10.685
REMARK SMILES O=C(C[C@H](c1ccsc1)n1cccc1)OCCOCCOCCOC(=O)c1ccc(-c2c3nc(c(-c4c(F)c(F)c(F)c(F)c4F)c4ccc([nH]4)c(-c4c(F)c(F)c(F)c(F)c4F)c4nc(c(-c5c(F)c(F)c(F)c(F)c5F)c5ccc2[nH]5)C=C4)C=C3)cc1
REMARK SMILES IDX 19 1 18 2 17 3 16 4 15 5 2 6 1 7 3 8 4 9 10 10 11 11 14 12
REMARK SMILES IDX 12 13 13 14 5 15 6 16 9 17 7 18 8 19 20 20 21 21 22 22 23 23
REMARK SMILES IDX 24 24 25 25 26 26 27 27 28 28 89 29 29 30 88 31 30 32 31 33
REMARK SMILES IDX 32 34 82 35 33 36 87 37 81 38 83 39 34 40 86 41 80 42 79 43
REMARK SMILES IDX 35 45 67 46 47 47 66 48 48 49 51 50 65 51 84 52 49 53 50 54
REMARK SMILES IDX 64 56 85 57 52 58 36 59 37 60 45 61 38 62 39 63 43 64 46 65
REMARK SMILES IDX 40 66 41 67 44 68 42 69 68 70 69 71 77 72 70 73 71 74 75 75
REMARK SMILES IDX 78 76 72 77 73 78 76 79 74 80 53 81 54 82 62 83 55 84 56 85
REMARK SMILES IDX 60 86 63 87 57 88 58 89 61 90 59 91
REMARK H PARENT 83 44 51 55
REMARK Flexibility Score: inf
ROOT
ATOM      1  C   UNL A   1      35.512  24.092  24.573  1.00  0.00     0.188 C 
ENDROOT
BRANCH   1   2
ATOM      2  O   UNL A   1      34.631  24.021  25.674  1.00  0.00    -0.376 OA
BRANCH   2   3
ATOM      3  C   UNL A   1      33.573  24.960  25.766  1.00  0.00     0.202 C 
BRANCH   3   4
ATOM      4  C   UNL A   1      33.965  26.436  25.641  1.00  0.00     0.261 C 
BRANCH   4   5
ATOM      5  O   UNL A   1      33.115  27.446  26.245  1.00  0.00    -0.463 OA
BRANCH   5   6
ATOM      6  C   UNL A   1      32.704  28.647  25.795  1.00  0.00     0.308 C 
ATOM      7  O   UNL A   1      33.449  29.620  25.880  1.00  0.00    -0.252 OA
BRANCH   6   8
ATOM      8  C   UNL A   1      31.313  28.802  25.266  1.00  0.00     0.153 C 
BRANCH   8   9
ATOM      9  C   UNL A   1      31.329  28.871  23.745  1.00  0.00     0.128 C 
BRANCH   9  10
ATOM     10  N   UNL A   1      31.512  27.543  23.138  1.00  0.00    -0.346 N 
ATOM     11  C   UNL A   1      30.791  26.407  23.414  1.00  0.00     0.086 A 
ATOM     12  C   UNL A   1      32.575  27.205  22.328  1.00  0.00     0.086 A 
ATOM     13  C   UNL A   1      31.385  25.348  22.761  1.00  0.00     0.019 A 
ATOM     14  C   UNL A   1      32.515  25.851  22.081  1.00  0.00     0.019 A 
ENDBRANCH   9  10
BRANCH   9  15
ATOM     15  C   UNL A   1      30.112  29.597  23.220  1.00  0.00    -0.014 A 
ATOM     16  C   UNL A   1      29.433  30.683  23.875  1.00  0.00     0.017 A 
ATOM     17  C   UNL A   1      29.582  29.391  21.958  1.00  0.00     0.070 A 
ATOM     18  C   UNL A   1      28.473  31.267  23.081  1.00  0.00     0.065 A 
ATOM     19  S   UNL A   1      28.333  30.491  21.569  1.00  0.00    -0.152 S 
ENDBRANCH   9  15
ENDBRANCH   8   9
ENDBRANCH   6   8
ENDBRANCH   5   6
ENDBRANCH   4   5
ENDBRANCH   3   4
ENDBRANCH   2   3
ENDBRANCH   1   2
BRANCH   1  20
ATOM     20  C   UNL A   1      35.767  22.746  23.873  1.00  0.00     0.188 C 
BRANCH  20  21
ATOM     21  O   UNL A   1      35.628  21.512  24.563  1.00  0.00    -0.376 OA
BRANCH  21  22
ATOM     22  C   UNL A   1      36.596  21.063  25.502  1.00  0.00     0.202 C 
BRANCH  22  23
ATOM     23  C   UNL A   1      37.978  20.608  25.027  1.00  0.00     0.261 C 
BRANCH  23  24
ATOM     24  O   UNL A   1      39.069  21.067  25.823  1.00  0.00    -0.460 OA
BRANCH  24  25
ATOM     25  C   UNL A   1      40.048  20.160  25.944  1.00  0.00     0.338 C 
ATOM     26  O   UNL A   1      39.959  18.939  25.796  1.00  0.00    -0.246 OA
BRANCH  25  27
ATOM     27  C   UNL A   1      41.298  20.763  26.395  1.00  0.00     0.060 A 
ATOM     28  C   UNL A   1      41.314  21.224  27.716  1.00  0.00     0.016 A 
ATOM     29  C   UNL A   1      42.170  21.257  25.420  1.00  0.00     0.016 A 
ATOM     30  C   UNL A   1      42.037  22.360  28.009  1.00  0.00     0.010 A 
ATOM     31  C   UNL A   1      42.872  22.412  25.706  1.00  0.00     0.010 A 
ATOM     32  C   UNL A   1      42.721  23.001  26.970  1.00  0.00    -0.014 A 
BRANCH  32  33
ATOM     33  C   UNL A   1      43.217  24.366  27.210  1.00  0.00     0.031 A 
ATOM     34  C   UNL A   1      42.107  25.379  27.359  1.00  0.00     0.074 A 
ATOM     35  C   UNL A   1      44.576  24.505  27.241  1.00  0.00     0.049 A 
ATOM     36  N   UNL A   1      42.151  26.669  27.246  1.00  0.00    -0.248 NA
ATOM     37  C   UNL A   1      40.729  24.889  27.627  1.00  0.00     0.031 C 
ATOM     38  C   UNL A   1      45.518  23.384  27.057  1.00  0.00     0.029 A 
ATOM     39  N   UNL A   1      45.440  25.569  27.416  1.00  0.00    -0.354 N 
ATOM     40  C   UNL A   1      40.892  27.146  27.634  1.00  0.00     0.074 A 
ATOM     41  C   UNL A   1      40.023  26.012  27.731  1.00  0.00     0.031 C 
ATOM     42  C   UNL A   1      46.790  23.821  27.068  1.00  0.00     0.029 A 
ATOM     43  C   UNL A   1      46.818  25.253  27.289  1.00  0.00     0.049 A 
ATOM     44  H   UNL A   1      45.124  26.480  27.615  1.00  0.00     0.167 HD
ATOM     45  C   UNL A   1      40.673  28.432  28.016  1.00  0.00     0.037 A 
ATOM     46  C   UNL A   1      47.911  26.078  27.335  1.00  0.00     0.037 A 
ATOM     47  C   UNL A   1      41.837  29.234  27.843  1.00  0.00     0.049 A 
ATOM     48  C   UNL A   1      47.395  27.404  27.723  1.00  0.00     0.074 A 
ATOM     49  C   UNL A   1      42.460  29.765  26.744  1.00  0.00     0.029 A 
ATOM     50  N   UNL A   1      42.677  29.358  28.921  1.00  0.00    -0.354 N 
ATOM     51  N   UNL A   1      46.994  27.717  28.920  1.00  0.00    -0.248 NA
ATOM     52  C   UNL A   1      47.257  28.448  26.700  1.00  0.00     0.031 C 
ATOM     53  C   UNL A   1      43.813  29.913  27.125  1.00  0.00     0.029 A 
ATOM     54  C   UNL A   1      43.962  29.488  28.448  1.00  0.00     0.049 A 
ATOM     55  H   UNL A   1      42.407  29.354  29.868  1.00  0.00     0.167 HD
ATOM     56  C   UNL A   1      46.262  28.864  28.703  1.00  0.00     0.074 A 
ATOM     57  C   UNL A   1      46.706  29.405  27.441  1.00  0.00     0.031 C 
ATOM     58  C   UNL A   1      45.038  28.992  29.277  1.00  0.00     0.037 A 
BRANCH  45  59
ATOM     59  C   UNL A   1      39.522  29.006  28.781  1.00  0.00     0.064 A 
ATOM     60  C   UNL A   1      39.376  28.651  30.140  1.00  0.00     0.173 A 
ATOM     61  C   UNL A   1      38.410  29.600  28.165  1.00  0.00     0.173 A 
ATOM     62  F   UNL A   1      40.394  28.094  30.814  1.00  0.00    -0.203 F 
ATOM     63  C   UNL A   1      38.161  28.786  30.807  1.00  0.00     0.198 A 
ATOM     64  C   UNL A   1      37.209  29.780  28.852  1.00  0.00     0.198 A 
ATOM     65  F   UNL A   1      38.425  29.923  26.864  1.00  0.00    -0.203 F 
ATOM     66  F   UNL A   1      38.032  28.320  32.056  1.00  0.00    -0.200 F 
ATOM     67  C   UNL A   1      37.074  29.341  30.158  1.00  0.00     0.200 A 
ATOM     68  F   UNL A   1      36.158  30.316  28.217  1.00  0.00    -0.200 F 
ATOM     69  F   UNL A   1      35.888  29.416  30.776  1.00  0.00    -0.200 F 
ENDBRANCH  45  59
BRANCH  46  70
ATOM     70  C   UNL A   1      49.403  25.974  27.067  1.00  0.00     0.064 A 
ATOM     71  C   UNL A   1      50.024  25.971  25.810  1.00  0.00     0.173 A 
ATOM     72  C   UNL A   1      50.323  25.931  28.156  1.00  0.00     0.173 A 
ATOM     73  F   UNL A   1      49.322  25.886  24.679  1.00  0.00    -0.203 F 
ATOM     74  C   UNL A   1      51.422  26.031  25.655  1.00  0.00     0.198 A 
ATOM     75  C   UNL A   1      51.709  26.019  28.005  1.00  0.00     0.198 A 
ATOM     76  F   UNL A   1      49.909  25.804  29.423  1.00  0.00    -0.203 F 
ATOM     77  F   UNL A   1      51.951  26.045  24.423  1.00  0.00    -0.200 F 
ATOM     78  C   UNL A   1      52.261  26.087  26.750  1.00  0.00     0.200 A 
ATOM     79  F   UNL A   1      52.494  26.053  29.091  1.00  0.00    -0.200 F 
ATOM     80  F   UNL A   1      53.588  26.191  26.597  1.00  0.00    -0.200 F 
ENDBRANCH  46  70
BRANCH  58  81
ATOM     81  C   UNL A   1      44.884  28.142  30.521  1.00  0.00     0.064 A 
ATOM     82  C   UNL A   1      45.452  28.556  31.735  1.00  0.00     0.173 A 
ATOM     83  C   UNL A   1      44.325  26.854  30.503  1.00  0.00     0.173 A 
ATOM     84  F   UNL A   1      46.001  29.775  31.835  1.00  0.00    -0.203 F 
ATOM     85  C   UNL A   1      45.471  27.718  32.854  1.00  0.00     0.198 A 
ATOM     86  C   UNL A   1      44.334  26.019  31.619  1.00  0.00     0.198 A 
ATOM     87  F   UNL A   1      43.757  26.381  29.396  1.00  0.00    -0.203 F 
ATOM     88  F   UNL A   1      46.032  28.143  33.995  1.00  0.00    -0.200 F 
ATOM     89  C   UNL A   1      44.916  26.450  32.795  1.00  0.00     0.200 A 
ATOM     90  F   UNL A   1      43.775  24.801  31.549  1.00  0.00    -0.200 F 
ATOM     91  F   UNL A   1      44.932  25.649  33.869  1.00  0.00    -0.200 F 
ENDBRANCH  58  81
ENDBRANCH  32  33
ENDBRANCH  25  27
ENDBRANCH  24  25
ENDBRANCH  23  24
ENDBRANCH  22  23
ENDBRANCH  21  22
ENDBRANCH  20  21
ENDBRANCH   1  20
TORSDOF 20
ENDMDL
MODEL 3
REMARK VINA RESULT:      -9.9      2.989      8.812
REMARK SMILES O=C(C[C@H](c1ccsc1)n1cccc1)OCCOCCOCCOC(=O)c1ccc(-c2c3nc(c(-c4c(F)c(F)c(F)c(F)c4F)c4ccc([nH]4)c(-c4c(F)c(F)c(F)c(F)c4F)c4nc(c(-c5c(F)c(F)c(F)c(F)c5F)c5ccc2[nH]5)C=C4)C=C3)cc1
REMARK SMILES IDX 19 1 18 2 17 3 16 4 15 5 2 6 1 7 3 8 4 9 10 10 11 11 14 12
REMARK SMILES IDX 12 13 13 14 5 15 6 16 9 17 7 18 8 19 20 20 21 21 22 22 23 23
REMARK SMILES IDX 24 24 25 25 26 26 27 27 28 28 89 29 29 30 88 31 30 32 31 33
REMARK SMILES IDX 32 34 82 35 33 36 87 37 81 38 83 39 34 40 86 41 80 42 79 43
REMARK SMILES IDX 35 45 67 46 47 47 66 48 48 49 51 50 65 51 84 52 49 53 50 54
REMARK SMILES IDX 64 56 85 57 52 58 36 59 37 60 45 61 38 62 39 63 43 64 46 65
REMARK SMILES IDX 40 66 41 67 44 68 42 69 68 70 69 71 77 72 70 73 71 74 75 75
REMARK SMILES IDX 78 76 72 77 73 78 76 79 74 80 53 81 54 82 62 83 55 84 56 85
REMARK SMILES IDX 60 86 63 87 57 88 58 89 61 90 59 91
REMARK H PARENT 83 44 51 55
REMARK Flexibility Score: inf
ROOT
ATOM      1  C   UNL A   1      32.835  27.767  26.226  1.00  0.00     0.188 C 
ENDROOT
BRANCH   1   2
ATOM      2  O   UNL A   1      33.019  27.678  24.829  1.00  0.00    -0.376 OA
BRANCH   2   3
ATOM      3  C   UNL A   1      32.076  28.300  23.972  1.00  0.00     0.202 C 
BRANCH   3   4
ATOM      4  C   UNL A   1      31.378  27.388  22.958  1.00  0.00     0.261 C 
BRANCH   4   5
ATOM      5  O   UNL A   1      31.906  26.056  22.726  1.00  0.00    -0.463 OA
BRANCH   5   6
ATOM      6  C   UNL A   1      33.106  25.641  22.277  1.00  0.00     0.308 C 
ATOM      7  O   UNL A   1      33.723  26.322  21.462  1.00  0.00    -0.252 OA
BRANCH   6   8
ATOM      8  C   UNL A   1      33.642  24.314  22.716  1.00  0.00     0.153 C 
BRANCH   8   9
ATOM      9  C   UNL A   1      33.915  24.323  24.214  1.00  0.00     0.128 C 
BRANCH   9  10
ATOM     10  N   UNL A   1      32.797  23.748  24.978  1.00  0.00    -0.346 N 
ATOM     11  C   UNL A   1      32.322  24.183  26.191  1.00  0.00     0.086 A 
ATOM     12  C   UNL A   1      32.178  22.558  24.664  1.00  0.00     0.086 A 
ATOM     13  C   UNL A   1      31.384  23.277  26.640  1.00  0.00     0.019 A 
ATOM     14  C   UNL A   1      31.298  22.247  25.677  1.00  0.00     0.019 A 
ENDBRANCH   9  10
BRANCH   9  15
ATOM     15  C   UNL A   1      35.241  23.671  24.528  1.00  0.00    -0.014 A 
ATOM     16  C   UNL A   1      36.077  23.966  25.660  1.00  0.00     0.017 A 
ATOM     17  C   UNL A   1      35.750  22.592  23.824  1.00  0.00     0.070 A 
ATOM     18  C   UNL A   1      37.132  23.092  25.787  1.00  0.00     0.065 A 
ATOM     19  S   UNL A   1      37.168  21.943  24.526  1.00  0.00    -0.152 S 
ENDBRANCH   9  15
ENDBRANCH   8   9
ENDBRANCH   6   8
ENDBRANCH   5   6
ENDBRANCH   4   5
ENDBRANCH   3   4
ENDBRANCH   2   3
ENDBRANCH   1   2
BRANCH   1  20
ATOM     20  C   UNL A   1      33.542  28.963  26.886  1.00  0.00     0.188 C 
BRANCH  20  21
ATOM     21  O   UNL A   1      33.319  30.294  26.444  1.00  0.00    -0.376 OA
BRANCH  21  22
ATOM     22  C   UNL A   1      32.634  31.248  27.245  1.00  0.00     0.202 C 
BRANCH  22  23
ATOM     23  C   UNL A   1      33.316  32.563  27.629  1.00  0.00     0.261 C 
BRANCH  23  24
ATOM     24  O   UNL A   1      34.710  32.458  27.915  1.00  0.00    -0.460 OA
BRANCH  24  25
ATOM     25  C   UNL A   1      34.959  31.931  29.122  1.00  0.00     0.338 C 
ATOM     26  O   UNL A   1      34.596  32.366  30.217  1.00  0.00    -0.246 OA
BRANCH  25  27
ATOM     27  C   UNL A   1      35.844  30.773  29.040  1.00  0.00     0.060 A 
ATOM     28  C   UNL A   1      36.279  30.246  30.262  1.00  0.00     0.016 A 
ATOM     29  C   UNL A   1      36.549  30.577  27.848  1.00  0.00     0.016 A 
ATOM     30  C   UNL A   1      37.552  29.728  30.339  1.00  0.00     0.010 A 
ATOM     31  C   UNL A   1      37.836  30.085  27.933  1.00  0.00     0.010 A 
ATOM     32  C   UNL A   1      38.355  29.754  29.194  1.00  0.00    -0.014 A 
BRANCH  32  33
ATOM     33  C   UNL A   1      39.796  29.504  29.355  1.00  0.00     0.031 A 
ATOM     34  C   UNL A   1      40.552  30.713  29.850  1.00  0.00     0.074 A 
ATOM     35  C   UNL A   1      40.220  28.249  29.020  1.00  0.00     0.049 A 
ATOM     36  N   UNL A   1      41.822  30.969  29.792  1.00  0.00    -0.248 NA
ATOM     37  C   UNL A   1      39.785  31.831  30.461  1.00  0.00     0.031 C 
ATOM     38  C   UNL A   1      39.322  27.185  28.531  1.00  0.00     0.029 A 
ATOM     39  N   UNL A   1      41.445  27.609  29.003  1.00  0.00    -0.354 N 
ATOM     40  C   UNL A   1      42.025  32.142  30.531  1.00  0.00     0.074 A 
ATOM     41  C   UNL A   1      40.734  32.696  30.807  1.00  0.00     0.031 C 
ATOM     42  C   UNL A   1      40.019  26.078  28.215  1.00  0.00     0.029 A 
ATOM     43  C   UNL A   1      41.427  26.286  28.489  1.00  0.00     0.049 A 
ATOM     44  H   UNL A   1      42.270  28.039  29.325  1.00  0.00     0.167 HD
ATOM     45  C   UNL A   1      43.240  32.507  31.020  1.00  0.00     0.037 A 
ATOM     46  C   UNL A   1      42.465  25.419  28.274  1.00  0.00     0.037 A 
ATOM     47  C   UNL A   1      44.268  31.628  30.574  1.00  0.00     0.049 A 
ATOM     48  C   UNL A   1      43.655  26.068  28.852  1.00  0.00     0.074 A 
ATOM     49  C   UNL A   1      44.907  31.458  29.375  1.00  0.00     0.029 A 
ATOM     50  N   UNL A   1      44.579  30.567  31.387  1.00  0.00    -0.354 N 
ATOM     51  N   UNL A   1      43.890  26.178  30.127  1.00  0.00    -0.248 NA
ATOM     52  C   UNL A   1      44.635  26.697  27.958  1.00  0.00     0.031 C 
ATOM     53  C   UNL A   1      45.342  30.114  29.378  1.00  0.00     0.029 A 
ATOM     54  C   UNL A   1      44.973  29.519  30.588  1.00  0.00     0.049 A 
ATOM     55  H   UNL A   1      44.528  30.556  32.371  1.00  0.00     0.167 HD
ATOM     56  C   UNL A   1      44.853  27.162  30.174  1.00  0.00     0.074 A 
ATOM     57  C   UNL A   1      45.462  27.207  28.867  1.00  0.00     0.031 C 
ATOM     58  C   UNL A   1      44.725  28.177  31.066  1.00  0.00     0.037 A 
BRANCH  45  59
ATOM     59  C   UNL A   1      43.565  33.494  32.098  1.00  0.00     0.064 A 
ATOM     60  C   UNL A   1      43.234  33.165  33.431  1.00  0.00     0.173 A 
ATOM     61  C   UNL A   1      43.871  34.839  31.841  1.00  0.00     0.173 A 
ATOM     62  F   UNL A   1      42.945  31.899  33.771  1.00  0.00    -0.203 F 
ATOM     63  C   UNL A   1      43.115  34.139  34.418  1.00  0.00     0.198 A 
ATOM     64  C   UNL A   1      43.799  35.805  32.846  1.00  0.00     0.198 A 
ATOM     65  F   UNL A   1      44.144  35.266  30.600  1.00  0.00    -0.203 F 
ATOM     66  F   UNL A   1      42.675  33.801  35.638  1.00  0.00    -0.200 F 
ATOM     67  C   UNL A   1      43.387  35.461  34.121  1.00  0.00     0.200 A 
ATOM     68  F   UNL A   1      44.062  37.085  32.551  1.00  0.00    -0.200 F 
ATOM     69  F   UNL A   1      43.214  36.410  35.052  1.00  0.00    -0.200 F 
ENDBRANCH  45  59
BRANCH  46  70
ATOM     70  C   UNL A   1      42.675  24.071  27.604  1.00  0.00     0.064 A 
ATOM     71  C   UNL A   1      42.480  22.812  28.189  1.00  0.00     0.173 A 
ATOM     72  C   UNL A   1      43.051  24.007  26.230  1.00  0.00     0.173 A 
ATOM     73  F   UNL A   1      42.244  22.673  29.495  1.00  0.00    -0.203 F 
ATOM     74  C   UNL A   1      42.543  21.615  27.451  1.00  0.00     0.198 A 
ATOM     75  C   UNL A   1      43.087  22.823  25.489  1.00  0.00     0.198 A 
ATOM     76  F   UNL A   1      43.397  25.104  25.543  1.00  0.00    -0.203 F 
ATOM     77  F   UNL A   1      42.327  20.445  28.070  1.00  0.00    -0.200 F 
ATOM     78  C   UNL A   1      42.815  21.623  26.098  1.00  0.00     0.200 A 
ATOM     79  F   UNL A   1      43.372  22.867  24.180  1.00  0.00    -0.200 F 
ATOM     80  F   UNL A   1      42.830  20.485  25.391  1.00  0.00    -0.200 F 
ENDBRANCH  46  70
BRANCH  58  81
ATOM     81  C   UNL A   1      43.876  27.801  32.263  1.00  0.00     0.064 A 
ATOM     82  C   UNL A   1      44.351  26.877  33.204  1.00  0.00     0.173 A 
ATOM     83  C   UNL A   1      42.542  28.213  32.413  1.00  0.00     0.173 A 
ATOM     84  F   UNL A   1      45.616  26.440  33.133  1.00  0.00    -0.203 F 
ATOM     85  C   UNL A   1      43.528  26.386  34.223  1.00  0.00     0.198 A 
ATOM     86  C   UNL A   1      41.721  27.733  33.432  1.00  0.00     0.198 A 
ATOM     87  F   UNL A   1      42.008  29.094  31.569  1.00  0.00    -0.203 F 
ATOM     88  F   UNL A   1      44.012  25.495  35.100  1.00  0.00    -0.200 F 
ATOM     89  C   UNL A   1      42.213  26.811  34.334  1.00  0.00     0.200 A 
ATOM     90  F   UNL A   1      40.457  28.170  33.535  1.00  0.00    -0.200 F 
ATOM     91  F   UNL A   1      41.427  26.342  35.312  1.00  0.00    -0.200 F 
ENDBRANCH  58  81
ENDBRANCH  32  33
ENDBRANCH  25  27
ENDBRANCH  24  25
ENDBRANCH  23  24
ENDBRANCH  22  23
ENDBRANCH  21  22
ENDBRANCH  20  21
ENDBRANCH   1  20
TORSDOF 20
ENDMDL
