MODEL 1
REMARK VINA RESULT:     -11.3      0.000      0.000
REMARK SMILES CC(C)CN(C)c1cc2c(cc1Cl)C=C(C(=O)OCCOCCOCCOC(=O)c1ccc(-c3c4nc(c(-c5c(F)c(F)c(F)c(F)c5F)c5ccc([nH]5)c(-c5c(F)c(F)c(F)c(F)c5F)c5nc(c(-c6c(F)c(F)c(F)c(F)c6F)c6ccc3[nH]6)C=C5)C=C4)cc1)[C@@H](C(F)(F)F)O2
REMARK SMILES IDX 22 1 21 2 20 3 19 4 18 5 16 6 17 7 15 8 7 9 8 10 12 11 9 12
REMARK SMILES IDX 11 13 13 14 10 15 98 16 14 17 93 18 5 19 6 20 4 21 2 22 1 23
REMARK SMILES IDX 3 24 94 25 95 26 96 27 97 28 23 29 24 30 25 31 26 32 27 33
REMARK SMILES IDX 28 34 29 35 30 36 31 37 92 38 32 39 91 40 33 41 34 42 35 43
REMARK SMILES IDX 85 44 36 45 90 46 84 47 86 48 37 49 89 50 83 51 82 52 38 54
REMARK SMILES IDX 70 55 50 56 69 57 51 58 54 59 68 60 87 61 52 62 53 63 67 65
REMARK SMILES IDX 88 66 55 67 39 68 40 69 48 70 41 71 42 72 46 73 49 74 43 75
REMARK SMILES IDX 44 76 47 77 45 78 71 79 72 80 80 81 73 82 74 83 78 84 81 85
REMARK SMILES IDX 75 86 76 87 79 88 77 89 56 90 57 91 65 92 58 93 59 94 63 95
REMARK SMILES IDX 66 96 60 97 61 98 64 99 62 100
REMARK H PARENT 86 53 54 64
REMARK Flexibility Score: inf
ROOT
ATOM      1  C   UNL A   1      40.422  21.634  27.245  1.00  0.00     0.188 C 
ENDROOT
BRANCH   1   2
ATOM      2  O   UNL A   1      39.550  21.490  26.149  1.00  0.00    -0.376 OA
BRANCH   2   3
ATOM      3  C   UNL A   1      38.487  22.397  25.912  1.00  0.00     0.202 C 
BRANCH   3   4
ATOM      4  C   UNL A   1      37.012  22.015  25.712  1.00  0.00     0.261 C 
BRANCH   4   5
ATOM      5  O   UNL A   1      36.128  23.049  25.272  1.00  0.00    -0.460 OA
BRANCH   5   6
ATOM      6  C   UNL A   1      35.972  23.115  23.930  1.00  0.00     0.338 C 
ATOM      7  O   UNL A   1      36.686  22.592  23.089  1.00  0.00    -0.246 OA
BRANCH   6   8
ATOM      8  C   UNL A   1      34.704  23.785  23.593  1.00  0.00     0.087 C 
ATOM      9  C   UNL A   1      30.795  26.953  23.648  1.00  0.00     0.059 A 
ATOM     10  C   UNL A   1      31.077  25.753  22.959  1.00  0.00     0.074 A 
ATOM     11  C   UNL A   1      31.811  27.473  24.480  1.00  0.00     0.065 A 
ATOM     12  C   UNL A   1      32.314  25.108  23.097  1.00  0.00     0.130 A 
ATOM     13  C   UNL A   1      33.077  26.891  24.529  1.00  0.00     0.034 A 
ATOM     14  Cl  UNL A   1      31.548  28.795  25.566  1.00  0.00    -0.082 Cl
ATOM     15  C   UNL A   1      33.324  25.704  23.849  1.00  0.00     0.019 A 
ATOM     16  O   UNL A   1      32.479  23.900  22.470  1.00  0.00    -0.475 OA
ATOM     17  C   UNL A   1      34.612  25.058  23.991  1.00  0.00     0.027 C 
ATOM     18  C   UNL A   1      33.581  23.046  22.919  1.00  0.00     0.316 C 
BRANCH   9  19
ATOM     19  N   UNL A   1      29.541  27.565  23.543  1.00  0.00    -0.373 N 
ATOM     20  C   UNL A   1      28.394  26.716  23.847  1.00  0.00     0.143 C 
BRANCH  19  21
ATOM     21  C   UNL A   1      29.349  28.634  22.541  1.00  0.00     0.119 C 
BRANCH  21  22
ATOM     22  C   UNL A   1      28.558  29.839  23.095  1.00  0.00     0.002 C 
ATOM     23  C   UNL A   1      29.475  30.859  23.776  1.00  0.00     0.009 C 
ATOM     24  C   UNL A   1      27.760  30.550  21.998  1.00  0.00     0.009 C 
ENDBRANCH  21  22
ENDBRANCH  19  21
ENDBRANCH   9  19
BRANCH  18  25
ATOM     25  C   UNL A   1      33.058  21.908  23.806  1.00  0.00     0.430 C 
ATOM     26  F   UNL A   1      33.912  20.858  23.827  1.00  0.00    -0.167 F 
ATOM     27  F   UNL A   1      32.911  22.318  25.089  1.00  0.00    -0.167 F 
ATOM     28  F   UNL A   1      31.856  21.449  23.391  1.00  0.00    -0.167 F 
ENDBRANCH  18  25
ENDBRANCH   6   8
ENDBRANCH   5   6
ENDBRANCH   4   5
ENDBRANCH   3   4
ENDBRANCH   2   3
ENDBRANCH   1   2
BRANCH   1  29
ATOM     29  C   UNL A   1      41.850  21.059  27.157  1.00  0.00     0.188 C 
BRANCH  29  30
ATOM     30  O   UNL A   1      42.413  20.701  25.911  1.00  0.00    -0.376 OA
BRANCH  30  31
ATOM     31  C   UNL A   1      43.679  21.228  25.539  1.00  0.00     0.202 C 
BRANCH  31  32
ATOM     32  C   UNL A   1      43.802  22.405  24.561  1.00  0.00     0.261 C 
BRANCH  32  33
ATOM     33  O   UNL A   1      43.122  23.600  24.966  1.00  0.00    -0.460 OA
BRANCH  33  34
ATOM     34  C   UNL A   1      43.924  24.676  25.187  1.00  0.00     0.338 C 
ATOM     35  O   UNL A   1      44.919  24.995  24.581  1.00  0.00    -0.246 OA
BRANCH  34  36
ATOM     36  C   UNL A   1      43.270  25.547  26.186  1.00  0.00     0.060 A 
ATOM     37  C   UNL A   1      42.342  25.030  27.090  1.00  0.00     0.016 A 
ATOM     38  C   UNL A   1      43.609  26.907  26.209  1.00  0.00     0.016 A 
ATOM     39  C   UNL A   1      41.770  25.879  28.039  1.00  0.00     0.010 A 
ATOM     40  C   UNL A   1      43.023  27.757  27.147  1.00  0.00     0.010 A 
ATOM     41  C   UNL A   1      42.116  27.241  28.083  1.00  0.00    -0.014 A 
BRANCH  41  42
ATOM     42  C   UNL A   1      41.660  28.078  29.217  1.00  0.00     0.031 A 
ATOM     43  C   UNL A   1      40.427  28.920  29.141  1.00  0.00     0.074 A 
ATOM     44  C   UNL A   1      42.397  28.061  30.344  1.00  0.00     0.049 A 
ATOM     45  N   UNL A   1      39.840  29.603  30.091  1.00  0.00    -0.248 NA
ATOM     46  C   UNL A   1      39.770  29.017  27.830  1.00  0.00     0.031 C 
ATOM     47  C   UNL A   1      43.639  27.308  30.515  1.00  0.00     0.029 A 
ATOM     48  N   UNL A   1      42.203  28.675  31.554  1.00  0.00    -0.354 N 
ATOM     49  C   UNL A   1      38.726  30.188  29.507  1.00  0.00     0.074 A 
ATOM     50  C   UNL A   1      38.751  29.825  28.103  1.00  0.00     0.031 C 
ATOM     51  C   UNL A   1      44.080  27.476  31.770  1.00  0.00     0.029 A 
ATOM     52  C   UNL A   1      43.162  28.359  32.483  1.00  0.00     0.049 A 
ATOM     53  H   UNL A   1      41.451  29.283  31.737  1.00  0.00     0.167 HD
ATOM     54  C   UNL A   1      37.763  30.935  30.099  1.00  0.00     0.037 A 
ATOM     55  C   UNL A   1      43.280  28.725  33.773  1.00  0.00     0.037 A 
ATOM     56  C   UNL A   1      37.764  31.314  31.491  1.00  0.00     0.049 A 
ATOM     57  C   UNL A   1      42.225  29.595  34.393  1.00  0.00     0.074 A 
ATOM     58  C   UNL A   1      36.809  32.033  32.190  1.00  0.00     0.029 A 
ATOM     59  N   UNL A   1      38.777  31.021  32.393  1.00  0.00    -0.354 N 
ATOM     60  N   UNL A   1      41.126  30.066  33.858  1.00  0.00    -0.248 NA
ATOM     61  C   UNL A   1      42.424  29.978  35.797  1.00  0.00     0.031 C 
ATOM     62  C   UNL A   1      37.271  32.225  33.496  1.00  0.00     0.029 A 
ATOM     63  C   UNL A   1      38.487  31.577  33.632  1.00  0.00     0.049 A 
ATOM     64  H   UNL A   1      39.583  30.497  32.186  1.00  0.00     0.167 HD
ATOM     65  C   UNL A   1      40.492  30.786  34.860  1.00  0.00     0.074 A 
ATOM     66  C   UNL A   1      41.322  30.675  36.043  1.00  0.00     0.031 C 
ATOM     67  C   UNL A   1      39.326  31.476  34.801  1.00  0.00     0.037 A 
BRANCH  54  68
ATOM     68  C   UNL A   1      36.612  31.392  29.246  1.00  0.00     0.064 A 
ATOM     69  C   UNL A   1      35.578  30.514  28.890  1.00  0.00     0.173 A 
ATOM     70  C   UNL A   1      36.503  32.732  28.843  1.00  0.00     0.173 A 
ATOM     71  F   UNL A   1      35.634  29.222  29.250  1.00  0.00    -0.203 F 
ATOM     72  C   UNL A   1      34.488  30.953  28.141  1.00  0.00     0.198 A 
ATOM     73  C   UNL A   1      35.398  33.174  28.119  1.00  0.00     0.198 A 
ATOM     74  F   UNL A   1      37.457  33.617  29.169  1.00  0.00    -0.203 F 
ATOM     75  F   UNL A   1      33.530  30.087  27.783  1.00  0.00    -0.200 F 
ATOM     76  C   UNL A   1      34.396  32.284  27.764  1.00  0.00     0.200 A 
ATOM     77  F   UNL A   1      35.300  34.465  27.771  1.00  0.00    -0.200 F 
ATOM     78  F   UNL A   1      33.340  32.709  27.056  1.00  0.00    -0.200 F 
ENDBRANCH  54  68
BRANCH  55  79
ATOM     79  C   UNL A   1      44.420  28.203  34.566  1.00  0.00     0.064 A 
ATOM     80  C   UNL A   1      44.322  26.976  35.235  1.00  0.00     0.173 A 
ATOM     81  C   UNL A   1      45.645  28.882  34.614  1.00  0.00     0.173 A 
ATOM     82  F   UNL A   1      43.164  26.300  35.228  1.00  0.00    -0.203 F 
ATOM     83  C   UNL A   1      45.410  26.446  35.923  1.00  0.00     0.198 A 
ATOM     84  C   UNL A   1      46.741  28.339  35.281  1.00  0.00     0.198 A 
ATOM     85  F   UNL A   1      45.788  30.056  33.981  1.00  0.00    -0.203 F 
ATOM     86  F   UNL A   1      45.288  25.279  36.570  1.00  0.00    -0.200 F 
ATOM     87  C   UNL A   1      46.622  27.123  35.937  1.00  0.00     0.200 A 
ATOM     88  F   UNL A   1      47.914  28.986  35.276  1.00  0.00    -0.200 F 
ATOM     89  F   UNL A   1      47.676  26.601  36.579  1.00  0.00    -0.200 F 
ENDBRANCH  55  79
BRANCH  67  90
ATOM     90  C   UNL A   1      38.870  32.174  36.051  1.00  0.00     0.064 A 
ATOM     91  C   UNL A   1      38.099  31.513  37.019  1.00  0.00     0.173 A 
ATOM     92  C   UNL A   1      39.260  33.497  36.316  1.00  0.00     0.173 A 
ATOM     93  F   UNL A   1      37.687  30.254  36.809  1.00  0.00    -0.203 F 
ATOM     94  C   UNL A   1      37.724  32.154  38.197  1.00  0.00     0.198 A 
ATOM     95  C   UNL A   1      38.907  34.124  37.507  1.00  0.00     0.198 A 
ATOM     96  F   UNL A   1      40.000  34.174  35.425  1.00  0.00    -0.203 F 
ATOM     97  F   UNL A   1      36.955  31.514  39.090  1.00  0.00    -0.200 F 
ATOM     98  C   UNL A   1      38.136  33.454  38.444  1.00  0.00     0.200 A 
ATOM     99  F   UNL A   1      39.318  35.376  37.751  1.00  0.00    -0.200 F 
ATOM    100  F   UNL A   1      37.787  34.064  39.586  1.00  0.00    -0.200 F 
ENDBRANCH  67  90
ENDBRANCH  41  42
ENDBRANCH  34  36
ENDBRANCH  33  34
ENDBRANCH  32  33
ENDBRANCH  31  32
ENDBRANCH  30  31
ENDBRANCH  29  30
ENDBRANCH   1  29
TORSDOF 21
ENDMDL
MODEL 2
REMARK VINA RESULT:     -11.1      5.391     10.622
REMARK SMILES CC(C)CN(C)c1cc2c(cc1Cl)C=C(C(=O)OCCOCCOCCOC(=O)c1ccc(-c3c4nc(c(-c5c(F)c(F)c(F)c(F)c5F)c5ccc([nH]5)c(-c5c(F)c(F)c(F)c(F)c5F)c5nc(c(-c6c(F)c(F)c(F)c(F)c6F)c6ccc3[nH]6)C=C5)C=C4)cc1)[C@@H](C(F)(F)F)O2
REMARK SMILES IDX 22 1 21 2 20 3 19 4 18 5 16 6 17 7 15 8 7 9 8 10 12 11 9 12
REMARK SMILES IDX 11 13 13 14 10 15 98 16 14 17 93 18 5 19 6 20 4 21 2 22 1 23
REMARK SMILES IDX 3 24 94 25 95 26 96 27 97 28 23 29 24 30 25 31 26 32 27 33
REMARK SMILES IDX 28 34 29 35 30 36 31 37 92 38 32 39 91 40 33 41 34 42 35 43
REMARK SMILES IDX 85 44 36 45 90 46 84 47 86 48 37 49 89 50 83 51 82 52 38 54
REMARK SMILES IDX 70 55 50 56 69 57 51 58 54 59 68 60 87 61 52 62 53 63 67 65
REMARK SMILES IDX 88 66 55 67 39 68 40 69 48 70 41 71 42 72 46 73 49 74 43 75
REMARK SMILES IDX 44 76 47 77 45 78 71 79 72 80 80 81 73 82 74 83 78 84 81 85
REMARK SMILES IDX 75 86 76 87 79 88 77 89 56 90 57 91 65 92 58 93 59 94 63 95
REMARK SMILES IDX 66 96 60 97 61 98 64 99 62 100
REMARK H PARENT 86 53 54 64
REMARK Flexibility Score: inf
ROOT
ATOM      1  C   UNL A   1      35.132  31.981  27.751  1.00  0.00     0.188 C 
ENDROOT
BRANCH   1   2
ATOM      2  O   UNL A   1      34.266  30.882  27.914  1.00  0.00    -0.376 OA
BRANCH   2   3
ATOM      3  C   UNL A   1      32.993  30.830  27.294  1.00  0.00     0.202 C 
BRANCH   3   4
ATOM      4  C   UNL A   1      32.155  29.561  27.074  1.00  0.00     0.261 C 
BRANCH   4   5
ATOM      5  O   UNL A   1      31.523  29.415  25.800  1.00  0.00    -0.460 OA
BRANCH   5   6
ATOM      6  C   UNL A   1      32.319  28.887  24.841  1.00  0.00     0.338 C 
ATOM      7  O   UNL A   1      33.114  29.495  24.142  1.00  0.00    -0.246 OA
BRANCH   6   8
ATOM      8  C   UNL A   1      32.224  27.417  24.846  1.00  0.00     0.087 C 
ATOM      9  C   UNL A   1      33.281  22.543  24.179  1.00  0.00     0.059 A 
ATOM     10  C   UNL A   1      32.127  23.252  24.580  1.00  0.00     0.074 A 
ATOM     11  C   UNL A   1      34.455  23.295  23.954  1.00  0.00     0.065 A 
ATOM     12  C   UNL A   1      32.149  24.643  24.747  1.00  0.00     0.130 A 
ATOM     13  C   UNL A   1      34.504  24.661  24.228  1.00  0.00     0.034 A 
ATOM     14  Cl  UNL A   1      35.878  22.620  23.238  1.00  0.00    -0.082 Cl
ATOM     15  C   UNL A   1      33.350  25.337  24.612  1.00  0.00     0.019 A 
ATOM     16  O   UNL A   1      30.968  25.271  25.048  1.00  0.00    -0.475 OA
ATOM     17  C   UNL A   1      33.394  26.772  24.793  1.00  0.00     0.027 C 
ATOM     18  C   UNL A   1      30.892  26.717  24.833  1.00  0.00     0.316 C 
BRANCH   9  19
ATOM     19  N   UNL A   1      33.239  21.160  23.968  1.00  0.00    -0.373 N 
ATOM     20  C   UNL A   1      32.238  20.695  23.013  1.00  0.00     0.143 C 
BRANCH  19  21
ATOM     21  C   UNL A   1      33.585  20.255  25.084  1.00  0.00     0.119 C 
BRANCH  21  22
ATOM     22  C   UNL A   1      33.274  18.775  24.773  1.00  0.00     0.002 C 
ATOM     23  C   UNL A   1      34.506  18.031  24.250  1.00  0.00     0.009 C 
ATOM     24  C   UNL A   1      32.737  18.035  26.001  1.00  0.00     0.009 C 
ENDBRANCH  21  22
ENDBRANCH  19  21
ENDBRANCH   9  19
BRANCH  18  25
ATOM     25  C   UNL A   1      30.114  27.034  23.548  1.00  0.00     0.430 C 
ATOM     26  F   UNL A   1      30.914  26.996  22.458  1.00  0.00    -0.167 F 
ATOM     27  F   UNL A   1      29.127  26.129  23.340  1.00  0.00    -0.167 F 
ATOM     28  F   UNL A   1      29.537  28.256  23.591  1.00  0.00    -0.167 F 
ENDBRANCH  18  25
ENDBRANCH   6   8
ENDBRANCH   5   6
ENDBRANCH   4   5
ENDBRANCH   3   4
ENDBRANCH   2   3
ENDBRANCH   1   2
BRANCH   1  29
ATOM     29  C   UNL A   1      34.618  33.403  28.055  1.00  0.00     0.188 C 
BRANCH  29  30
ATOM     30  O   UNL A   1      35.083  34.116  29.183  1.00  0.00    -0.376 OA
BRANCH  30  31
ATOM     31  C   UNL A   1      34.256  34.221  30.334  1.00  0.00     0.202 C 
BRANCH  31  32
ATOM     32  C   UNL A   1      34.848  34.214  31.750  1.00  0.00     0.261 C 
BRANCH  32  33
ATOM     33  O   UNL A   1      36.220  33.806  31.829  1.00  0.00    -0.460 OA
BRANCH  33  34
ATOM     34  C   UNL A   1      36.437  32.624  32.467  1.00  0.00     0.338 C 
ATOM     35  O   UNL A   1      35.786  32.134  33.360  1.00  0.00    -0.246 OA
BRANCH  34  36
ATOM     36  C   UNL A   1      37.507  31.898  31.752  1.00  0.00     0.060 A 
ATOM     37  C   UNL A   1      37.580  31.916  30.360  1.00  0.00     0.016 A 
ATOM     38  C   UNL A   1      38.455  31.193  32.508  1.00  0.00     0.016 A 
ATOM     39  C   UNL A   1      38.624  31.244  29.723  1.00  0.00     0.010 A 
ATOM     40  C   UNL A   1      39.488  30.507  31.869  1.00  0.00     0.010 A 
ATOM     41  C   UNL A   1      39.591  30.549  30.472  1.00  0.00    -0.014 A 
BRANCH  41  42
ATOM     42  C   UNL A   1      40.798  30.018  29.798  1.00  0.00     0.031 A 
ATOM     43  C   UNL A   1      40.867  28.620  29.270  1.00  0.00     0.074 A 
ATOM     44  C   UNL A   1      41.856  30.841  29.668  1.00  0.00     0.049 A 
ATOM     45  N   UNL A   1      41.807  28.060  28.551  1.00  0.00    -0.248 NA
ATOM     46  C   UNL A   1      39.742  27.733  29.595  1.00  0.00     0.031 C 
ATOM     47  C   UNL A   1      41.914  32.209  30.181  1.00  0.00     0.029 A 
ATOM     48  N   UNL A   1      43.069  30.656  29.056  1.00  0.00    -0.354 N 
ATOM     49  C   UNL A   1      41.378  26.764  28.307  1.00  0.00     0.074 A 
ATOM     50  C   UNL A   1      40.117  26.603  29.005  1.00  0.00     0.031 C 
ATOM     51  C   UNL A   1      43.088  32.755  29.833  1.00  0.00     0.029 A 
ATOM     52  C   UNL A   1      43.868  31.771  29.088  1.00  0.00     0.049 A 
ATOM     53  H   UNL A   1      43.338  29.808  28.636  1.00  0.00     0.167 HD
ATOM     54  C   UNL A   1      41.974  25.811  27.550  1.00  0.00     0.037 A 
ATOM     55  C   UNL A   1      45.088  31.984  28.562  1.00  0.00     0.037 A 
ATOM     56  C   UNL A   1      43.243  25.974  26.883  1.00  0.00     0.049 A 
ATOM     57  C   UNL A   1      45.750  30.895  27.767  1.00  0.00     0.074 A 
ATOM     58  C   UNL A   1      43.905  25.081  26.059  1.00  0.00     0.029 A 
ATOM     59  N   UNL A   1      44.052  27.098  26.979  1.00  0.00    -0.354 N 
ATOM     60  N   UNL A   1      45.295  29.705  27.462  1.00  0.00    -0.248 NA
ATOM     61  C   UNL A   1      47.090  31.182  27.238  1.00  0.00     0.031 C 
ATOM     62  C   UNL A   1      45.138  25.638  25.704  1.00  0.00     0.029 A 
ATOM     63  C   UNL A   1      45.223  26.905  26.259  1.00  0.00     0.049 A 
ATOM     64  H   UNL A   1      43.830  27.912  27.484  1.00  0.00     0.167 HD
ATOM     65  C   UNL A   1      46.282  29.105  26.693  1.00  0.00     0.074 A 
ATOM     66  C   UNL A   1      47.354  30.071  26.563  1.00  0.00     0.031 C 
ATOM     67  C   UNL A   1      46.294  27.864  26.147  1.00  0.00     0.037 A 
BRANCH  54  68
ATOM     68  C   UNL A   1      41.257  24.501  27.387  1.00  0.00     0.064 A 
ATOM     69  C   UNL A   1      40.126  24.387  26.565  1.00  0.00     0.173 A 
ATOM     70  C   UNL A   1      41.743  23.334  27.997  1.00  0.00     0.173 A 
ATOM     71  F   UNL A   1      39.620  25.473  25.959  1.00  0.00    -0.203 F 
ATOM     72  C   UNL A   1      39.493  23.160  26.378  1.00  0.00     0.198 A 
ATOM     73  C   UNL A   1      41.126  22.103  27.785  1.00  0.00     0.198 A 
ATOM     74  F   UNL A   1      42.830  23.383  28.782  1.00  0.00    -0.203 F 
ATOM     75  F   UNL A   1      38.394  23.084  25.616  1.00  0.00    -0.200 F 
ATOM     76  C   UNL A   1      39.999  22.019  26.981  1.00  0.00     0.200 A 
ATOM     77  F   UNL A   1      41.626  20.998  28.353  1.00  0.00    -0.200 F 
ATOM     78  F   UNL A   1      39.398  20.836  26.789  1.00  0.00    -0.200 F 
ENDBRANCH  54  68
BRANCH  55  79
ATOM     79  C   UNL A   1      45.719  33.317  28.726  1.00  0.00     0.064 A 
ATOM     80  C   UNL A   1      46.562  33.578  29.815  1.00  0.00     0.173 A 
ATOM     81  C   UNL A   1      45.551  34.326  27.769  1.00  0.00     0.173 A 
ATOM     82  F   UNL A   1      46.741  32.646  30.763  1.00  0.00    -0.203 F 
ATOM     83  C   UNL A   1      47.215  34.802  29.939  1.00  0.00     0.198 A 
ATOM     84  C   UNL A   1      46.224  35.540  27.880  1.00  0.00     0.198 A 
ATOM     85  F   UNL A   1      44.761  34.117  26.705  1.00  0.00    -0.203 F 
ATOM     86  F   UNL A   1      48.002  35.034  30.997  1.00  0.00    -0.200 F 
ATOM     87  C   UNL A   1      47.053  35.778  28.966  1.00  0.00     0.200 A 
ATOM     88  F   UNL A   1      46.080  36.473  26.929  1.00  0.00    -0.200 F 
ATOM     89  F   UNL A   1      47.700  36.947  29.073  1.00  0.00    -0.200 F 
ENDBRANCH  55  79
BRANCH  67  90
ATOM     90  C   UNL A   1      47.507  27.469  25.354  1.00  0.00     0.064 A 
ATOM     91  C   UNL A   1      47.576  27.678  23.968  1.00  0.00     0.173 A 
ATOM     92  C   UNL A   1      48.637  26.933  25.992  1.00  0.00     0.173 A 
ATOM     93  F   UNL A   1      46.519  28.172  23.307  1.00  0.00    -0.203 F 
ATOM     94  C   UNL A   1      48.725  27.353  23.250  1.00  0.00     0.198 A 
ATOM     95  C   UNL A   1      49.794  26.637  25.276  1.00  0.00     0.198 A 
ATOM     96  F   UNL A   1      48.626  26.716  27.316  1.00  0.00    -0.203 F 
ATOM     97  F   UNL A   1      48.754  27.527  21.921  1.00  0.00    -0.200 F 
ATOM     98  C   UNL A   1      49.835  26.843  23.906  1.00  0.00     0.200 A 
ATOM     99  F   UNL A   1      50.870  26.157  25.913  1.00  0.00    -0.200 F 
ATOM    100  F   UNL A   1      50.945  26.546  23.215  1.00  0.00    -0.200 F 
ENDBRANCH  67  90
ENDBRANCH  41  42
ENDBRANCH  34  36
ENDBRANCH  33  34
ENDBRANCH  32  33
ENDBRANCH  31  32
ENDBRANCH  30  31
ENDBRANCH  29  30
ENDBRANCH   1  29
TORSDOF 21
ENDMDL
MODEL 3
REMARK VINA RESULT:     -10.6      1.363      2.250
REMARK SMILES CC(C)CN(C)c1cc2c(cc1Cl)C=C(C(=O)OCCOCCOCCOC(=O)c1ccc(-c3c4nc(c(-c5c(F)c(F)c(F)c(F)c5F)c5ccc([nH]5)c(-c5c(F)c(F)c(F)c(F)c5F)c5nc(c(-c6c(F)c(F)c(F)c(F)c6F)c6ccc3[nH]6)C=C5)C=C4)cc1)[C@@H](C(F)(F)F)O2
REMARK SMILES IDX 22 1 21 2 20 3 19 4 18 5 16 6 17 7 15 8 7 9 8 10 12 11 9 12
REMARK SMILES IDX 11 13 13 14 10 15 98 16 14 17 93 18 5 19 6 20 4 21 2 22 1 23
REMARK SMILES IDX 3 24 94 25 95 26 96 27 97 28 23 29 24 30 25 31 26 32 27 33
REMARK SMILES IDX 28 34 29 35 30 36 31 37 92 38 32 39 91 40 33 41 34 42 35 43
REMARK SMILES IDX 85 44 36 45 90 46 84 47 86 48 37 49 89 50 83 51 82 52 38 54
REMARK SMILES IDX 70 55 50 56 69 57 51 58 54 59 68 60 87 61 52 62 53 63 67 65
REMARK SMILES IDX 88 66 55 67 39 68 40 69 48 70 41 71 42 72 46 73 49 74 43 75
REMARK SMILES IDX 44 76 47 77 45 78 71 79 72 80 80 81 73 82 74 83 78 84 81 85
REMARK SMILES IDX 75 86 76 87 79 88 77 89 56 90 57 91 65 92 58 93 59 94 63 95
REMARK SMILES IDX 66 96 60 97 61 98 64 99 62 100
REMARK H PARENT 86 53 54 64
REMARK Flexibility Score: inf
ROOT
ATOM      1  C   UNL A   1      40.124  22.203  26.940  1.00  0.00     0.188 C 
ENDROOT
BRANCH   1   2
ATOM      2  O   UNL A   1      38.792  22.137  26.486  1.00  0.00    -0.376 OA
BRANCH   2   3
ATOM      3  C   UNL A   1      38.414  21.335  25.380  1.00  0.00     0.202 C 
BRANCH   3   4
ATOM      4  C   UNL A   1      36.985  20.874  25.055  1.00  0.00     0.261 C 
BRANCH   4   5
ATOM      5  O   UNL A   1      35.974  21.884  25.007  1.00  0.00    -0.460 OA
BRANCH   5   6
ATOM      6  C   UNL A   1      34.746  21.428  24.668  1.00  0.00     0.338 C 
ATOM      7  O   UNL A   1      34.391  20.261  24.626  1.00  0.00    -0.246 OA
BRANCH   6   8
ATOM      8  C   UNL A   1      33.809  22.553  24.502  1.00  0.00     0.087 C 
ATOM      9  C   UNL A   1      31.897  27.078  23.414  1.00  0.00     0.059 A 
ATOM     10  C   UNL A   1      31.406  25.942  24.094  1.00  0.00     0.074 A 
ATOM     11  C   UNL A   1      33.179  26.977  22.831  1.00  0.00     0.065 A 
ATOM     12  C   UNL A   1      32.162  24.765  24.185  1.00  0.00     0.130 A 
ATOM     13  C   UNL A   1      33.881  25.772  22.828  1.00  0.00     0.034 A 
ATOM     14  Cl  UNL A   1      34.019  28.338  22.171  1.00  0.00    -0.082 Cl
ATOM     15  C   UNL A   1      33.379  24.671  23.514  1.00  0.00     0.019 A 
ATOM     16  O   UNL A   1      31.657  23.737  24.940  1.00  0.00    -0.475 OA
ATOM     17  C   UNL A   1      34.166  23.459  23.587  1.00  0.00     0.027 C 
ATOM     18  C   UNL A   1      32.585  22.688  25.367  1.00  0.00     0.316 C 
BRANCH   9  19
ATOM     19  N   UNL A   1      31.157  28.265  23.368  1.00  0.00    -0.373 N 
ATOM     20  C   UNL A   1      31.227  29.101  24.562  1.00  0.00     0.143 C 
BRANCH  19  21
ATOM     21  C   UNL A   1      29.901  28.295  22.590  1.00  0.00     0.119 C 
BRANCH  21  22
ATOM     22  C   UNL A   1      28.977  29.466  22.989  1.00  0.00     0.002 C 
ATOM     23  C   UNL A   1      29.057  30.623  21.989  1.00  0.00     0.009 C 
ATOM     24  C   UNL A   1      27.517  29.023  23.115  1.00  0.00     0.009 C 
ENDBRANCH  21  22
ENDBRANCH  19  21
ENDBRANCH   9  19
BRANCH  18  25
ATOM     25  C   UNL A   1      32.969  22.871  26.842  1.00  0.00     0.430 C 
ATOM     26  F   UNL A   1      33.231  21.686  27.441  1.00  0.00    -0.167 F 
ATOM     27  F   UNL A   1      34.088  23.627  26.965  1.00  0.00    -0.167 F 
ATOM     28  F   UNL A   1      31.992  23.481  27.551  1.00  0.00    -0.167 F 
ENDBRANCH  18  25
ENDBRANCH   6   8
ENDBRANCH   5   6
ENDBRANCH   4   5
ENDBRANCH   3   4
ENDBRANCH   2   3
ENDBRANCH   1   2
BRANCH   1  29
ATOM     29  C   UNL A   1      40.920  20.898  27.143  1.00  0.00     0.188 C 
BRANCH  29  30
ATOM     30  O   UNL A   1      42.131  20.671  26.451  1.00  0.00    -0.376 OA
BRANCH  30  31
ATOM     31  C   UNL A   1      42.665  21.695  25.623  1.00  0.00     0.202 C 
BRANCH  31  32
ATOM     32  C   UNL A   1      44.179  21.925  25.506  1.00  0.00     0.261 C 
BRANCH  32  33
ATOM     33  O   UNL A   1      44.679  23.042  26.253  1.00  0.00    -0.460 OA
BRANCH  33  34
ATOM     34  C   UNL A   1      44.323  24.264  25.774  1.00  0.00     0.338 C 
ATOM     35  O   UNL A   1      44.147  24.587  24.623  1.00  0.00    -0.246 OA
BRANCH  34  36
ATOM     36  C   UNL A   1      43.972  25.130  26.920  1.00  0.00     0.060 A 
ATOM     37  C   UNL A   1      44.447  26.438  27.002  1.00  0.00     0.016 A 
ATOM     38  C   UNL A   1      43.143  24.606  27.922  1.00  0.00     0.016 A 
ATOM     39  C   UNL A   1      44.068  27.234  28.083  1.00  0.00     0.010 A 
ATOM     40  C   UNL A   1      42.779  25.398  29.012  1.00  0.00     0.010 A 
ATOM     41  C   UNL A   1      43.222  26.725  29.086  1.00  0.00    -0.014 A 
BRANCH  41  42
ATOM     42  C   UNL A   1      42.667  27.639  30.111  1.00  0.00     0.031 A 
ATOM     43  C   UNL A   1      41.416  28.427  29.882  1.00  0.00     0.074 A 
ATOM     44  C   UNL A   1      43.328  27.746  31.278  1.00  0.00     0.049 A 
ATOM     45  N   UNL A   1      40.747  29.167  30.729  1.00  0.00    -0.248 NA
ATOM     46  C   UNL A   1      40.844  28.386  28.529  1.00  0.00     0.031 C 
ATOM     47  C   UNL A   1      44.578  27.057  31.594  1.00  0.00     0.029 A 
ATOM     48  N   UNL A   1      43.036  28.456  32.415  1.00  0.00    -0.354 N 
ATOM     49  C   UNL A   1      39.657  29.658  30.026  1.00  0.00     0.074 A 
ATOM     50  C   UNL A   1      39.786  29.176  28.664  1.00  0.00     0.031 C 
ATOM     51  C   UNL A   1      44.930  27.349  32.855  1.00  0.00     0.029 A 
ATOM     52  C   UNL A   1      43.940  28.256  33.427  1.00  0.00     0.049 A 
ATOM     53  H   UNL A   1      42.255  29.049  32.496  1.00  0.00     0.167 HD
ATOM     54  C   UNL A   1      38.634  30.418  30.488  1.00  0.00     0.037 A 
ATOM     55  C   UNL A   1      43.962  28.736  34.684  1.00  0.00     0.037 A 
ATOM     56  C   UNL A   1      38.531  30.915  31.838  1.00  0.00     0.049 A 
ATOM     57  C   UNL A   1      42.841  29.617  35.157  1.00  0.00     0.074 A 
ATOM     58  C   UNL A   1      37.510  31.657  32.409  1.00  0.00     0.029 A 
ATOM     59  N   UNL A   1      39.491  30.738  32.825  1.00  0.00    -0.354 N 
ATOM     60  N   UNL A   1      41.766  29.999  34.514  1.00  0.00    -0.248 NA
ATOM     61  C   UNL A   1      42.935  30.127  36.532  1.00  0.00     0.031 C 
ATOM     62  C   UNL A   1      37.878  31.978  33.720  1.00  0.00     0.029 A 
ATOM     63  C   UNL A   1      39.103  31.388  33.989  1.00  0.00     0.049 A 
ATOM     64  H   UNL A   1      40.325  30.228  32.716  1.00  0.00     0.167 HD
ATOM     65  C   UNL A   1      41.045  30.780  35.407  1.00  0.00     0.074 A 
ATOM     66  C   UNL A   1      41.798  30.802  36.645  1.00  0.00     0.031 C 
ATOM     67  C   UNL A   1      39.865  31.420  35.213  1.00  0.00     0.037 A 
BRANCH  54  68
ATOM     68  C   UNL A   1      37.529  30.757  29.527  1.00  0.00     0.064 A 
ATOM     69  C   UNL A   1      36.538  29.821  29.198  1.00  0.00     0.173 A 
ATOM     70  C   UNL A   1      37.416  32.048  28.987  1.00  0.00     0.173 A 
ATOM     71  F   UNL A   1      36.600  28.572  29.688  1.00  0.00    -0.203 F 
ATOM     72  C   UNL A   1      35.488  30.154  28.346  1.00  0.00     0.198 A 
ATOM     73  C   UNL A   1      36.348  32.387  28.158  1.00  0.00     0.198 A 
ATOM     74  F   UNL A   1      38.328  32.987  29.279  1.00  0.00    -0.203 F 
ATOM     75  F   UNL A   1      34.573  29.231  28.020  1.00  0.00    -0.200 F 
ATOM     76  C   UNL A   1      35.389  31.439  27.834  1.00  0.00     0.200 A 
ATOM     77  F   UNL A   1      36.244  33.634  27.678  1.00  0.00    -0.200 F 
ATOM     78  F   UNL A   1      34.370  31.763  27.026  1.00  0.00    -0.200 F 
ENDBRANCH  54  68
BRANCH  55  79
ATOM     79  C   UNL A   1      45.062  28.327  35.591  1.00  0.00     0.064 A 
ATOM     80  C   UNL A   1      46.254  29.061  35.644  1.00  0.00     0.173 A 
ATOM     81  C   UNL A   1      44.918  27.243  36.468  1.00  0.00     0.173 A 
ATOM     82  F   UNL A   1      46.440  30.097  34.813  1.00  0.00    -0.203 F 
ATOM     83  C   UNL A   1      47.263  28.726  36.543  1.00  0.00     0.198 A 
ATOM     84  C   UNL A   1      45.917  26.924  37.385  1.00  0.00     0.198 A 
ATOM     85  F   UNL A   1      43.790  26.516  36.459  1.00  0.00    -0.203 F 
ATOM     86  F   UNL A   1      48.401  29.432  36.563  1.00  0.00    -0.200 F 
ATOM     87  C   UNL A   1      47.089  27.664  37.420  1.00  0.00     0.200 A 
ATOM     88  F   UNL A   1      45.738  25.910  38.242  1.00  0.00    -0.200 F 
ATOM     89  F   UNL A   1      48.051  27.357  38.301  1.00  0.00    -0.200 F 
ENDBRANCH  55  79
BRANCH  67  90
ATOM     90  C   UNL A   1      39.306  32.206  36.365  1.00  0.00     0.064 A 
ATOM     91  C   UNL A   1      39.761  33.501  36.657  1.00  0.00     0.173 A 
ATOM     92  C   UNL A   1      38.263  31.687  37.148  1.00  0.00     0.173 A 
ATOM     93  F   UNL A   1      40.766  34.038  35.949  1.00  0.00    -0.203 F 
ATOM     94  C   UNL A   1      39.202  34.240  37.696  1.00  0.00     0.198 A 
ATOM     95  C   UNL A   1      37.687  32.439  38.167  1.00  0.00     0.198 A 
ATOM     96  F   UNL A   1      37.789  30.454  36.909  1.00  0.00    -0.203 F 
ATOM     97  F   UNL A   1      39.678  35.461  37.980  1.00  0.00    -0.200 F 
ATOM     98  C   UNL A   1      38.160  33.713  38.444  1.00  0.00     0.200 A 
ATOM     99  F   UNL A   1      36.671  31.934  38.879  1.00  0.00    -0.200 F 
ATOM    100  F   UNL A   1      37.612  34.432  39.433  1.00  0.00    -0.200 F 
ENDBRANCH  67  90
ENDBRANCH  41  42
ENDBRANCH  34  36
ENDBRANCH  33  34
ENDBRANCH  32  33
ENDBRANCH  31  32
ENDBRANCH  30  31
ENDBRANCH  29  30
ENDBRANCH   1  29
TORSDOF 21
ENDMDL
