MODEL 1
REMARK VINA RESULT:      -8.8      0.000      0.000
REMARK SMILES CCn1ccnc1[C@H](F)C(=O)OCCOCCOCCOC(=O)c1ccc(-c2c3nc(c(-c4c(F)c(F)c(F)c(F)c4F)c4ccc([nH]4)c(-c4c(F)c(F)c(F)c(F)c4F)c4nc(c(-c5c(F)c(F)c(F)c(F)c5F)c5ccc2[nH]5)C=C4)C=C3)cc1
REMARK SMILES IDX 16 1 15 2 14 3 13 4 12 5 10 6 11 7 8 8 9 9 7 10 3 11 4 12
REMARK SMILES IDX 5 13 6 14 2 15 1 16 17 17 18 18 19 19 20 20 21 21 22 22
REMARK SMILES IDX 23 23 24 24 25 25 86 26 26 27 85 28 27 29 28 30 29 31 79 32
REMARK SMILES IDX 30 33 84 34 78 35 80 36 31 37 83 38 77 39 76 40 32 42 64 43
REMARK SMILES IDX 44 44 63 45 45 46 48 47 62 48 81 49 46 50 47 51 61 53 82 54
REMARK SMILES IDX 49 55 33 56 34 57 42 58 35 59 36 60 40 61 43 62 37 63 38 64
REMARK SMILES IDX 41 65 39 66 65 67 66 68 74 69 67 70 68 71 72 72 75 73 69 74
REMARK SMILES IDX 70 75 73 76 71 77 50 78 51 79 59 80 52 81 53 82 57 83 60 84
REMARK SMILES IDX 54 85 55 86 58 87 56 88
REMARK H PARENT 80 41 48 52
REMARK Flexibility Score: inf
ROOT
ATOM      1  C   UNL A   1      44.220  20.430  25.345  1.00  0.00     0.188 C 
ENDROOT
BRANCH   1   2
ATOM      2  O   UNL A   1      44.585  20.910  24.071  1.00  0.00    -0.376 OA
BRANCH   2   3
ATOM      3  C   UNL A   1      44.853  22.297  23.888  1.00  0.00     0.202 C 
BRANCH   3   4
ATOM      4  C   UNL A   1      44.076  23.427  24.599  1.00  0.00     0.261 C 
BRANCH   4   5
ATOM      5  O   UNL A   1      44.869  24.481  25.161  1.00  0.00    -0.461 OA
BRANCH   5   6
ATOM      6  C   UNL A   1      45.013  24.453  26.524  1.00  0.00     0.348 C 
ATOM      7  O   UNL A   1      44.750  23.474  27.221  1.00  0.00    -0.248 OA
BRANCH   6   8
ATOM      8  C   UNL A   1      45.713  25.691  27.063  1.00  0.00     0.341 C 
ATOM      9  F   UNL A   1      45.415  25.985  28.362  1.00  0.00    -0.226 F 
BRANCH   8  10
ATOM     10  C   UNL A   1      47.192  25.567  26.911  1.00  0.00     0.155 A 
ATOM     11  N   UNL A   1      47.969  26.430  26.164  1.00  0.00    -0.332 N 
ATOM     12  C   UNL A   1      49.279  26.071  26.352  1.00  0.00     0.107 A 
ATOM     13  C   UNL A   1      49.246  24.987  27.190  1.00  0.00     0.131 A 
ATOM     14  N   UNL A   1      47.959  24.684  27.530  1.00  0.00    -0.238 NA
BRANCH  11  15
ATOM     15  C   UNL A   1      47.544  27.571  25.371  1.00  0.00     0.120 C 
ATOM     16  C   UNL A   1      47.334  28.827  26.204  1.00  0.00     0.027 C 
ENDBRANCH  11  15
ENDBRANCH   8  10
ENDBRANCH   6   8
ENDBRANCH   5   6
ENDBRANCH   4   5
ENDBRANCH   3   4
ENDBRANCH   2   3
ENDBRANCH   1   2
BRANCH   1  17
ATOM     17  C   UNL A   1      43.338  19.165  25.362  1.00  0.00     0.188 C 
BRANCH  17  18
ATOM     18  O   UNL A   1      42.363  18.920  26.364  1.00  0.00    -0.376 OA
BRANCH  18  19
ATOM     19  C   UNL A   1      41.087  19.538  26.341  1.00  0.00     0.202 C 
BRANCH  19  20
ATOM     20  C   UNL A   1      40.816  20.832  27.111  1.00  0.00     0.261 C 
BRANCH  20  21
ATOM     21  O   UNL A   1      41.082  22.019  26.376  1.00  0.00    -0.460 OA
BRANCH  21  22
ATOM     22  C   UNL A   1      40.181  23.001  26.593  1.00  0.00     0.338 C 
ATOM     23  O   UNL A   1      38.970  22.894  26.644  1.00  0.00    -0.246 OA
BRANCH  22  24
ATOM     24  C   UNL A   1      40.882  24.280  26.793  1.00  0.00     0.060 A 
ATOM     25  C   UNL A   1      41.609  24.420  27.980  1.00  0.00     0.016 A 
ATOM     26  C   UNL A   1      40.680  25.363  25.926  1.00  0.00     0.016 A 
ATOM     27  C   UNL A   1      41.973  25.685  28.397  1.00  0.00     0.010 A 
ATOM     28  C   UNL A   1      41.040  26.630  26.346  1.00  0.00     0.010 A 
ATOM     29  C   UNL A   1      41.598  26.783  27.619  1.00  0.00    -0.014 A 
BRANCH  29  30
ATOM     30  C   UNL A   1      41.602  28.084  28.271  1.00  0.00     0.031 A 
ATOM     31  C   UNL A   1      42.756  28.978  28.050  1.00  0.00     0.074 A 
ATOM     32  C   UNL A   1      40.530  28.480  28.985  1.00  0.00     0.049 A 
ATOM     33  N   UNL A   1      43.499  29.548  28.943  1.00  0.00    -0.248 NA
ATOM     34  C   UNL A   1      43.132  29.279  26.662  1.00  0.00     0.031 C 
ATOM     35  C   UNL A   1      39.219  27.822  29.040  1.00  0.00     0.029 A 
ATOM     36  N   UNL A   1      40.346  29.614  29.723  1.00  0.00    -0.354 N 
ATOM     37  C   UNL A   1      44.336  30.406  28.243  1.00  0.00     0.074 A 
ATOM     38  C   UNL A   1      44.132  30.144  26.841  1.00  0.00     0.031 C 
ATOM     39  C   UNL A   1      38.325  28.663  29.598  1.00  0.00     0.029 A 
ATOM     40  C   UNL A   1      39.022  29.859  30.042  1.00  0.00     0.049 A 
ATOM     41  H   UNL A   1      41.086  30.201  30.003  1.00  0.00     0.167 HD
ATOM     42  C   UNL A   1      44.997  31.424  28.854  1.00  0.00     0.037 A 
ATOM     43  C   UNL A   1      38.504  30.990  30.572  1.00  0.00     0.037 A 
ATOM     44  C   UNL A   1      45.093  31.253  30.275  1.00  0.00     0.049 A 
ATOM     45  C   UNL A   1      39.596  31.751  31.220  1.00  0.00     0.074 A 
ATOM     46  C   UNL A   1      45.720  30.356  31.114  1.00  0.00     0.029 A 
ATOM     47  N   UNL A   1      44.226  31.972  31.054  1.00  0.00    -0.354 N 
ATOM     48  N   UNL A   1      40.202  31.390  32.316  1.00  0.00    -0.248 NA
ATOM     49  C   UNL A   1      40.240  32.828  30.479  1.00  0.00     0.031 C 
ATOM     50  C   UNL A   1      44.943  30.331  32.308  1.00  0.00     0.029 A 
ATOM     51  C   UNL A   1      43.869  31.203  32.132  1.00  0.00     0.049 A 
ATOM     52  H   UNL A   1      43.912  32.887  30.871  1.00  0.00     0.167 HD
ATOM     53  C   UNL A   1      41.484  31.894  32.187  1.00  0.00     0.074 A 
ATOM     54  C   UNL A   1      41.394  32.903  31.145  1.00  0.00     0.031 C 
ATOM     55  C   UNL A   1      42.549  31.230  32.721  1.00  0.00     0.037 A 
BRANCH  42  56
ATOM     56  C   UNL A   1      45.273  32.740  28.186  1.00  0.00     0.064 A 
ATOM     57  C   UNL A   1      44.219  33.635  27.925  1.00  0.00     0.173 A 
ATOM     58  C   UNL A   1      46.499  33.022  27.547  1.00  0.00     0.173 A 
ATOM     59  F   UNL A   1      43.000  33.420  28.441  1.00  0.00    -0.203 F 
ATOM     60  C   UNL A   1      44.381  34.725  27.066  1.00  0.00     0.198 A 
ATOM     61  C   UNL A   1      46.671  34.139  26.732  1.00  0.00     0.198 A 
ATOM     62  F   UNL A   1      47.531  32.170  27.609  1.00  0.00    -0.203 F 
ATOM     63  F   UNL A   1      43.329  35.500  26.768  1.00  0.00    -0.200 F 
ATOM     64  C   UNL A   1      45.607  34.979  26.475  1.00  0.00     0.200 A 
ATOM     65  F   UNL A   1      47.857  34.351  26.145  1.00  0.00    -0.200 F 
ATOM     66  F   UNL A   1      45.751  36.000  25.621  1.00  0.00    -0.200 F 
ENDBRANCH  42  56
BRANCH  43  67
ATOM     67  C   UNL A   1      37.144  31.538  30.383  1.00  0.00     0.064 A 
ATOM     68  C   UNL A   1      36.341  31.892  31.477  1.00  0.00     0.173 A 
ATOM     69  C   UNL A   1      36.688  31.941  29.112  1.00  0.00     0.173 A 
ATOM     70  F   UNL A   1      36.729  31.593  32.725  1.00  0.00    -0.203 F 
ATOM     71  C   UNL A   1      35.154  32.612  31.309  1.00  0.00     0.198 A 
ATOM     72  C   UNL A   1      35.496  32.643  28.943  1.00  0.00     0.198 A 
ATOM     73  F   UNL A   1      37.434  31.738  28.016  1.00  0.00    -0.203 F 
ATOM     74  F   UNL A   1      34.440  32.982  32.381  1.00  0.00    -0.200 F 
ATOM     75  C   UNL A   1      34.733  32.987  30.043  1.00  0.00     0.200 A 
ATOM     76  F   UNL A   1      35.120  33.029  27.715  1.00  0.00    -0.200 F 
ATOM     77  F   UNL A   1      33.620  33.715  29.887  1.00  0.00    -0.200 F 
ENDBRANCH  43  67
BRANCH  55  78
ATOM     78  C   UNL A   1      42.260  30.250  33.818  1.00  0.00     0.064 A 
ATOM     79  C   UNL A   1      41.832  28.931  33.594  1.00  0.00     0.173 A 
ATOM     80  C   UNL A   1      42.515  30.637  35.141  1.00  0.00     0.173 A 
ATOM     81  F   UNL A   1      41.666  28.465  32.349  1.00  0.00    -0.203 F 
ATOM     82  C   UNL A   1      41.613  28.059  34.658  1.00  0.00     0.198 A 
ATOM     83  C   UNL A   1      42.330  29.751  36.198  1.00  0.00     0.198 A 
ATOM     84  F   UNL A   1      42.982  31.867  35.405  1.00  0.00    -0.203 F 
ATOM     85  F   UNL A   1      41.180  26.811  34.425  1.00  0.00    -0.200 F 
ATOM     86  C   UNL A   1      41.865  28.467  35.958  1.00  0.00     0.200 A 
ATOM     87  F   UNL A   1      42.621  30.134  37.449  1.00  0.00    -0.200 F 
ATOM     88  F   UNL A   1      41.683  27.617  36.978  1.00  0.00    -0.200 F 
ENDBRANCH  55  78
ENDBRANCH  29  30
ENDBRANCH  22  24
ENDBRANCH  21  22
ENDBRANCH  20  21
ENDBRANCH  19  20
ENDBRANCH  18  19
ENDBRANCH  17  18
ENDBRANCH   1  17
TORSDOF 19
ENDMDL
MODEL 2
REMARK VINA RESULT:      -8.8      3.570      8.853
REMARK SMILES CCn1ccnc1[C@H](F)C(=O)OCCOCCOCCOC(=O)c1ccc(-c2c3nc(c(-c4c(F)c(F)c(F)c(F)c4F)c4ccc([nH]4)c(-c4c(F)c(F)c(F)c(F)c4F)c4nc(c(-c5c(F)c(F)c(F)c(F)c5F)c5ccc2[nH]5)C=C4)C=C3)cc1
REMARK SMILES IDX 16 1 15 2 14 3 13 4 12 5 10 6 11 7 8 8 9 9 7 10 3 11 4 12
REMARK SMILES IDX 5 13 6 14 2 15 1 16 17 17 18 18 19 19 20 20 21 21 22 22
REMARK SMILES IDX 23 23 24 24 25 25 86 26 26 27 85 28 27 29 28 30 29 31 79 32
REMARK SMILES IDX 30 33 84 34 78 35 80 36 31 37 83 38 77 39 76 40 32 42 64 43
REMARK SMILES IDX 44 44 63 45 45 46 48 47 62 48 81 49 46 50 47 51 61 53 82 54
REMARK SMILES IDX 49 55 33 56 34 57 42 58 35 59 36 60 40 61 43 62 37 63 38 64
REMARK SMILES IDX 41 65 39 66 65 67 66 68 74 69 67 70 68 71 72 72 75 73 69 74
REMARK SMILES IDX 70 75 73 76 71 77 50 78 51 79 59 80 52 81 53 82 57 83 60 84
REMARK SMILES IDX 54 85 55 86 58 87 56 88
REMARK H PARENT 80 41 48 52
REMARK Flexibility Score: inf
ROOT
ATOM      1  C   UNL A   1      40.102  20.706  26.165  1.00  0.00     0.188 C 
ENDROOT
BRANCH   1   2
ATOM      2  O   UNL A   1      39.207  21.794  26.213  1.00  0.00    -0.376 OA
BRANCH   2   3
ATOM      3  C   UNL A   1      38.012  21.761  25.439  1.00  0.00     0.202 C 
BRANCH   3   4
ATOM      4  C   UNL A   1      36.779  22.649  25.718  1.00  0.00     0.261 C 
BRANCH   4   5
ATOM      5  O   UNL A   1      36.653  23.825  24.909  1.00  0.00    -0.461 OA
BRANCH   5   6
ATOM      6  C   UNL A   1      35.593  23.836  24.039  1.00  0.00     0.348 C 
ATOM      7  O   UNL A   1      35.571  23.213  22.978  1.00  0.00    -0.248 OA
BRANCH   6   8
ATOM      8  C   UNL A   1      34.375  24.545  24.610  1.00  0.00     0.341 C 
ATOM      9  F   UNL A   1      34.668  25.552  25.483  1.00  0.00    -0.226 F 
BRANCH   8  10
ATOM     10  C   UNL A   1      33.513  25.075  23.514  1.00  0.00     0.155 A 
ATOM     11  N   UNL A   1      32.337  24.482  23.098  1.00  0.00    -0.332 N 
ATOM     12  C   UNL A   1      31.770  25.306  22.160  1.00  0.00     0.107 A 
ATOM     13  C   UNL A   1      32.637  26.359  22.026  1.00  0.00     0.131 A 
ATOM     14  N   UNL A   1      33.706  26.210  22.862  1.00  0.00    -0.238 NA
BRANCH  11  15
ATOM     15  C   UNL A   1      31.723  23.258  23.582  1.00  0.00     0.120 C 
ATOM     16  C   UNL A   1      32.113  22.034  22.765  1.00  0.00     0.027 C 
ENDBRANCH  11  15
ENDBRANCH   8  10
ENDBRANCH   6   8
ENDBRANCH   5   6
ENDBRANCH   4   5
ENDBRANCH   3   4
ENDBRANCH   2   3
ENDBRANCH   1   2
BRANCH   1  17
ATOM     17  C   UNL A   1      41.214  20.699  27.234  1.00  0.00     0.188 C 
BRANCH  17  18
ATOM     18  O   UNL A   1      42.586  20.879  26.918  1.00  0.00    -0.376 OA
BRANCH  18  19
ATOM     19  C   UNL A   1      43.175  22.165  26.819  1.00  0.00     0.202 C 
BRANCH  19  20
ATOM     20  C   UNL A   1      42.804  23.124  25.686  1.00  0.00     0.261 C 
BRANCH  20  21
ATOM     21  O   UNL A   1      41.795  24.066  26.022  1.00  0.00    -0.460 OA
BRANCH  21  22
ATOM     22  C   UNL A   1      42.050  25.314  25.572  1.00  0.00     0.338 C 
ATOM     23  O   UNL A   1      42.831  25.637  24.696  1.00  0.00    -0.246 OA
BRANCH  22  24
ATOM     24  C   UNL A   1      41.209  26.282  26.294  1.00  0.00     0.060 A 
ATOM     25  C   UNL A   1      41.427  27.635  26.012  1.00  0.00     0.016 A 
ATOM     26  C   UNL A   1      40.365  25.878  27.337  1.00  0.00     0.016 A 
ATOM     27  C   UNL A   1      40.954  28.587  26.894  1.00  0.00     0.010 A 
ATOM     28  C   UNL A   1      39.896  26.831  28.223  1.00  0.00     0.010 A 
ATOM     29  C   UNL A   1      40.275  28.164  28.040  1.00  0.00    -0.014 A 
BRANCH  29  30
ATOM     30  C   UNL A   1      40.176  29.115  29.136  1.00  0.00     0.031 A 
ATOM     31  C   UNL A   1      39.035  30.053  29.153  1.00  0.00     0.074 A 
ATOM     32  C   UNL A   1      41.067  29.070  30.147  1.00  0.00     0.049 A 
ATOM     33  N   UNL A   1      39.070  31.342  29.246  1.00  0.00    -0.248 NA
ATOM     34  C   UNL A   1      37.684  29.485  29.056  1.00  0.00     0.031 C 
ATOM     35  C   UNL A   1      42.058  28.017  30.398  1.00  0.00     0.029 A 
ATOM     36  N   UNL A   1      41.200  29.895  31.227  1.00  0.00    -0.354 N 
ATOM     37  C   UNL A   1      37.749  31.746  29.382  1.00  0.00     0.074 A 
ATOM     38  C   UNL A   1      36.929  30.579  29.175  1.00  0.00     0.031 C 
ATOM     39  C   UNL A   1      42.544  28.158  31.648  1.00  0.00     0.029 A 
ATOM     40  C   UNL A   1      41.990  29.367  32.232  1.00  0.00     0.049 A 
ATOM     41  H   UNL A   1      40.774  30.781  31.284  1.00  0.00     0.167 HD
ATOM     42  C   UNL A   1      37.416  32.973  29.859  1.00  0.00     0.037 A 
ATOM     43  C   UNL A   1      42.139  29.841  33.490  1.00  0.00     0.037 A 
ATOM     44  C   UNL A   1      38.498  33.913  29.784  1.00  0.00     0.049 A 
ATOM     45  C   UNL A   1      41.732  31.264  33.510  1.00  0.00     0.074 A 
ATOM     46  C   UNL A   1      39.206  34.512  28.764  1.00  0.00     0.029 A 
ATOM     47  N   UNL A   1      39.189  34.168  30.938  1.00  0.00    -0.354 N 
ATOM     48  N   UNL A   1      42.402  32.234  32.954  1.00  0.00    -0.248 NA
ATOM     49  C   UNL A   1      40.379  31.605  33.932  1.00  0.00     0.031 C 
ATOM     50  C   UNL A   1      40.491  34.806  29.302  1.00  0.00     0.029 A 
ATOM     51  C   UNL A   1      40.510  34.355  30.622  1.00  0.00     0.049 A 
ATOM     52  H   UNL A   1      38.803  34.210  31.842  1.00  0.00     0.167 HD
ATOM     53  C   UNL A   1      41.439  33.159  32.590  1.00  0.00     0.074 A 
ATOM     54  C   UNL A   1      40.261  32.807  33.366  1.00  0.00     0.031 C 
ATOM     55  C   UNL A   1      41.597  33.924  31.472  1.00  0.00     0.037 A 
BRANCH  42  56
ATOM     56  C   UNL A   1      36.196  33.224  30.697  1.00  0.00     0.064 A 
ATOM     57  C   UNL A   1      35.221  34.143  30.269  1.00  0.00     0.173 A 
ATOM     58  C   UNL A   1      36.098  32.796  32.038  1.00  0.00     0.173 A 
ATOM     59  F   UNL A   1      35.262  34.651  29.028  1.00  0.00    -0.203 F 
ATOM     60  C   UNL A   1      34.228  34.613  31.133  1.00  0.00     0.198 A 
ATOM     61  C   UNL A   1      35.077  33.227  32.882  1.00  0.00     0.198 A 
ATOM     62  F   UNL A   1      37.046  32.032  32.599  1.00  0.00    -0.203 F 
ATOM     63  F   UNL A   1      33.375  35.558  30.716  1.00  0.00    -0.200 F 
ATOM     64  C   UNL A   1      34.155  34.151  32.437  1.00  0.00     0.200 A 
ATOM     65  F   UNL A   1      35.040  32.792  34.149  1.00  0.00    -0.200 F 
ATOM     66  F   UNL A   1      33.228  34.631  33.276  1.00  0.00    -0.200 F 
ENDBRANCH  42  56
BRANCH  43  67
ATOM     67  C   UNL A   1      42.436  29.072  34.718  1.00  0.00     0.064 A 
ATOM     68  C   UNL A   1      41.772  27.871  35.006  1.00  0.00     0.173 A 
ATOM     69  C   UNL A   1      43.546  29.386  35.527  1.00  0.00     0.173 A 
ATOM     70  F   UNL A   1      40.738  27.473  34.250  1.00  0.00    -0.203 F 
ATOM     71  C   UNL A   1      42.197  27.031  36.038  1.00  0.00     0.198 A 
ATOM     72  C   UNL A   1      43.959  28.556  36.568  1.00  0.00     0.198 A 
ATOM     73  F   UNL A   1      44.306  30.461  35.268  1.00  0.00    -0.203 F 
ATOM     74  F   UNL A   1      41.573  25.863  36.249  1.00  0.00    -0.200 F 
ATOM     75  C   UNL A   1      43.291  27.373  36.817  1.00  0.00     0.200 A 
ATOM     76  F   UNL A   1      45.040  28.885  37.290  1.00  0.00    -0.200 F 
ATOM     77  F   UNL A   1      43.725  26.546  37.777  1.00  0.00    -0.200 F 
ENDBRANCH  43  67
BRANCH  55  78
ATOM     78  C   UNL A   1      42.992  34.084  30.949  1.00  0.00     0.064 A 
ATOM     79  C   UNL A   1      43.586  33.205  30.027  1.00  0.00     0.173 A 
ATOM     80  C   UNL A   1      43.719  35.221  31.326  1.00  0.00     0.173 A 
ATOM     81  F   UNL A   1      42.909  32.153  29.547  1.00  0.00    -0.203 F 
ATOM     82  C   UNL A   1      44.876  33.429  29.553  1.00  0.00     0.198 A 
ATOM     83  C   UNL A   1      44.994  35.460  30.822  1.00  0.00     0.198 A 
ATOM     84  F   UNL A   1      43.175  36.123  32.158  1.00  0.00    -0.203 F 
ATOM     85  F   UNL A   1      45.434  32.565  28.693  1.00  0.00    -0.200 F 
ATOM     86  C   UNL A   1      45.578  34.557  29.947  1.00  0.00     0.200 A 
ATOM     87  F   UNL A   1      45.650  36.576  31.168  1.00  0.00    -0.200 F 
ATOM     88  F   UNL A   1      46.808  34.787  29.467  1.00  0.00    -0.200 F 
ENDBRANCH  55  78
ENDBRANCH  29  30
ENDBRANCH  22  24
ENDBRANCH  21  22
ENDBRANCH  20  21
ENDBRANCH  19  20
ENDBRANCH  18  19
ENDBRANCH  17  18
ENDBRANCH   1  17
TORSDOF 19
ENDMDL
MODEL 3
REMARK VINA RESULT:      -8.8      4.249      7.102
REMARK SMILES CCn1ccnc1[C@H](F)C(=O)OCCOCCOCCOC(=O)c1ccc(-c2c3nc(c(-c4c(F)c(F)c(F)c(F)c4F)c4ccc([nH]4)c(-c4c(F)c(F)c(F)c(F)c4F)c4nc(c(-c5c(F)c(F)c(F)c(F)c5F)c5ccc2[nH]5)C=C4)C=C3)cc1
REMARK SMILES IDX 16 1 15 2 14 3 13 4 12 5 10 6 11 7 8 8 9 9 7 10 3 11 4 12
REMARK SMILES IDX 5 13 6 14 2 15 1 16 17 17 18 18 19 19 20 20 21 21 22 22
REMARK SMILES IDX 23 23 24 24 25 25 86 26 26 27 85 28 27 29 28 30 29 31 79 32
REMARK SMILES IDX 30 33 84 34 78 35 80 36 31 37 83 38 77 39 76 40 32 42 64 43
REMARK SMILES IDX 44 44 63 45 45 46 48 47 62 48 81 49 46 50 47 51 61 53 82 54
REMARK SMILES IDX 49 55 33 56 34 57 42 58 35 59 36 60 40 61 43 62 37 63 38 64
REMARK SMILES IDX 41 65 39 66 65 67 66 68 74 69 67 70 68 71 72 72 75 73 69 74
REMARK SMILES IDX 70 75 73 76 71 77 50 78 51 79 59 80 52 81 53 82 57 83 60 84
REMARK SMILES IDX 54 85 55 86 58 87 56 88
REMARK H PARENT 80 41 48 52
REMARK Flexibility Score: inf
ROOT
ATOM      1  C   UNL A   1      38.220  22.218  25.408  1.00  0.00     0.188 C 
ENDROOT
BRANCH   1   2
ATOM      2  O   UNL A   1      36.890  22.267  25.872  1.00  0.00    -0.376 OA
BRANCH   2   3
ATOM      3  C   UNL A   1      36.228  23.522  25.992  1.00  0.00     0.202 C 
BRANCH   3   4
ATOM      4  C   UNL A   1      34.738  23.747  25.651  1.00  0.00     0.261 C 
BRANCH   4   5
ATOM      5  O   UNL A   1      33.792  23.287  26.624  1.00  0.00    -0.461 OA
BRANCH   5   6
ATOM      6  C   UNL A   1      32.523  23.792  26.502  1.00  0.00     0.348 C 
ATOM      7  O   UNL A   1      32.271  24.990  26.376  1.00  0.00    -0.248 OA
BRANCH   6   8
ATOM      8  C   UNL A   1      31.473  22.703  26.347  1.00  0.00     0.341 C 
ATOM      9  F   UNL A   1      30.194  23.167  26.238  1.00  0.00    -0.226 F 
BRANCH   8  10
ATOM     10  C   UNL A   1      31.785  21.833  25.176  1.00  0.00     0.155 A 
ATOM     11  N   UNL A   1      31.858  22.286  23.874  1.00  0.00    -0.332 N 
ATOM     12  C   UNL A   1      32.276  21.236  23.096  1.00  0.00     0.107 A 
ATOM     13  C   UNL A   1      32.418  20.178  23.956  1.00  0.00     0.131 A 
ATOM     14  N   UNL A   1      32.116  20.554  25.233  1.00  0.00    -0.238 NA
BRANCH  11  15
ATOM     15  C   UNL A   1      31.627  23.629  23.370  1.00  0.00     0.120 C 
ATOM     16  C   UNL A   1      32.712  24.099  22.412  1.00  0.00     0.027 C 
ENDBRANCH  11  15
ENDBRANCH   8  10
ENDBRANCH   6   8
ENDBRANCH   5   6
ENDBRANCH   4   5
ENDBRANCH   3   4
ENDBRANCH   2   3
ENDBRANCH   1   2
BRANCH   1  17
ATOM     17  C   UNL A   1      39.103  21.104  26.005  1.00  0.00     0.188 C 
BRANCH  17  18
ATOM     18  O   UNL A   1      40.319  21.370  26.688  1.00  0.00    -0.376 OA
BRANCH  18  19
ATOM     19  C   UNL A   1      41.218  20.337  27.057  1.00  0.00     0.202 C 
BRANCH  19  20
ATOM     20  C   UNL A   1      42.023  19.570  26.007  1.00  0.00     0.261 C 
BRANCH  20  21
ATOM     21  O   UNL A   1      43.430  19.754  26.097  1.00  0.00    -0.460 OA
BRANCH  21  22
ATOM     22  C   UNL A   1      43.981  20.258  24.973  1.00  0.00     0.338 C 
ATOM     23  O   UNL A   1      44.196  19.670  23.929  1.00  0.00    -0.246 OA
BRANCH  22  24
ATOM     24  C   UNL A   1      44.288  21.685  25.167  1.00  0.00     0.060 A 
ATOM     25  C   UNL A   1      45.350  21.987  26.026  1.00  0.00     0.016 A 
ATOM     26  C   UNL A   1      43.446  22.685  24.664  1.00  0.00     0.016 A 
ATOM     27  C   UNL A   1      45.455  23.266  26.536  1.00  0.00     0.010 A 
ATOM     28  C   UNL A   1      43.548  23.965  25.178  1.00  0.00     0.010 A 
ATOM     29  C   UNL A   1      44.493  24.214  26.177  1.00  0.00    -0.014 A 
BRANCH  29  30
ATOM     30  C   UNL A   1      44.369  25.383  27.034  1.00  0.00     0.031 A 
ATOM     31  C   UNL A   1      45.466  26.372  27.039  1.00  0.00     0.074 A 
ATOM     32  C   UNL A   1      43.235  25.585  27.735  1.00  0.00     0.049 A 
ATOM     33  N   UNL A   1      46.117  26.828  28.059  1.00  0.00    -0.248 NA
ATOM     34  C   UNL A   1      45.891  26.927  25.747  1.00  0.00     0.031 C 
ATOM     35  C   UNL A   1      41.974  24.846  27.595  1.00  0.00     0.029 A 
ATOM     36  N   UNL A   1      42.932  26.563  28.637  1.00  0.00    -0.354 N 
ATOM     37  C   UNL A   1      46.926  27.843  27.566  1.00  0.00     0.074 A 
ATOM     38  C   UNL A   1      46.814  27.810  26.130  1.00  0.00     0.031 C 
ATOM     39  C   UNL A   1      40.994  25.523  28.228  1.00  0.00     0.029 A 
ATOM     40  C   UNL A   1      41.578  26.667  28.907  1.00  0.00     0.049 A 
ATOM     41  H   UNL A   1      43.611  27.139  29.057  1.00  0.00     0.167 HD
ATOM     42  C   UNL A   1      47.478  28.781  28.378  1.00  0.00     0.037 A 
ATOM     43  C   UNL A   1      40.953  27.657  29.583  1.00  0.00     0.037 A 
ATOM     44  C   UNL A   1      47.512  28.378  29.755  1.00  0.00     0.049 A 
ATOM     45  C   UNL A   1      41.951  28.364  30.416  1.00  0.00     0.074 A 
ATOM     46  C   UNL A   1      48.157  27.393  30.471  1.00  0.00     0.029 A 
ATOM     47  N   UNL A   1      46.556  28.899  30.585  1.00  0.00    -0.354 N 
ATOM     48  N   UNL A   1      42.523  27.861  31.474  1.00  0.00    -0.248 NA
ATOM     49  C   UNL A   1      42.554  29.589  29.907  1.00  0.00     0.031 C 
ATOM     50  C   UNL A   1      47.323  27.117  31.593  1.00  0.00     0.029 A 
ATOM     51  C   UNL A   1      46.199  27.938  31.495  1.00  0.00     0.049 A 
ATOM     52  H   UNL A   1      46.187  29.810  30.536  1.00  0.00     0.167 HD
ATOM     53  C   UNL A   1      43.771  28.458  31.513  1.00  0.00     0.074 A 
ATOM     54  C   UNL A   1      43.662  29.622  30.648  1.00  0.00     0.031 C 
ATOM     55  C   UNL A   1      44.852  27.782  31.996  1.00  0.00     0.037 A 
BRANCH  42  56
ATOM     56  C   UNL A   1      47.692  30.207  27.957  1.00  0.00     0.064 A 
ATOM     57  C   UNL A   1      46.599  31.001  27.570  1.00  0.00     0.173 A 
ATOM     58  C   UNL A   1      48.971  30.723  27.657  1.00  0.00     0.173 A 
ATOM     59  F   UNL A   1      45.343  30.571  27.761  1.00  0.00    -0.203 F 
ATOM     60  C   UNL A   1      46.777  32.221  26.910  1.00  0.00     0.198 A 
ATOM     61  C   UNL A   1      49.146  31.962  27.045  1.00  0.00     0.198 A 
ATOM     62  F   UNL A   1      50.081  29.997  27.851  1.00  0.00    -0.203 F 
ATOM     63  F   UNL A   1      45.710  32.904  26.473  1.00  0.00    -0.200 F 
ATOM     64  C   UNL A   1      48.050  32.702  26.653  1.00  0.00     0.200 A 
ATOM     65  F   UNL A   1      50.385  32.397  26.778  1.00  0.00    -0.200 F 
ATOM     66  F   UNL A   1      48.220  33.850  25.986  1.00  0.00    -0.200 F 
ENDBRANCH  42  56
BRANCH  43  67
ATOM     67  C   UNL A   1      39.568  28.143  29.401  1.00  0.00     0.064 A 
ATOM     68  C   UNL A   1      38.677  28.229  30.480  1.00  0.00     0.173 A 
ATOM     69  C   UNL A   1      39.159  28.753  28.198  1.00  0.00     0.173 A 
ATOM     70  F   UNL A   1      39.012  27.722  31.675  1.00  0.00    -0.203 F 
ATOM     71  C   UNL A   1      37.450  28.890  30.364  1.00  0.00     0.198 A 
ATOM     72  C   UNL A   1      37.929  29.396  28.077  1.00  0.00     0.198 A 
ATOM     73  F   UNL A   1      39.983  28.811  27.141  1.00  0.00    -0.203 F 
ATOM     74  F   UNL A   1      36.648  29.001  31.431  1.00  0.00    -0.200 F 
ATOM     75  C   UNL A   1      37.078  29.474  29.163  1.00  0.00     0.200 A 
ATOM     76  F   UNL A   1      37.598  29.985  26.919  1.00  0.00    -0.200 F 
ATOM     77  F   UNL A   1      35.924  30.145  29.065  1.00  0.00    -0.200 F 
ENDBRANCH  43  67
BRANCH  55  78
ATOM     78  C   UNL A   1      44.577  26.614  32.895  1.00  0.00     0.064 A 
ATOM     79  C   UNL A   1      44.411  25.297  32.435  1.00  0.00     0.173 A 
ATOM     80  C   UNL A   1      44.574  26.826  34.280  1.00  0.00     0.173 A 
ATOM     81  F   UNL A   1      44.503  25.007  31.130  1.00  0.00    -0.203 F 
ATOM     82  C   UNL A   1      44.192  24.249  33.326  1.00  0.00     0.198 A 
ATOM     83  C   UNL A   1      44.391  25.771  35.169  1.00  0.00     0.198 A 
ATOM     84  F   UNL A   1      44.787  28.055  34.773  1.00  0.00    -0.203 F 
ATOM     85  F   UNL A   1      44.010  23.003  32.866  1.00  0.00    -0.200 F 
ATOM     86  C   UNL A   1      44.185  24.486  34.692  1.00  0.00     0.200 A 
ATOM     87  F   UNL A   1      44.434  25.996  36.490  1.00  0.00    -0.200 F 
ATOM     88  F   UNL A   1      44.004  23.472  35.550  1.00  0.00    -0.200 F 
ENDBRANCH  55  78
ENDBRANCH  29  30
ENDBRANCH  22  24
ENDBRANCH  21  22
ENDBRANCH  20  21
ENDBRANCH  19  20
ENDBRANCH  18  19
ENDBRANCH  17  18
ENDBRANCH   1  17
TORSDOF 19
ENDMDL
