MODEL 1
REMARK VINA RESULT:     -10.5      0.000      0.000
REMARK SMILES CCN(Cc1c(C)nn(CC)c1C)C(=O)Cn1ccc(C(=O)OCCOCCOCCOC(=O)c2ccc(-c3c4nc(c(-c5c(F)c(F)c(F)c(F)c5F)c5ccc([nH]5)c(-c5c(F)c(F)c(F)c(F)c5F)c5nc(c(-c6c(F)c(F)c(F)c(F)c6F)c6ccc3[nH]6)C=C5)C=C4)cc2)n1
REMARK SMILES IDX 25 1 24 2 23 3 21 4 22 5 20 6 17 7 18 8 98 9 19 10 16 11
REMARK SMILES IDX 14 12 15 13 3 14 2 15 1 16 4 17 5 18 6 19 12 20 7 21 8 22
REMARK SMILES IDX 9 23 13 24 10 25 11 26 26 27 27 28 28 29 29 30 30 31 31 32
REMARK SMILES IDX 32 33 33 34 34 35 35 36 36 37 97 38 37 39 96 40 38 41 39 42
REMARK SMILES IDX 40 43 90 44 41 45 95 46 89 47 91 48 42 49 94 50 88 51 87 52
REMARK SMILES IDX 43 54 75 55 55 56 74 57 56 58 59 59 73 60 92 61 57 62 58 63
REMARK SMILES IDX 72 65 93 66 60 67 44 68 45 69 53 70 46 71 47 72 51 73 54 74
REMARK SMILES IDX 48 75 49 76 52 77 50 78 76 79 77 80 85 81 78 82 79 83 83 84
REMARK SMILES IDX 86 85 80 86 81 87 84 88 82 89 61 90 62 91 70 92 63 93 64 94
REMARK SMILES IDX 68 95 71 96 65 97 66 98 69 99 67 100
REMARK H PARENT 91 53 59 64
REMARK Flexibility Score: inf
ROOT
ATOM      1  C   UNL A   1      32.081  28.664  25.861  1.00  0.00     0.202 C 
ENDROOT
BRANCH   1   2
ATOM      2  C   UNL A   1      31.332  28.830  24.517  1.00  0.00     0.261 C 
BRANCH   2   3
ATOM      3  O   UNL A   1      31.339  27.694  23.636  1.00  0.00    -0.458 OA
BRANCH   3   4
ATOM      4  C   UNL A   1      31.263  26.460  24.213  1.00  0.00     0.358 C 
ATOM      5  O   UNL A   1      30.261  26.050  24.789  1.00  0.00    -0.244 OA
BRANCH   4   6
ATOM      6  C   UNL A   1      32.423  25.587  23.926  1.00  0.00     0.170 A 
ATOM      7  N   UNL A   1      34.343  24.628  23.983  1.00  0.00    -0.262 N 
ATOM      8  C   UNL A   1      33.683  24.048  22.933  1.00  0.00     0.110 A 
ATOM      9  N   UNL A   1      33.593  25.568  24.606  1.00  0.00    -0.165 NA
ATOM     10  C   UNL A   1      32.460  24.656  22.853  1.00  0.00     0.057 A 
BRANCH   7  11
ATOM     11  C   UNL A   1      35.591  24.112  24.535  1.00  0.00     0.244 C 
BRANCH  11  12
ATOM     12  C   UNL A   1      36.162  22.863  23.904  1.00  0.00     0.244 C 
ATOM     13  O   UNL A   1      36.543  22.920  22.727  1.00  0.00    -0.273 OA
BRANCH  12  14
ATOM     14  N   UNL A   1      36.380  21.710  24.661  1.00  0.00    -0.337 N 
BRANCH  14  15
ATOM     15  C   UNL A   1      37.753  21.459  25.115  1.00  0.00     0.116 C 
ATOM     16  C   UNL A   1      38.340  22.595  25.942  1.00  0.00     0.027 C 
ENDBRANCH  14  15
BRANCH  14  17
ATOM     17  C   UNL A   1      35.368  20.702  24.997  1.00  0.00     0.159 C 
BRANCH  17  18
ATOM     18  C   UNL A   1      34.025  21.298  25.324  1.00  0.00     0.015 A 
ATOM     19  C   UNL A   1      32.802  21.045  24.623  1.00  0.00     0.065 A 
ATOM     20  C   UNL A   1      33.618  22.087  26.401  1.00  0.00     0.041 A 
ATOM     21  C   UNL A   1      32.517  20.117  23.500  1.00  0.00     0.069 C 
ATOM     22  N   UNL A   1      31.784  21.755  25.113  1.00  0.00    -0.178 NA
ATOM     23  N   UNL A   1      32.297  22.394  26.172  1.00  0.00    -0.270 N 
ATOM     24  C   UNL A   1      34.322  22.554  27.622  1.00  0.00     0.067 C 
BRANCH  23  25
ATOM     25  C   UNL A   1      31.411  23.246  26.947  1.00  0.00     0.141 C 
ATOM     26  C   UNL A   1      29.953  22.835  26.823  1.00  0.00     0.029 C 
ENDBRANCH  23  25
ENDBRANCH  17  18
ENDBRANCH  14  17
ENDBRANCH  12  14
ENDBRANCH  11  12
ENDBRANCH   7  11
ENDBRANCH   4   6
ENDBRANCH   3   4
ENDBRANCH   2   3
ENDBRANCH   1   2
BRANCH   1  27
ATOM     27  O   UNL A   1      31.782  29.564  26.924  1.00  0.00    -0.376 OA
BRANCH  27  28
ATOM     28  C   UNL A   1      32.410  30.831  26.849  1.00  0.00     0.188 C 
BRANCH  28  29
ATOM     29  C   UNL A   1      33.881  30.844  27.314  1.00  0.00     0.188 C 
BRANCH  29  30
ATOM     30  O   UNL A   1      34.555  32.040  27.686  1.00  0.00    -0.376 OA
BRANCH  30  31
ATOM     31  C   UNL A   1      33.930  33.055  28.459  1.00  0.00     0.202 C 
BRANCH  31  32
ATOM     32  C   UNL A   1      34.468  33.386  29.848  1.00  0.00     0.261 C 
BRANCH  32  33
ATOM     33  O   UNL A   1      35.803  32.949  30.057  1.00  0.00    -0.460 OA
BRANCH  33  34
ATOM     34  C   UNL A   1      35.907  31.876  30.865  1.00  0.00     0.338 C 
ATOM     35  O   UNL A   1      35.520  31.774  32.016  1.00  0.00    -0.246 OA
BRANCH  34  36
ATOM     36  C   UNL A   1      36.636  30.807  30.165  1.00  0.00     0.060 A 
ATOM     37  C   UNL A   1      36.669  29.570  30.813  1.00  0.00     0.016 A 
ATOM     38  C   UNL A   1      37.475  31.097  29.080  1.00  0.00     0.016 A 
ATOM     39  C   UNL A   1      37.731  28.731  30.564  1.00  0.00     0.010 A 
ATOM     40  C   UNL A   1      38.542  30.258  28.832  1.00  0.00     0.010 A 
ATOM     41  C   UNL A   1      38.714  29.154  29.666  1.00  0.00    -0.014 A 
BRANCH  41  42
ATOM     42  C   UNL A   1      40.014  28.526  29.797  1.00  0.00     0.031 A 
ATOM     43  C   UNL A   1      40.612  28.490  31.143  1.00  0.00     0.074 A 
ATOM     44  C   UNL A   1      40.610  27.968  28.725  1.00  0.00     0.049 A 
ATOM     45  N   UNL A   1      41.755  28.961  31.520  1.00  0.00    -0.248 NA
ATOM     46  C   UNL A   1      39.813  27.889  32.217  1.00  0.00     0.031 C 
ATOM     47  C   UNL A   1      40.014  27.680  27.415  1.00  0.00     0.029 A 
ATOM     48  N   UNL A   1      41.861  27.441  28.625  1.00  0.00    -0.354 N 
ATOM     49  C   UNL A   1      41.894  28.587  32.851  1.00  0.00     0.074 A 
ATOM     50  C   UNL A   1      40.633  28.019  33.258  1.00  0.00     0.031 C 
ATOM     51  C   UNL A   1      40.828  26.841  26.737  1.00  0.00     0.029 A 
ATOM     52  C   UNL A   1      42.039  26.634  27.514  1.00  0.00     0.049 A 
ATOM     53  H   UNL A   1      42.572  27.615  29.282  1.00  0.00     0.167 HD
ATOM     54  C   UNL A   1      43.100  28.594  33.477  1.00  0.00     0.037 A 
ATOM     55  C   UNL A   1      43.069  25.783  27.297  1.00  0.00     0.037 A 
ATOM     56  C   UNL A   1      44.055  29.436  32.811  1.00  0.00     0.049 A 
ATOM     57  C   UNL A   1      44.188  26.176  28.187  1.00  0.00     0.074 A 
ATOM     58  C   UNL A   1      44.112  30.783  32.512  1.00  0.00     0.029 A 
ATOM     59  N   UNL A   1      45.054  28.851  32.077  1.00  0.00    -0.354 N 
ATOM     60  N   UNL A   1      44.912  27.250  28.039  1.00  0.00    -0.248 NA
ATOM     61  C   UNL A   1      44.266  25.552  29.501  1.00  0.00     0.031 C 
ATOM     62  C   UNL A   1      44.831  30.868  31.286  1.00  0.00     0.029 A 
ATOM     63  C   UNL A   1      45.167  29.567  30.913  1.00  0.00     0.049 A 
ATOM     64  H   UNL A   1      45.589  28.066  32.336  1.00  0.00     0.167 HD
ATOM     65  C   UNL A   1      45.213  27.658  29.330  1.00  0.00     0.074 A 
ATOM     66  C   UNL A   1      44.890  26.517  30.178  1.00  0.00     0.031 C 
ATOM     67  C   UNL A   1      45.428  28.973  29.625  1.00  0.00     0.037 A 
BRANCH  54  68
ATOM     68  C   UNL A   1      43.491  27.601  34.534  1.00  0.00     0.064 A 
ATOM     69  C   UNL A   1      43.526  26.229  34.224  1.00  0.00     0.173 A 
ATOM     70  C   UNL A   1      43.561  27.925  35.907  1.00  0.00     0.173 A 
ATOM     71  F   UNL A   1      43.428  25.814  32.952  1.00  0.00    -0.203 F 
ATOM     72  C   UNL A   1      43.574  25.253  35.221  1.00  0.00     0.198 A 
ATOM     73  C   UNL A   1      43.668  26.950  36.895  1.00  0.00     0.198 A 
ATOM     74  F   UNL A   1      43.419  29.183  36.345  1.00  0.00    -0.203 F 
ATOM     75  F   UNL A   1      43.487  23.958  34.887  1.00  0.00    -0.200 F 
ATOM     76  C   UNL A   1      43.645  25.613  36.555  1.00  0.00     0.200 A 
ATOM     77  F   UNL A   1      43.716  27.319  38.183  1.00  0.00    -0.200 F 
ATOM     78  F   UNL A   1      43.640  24.679  37.514  1.00  0.00    -0.200 F 
ENDBRANCH  54  68
BRANCH  55  79
ATOM     79  C   UNL A   1      43.027  24.495  26.571  1.00  0.00     0.064 A 
ATOM     80  C   UNL A   1      43.687  24.327  25.345  1.00  0.00     0.173 A 
ATOM     81  C   UNL A   1      42.529  23.324  27.180  1.00  0.00     0.173 A 
ATOM     82  F   UNL A   1      44.244  25.380  24.730  1.00  0.00    -0.203 F 
ATOM     83  C   UNL A   1      43.835  23.065  24.761  1.00  0.00     0.198 A 
ATOM     84  C   UNL A   1      42.661  22.070  26.589  1.00  0.00     0.198 A 
ATOM     85  F   UNL A   1      41.979  23.363  28.402  1.00  0.00    -0.203 F 
ATOM     86  F   UNL A   1      44.517  22.935  23.615  1.00  0.00    -0.200 F 
ATOM     87  C   UNL A   1      43.323  21.938  25.383  1.00  0.00     0.200 A 
ATOM     88  F   UNL A   1      42.192  20.984  27.222  1.00  0.00    -0.200 F 
ATOM     89  F   UNL A   1      43.501  20.724  24.845  1.00  0.00    -0.200 F 
ENDBRANCH  55  79
BRANCH  67  90
ATOM     90  C   UNL A   1      45.642  29.919  28.483  1.00  0.00     0.064 A 
ATOM     91  C   UNL A   1      44.588  30.496  27.755  1.00  0.00     0.173 A 
ATOM     92  C   UNL A   1      46.940  30.383  28.228  1.00  0.00     0.173 A 
ATOM     93  F   UNL A   1      43.314  30.176  28.020  1.00  0.00    -0.203 F 
ATOM     94  C   UNL A   1      44.832  31.468  26.787  1.00  0.00     0.198 A 
ATOM     95  C   UNL A   1      47.176  31.377  27.284  1.00  0.00     0.198 A 
ATOM     96  F   UNL A   1      47.975  29.909  28.940  1.00  0.00    -0.203 F 
ATOM     97  F   UNL A   1      43.811  32.005  26.103  1.00  0.00    -0.200 F 
ATOM     98  C   UNL A   1      46.123  31.913  26.557  1.00  0.00     0.200 A 
ATOM     99  F   UNL A   1      48.420  31.841  27.100  1.00  0.00    -0.200 F 
ATOM    100  F   UNL A   1      46.352  32.881  25.658  1.00  0.00    -0.200 F 
ENDBRANCH  67  90
ENDBRANCH  41  42
ENDBRANCH  34  36
ENDBRANCH  33  34
ENDBRANCH  32  33
ENDBRANCH  31  32
ENDBRANCH  30  31
ENDBRANCH  29  30
ENDBRANCH  28  29
ENDBRANCH  27  28
ENDBRANCH   1  27
TORSDOF 24
ENDMDL
MODEL 2
REMARK VINA RESULT:     -10.5      2.920      4.462
REMARK SMILES CCN(Cc1c(C)nn(CC)c1C)C(=O)Cn1ccc(C(=O)OCCOCCOCCOC(=O)c2ccc(-c3c4nc(c(-c5c(F)c(F)c(F)c(F)c5F)c5ccc([nH]5)c(-c5c(F)c(F)c(F)c(F)c5F)c5nc(c(-c6c(F)c(F)c(F)c(F)c6F)c6ccc3[nH]6)C=C5)C=C4)cc2)n1
REMARK SMILES IDX 25 1 24 2 23 3 21 4 22 5 20 6 17 7 18 8 98 9 19 10 16 11
REMARK SMILES IDX 14 12 15 13 3 14 2 15 1 16 4 17 5 18 6 19 12 20 7 21 8 22
REMARK SMILES IDX 9 23 13 24 10 25 11 26 26 27 27 28 28 29 29 30 30 31 31 32
REMARK SMILES IDX 32 33 33 34 34 35 35 36 36 37 97 38 37 39 96 40 38 41 39 42
REMARK SMILES IDX 40 43 90 44 41 45 95 46 89 47 91 48 42 49 94 50 88 51 87 52
REMARK SMILES IDX 43 54 75 55 55 56 74 57 56 58 59 59 73 60 92 61 57 62 58 63
REMARK SMILES IDX 72 65 93 66 60 67 44 68 45 69 53 70 46 71 47 72 51 73 54 74
REMARK SMILES IDX 48 75 49 76 52 77 50 78 76 79 77 80 85 81 78 82 79 83 83 84
REMARK SMILES IDX 86 85 80 86 81 87 84 88 82 89 61 90 62 91 70 92 63 93 64 94
REMARK SMILES IDX 68 95 71 96 65 97 66 98 69 99 67 100
REMARK H PARENT 91 53 59 64
REMARK Flexibility Score: inf
ROOT
ATOM      1  C   UNL A   1      35.082  31.495  28.009  1.00  0.00     0.202 C 
ENDROOT
BRANCH   1   2
ATOM      2  C   UNL A   1      33.853  30.619  27.667  1.00  0.00     0.261 C 
BRANCH   2   3
ATOM      3  O   UNL A   1      34.019  29.674  26.597  1.00  0.00    -0.458 OA
BRANCH   3   4
ATOM      4  C   UNL A   1      33.284  28.527  26.661  1.00  0.00     0.358 C 
ATOM      5  O   UNL A   1      32.469  28.303  27.550  1.00  0.00    -0.244 OA
BRANCH   4   6
ATOM      6  C   UNL A   1      33.415  27.658  25.471  1.00  0.00     0.170 A 
ATOM      7  N   UNL A   1      33.645  25.963  24.173  1.00  0.00    -0.262 N 
ATOM      8  C   UNL A   1      33.562  27.045  23.338  1.00  0.00     0.110 A 
ATOM      9  N   UNL A   1      33.555  26.312  25.479  1.00  0.00    -0.165 NA
ATOM     10  C   UNL A   1      33.439  28.149  24.137  1.00  0.00     0.057 A 
BRANCH   7  11
ATOM     11  C   UNL A   1      33.565  24.581  23.712  1.00  0.00     0.244 C 
BRANCH  11  12
ATOM     12  C   UNL A   1      34.831  23.758  23.774  1.00  0.00     0.244 C 
ATOM     13  O   UNL A   1      35.426  23.514  22.716  1.00  0.00    -0.273 OA
BRANCH  12  14
ATOM     14  N   UNL A   1      35.390  23.391  24.999  1.00  0.00    -0.337 N 
BRANCH  14  15
ATOM     15  C   UNL A   1      36.807  23.713  25.209  1.00  0.00     0.116 C 
ATOM     16  C   UNL A   1      37.543  22.697  26.071  1.00  0.00     0.027 C 
ENDBRANCH  14  15
BRANCH  14  17
ATOM     17  C   UNL A   1      34.703  22.665  26.073  1.00  0.00     0.159 C 
BRANCH  17  18
ATOM     18  C   UNL A   1      33.991  21.429  25.588  1.00  0.00     0.015 A 
ATOM     19  C   UNL A   1      32.575  21.287  25.427  1.00  0.00     0.065 A 
ATOM     20  C   UNL A   1      34.492  20.233  25.073  1.00  0.00     0.041 A 
ATOM     21  C   UNL A   1      31.487  22.281  25.601  1.00  0.00     0.069 C 
ATOM     22  N   UNL A   1      32.235  20.060  25.027  1.00  0.00    -0.178 NA
ATOM     23  N   UNL A   1      33.401  19.430  24.838  1.00  0.00    -0.270 N 
ATOM     24  C   UNL A   1      35.871  19.781  24.755  1.00  0.00     0.067 C 
BRANCH  23  25
ATOM     25  C   UNL A   1      33.364  18.055  24.369  1.00  0.00     0.141 C 
ATOM     26  C   UNL A   1      32.697  17.923  23.010  1.00  0.00     0.029 C 
ENDBRANCH  23  25
ENDBRANCH  17  18
ENDBRANCH  14  17
ENDBRANCH  12  14
ENDBRANCH  11  12
ENDBRANCH   7  11
ENDBRANCH   4   6
ENDBRANCH   3   4
ENDBRANCH   2   3
ENDBRANCH   1   2
BRANCH   1  27
ATOM     27  O   UNL A   1      35.060  32.872  27.648  1.00  0.00    -0.376 OA
BRANCH  27  28
ATOM     28  C   UNL A   1      33.831  33.542  27.861  1.00  0.00     0.188 C 
BRANCH  28  29
ATOM     29  C   UNL A   1      33.948  34.853  28.666  1.00  0.00     0.188 C 
BRANCH  29  30
ATOM     30  O   UNL A   1      32.902  35.333  29.503  1.00  0.00    -0.376 OA
BRANCH  30  31
ATOM     31  C   UNL A   1      33.003  36.556  30.218  1.00  0.00     0.202 C 
BRANCH  31  32
ATOM     32  C   UNL A   1      33.357  36.535  31.702  1.00  0.00     0.261 C 
BRANCH  32  33
ATOM     33  O   UNL A   1      34.500  35.748  32.001  1.00  0.00    -0.460 OA
BRANCH  33  34
ATOM     34  C   UNL A   1      34.217  34.590  32.630  1.00  0.00     0.338 C 
ATOM     35  O   UNL A   1      33.130  34.050  32.735  1.00  0.00    -0.246 OA
BRANCH  34  36
ATOM     36  C   UNL A   1      35.440  34.064  33.256  1.00  0.00     0.060 A 
ATOM     37  C   UNL A   1      36.566  34.886  33.174  1.00  0.00     0.016 A 
ATOM     38  C   UNL A   1      35.532  32.720  33.643  1.00  0.00     0.016 A 
ATOM     39  C   UNL A   1      37.808  34.296  33.199  1.00  0.00     0.010 A 
ATOM     40  C   UNL A   1      36.777  32.126  33.665  1.00  0.00     0.010 A 
ATOM     41  C   UNL A   1      37.880  32.906  33.318  1.00  0.00    -0.014 A 
BRANCH  41  42
ATOM     42  C   UNL A   1      39.103  32.284  32.850  1.00  0.00     0.031 A 
ATOM     43  C   UNL A   1      40.207  32.158  33.818  1.00  0.00     0.074 A 
ATOM     44  C   UNL A   1      39.187  31.814  31.591  1.00  0.00     0.049 A 
ATOM     45  N   UNL A   1      41.412  32.614  33.717  1.00  0.00    -0.248 NA
ATOM     46  C   UNL A   1      39.916  31.471  35.082  1.00  0.00     0.031 C 
ATOM     47  C   UNL A   1      38.095  31.614  30.631  1.00  0.00     0.029 A 
ATOM     48  N   UNL A   1      40.272  31.309  30.941  1.00  0.00    -0.354 N 
ATOM     49  C   UNL A   1      42.085  32.146  34.839  1.00  0.00     0.074 A 
ATOM     50  C   UNL A   1      41.098  31.535  35.693  1.00  0.00     0.031 C 
ATOM     51  C   UNL A   1      38.536  30.837  29.619  1.00  0.00     0.029 A 
ATOM     52  C   UNL A   1      39.956  30.588  29.803  1.00  0.00     0.049 A 
ATOM     53  H   UNL A   1      41.196  31.444  31.252  1.00  0.00     0.167 HD
ATOM     54  C   UNL A   1      43.442  32.121  34.903  1.00  0.00     0.037 A 
ATOM     55  C   UNL A   1      40.785  29.767  29.117  1.00  0.00     0.037 A 
ATOM     56  C   UNL A   1      44.050  33.021  33.962  1.00  0.00     0.049 A 
ATOM     57  C   UNL A   1      42.181  30.107  29.485  1.00  0.00     0.074 A 
ATOM     58  C   UNL A   1      44.003  34.386  33.763  1.00  0.00     0.029 A 
ATOM     59  N   UNL A   1      44.641  32.503  32.839  1.00  0.00    -0.354 N 
ATOM     60  N   UNL A   1      42.798  31.198  29.125  1.00  0.00    -0.248 NA
ATOM     61  C   UNL A   1      42.786  29.390  30.598  1.00  0.00     0.031 C 
ATOM     62  C   UNL A   1      44.148  34.569  32.358  1.00  0.00     0.029 A 
ATOM     63  C   UNL A   1      44.272  33.303  31.788  1.00  0.00     0.049 A 
ATOM     64  H   UNL A   1      45.220  31.707  32.795  1.00  0.00     0.167 HD
ATOM     65  C   UNL A   1      43.617  31.514  30.198  1.00  0.00     0.074 A 
ATOM     66  C   UNL A   1      43.655  30.311  31.020  1.00  0.00     0.031 C 
ATOM     67  C   UNL A   1      43.961  32.807  30.469  1.00  0.00     0.037 A 
BRANCH  54  68
ATOM     68  C   UNL A   1      44.219  31.059  35.628  1.00  0.00     0.064 A 
ATOM     69  C   UNL A   1      45.113  31.425  36.651  1.00  0.00     0.173 A 
ATOM     70  C   UNL A   1      44.325  29.729  35.164  1.00  0.00     0.173 A 
ATOM     71  F   UNL A   1      45.120  32.676  37.137  1.00  0.00    -0.203 F 
ATOM     72  C   UNL A   1      46.075  30.538  37.137  1.00  0.00     0.198 A 
ATOM     73  C   UNL A   1      45.247  28.830  35.692  1.00  0.00     0.198 A 
ATOM     74  F   UNL A   1      43.618  29.288  34.115  1.00  0.00    -0.203 F 
ATOM     75  F   UNL A   1      46.981  30.963  38.028  1.00  0.00    -0.200 F 
ATOM     76  C   UNL A   1      46.142  29.241  36.657  1.00  0.00     0.200 A 
ATOM     77  F   UNL A   1      45.309  27.584  35.199  1.00  0.00    -0.200 F 
ATOM     78  F   UNL A   1      47.097  28.406  37.085  1.00  0.00    -0.200 F 
ENDBRANCH  54  68
BRANCH  55  79
ATOM     79  C   UNL A   1      40.419  28.535  28.385  1.00  0.00     0.064 A 
ATOM     80  C   UNL A   1      40.904  28.283  27.093  1.00  0.00     0.173 A 
ATOM     81  C   UNL A   1      39.768  27.463  29.030  1.00  0.00     0.173 A 
ATOM     82  F   UNL A   1      41.589  29.228  26.434  1.00  0.00    -0.203 F 
ATOM     83  C   UNL A   1      40.744  27.035  26.482  1.00  0.00     0.198 A 
ATOM     84  C   UNL A   1      39.592  26.226  28.413  1.00  0.00     0.198 A 
ATOM     85  F   UNL A   1      39.365  27.567  30.304  1.00  0.00    -0.203 F 
ATOM     86  F   UNL A   1      41.265  26.814  25.268  1.00  0.00    -0.200 F 
ATOM     87  C   UNL A   1      40.088  26.008  27.143  1.00  0.00     0.200 A 
ATOM     88  F   UNL A   1      38.989  25.231  29.081  1.00  0.00    -0.200 F 
ATOM     89  F   UNL A   1      39.971  24.800  26.574  1.00  0.00    -0.200 F 
ENDBRANCH  55  79
BRANCH  67  90
ATOM     90  C   UNL A   1      43.698  33.836  29.412  1.00  0.00     0.064 A 
ATOM     91  C   UNL A   1      42.475  34.516  29.289  1.00  0.00     0.173 A 
ATOM     92  C   UNL A   1      44.766  34.265  28.612  1.00  0.00     0.173 A 
ATOM     93  F   UNL A   1      41.445  34.229  30.096  1.00  0.00    -0.203 F 
ATOM     94  C   UNL A   1      42.321  35.555  28.374  1.00  0.00     0.198 A 
ATOM     95  C   UNL A   1      44.617  35.324  27.722  1.00  0.00     0.198 A 
ATOM     96  F   UNL A   1      45.973  33.690  28.736  1.00  0.00    -0.203 F 
ATOM     97  F   UNL A   1      41.144  36.190  28.271  1.00  0.00    -0.200 F 
ATOM     98  C   UNL A   1      43.393  35.963  27.597  1.00  0.00     0.200 A 
ATOM     99  F   UNL A   1      45.670  35.750  27.009  1.00  0.00    -0.200 F 
ATOM    100  F   UNL A   1      43.257  36.993  26.749  1.00  0.00    -0.200 F 
ENDBRANCH  67  90
ENDBRANCH  41  42
ENDBRANCH  34  36
ENDBRANCH  33  34
ENDBRANCH  32  33
ENDBRANCH  31  32
ENDBRANCH  30  31
ENDBRANCH  29  30
ENDBRANCH  28  29
ENDBRANCH  27  28
ENDBRANCH   1  27
TORSDOF 24
ENDMDL
MODEL 3
REMARK VINA RESULT:     -10.5      1.399      2.619
REMARK SMILES CCN(Cc1c(C)nn(CC)c1C)C(=O)Cn1ccc(C(=O)OCCOCCOCCOC(=O)c2ccc(-c3c4nc(c(-c5c(F)c(F)c(F)c(F)c5F)c5ccc([nH]5)c(-c5c(F)c(F)c(F)c(F)c5F)c5nc(c(-c6c(F)c(F)c(F)c(F)c6F)c6ccc3[nH]6)C=C5)C=C4)cc2)n1
REMARK SMILES IDX 25 1 24 2 23 3 21 4 22 5 20 6 17 7 18 8 98 9 19 10 16 11
REMARK SMILES IDX 14 12 15 13 3 14 2 15 1 16 4 17 5 18 6 19 12 20 7 21 8 22
REMARK SMILES IDX 9 23 13 24 10 25 11 26 26 27 27 28 28 29 29 30 30 31 31 32
REMARK SMILES IDX 32 33 33 34 34 35 35 36 36 37 97 38 37 39 96 40 38 41 39 42
REMARK SMILES IDX 40 43 90 44 41 45 95 46 89 47 91 48 42 49 94 50 88 51 87 52
REMARK SMILES IDX 43 54 75 55 55 56 74 57 56 58 59 59 73 60 92 61 57 62 58 63
REMARK SMILES IDX 72 65 93 66 60 67 44 68 45 69 53 70 46 71 47 72 51 73 54 74
REMARK SMILES IDX 48 75 49 76 52 77 50 78 76 79 77 80 85 81 78 82 79 83 83 84
REMARK SMILES IDX 86 85 80 86 81 87 84 88 82 89 61 90 62 91 70 92 63 93 64 94
REMARK SMILES IDX 68 95 71 96 65 97 66 98 69 99 67 100
REMARK H PARENT 91 53 59 64
REMARK Flexibility Score: inf
ROOT
ATOM      1  C   UNL A   1      33.960  29.496  26.382  1.00  0.00     0.202 C 
ENDROOT
BRANCH   1   2
ATOM      2  C   UNL A   1      32.929  28.943  25.369  1.00  0.00     0.261 C 
BRANCH   2   3
ATOM      3  O   UNL A   1      31.597  28.726  25.865  1.00  0.00    -0.458 OA
BRANCH   3   4
ATOM      4  C   UNL A   1      31.410  27.664  26.700  1.00  0.00     0.358 C 
ATOM      5  O   UNL A   1      31.315  27.778  27.918  1.00  0.00    -0.244 OA
BRANCH   4   6
ATOM      6  C   UNL A   1      31.147  26.386  26.002  1.00  0.00     0.170 A 
ATOM      7  N   UNL A   1      31.101  24.312  25.450  1.00  0.00    -0.262 N 
ATOM      8  C   UNL A   1      30.389  24.958  24.476  1.00  0.00     0.110 A 
ATOM      9  N   UNL A   1      31.571  25.162  26.395  1.00  0.00    -0.165 NA
ATOM     10  C   UNL A   1      30.420  26.290  24.785  1.00  0.00     0.057 A 
BRANCH   7  11
ATOM     11  C   UNL A   1      31.122  22.861  25.607  1.00  0.00     0.244 C 
BRANCH  11  12
ATOM     12  C   UNL A   1      32.388  22.243  26.154  1.00  0.00     0.244 C 
ATOM     13  O   UNL A   1      32.689  22.468  27.334  1.00  0.00    -0.273 OA
BRANCH  12  14
ATOM     14  N   UNL A   1      33.131  21.337  25.397  1.00  0.00    -0.337 N 
BRANCH  14  15
ATOM     15  C   UNL A   1      32.928  19.910  25.675  1.00  0.00     0.116 C 
ATOM     16  C   UNL A   1      32.632  19.081  24.433  1.00  0.00     0.027 C 
ENDBRANCH  14  15
BRANCH  14  17
ATOM     17  C   UNL A   1      34.135  21.685  24.386  1.00  0.00     0.159 C 
BRANCH  17  18
ATOM     18  C   UNL A   1      34.014  23.106  23.898  1.00  0.00     0.015 A 
ATOM     19  C   UNL A   1      34.579  24.260  24.529  1.00  0.00     0.065 A 
ATOM     20  C   UNL A   1      33.478  23.619  22.716  1.00  0.00     0.041 A 
ATOM     21  C   UNL A   1      35.458  24.365  25.721  1.00  0.00     0.069 C 
ATOM     22  N   UNL A   1      34.263  25.388  23.893  1.00  0.00    -0.178 NA
ATOM     23  N   UNL A   1      33.581  24.987  22.812  1.00  0.00    -0.270 N 
ATOM     24  C   UNL A   1      32.914  22.966  21.507  1.00  0.00     0.067 C 
BRANCH  23  25
ATOM     25  C   UNL A   1      33.111  26.004  21.887  1.00  0.00     0.141 C 
ATOM     26  C   UNL A   1      33.634  27.389  22.232  1.00  0.00     0.029 C 
ENDBRANCH  23  25
ENDBRANCH  17  18
ENDBRANCH  14  17
ENDBRANCH  12  14
ENDBRANCH  11  12
ENDBRANCH   7  11
ENDBRANCH   4   6
ENDBRANCH   3   4
ENDBRANCH   2   3
ENDBRANCH   1   2
BRANCH   1  27
ATOM     27  O   UNL A   1      33.482  30.086  27.587  1.00  0.00    -0.376 OA
BRANCH  27  28
ATOM     28  C   UNL A   1      33.559  31.499  27.649  1.00  0.00     0.188 C 
BRANCH  28  29
ATOM     29  C   UNL A   1      34.991  32.057  27.789  1.00  0.00     0.188 C 
BRANCH  29  30
ATOM     30  O   UNL A   1      35.260  33.347  28.323  1.00  0.00    -0.376 OA
BRANCH  30  31
ATOM     31  C   UNL A   1      34.491  33.909  29.377  1.00  0.00     0.202 C 
BRANCH  31  32
ATOM     32  C   UNL A   1      34.865  33.613  30.826  1.00  0.00     0.261 C 
BRANCH  32  33
ATOM     33  O   UNL A   1      36.160  33.047  30.972  1.00  0.00    -0.460 OA
BRANCH  33  34
ATOM     34  C   UNL A   1      36.154  31.781  31.434  1.00  0.00     0.338 C 
ATOM     35  O   UNL A   1      35.588  31.357  32.427  1.00  0.00    -0.246 OA
BRANCH  34  36
ATOM     36  C   UNL A   1      37.009  30.945  30.578  1.00  0.00     0.060 A 
ATOM     37  C   UNL A   1      36.821  29.566  30.693  1.00  0.00     0.016 A 
ATOM     38  C   UNL A   1      38.122  31.487  29.921  1.00  0.00     0.016 A 
ATOM     39  C   UNL A   1      37.880  28.736  30.406  1.00  0.00     0.010 A 
ATOM     40  C   UNL A   1      39.186  30.657  29.636  1.00  0.00     0.010 A 
ATOM     41  C   UNL A   1      39.086  29.315  30.002  1.00  0.00    -0.014 A 
BRANCH  41  42
ATOM     42  C   UNL A   1      40.277  28.512  30.191  1.00  0.00     0.031 A 
ATOM     43  C   UNL A   1      40.816  28.420  31.560  1.00  0.00     0.074 A 
ATOM     44  C   UNL A   1      40.825  27.854  29.151  1.00  0.00     0.049 A 
ATOM     45  N   UNL A   1      42.001  28.733  31.972  1.00  0.00    -0.248 NA
ATOM     46  C   UNL A   1      39.903  27.961  32.612  1.00  0.00     0.031 C 
ATOM     47  C   UNL A   1      40.242  27.625  27.825  1.00  0.00     0.029 A 
ATOM     48  N   UNL A   1      41.992  27.153  29.107  1.00  0.00    -0.354 N 
ATOM     49  C   UNL A   1      42.038  28.371  33.313  1.00  0.00     0.074 A 
ATOM     50  C   UNL A   1      40.696  27.996  33.682  1.00  0.00     0.031 C 
ATOM     51  C   UNL A   1      40.952  26.666  27.192  1.00  0.00     0.029 A 
ATOM     52  C   UNL A   1      42.093  26.306  28.017  1.00  0.00     0.049 A 
ATOM     53  H   UNL A   1      42.697  27.239  29.788  1.00  0.00     0.167 HD
ATOM     54  C   UNL A   1      43.210  28.220  33.984  1.00  0.00     0.037 A 
ATOM     55  C   UNL A   1      42.998  25.314  27.853  1.00  0.00     0.037 A 
ATOM     56  C   UNL A   1      44.298  28.905  33.342  1.00  0.00     0.049 A 
ATOM     57  C   UNL A   1      44.130  25.563  28.778  1.00  0.00     0.074 A 
ATOM     58  C   UNL A   1      44.556  30.224  33.024  1.00  0.00     0.029 A 
ATOM     59  N   UNL A   1      45.229  28.169  32.655  1.00  0.00    -0.354 N 
ATOM     60  N   UNL A   1      45.004  26.521  28.640  1.00  0.00    -0.248 NA
ATOM     61  C   UNL A   1      44.072  24.961  30.103  1.00  0.00     0.031 C 
ATOM     62  C   UNL A   1      45.323  30.181  31.825  1.00  0.00     0.029 A 
ATOM     63  C   UNL A   1      45.483  28.838  31.486  1.00  0.00     0.049 A 
ATOM     64  H   UNL A   1      45.638  27.322  32.947  1.00  0.00     0.167 HD
ATOM     65  C   UNL A   1      45.314  26.909  29.935  1.00  0.00     0.074 A 
ATOM     66  C   UNL A   1      44.803  25.843  30.788  1.00  0.00     0.031 C 
ATOM     67  C   UNL A   1      45.702  28.186  30.217  1.00  0.00     0.037 A 
BRANCH  54  68
ATOM     68  C   UNL A   1      43.419  27.205  35.071  1.00  0.00     0.064 A 
ATOM     69  C   UNL A   1      43.733  27.633  36.374  1.00  0.00     0.173 A 
ATOM     70  C   UNL A   1      43.599  25.827  34.815  1.00  0.00     0.173 A 
ATOM     71  F   UNL A   1      43.632  28.928  36.710  1.00  0.00    -0.203 F 
ATOM     72  C   UNL A   1      44.237  26.753  37.334  1.00  0.00     0.198 A 
ATOM     73  C   UNL A   1      44.047  24.943  35.792  1.00  0.00     0.198 A 
ATOM     74  F   UNL A   1      43.452  25.311  33.588  1.00  0.00    -0.203 F 
ATOM     75  F   UNL A   1      44.632  27.225  38.524  1.00  0.00    -0.200 F 
ATOM     76  C   UNL A   1      44.394  25.410  37.043  1.00  0.00     0.200 A 
ATOM     77  F   UNL A   1      44.212  23.648  35.484  1.00  0.00    -0.200 F 
ATOM     78  F   UNL A   1      44.926  24.576  37.945  1.00  0.00    -0.200 F 
ENDBRANCH  54  68
BRANCH  55  79
ATOM     79  C   UNL A   1      42.800  24.029  27.146  1.00  0.00     0.064 A 
ATOM     80  C   UNL A   1      43.479  23.741  25.953  1.00  0.00     0.173 A 
ATOM     81  C   UNL A   1      42.110  22.957  27.749  1.00  0.00     0.173 A 
ATOM     82  F   UNL A   1      44.209  24.688  25.347  1.00  0.00    -0.203 F 
ATOM     83  C   UNL A   1      43.466  22.458  25.397  1.00  0.00     0.198 A 
ATOM     84  C   UNL A   1      42.082  21.684  27.185  1.00  0.00     0.198 A 
ATOM     85  F   UNL A   1      41.520  23.102  28.945  1.00  0.00    -0.203 F 
ATOM     86  F   UNL A   1      44.169  22.205  24.284  1.00  0.00    -0.200 F 
ATOM     87  C   UNL A   1      42.768  21.431  26.013  1.00  0.00     0.200 A 
ATOM     88  F   UNL A   1      41.433  20.693  27.813  1.00  0.00    -0.200 F 
ATOM     89  F   UNL A   1      42.790  20.192  25.502  1.00  0.00    -0.200 F 
ENDBRANCH  55  79
BRANCH  67  90
ATOM     90  C   UNL A   1      46.089  29.068  29.069  1.00  0.00     0.064 A 
ATOM     91  C   UNL A   1      45.153  29.766  28.287  1.00  0.00     0.173 A 
ATOM     92  C   UNL A   1      47.447  29.348  28.864  1.00  0.00     0.173 A 
ATOM     93  F   UNL A   1      43.838  29.626  28.502  1.00  0.00    -0.203 F 
ATOM     94  C   UNL A   1      45.565  30.673  27.314  1.00  0.00     0.198 A 
ATOM     95  C   UNL A   1      47.853  30.279  27.913  1.00  0.00     0.198 A 
ATOM     96  F   UNL A   1      48.378  28.755  29.628  1.00  0.00    -0.203 F 
ATOM     97  F   UNL A   1      44.655  31.327  26.577  1.00  0.00    -0.200 F 
ATOM     98  C   UNL A   1      46.914  30.935  27.133  1.00  0.00     0.200 A 
ATOM     99  F   UNL A   1      49.156  30.567  27.776  1.00  0.00    -0.200 F 
ATOM    100  F   UNL A   1      47.308  31.842  26.228  1.00  0.00    -0.200 F 
ENDBRANCH  67  90
ENDBRANCH  41  42
ENDBRANCH  34  36
ENDBRANCH  33  34
ENDBRANCH  32  33
ENDBRANCH  31  32
ENDBRANCH  30  31
ENDBRANCH  29  30
ENDBRANCH  28  29
ENDBRANCH  27  28
ENDBRANCH   1  27
TORSDOF 24
ENDMDL
