MODEL 1
REMARK VINA RESULT:     -11.6      0.000      0.000
REMARK SMILES Cc1cc(Cl)c2c(c1)C=C(C(=O)OCCOCCOCCOC(=O)c1ccc(-c3c4nc(c(-c5c(F)c(F)c(F)c(F)c5F)c5ccc([nH]5)c(-c5c(F)c(F)c(F)c(F)c5F)c5nc(c(-c6c(F)c(F)c(F)c(F)c6F)c6ccc3[nH]6)C=C5)C=C4)cc1)[C@@H](C(F)(F)F)O2
REMARK SMILES IDX 18 1 17 2 16 3 15 4 14 5 13 6 11 7 12 8 10 9 1 10 2 11 3 12
REMARK SMILES IDX 8 13 4 14 7 15 5 16 6 17 9 18 93 19 88 20 89 21 90 22 91 23
REMARK SMILES IDX 92 24 19 25 20 26 21 27 22 28 23 29 24 30 25 31 26 32 87 33
REMARK SMILES IDX 27 34 86 35 28 36 29 37 30 38 80 39 31 40 85 41 79 42 81 43
REMARK SMILES IDX 32 44 84 45 78 46 77 47 33 49 65 50 45 51 64 52 46 53 49 54
REMARK SMILES IDX 63 55 82 56 47 57 48 58 62 60 83 61 50 62 34 63 35 64 43 65
REMARK SMILES IDX 36 66 37 67 41 68 44 69 38 70 39 71 42 72 40 73 66 74 67 75
REMARK SMILES IDX 75 76 68 77 69 78 73 79 76 80 70 81 71 82 74 83 72 84 51 85
REMARK SMILES IDX 52 86 60 87 53 88 54 89 58 90 61 91 55 92 56 93 59 94 57 95
REMARK H PARENT 81 48 49 59
REMARK Flexibility Score: inf
ROOT
ATOM      1  C   UNL A   1      33.400  19.768  24.659  1.00  0.00     0.188 C 
ENDROOT
BRANCH   1   2
ATOM      2  C   UNL A   1      32.865  21.161  25.052  1.00  0.00     0.188 C 
BRANCH   2   3
ATOM      3  O   UNL A   1      32.171  21.960  24.107  1.00  0.00    -0.376 OA
BRANCH   3   4
ATOM      4  C   UNL A   1      32.827  22.426  22.937  1.00  0.00     0.202 C 
BRANCH   4   5
ATOM      5  C   UNL A   1      33.679  23.705  22.958  1.00  0.00     0.261 C 
BRANCH   5   6
ATOM      6  O   UNL A   1      32.992  24.892  23.378  1.00  0.00    -0.460 OA
BRANCH   6   7
ATOM      7  C   UNL A   1      33.262  26.009  22.661  1.00  0.00     0.338 C 
ATOM      8  O   UNL A   1      33.470  26.076  21.461  1.00  0.00    -0.246 OA
BRANCH   7   9
ATOM      9  C   UNL A   1      33.114  27.200  23.524  1.00  0.00     0.087 C 
ATOM     10  C   UNL A   1      35.480  29.752  28.626  1.00  0.00     0.044 C 
ATOM     11  C   UNL A   1      34.559  29.612  27.448  1.00  0.00    -0.049 A 
ATOM     12  C   UNL A   1      33.467  30.477  27.307  1.00  0.00     0.028 A 
ATOM     13  C   UNL A   1      34.758  28.610  26.490  1.00  0.00     0.015 A 
ATOM     14  C   UNL A   1      32.603  30.352  26.215  1.00  0.00     0.084 A 
ATOM     15  C   UNL A   1      33.869  28.461  25.415  1.00  0.00     0.019 A 
ATOM     16  Cl  UNL A   1      31.270  31.446  26.103  1.00  0.00    -0.080 Cl
ATOM     17  C   UNL A   1      32.800  29.348  25.259  1.00  0.00     0.146 A 
ATOM     18  C   UNL A   1      34.021  27.344  24.498  1.00  0.00     0.027 C 
ATOM     19  O   UNL A   1      31.930  29.284  24.206  1.00  0.00    -0.474 OA
ATOM     20  C   UNL A   1      31.993  28.170  23.275  1.00  0.00     0.316 C 
BRANCH  20  21
ATOM     21  C   UNL A   1      30.622  27.480  23.250  1.00  0.00     0.430 C 
ATOM     22  F   UNL A   1      29.620  28.365  23.467  1.00  0.00    -0.167 F 
ATOM     23  F   UNL A   1      30.375  26.901  22.053  1.00  0.00    -0.167 F 
ATOM     24  F   UNL A   1      30.527  26.515  24.193  1.00  0.00    -0.167 F 
ENDBRANCH  20  21
ENDBRANCH   7   9
ENDBRANCH   6   7
ENDBRANCH   5   6
ENDBRANCH   4   5
ENDBRANCH   3   4
ENDBRANCH   2   3
ENDBRANCH   1   2
BRANCH   1  25
ATOM     25  O   UNL A   1      34.795  19.614  24.696  1.00  0.00    -0.376 OA
BRANCH  25  26
ATOM     26  C   UNL A   1      35.629  20.732  24.952  1.00  0.00     0.202 C 
BRANCH  26  27
ATOM     27  C   UNL A   1      37.174  20.745  24.906  1.00  0.00     0.261 C 
BRANCH  27  28
ATOM     28  O   UNL A   1      37.872  21.822  25.536  1.00  0.00    -0.460 OA
BRANCH  28  29
ATOM     29  C   UNL A   1      39.063  21.513  26.103  1.00  0.00     0.338 C 
ATOM     30  O   UNL A   1      39.676  20.466  26.018  1.00  0.00    -0.246 OA
BRANCH  29  31
ATOM     31  C   UNL A   1      39.623  22.740  26.705  1.00  0.00     0.060 A 
ATOM     32  C   UNL A   1      39.114  23.983  26.302  1.00  0.00     0.016 A 
ATOM     33  C   UNL A   1      40.660  22.665  27.636  1.00  0.00     0.016 A 
ATOM     34  C   UNL A   1      39.661  25.161  26.808  1.00  0.00     0.010 A 
ATOM     35  C   UNL A   1      41.230  23.846  28.117  1.00  0.00     0.010 A 
ATOM     36  C   UNL A   1      40.756  25.097  27.678  1.00  0.00    -0.014 A 
BRANCH  36  37
ATOM     37  C   UNL A   1      41.562  26.313  27.940  1.00  0.00     0.031 A 
ATOM     38  C   UNL A   1      40.922  27.426  28.722  1.00  0.00     0.074 A 
ATOM     39  C   UNL A   1      42.830  26.430  27.509  1.00  0.00     0.049 A 
ATOM     40  N   UNL A   1      41.366  28.630  28.975  1.00  0.00    -0.248 NA
ATOM     41  C   UNL A   1      39.598  27.137  29.297  1.00  0.00     0.031 C 
ATOM     42  C   UNL A   1      43.586  25.396  26.810  1.00  0.00     0.029 A 
ATOM     43  N   UNL A   1      43.698  27.490  27.592  1.00  0.00    -0.354 N 
ATOM     44  C   UNL A   1      40.373  29.243  29.730  1.00  0.00     0.074 A 
ATOM     45  C   UNL A   1      39.295  28.289  29.874  1.00  0.00     0.031 C 
ATOM     46  C   UNL A   1      44.805  25.878  26.511  1.00  0.00     0.029 A 
ATOM     47  C   UNL A   1      44.895  27.269  26.957  1.00  0.00     0.049 A 
ATOM     48  H   UNL A   1      43.484  28.328  28.062  1.00  0.00     0.167 HD
ATOM     49  C   UNL A   1      40.366  30.488  30.260  1.00  0.00     0.037 A 
ATOM     50  C   UNL A   1      45.927  28.108  26.734  1.00  0.00     0.037 A 
ATOM     51  C   UNL A   1      41.434  31.439  30.104  1.00  0.00     0.049 A 
ATOM     52  C   UNL A   1      45.848  29.528  27.240  1.00  0.00     0.074 A 
ATOM     53  C   UNL A   1      41.516  32.732  30.587  1.00  0.00     0.029 A 
ATOM     54  N   UNL A   1      42.609  31.198  29.406  1.00  0.00    -0.354 N 
ATOM     55  N   UNL A   1      44.903  30.112  27.935  1.00  0.00    -0.248 NA
ATOM     56  C   UNL A   1      46.984  30.407  26.924  1.00  0.00     0.031 C 
ATOM     57  C   UNL A   1      42.715  33.292  30.137  1.00  0.00     0.029 A 
ATOM     58  C   UNL A   1      43.412  32.327  29.427  1.00  0.00     0.049 A 
ATOM     59  H   UNL A   1      42.838  30.350  28.962  1.00  0.00     0.167 HD
ATOM     60  C   UNL A   1      45.337  31.413  28.159  1.00  0.00     0.074 A 
ATOM     61  C   UNL A   1      46.643  31.525  27.546  1.00  0.00     0.031 C 
ATOM     62  C   UNL A   1      44.709  32.426  28.810  1.00  0.00     0.037 A 
BRANCH  49  63
ATOM     63  C   UNL A   1      39.151  30.905  31.036  1.00  0.00     0.064 A 
ATOM     64  C   UNL A   1      38.084  31.582  30.425  1.00  0.00     0.173 A 
ATOM     65  C   UNL A   1      39.032  30.582  32.396  1.00  0.00     0.173 A 
ATOM     66  F   UNL A   1      38.159  31.932  29.132  1.00  0.00    -0.203 F 
ATOM     67  C   UNL A   1      36.948  31.932  31.151  1.00  0.00     0.198 A 
ATOM     68  C   UNL A   1      37.882  30.906  33.110  1.00  0.00     0.198 A 
ATOM     69  F   UNL A   1      40.024  29.938  33.028  1.00  0.00    -0.203 F 
ATOM     70  F   UNL A   1      35.959  32.611  30.556  1.00  0.00    -0.200 F 
ATOM     71  C   UNL A   1      36.843  31.583  32.489  1.00  0.00     0.200 A 
ATOM     72  F   UNL A   1      37.778  30.558  34.401  1.00  0.00    -0.200 F 
ATOM     73  F   UNL A   1      35.743  31.905  33.182  1.00  0.00    -0.200 F 
ENDBRANCH  49  63
BRANCH  50  74
ATOM     74  C   UNL A   1      47.122  27.635  25.987  1.00  0.00     0.064 A 
ATOM     75  C   UNL A   1      48.241  27.130  26.664  1.00  0.00     0.173 A 
ATOM     76  C   UNL A   1      47.179  27.689  24.586  1.00  0.00     0.173 A 
ATOM     77  F   UNL A   1      48.248  27.087  28.004  1.00  0.00    -0.203 F 
ATOM     78  C   UNL A   1      49.372  26.706  25.971  1.00  0.00     0.198 A 
ATOM     79  C   UNL A   1      48.299  27.236  23.892  1.00  0.00     0.198 A 
ATOM     80  F   UNL A   1      46.140  28.174  23.889  1.00  0.00    -0.203 F 
ATOM     81  F   UNL A   1      50.444  26.268  26.646  1.00  0.00    -0.200 F 
ATOM     82  C   UNL A   1      49.397  26.751  24.585  1.00  0.00     0.200 A 
ATOM     83  F   UNL A   1      48.315  27.272  22.553  1.00  0.00    -0.200 F 
ATOM     84  F   UNL A   1      50.482  26.333  23.918  1.00  0.00    -0.200 F 
ENDBRANCH  50  74
BRANCH  62  85
ATOM     85  C   UNL A   1      45.436  33.739  28.914  1.00  0.00     0.064 A 
ATOM     86  C   UNL A   1      45.258  34.758  27.966  1.00  0.00     0.173 A 
ATOM     87  C   UNL A   1      46.293  33.996  29.996  1.00  0.00     0.173 A 
ATOM     88  F   UNL A   1      44.459  34.562  26.907  1.00  0.00    -0.203 F 
ATOM     89  C   UNL A   1      45.937  35.969  28.078  1.00  0.00     0.198 A 
ATOM     90  C   UNL A   1      46.940  35.222  30.126  1.00  0.00     0.198 A 
ATOM     91  F   UNL A   1      46.490  33.062  30.940  1.00  0.00    -0.203 F 
ATOM     92  F   UNL A   1      45.796  36.904  27.128  1.00  0.00    -0.200 F 
ATOM     93  C   UNL A   1      46.771  36.202  29.161  1.00  0.00     0.200 A 
ATOM     94  F   UNL A   1      47.731  35.452  31.184  1.00  0.00    -0.200 F 
ATOM     95  F   UNL A   1      47.418  37.371  29.271  1.00  0.00    -0.200 F 
ENDBRANCH  62  85
ENDBRANCH  36  37
ENDBRANCH  29  31
ENDBRANCH  28  29
ENDBRANCH  27  28
ENDBRANCH  26  27
ENDBRANCH  25  26
ENDBRANCH   1  25
TORSDOF 18
ENDMDL
MODEL 2
REMARK VINA RESULT:     -11.5      4.560      8.872
REMARK SMILES Cc1cc(Cl)c2c(c1)C=C(C(=O)OCCOCCOCCOC(=O)c1ccc(-c3c4nc(c(-c5c(F)c(F)c(F)c(F)c5F)c5ccc([nH]5)c(-c5c(F)c(F)c(F)c(F)c5F)c5nc(c(-c6c(F)c(F)c(F)c(F)c6F)c6ccc3[nH]6)C=C5)C=C4)cc1)[C@@H](C(F)(F)F)O2
REMARK SMILES IDX 18 1 17 2 16 3 15 4 14 5 13 6 11 7 12 8 10 9 1 10 2 11 3 12
REMARK SMILES IDX 8 13 4 14 7 15 5 16 6 17 9 18 93 19 88 20 89 21 90 22 91 23
REMARK SMILES IDX 92 24 19 25 20 26 21 27 22 28 23 29 24 30 25 31 26 32 87 33
REMARK SMILES IDX 27 34 86 35 28 36 29 37 30 38 80 39 31 40 85 41 79 42 81 43
REMARK SMILES IDX 32 44 84 45 78 46 77 47 33 49 65 50 45 51 64 52 46 53 49 54
REMARK SMILES IDX 63 55 82 56 47 57 48 58 62 60 83 61 50 62 34 63 35 64 43 65
REMARK SMILES IDX 36 66 37 67 41 68 44 69 38 70 39 71 42 72 40 73 66 74 67 75
REMARK SMILES IDX 75 76 68 77 69 78 73 79 76 80 70 81 71 82 74 83 72 84 51 85
REMARK SMILES IDX 52 86 60 87 53 88 54 89 58 90 61 91 55 92 56 93 59 94 57 95
REMARK H PARENT 81 48 49 59
REMARK Flexibility Score: inf
ROOT
ATOM      1  C   UNL A   1      41.005  21.016  27.581  1.00  0.00     0.188 C 
ENDROOT
BRANCH   1   2
ATOM      2  C   UNL A   1      40.172  21.668  26.457  1.00  0.00     0.188 C 
BRANCH   2   3
ATOM      3  O   UNL A   1      39.083  20.973  25.871  1.00  0.00    -0.376 OA
BRANCH   3   4
ATOM      4  C   UNL A   1      37.981  21.686  25.329  1.00  0.00     0.202 C 
BRANCH   4   5
ATOM      5  C   UNL A   1      36.542  21.172  25.491  1.00  0.00     0.261 C 
BRANCH   5   6
ATOM      6  O   UNL A   1      35.702  21.961  26.347  1.00  0.00    -0.460 OA
BRANCH   6   7
ATOM      7  C   UNL A   1      34.387  21.973  26.024  1.00  0.00     0.338 C 
ATOM      8  O   UNL A   1      33.493  21.349  26.572  1.00  0.00    -0.246 OA
BRANCH   7   9
ATOM      9  C   UNL A   1      34.140  22.997  24.987  1.00  0.00     0.087 C 
ATOM     10  C   UNL A   1      33.287  29.080  24.358  1.00  0.00     0.044 C 
ATOM     11  C   UNL A   1      33.390  27.646  23.927  1.00  0.00    -0.049 A 
ATOM     12  C   UNL A   1      33.052  27.284  22.618  1.00  0.00     0.028 A 
ATOM     13  C   UNL A   1      33.799  26.650  24.821  1.00  0.00     0.015 A 
ATOM     14  C   UNL A   1      33.141  25.950  22.208  1.00  0.00     0.084 A 
ATOM     15  C   UNL A   1      33.853  25.306  24.421  1.00  0.00     0.019 A 
ATOM     16  Cl  UNL A   1      32.703  25.567  20.581  1.00  0.00    -0.080 Cl
ATOM     17  C   UNL A   1      33.548  24.953  23.104  1.00  0.00     0.146 A 
ATOM     18  C   UNL A   1      34.163  24.272  25.394  1.00  0.00     0.027 C 
ATOM     19  O   UNL A   1      33.629  23.668  22.642  1.00  0.00    -0.474 OA
ATOM     20  C   UNL A   1      33.890  22.577  23.565  1.00  0.00     0.316 C 
BRANCH  20  21
ATOM     21  C   UNL A   1      32.744  21.561  23.452  1.00  0.00     0.430 C 
ATOM     22  F   UNL A   1      31.742  21.848  24.316  1.00  0.00    -0.167 F 
ATOM     23  F   UNL A   1      32.199  21.558  22.214  1.00  0.00    -0.167 F 
ATOM     24  F   UNL A   1      33.162  20.302  23.713  1.00  0.00    -0.167 F 
ENDBRANCH  20  21
ENDBRANCH   7   9
ENDBRANCH   6   7
ENDBRANCH   5   6
ENDBRANCH   4   5
ENDBRANCH   3   4
ENDBRANCH   2   3
ENDBRANCH   1   2
BRANCH   1  25
ATOM     25  O   UNL A   1      42.361  20.796  27.290  1.00  0.00    -0.376 OA
BRANCH  25  26
ATOM     26  C   UNL A   1      42.809  20.791  25.945  1.00  0.00     0.202 C 
BRANCH  26  27
ATOM     27  C   UNL A   1      43.607  21.916  25.248  1.00  0.00     0.261 C 
BRANCH  27  28
ATOM     28  O   UNL A   1      42.955  23.162  24.987  1.00  0.00    -0.460 OA
BRANCH  28  29
ATOM     29  C   UNL A   1      43.711  24.276  25.142  1.00  0.00     0.338 C 
ATOM     30  O   UNL A   1      44.735  24.566  24.555  1.00  0.00    -0.246 OA
BRANCH  29  31
ATOM     31  C   UNL A   1      42.982  25.212  26.022  1.00  0.00     0.060 A 
ATOM     32  C   UNL A   1      43.266  26.583  25.932  1.00  0.00     0.016 A 
ATOM     33  C   UNL A   1      42.049  24.739  26.945  1.00  0.00     0.016 A 
ATOM     34  C   UNL A   1      42.637  27.486  26.789  1.00  0.00     0.010 A 
ATOM     35  C   UNL A   1      41.445  25.640  27.826  1.00  0.00     0.010 A 
ATOM     36  C   UNL A   1      41.763  27.010  27.774  1.00  0.00    -0.014 A 
BRANCH  36  37
ATOM     37  C   UNL A   1      41.370  27.891  28.899  1.00  0.00     0.031 A 
ATOM     38  C   UNL A   1      42.179  27.819  30.164  1.00  0.00     0.074 A 
ATOM     39  C   UNL A   1      40.332  28.741  28.806  1.00  0.00     0.049 A 
ATOM     40  N   UNL A   1      41.969  28.388  31.323  1.00  0.00    -0.248 NA
ATOM     41  C   UNL A   1      43.395  26.991  30.111  1.00  0.00     0.031 C 
ATOM     42  C   UNL A   1      39.520  28.959  27.614  1.00  0.00     0.029 A 
ATOM     43  N   UNL A   1      39.781  29.571  29.751  1.00  0.00    -0.354 N 
ATOM     44  C   UNL A   1      43.018  27.979  32.136  1.00  0.00     0.074 A 
ATOM     45  C   UNL A   1      43.851  27.097  31.349  1.00  0.00     0.031 C 
ATOM     46  C   UNL A   1      38.559  29.855  27.902  1.00  0.00     0.029 A 
ATOM     47  C   UNL A   1      38.664  30.235  29.311  1.00  0.00     0.049 A 
ATOM     48  H   UNL A   1      40.153  29.681  30.656  1.00  0.00     0.167 HD
ATOM     49  C   UNL A   1      43.266  28.315  33.423  1.00  0.00     0.037 A 
ATOM     50  C   UNL A   1      37.807  31.031  29.983  1.00  0.00     0.037 A 
ATOM     51  C   UNL A   1      42.429  29.182  34.209  1.00  0.00     0.049 A 
ATOM     52  C   UNL A   1      38.044  31.303  31.449  1.00  0.00     0.074 A 
ATOM     53  C   UNL A   1      42.584  29.571  35.526  1.00  0.00     0.029 A 
ATOM     54  N   UNL A   1      41.272  29.794  33.745  1.00  0.00    -0.354 N 
ATOM     55  N   UNL A   1      39.024  30.900  32.221  1.00  0.00    -0.248 NA
ATOM     56  C   UNL A   1      37.049  32.139  32.136  1.00  0.00     0.031 C 
ATOM     57  C   UNL A   1      41.495  30.374  35.877  1.00  0.00     0.029 A 
ATOM     58  C   UNL A   1      40.693  30.539  34.758  1.00  0.00     0.049 A 
ATOM     59  H   UNL A   1      40.917  29.711  32.830  1.00  0.00     0.167 HD
ATOM     60  C   UNL A   1      38.778  31.450  33.474  1.00  0.00     0.074 A 
ATOM     61  C   UNL A   1      37.568  32.236  33.351  1.00  0.00     0.031 C 
ATOM     62  C   UNL A   1      39.487  31.314  34.623  1.00  0.00     0.037 A 
BRANCH  49  63
ATOM     63  C   UNL A   1      44.480  27.720  34.074  1.00  0.00     0.064 A 
ATOM     64  C   UNL A   1      44.438  26.466  34.703  1.00  0.00     0.173 A 
ATOM     65  C   UNL A   1      45.712  28.390  34.028  1.00  0.00     0.173 A 
ATOM     66  F   UNL A   1      43.280  25.794  34.792  1.00  0.00    -0.203 F 
ATOM     67  C   UNL A   1      45.582  25.911  35.272  1.00  0.00     0.198 A 
ATOM     68  C   UNL A   1      46.859  27.819  34.570  1.00  0.00     0.198 A 
ATOM     69  F   UNL A   1      45.806  29.593  33.442  1.00  0.00    -0.203 F 
ATOM     70  F   UNL A   1      45.509  24.730  35.900  1.00  0.00    -0.200 F 
ATOM     71  C   UNL A   1      46.793  26.582  35.195  1.00  0.00     0.200 A 
ATOM     72  F   UNL A   1      48.031  28.464  34.485  1.00  0.00    -0.200 F 
ATOM     73  F   UNL A   1      47.896  26.040  35.728  1.00  0.00    -0.200 F 
ENDBRANCH  49  63
BRANCH  50  74
ATOM     74  C   UNL A   1      36.636  31.622  29.282  1.00  0.00     0.064 A 
ATOM     75  C   UNL A   1      36.585  32.994  28.998  1.00  0.00     0.173 A 
ATOM     76  C   UNL A   1      35.541  30.836  28.895  1.00  0.00     0.173 A 
ATOM     77  F   UNL A   1      37.593  33.794  29.377  1.00  0.00    -0.203 F 
ATOM     78  C   UNL A   1      35.481  33.558  28.362  1.00  0.00     0.198 A 
ATOM     79  C   UNL A   1      34.451  31.395  28.232  1.00  0.00     0.198 A 
ATOM     80  F   UNL A   1      35.533  29.520  29.153  1.00  0.00    -0.203 F 
ATOM     81  F   UNL A   1      35.440  34.879  28.142  1.00  0.00    -0.200 F 
ATOM     82  C   UNL A   1      34.419  32.757  27.971  1.00  0.00     0.200 A 
ATOM     83  F   UNL A   1      33.431  30.616  27.847  1.00  0.00    -0.200 F 
ATOM     84  F   UNL A   1      33.362  33.298  27.350  1.00  0.00    -0.200 F 
ENDBRANCH  50  74
BRANCH  62  85
ATOM     85  C   UNL A   1      38.986  32.049  35.837  1.00  0.00     0.064 A 
ATOM     86  C   UNL A   1      38.191  31.417  36.806  1.00  0.00     0.173 A 
ATOM     87  C   UNL A   1      39.337  33.391  36.053  1.00  0.00     0.173 A 
ATOM     88  F   UNL A   1      37.820  30.139  36.644  1.00  0.00    -0.203 F 
ATOM     89  C   UNL A   1      37.739  32.111  37.926  1.00  0.00     0.198 A 
ATOM     90  C   UNL A   1      38.914  34.070  37.193  1.00  0.00     0.198 A 
ATOM     91  F   UNL A   1      40.106  34.041  35.166  1.00  0.00    -0.203 F 
ATOM     92  F   UNL A   1      36.932  31.503  38.807  1.00  0.00    -0.200 F 
ATOM     93  C   UNL A   1      38.106  33.434  38.122  1.00  0.00     0.200 A 
ATOM     94  F   UNL A   1      39.286  35.343  37.389  1.00  0.00    -0.200 F 
ATOM     95  F   UNL A   1      37.674  34.098  39.203  1.00  0.00    -0.200 F 
ENDBRANCH  62  85
ENDBRANCH  36  37
ENDBRANCH  29  31
ENDBRANCH  28  29
ENDBRANCH  27  28
ENDBRANCH  26  27
ENDBRANCH  25  26
ENDBRANCH   1  25
TORSDOF 18
ENDMDL
MODEL 3
REMARK VINA RESULT:     -11.2      2.328      3.564
REMARK SMILES Cc1cc(Cl)c2c(c1)C=C(C(=O)OCCOCCOCCOC(=O)c1ccc(-c3c4nc(c(-c5c(F)c(F)c(F)c(F)c5F)c5ccc([nH]5)c(-c5c(F)c(F)c(F)c(F)c5F)c5nc(c(-c6c(F)c(F)c(F)c(F)c6F)c6ccc3[nH]6)C=C5)C=C4)cc1)[C@@H](C(F)(F)F)O2
REMARK SMILES IDX 18 1 17 2 16 3 15 4 14 5 13 6 11 7 12 8 10 9 1 10 2 11 3 12
REMARK SMILES IDX 8 13 4 14 7 15 5 16 6 17 9 18 93 19 88 20 89 21 90 22 91 23
REMARK SMILES IDX 92 24 19 25 20 26 21 27 22 28 23 29 24 30 25 31 26 32 87 33
REMARK SMILES IDX 27 34 86 35 28 36 29 37 30 38 80 39 31 40 85 41 79 42 81 43
REMARK SMILES IDX 32 44 84 45 78 46 77 47 33 49 65 50 45 51 64 52 46 53 49 54
REMARK SMILES IDX 63 55 82 56 47 57 48 58 62 60 83 61 50 62 34 63 35 64 43 65
REMARK SMILES IDX 36 66 37 67 41 68 44 69 38 70 39 71 42 72 40 73 66 74 67 75
REMARK SMILES IDX 75 76 68 77 69 78 73 79 76 80 70 81 71 82 74 83 72 84 51 85
REMARK SMILES IDX 52 86 60 87 53 88 54 89 58 90 61 91 55 92 56 93 59 94 57 95
REMARK H PARENT 81 48 49 59
REMARK Flexibility Score: inf
ROOT
ATOM      1  C   UNL A   1      36.072  22.208  24.360  1.00  0.00     0.188 C 
ENDROOT
BRANCH   1   2
ATOM      2  C   UNL A   1      34.846  21.382  24.805  1.00  0.00     0.188 C 
BRANCH   2   3
ATOM      3  O   UNL A   1      33.754  21.180  23.924  1.00  0.00    -0.376 OA
BRANCH   3   4
ATOM      4  C   UNL A   1      32.484  20.793  24.427  1.00  0.00     0.202 C 
BRANCH   4   5
ATOM      5  C   UNL A   1      31.836  21.533  25.608  1.00  0.00     0.261 C 
BRANCH   5   6
ATOM      6  O   UNL A   1      31.057  22.686  25.256  1.00  0.00    -0.460 OA
BRANCH   6   7
ATOM      7  C   UNL A   1      30.735  23.509  26.281  1.00  0.00     0.338 C 
ATOM      8  O   UNL A   1      30.449  23.182  27.421  1.00  0.00    -0.246 OA
BRANCH   7   9
ATOM      9  C   UNL A   1      30.935  24.915  25.869  1.00  0.00     0.087 C 
ATOM     10  C   UNL A   1      28.440  29.251  22.249  1.00  0.00     0.044 C 
ATOM     11  C   UNL A   1      29.433  28.644  23.197  1.00  0.00    -0.049 A 
ATOM     12  C   UNL A   1      30.614  29.329  23.505  1.00  0.00     0.028 A 
ATOM     13  C   UNL A   1      29.211  27.386  23.768  1.00  0.00     0.015 A 
ATOM     14  C   UNL A   1      31.546  28.771  24.385  1.00  0.00     0.084 A 
ATOM     15  C   UNL A   1      30.163  26.808  24.622  1.00  0.00     0.019 A 
ATOM     16  Cl  UNL A   1      32.988  29.662  24.719  1.00  0.00    -0.080 Cl
ATOM     17  C   UNL A   1      31.325  27.510  24.954  1.00  0.00     0.146 A 
ATOM     18  C   UNL A   1      29.971  25.453  25.110  1.00  0.00     0.027 C 
ATOM     19  O   UNL A   1      32.265  27.021  25.818  1.00  0.00    -0.474 OA
ATOM     20  C   UNL A   1      32.164  25.658  26.311  1.00  0.00     0.316 C 
BRANCH  20  21
ATOM     21  C   UNL A   1      33.456  24.913  25.946  1.00  0.00     0.430 C 
ATOM     22  F   UNL A   1      33.374  24.355  24.715  1.00  0.00    -0.167 F 
ATOM     23  F   UNL A   1      34.524  25.744  25.924  1.00  0.00    -0.167 F 
ATOM     24  F   UNL A   1      33.731  23.923  26.826  1.00  0.00    -0.167 F 
ENDBRANCH  20  21
ENDBRANCH   7   9
ENDBRANCH   6   7
ENDBRANCH   5   6
ENDBRANCH   4   5
ENDBRANCH   3   4
ENDBRANCH   2   3
ENDBRANCH   1   2
BRANCH   1  25
ATOM     25  O   UNL A   1      37.273  21.495  24.221  1.00  0.00    -0.376 OA
BRANCH  25  26
ATOM     26  C   UNL A   1      37.503  20.329  24.994  1.00  0.00     0.202 C 
BRANCH  26  27
ATOM     27  C   UNL A   1      38.874  19.665  25.253  1.00  0.00     0.261 C 
BRANCH  27  28
ATOM     28  O   UNL A   1      39.762  20.267  26.199  1.00  0.00    -0.460 OA
BRANCH  28  29
ATOM     29  C   UNL A   1      41.056  19.867  26.145  1.00  0.00     0.338 C 
ATOM     30  O   UNL A   1      41.489  18.812  25.723  1.00  0.00    -0.246 OA
BRANCH  29  31
ATOM     31  C   UNL A   1      41.913  21.014  26.507  1.00  0.00     0.060 A 
ATOM     32  C   UNL A   1      42.144  21.282  27.864  1.00  0.00     0.016 A 
ATOM     33  C   UNL A   1      42.458  21.834  25.519  1.00  0.00     0.016 A 
ATOM     34  C   UNL A   1      42.900  22.391  28.240  1.00  0.00     0.010 A 
ATOM     35  C   UNL A   1      43.186  22.964  25.896  1.00  0.00     0.010 A 
ATOM     36  C   UNL A   1      43.380  23.265  27.258  1.00  0.00    -0.014 A 
BRANCH  36  37
ATOM     37  C   UNL A   1      43.868  24.612  27.643  1.00  0.00     0.031 A 
ATOM     38  C   UNL A   1      42.847  25.644  28.032  1.00  0.00     0.074 A 
ATOM     39  C   UNL A   1      45.178  24.914  27.658  1.00  0.00     0.049 A 
ATOM     40  N   UNL A   1      43.003  26.917  28.286  1.00  0.00    -0.248 NA
ATOM     41  C   UNL A   1      41.458  25.171  28.152  1.00  0.00     0.031 C 
ATOM     42  C   UNL A   1      46.266  23.983  27.376  1.00  0.00     0.029 A 
ATOM     43  N   UNL A   1      45.807  26.107  27.913  1.00  0.00    -0.354 N 
ATOM     44  C   UNL A   1      41.735  27.397  28.586  1.00  0.00     0.074 A 
ATOM     45  C   UNL A   1      40.817  26.287  28.460  1.00  0.00     0.031 C 
ATOM     46  C   UNL A   1      47.434  24.645  27.457  1.00  0.00     0.029 A 
ATOM     47  C   UNL A   1      47.169  26.054  27.751  1.00  0.00     0.049 A 
ATOM     48  H   UNL A   1      45.328  26.923  28.187  1.00  0.00     0.167 HD
ATOM     49  C   UNL A   1      41.370  28.651  28.941  1.00  0.00     0.037 A 
ATOM     50  C   UNL A   1      48.088  27.039  27.801  1.00  0.00     0.037 A 
ATOM     51  C   UNL A   1      42.284  29.757  29.053  1.00  0.00     0.049 A 
ATOM     52  C   UNL A   1      47.642  28.453  28.090  1.00  0.00     0.074 A 
ATOM     53  C   UNL A   1      42.012  31.070  29.389  1.00  0.00     0.029 A 
ATOM     54  N   UNL A   1      43.651  29.677  28.827  1.00  0.00    -0.354 N 
ATOM     55  N   UNL A   1      46.441  28.908  28.353  1.00  0.00    -0.248 NA
ATOM     56  C   UNL A   1      48.685  29.489  28.083  1.00  0.00     0.031 C 
ATOM     57  C   UNL A   1      43.204  31.797  29.315  1.00  0.00     0.029 A 
ATOM     58  C   UNL A   1      44.232  30.923  28.995  1.00  0.00     0.049 A 
ATOM     59  H   UNL A   1      44.136  28.855  28.584  1.00  0.00     0.167 HD
ATOM     60  C   UNL A   1      46.586  30.274  28.566  1.00  0.00     0.074 A 
ATOM     61  C   UNL A   1      47.997  30.568  28.425  1.00  0.00     0.031 C 
ATOM     62  C   UNL A   1      45.637  31.202  28.848  1.00  0.00     0.037 A 
BRANCH  49  63
ATOM     63  C   UNL A   1      39.915  28.902  29.207  1.00  0.00     0.064 A 
ATOM     64  C   UNL A   1      39.035  29.284  28.183  1.00  0.00     0.173 A 
ATOM     65  C   UNL A   1      39.385  28.713  30.492  1.00  0.00     0.173 A 
ATOM     66  F   UNL A   1      39.497  29.499  26.942  1.00  0.00    -0.203 F 
ATOM     67  C   UNL A   1      37.680  29.480  28.439  1.00  0.00     0.198 A 
ATOM     68  C   UNL A   1      38.025  28.879  30.737  1.00  0.00     0.198 A 
ATOM     69  F   UNL A   1      40.184  28.351  31.507  1.00  0.00    -0.203 F 
ATOM     70  F   UNL A   1      36.866  29.882  27.454  1.00  0.00    -0.200 F 
ATOM     71  C   UNL A   1      37.175  29.266  29.712  1.00  0.00     0.200 A 
ATOM     72  F   UNL A   1      37.536  28.661  31.966  1.00  0.00    -0.200 F 
ATOM     73  F   UNL A   1      35.868  29.438  29.953  1.00  0.00    -0.200 F 
ENDBRANCH  49  63
BRANCH  50  74
ATOM     74  C   UNL A   1      49.522  26.731  27.561  1.00  0.00     0.064 A 
ATOM     75  C   UNL A   1      50.391  26.473  28.630  1.00  0.00     0.173 A 
ATOM     76  C   UNL A   1      50.059  26.702  26.265  1.00  0.00     0.173 A 
ATOM     77  F   UNL A   1      49.934  26.521  29.890  1.00  0.00    -0.203 F 
ATOM     78  C   UNL A   1      51.741  26.206  28.414  1.00  0.00     0.198 A 
ATOM     79  C   UNL A   1      51.402  26.404  26.047  1.00  0.00     0.198 A 
ATOM     80  F   UNL A   1      49.274  26.953  25.206  1.00  0.00    -0.203 F 
ATOM     81  F   UNL A   1      52.557  26.005  29.457  1.00  0.00    -0.200 F 
ATOM     82  C   UNL A   1      52.244  26.163  27.122  1.00  0.00     0.200 A 
ATOM     83  F   UNL A   1      51.882  26.354  24.797  1.00  0.00    -0.200 F 
ATOM     84  F   UNL A   1      53.540  25.895  26.914  1.00  0.00    -0.200 F 
ENDBRANCH  50  74
BRANCH  62  85
ATOM     85  C   UNL A   1      46.094  32.622  29.047  1.00  0.00     0.064 A 
ATOM     86  C   UNL A   1      46.500  33.097  30.304  1.00  0.00     0.173 A 
ATOM     87  C   UNL A   1      46.162  33.508  27.960  1.00  0.00     0.173 A 
ATOM     88  F   UNL A   1      46.446  32.295  31.377  1.00  0.00    -0.203 F 
ATOM     89  C   UNL A   1      46.923  34.414  30.470  1.00  0.00     0.198 A 
ATOM     90  C   UNL A   1      46.621  34.812  28.124  1.00  0.00     0.198 A 
ATOM     91  F   UNL A   1      45.799  33.104  26.733  1.00  0.00    -0.203 F 
ATOM     92  F   UNL A   1      47.250  34.860  31.691  1.00  0.00    -0.200 F 
ATOM     93  C   UNL A   1      46.990  35.268  29.379  1.00  0.00     0.200 A 
ATOM     94  F   UNL A   1      46.703  35.630  27.064  1.00  0.00    -0.200 F 
ATOM     95  F   UNL A   1      47.403  36.532  29.541  1.00  0.00    -0.200 F 
ENDBRANCH  62  85
ENDBRANCH  36  37
ENDBRANCH  29  31
ENDBRANCH  28  29
ENDBRANCH  27  28
ENDBRANCH  26  27
ENDBRANCH  25  26
ENDBRANCH   1  25
TORSDOF 18
ENDMDL
