MODEL 1
REMARK VINA RESULT:     -14.6      0.000      0.000
REMARK SMILES Cc1ccn2c([C@@H]3CCCC[C@@H]3C(=O)OCCOCCOCCOC(=O)c3ccc(-c4c5nc(c(-c6c(F)c(F)c(F)c(F)c6F)c6ccc([nH]6)c(-c6c(F)c(F)c(F)c(F)c6F)c6nc(c(-c7c(F)c(F)c(F)c(F)c7F)c7ccc4[nH]7)C=C6)C=C5)cc3)nnc2c1
REMARK SMILES IDX 20 1 19 2 18 3 17 4 16 5 15 6 13 7 14 8 12 9 7 10 8 11 9 12
REMARK SMILES IDX 11 13 10 14 6 15 1 16 2 17 3 18 93 19 4 20 92 21 5 22 91 23
REMARK SMILES IDX 90 24 21 25 22 26 23 27 24 28 25 29 26 30 27 31 28 32 89 33
REMARK SMILES IDX 29 34 88 35 30 36 31 37 32 38 82 39 33 40 87 41 81 42 83 43
REMARK SMILES IDX 34 44 86 45 80 46 79 47 35 49 67 50 47 51 66 52 48 53 51 54
REMARK SMILES IDX 65 55 84 56 49 57 50 58 64 60 85 61 52 62 36 63 37 64 45 65
REMARK SMILES IDX 38 66 39 67 43 68 46 69 40 70 41 71 44 72 42 73 68 74 69 75
REMARK SMILES IDX 77 76 70 77 71 78 75 79 78 80 72 81 73 82 76 83 74 84 53 85
REMARK SMILES IDX 54 86 62 87 55 88 56 89 60 90 63 91 57 92 58 93 61 94 59 95
REMARK H PARENT 83 48 51 59
REMARK Flexibility Score: inf
ROOT
ATOM      1  C   UNL A   1      31.703  27.393  26.982  1.00  0.00     0.188 C 
ENDROOT
BRANCH   1   2
ATOM      2  C   UNL A   1      31.034  25.515  26.627  1.00  0.00     0.188 C 
BRANCH   2   3
ATOM      3  O   UNL A   1      31.800  24.128  26.550  1.00  0.00    -0.376 OA
BRANCH   3   4
ATOM      4  C   UNL A   1      33.271  23.869  26.630  1.00  0.00     0.202 C 
BRANCH   4   5
ATOM      5  C   UNL A   1      34.370  24.065  25.489  1.00  0.00     0.261 C 
BRANCH   5   6
ATOM      6  O   UNL A   1      33.918  24.926  24.456  1.00  0.00    -0.463 OA
BRANCH   6   7
ATOM      7  C   UNL A   1      34.304  24.468  23.256  1.00  0.00     0.309 C 
ATOM      8  O   UNL A   1      35.394  23.951  23.047  1.00  0.00    -0.252 OA
BRANCH   7   9
ATOM      9  C   UNL A   1      33.206  24.563  22.250  1.00  0.00     0.110 C 
ATOM     10  C   UNL A   1      31.932  25.231  22.720  1.00  0.00     0.072 C 
ATOM     11  C   UNL A   1      30.819  24.221  23.169  1.00  0.00     0.012 C 
ATOM     12  C   UNL A   1      31.186  22.719  23.454  1.00  0.00     0.001 C 
ATOM     13  C   UNL A   1      32.943  23.114  21.819  1.00  0.00     0.016 C 
ATOM     14  C   UNL A   1      32.480  22.207  22.928  1.00  0.00     0.001 C 
BRANCH  10  15
ATOM     15  C   UNL A   1      31.862  26.705  23.135  1.00  0.00     0.141 A 
ATOM     16  C   UNL A   1      27.854  30.766  23.434  1.00  0.00     0.044 C 
ATOM     17  C   UNL A   1      28.501  29.706  22.481  1.00  0.00    -0.046 A 
ATOM     18  C   UNL A   1      27.856  28.044  22.985  1.00  0.00     0.022 A 
ATOM     19  C   UNL A   1      29.921  29.935  22.341  1.00  0.00     0.053 A 
ATOM     20  C   UNL A   1      29.000  26.957  23.877  1.00  0.00     0.095 A 
ATOM     21  C   UNL A   1      31.091  28.911  22.865  1.00  0.00     0.161 A 
ATOM     22  N   UNL A   1      30.761  27.445  23.681  1.00  0.00    -0.286 N 
ATOM     23  N   UNL A   1      32.321  28.813  22.411  1.00  0.00    -0.130 NA
ATOM     24  N   UNL A   1      32.770  27.536  22.610  1.00  0.00    -0.134 NA
ENDBRANCH  10  15
ENDBRANCH   7   9
ENDBRANCH   6   7
ENDBRANCH   5   6
ENDBRANCH   4   5
ENDBRANCH   3   4
ENDBRANCH   2   3
ENDBRANCH   1   2
BRANCH   1  25
ATOM     25  O   UNL A   1      33.744  27.602  26.539  1.00  0.00    -0.376 OA
BRANCH  25  26
ATOM     26  C   UNL A   1      34.430  29.330  27.105  1.00  0.00     0.202 C 
BRANCH  26  27
ATOM     27  C   UNL A   1      33.119  30.811  27.164  1.00  0.00     0.261 C 
BRANCH  27  28
ATOM     28  O   UNL A   1      33.479  32.513  27.759  1.00  0.00    -0.460 OA
BRANCH  28  29
ATOM     29  C   UNL A   1      34.517  33.354  28.451  1.00  0.00     0.338 C 
ATOM     30  O   UNL A   1      34.302  34.556  28.608  1.00  0.00    -0.246 OA
BRANCH  29  31
ATOM     31  C   UNL A   1      35.854  32.715  29.397  1.00  0.00     0.060 A 
ATOM     32  C   UNL A   1      37.210  33.066  29.309  1.00  0.00     0.016 A 
ATOM     33  C   UNL A   1      35.724  31.573  30.273  1.00  0.00     0.016 A 
ATOM     34  C   UNL A   1      38.306  32.143  29.744  1.00  0.00     0.010 A 
ATOM     35  C   UNL A   1      36.825  30.628  30.678  1.00  0.00     0.010 A 
ATOM     36  C   UNL A   1      38.139  30.782  30.239  1.00  0.00    -0.014 A 
BRANCH  36  37
ATOM     37  C   UNL A   1      39.430  29.633  30.167  1.00  0.00     0.031 A 
ATOM     38  C   UNL A   1      40.018  29.757  31.512  1.00  0.00     0.074 A 
ATOM     39  C   UNL A   1      40.155  28.786  29.245  1.00  0.00     0.049 A 
ATOM     40  N   UNL A   1      41.099  30.388  31.819  1.00  0.00    -0.248 NA
ATOM     41  C   UNL A   1      39.160  29.421  32.656  1.00  0.00     0.031 C 
ATOM     42  C   UNL A   1      39.782  28.381  27.883  1.00  0.00     0.029 A 
ATOM     43  N   UNL A   1      41.487  28.179  29.189  1.00  0.00    -0.354 N 
ATOM     44  C   UNL A   1      41.202  30.244  33.195  1.00  0.00     0.074 A 
ATOM     45  C   UNL A   1      39.901  29.860  33.674  1.00  0.00     0.031 C 
ATOM     46  C   UNL A   1      40.565  27.506  27.235  1.00  0.00     0.029 A 
ATOM     47  C   UNL A   1      41.701  27.260  28.054  1.00  0.00     0.049 A 
ATOM     48  H   UNL A   1      42.185  28.368  29.857  1.00  0.00     0.167 HD
ATOM     49  C   UNL A   1      42.432  30.009  33.714  1.00  0.00     0.037 A 
ATOM     50  C   UNL A   1      42.708  26.439  27.574  1.00  0.00     0.037 A 
ATOM     51  C   UNL A   1      43.458  30.545  32.855  1.00  0.00     0.049 A 
ATOM     52  C   UNL A   1      43.941  26.726  28.328  1.00  0.00     0.074 A 
ATOM     53  C   UNL A   1      43.879  31.814  32.518  1.00  0.00     0.029 A 
ATOM     54  N   UNL A   1      43.770  29.737  31.792  1.00  0.00    -0.354 N 
ATOM     55  N   UNL A   1      44.677  27.784  28.146  1.00  0.00    -0.248 NA
ATOM     56  C   UNL A   1      43.889  26.186  29.669  1.00  0.00     0.031 C 
ATOM     57  C   UNL A   1      44.390  31.733  31.187  1.00  0.00     0.029 A 
ATOM     58  C   UNL A   1      44.429  30.397  30.792  1.00  0.00     0.049 A 
ATOM     59  H   UNL A   1      43.542  28.780  31.754  1.00  0.00     0.167 HD
ATOM     60  C   UNL A   1      44.707  28.358  29.405  1.00  0.00     0.074 A 
ATOM     61  C   UNL A   1      44.230  27.304  30.310  1.00  0.00     0.031 C 
ATOM     62  C   UNL A   1      44.822  29.712  29.571  1.00  0.00     0.037 A 
BRANCH  49  63
ATOM     63  C   UNL A   1      42.649  28.831  34.630  1.00  0.00     0.064 A 
ATOM     64  C   UNL A   1      43.303  29.006  35.855  1.00  0.00     0.173 A 
ATOM     65  C   UNL A   1      42.437  27.487  34.233  1.00  0.00     0.173 A 
ATOM     66  F   UNL A   1      43.627  30.236  36.278  1.00  0.00    -0.203 F 
ATOM     67  C   UNL A   1      43.684  27.913  36.644  1.00  0.00     0.198 A 
ATOM     68  C   UNL A   1      42.762  26.404  35.044  1.00  0.00     0.198 A 
ATOM     69  F   UNL A   1      42.004  27.170  33.007  1.00  0.00    -0.203 F 
ATOM     70  F   UNL A   1      44.363  28.117  37.780  1.00  0.00    -0.200 F 
ATOM     71  C   UNL A   1      43.396  26.616  36.247  1.00  0.00     0.200 A 
ATOM     72  F   UNL A   1      42.506  25.157  34.620  1.00  0.00    -0.200 F 
ATOM     73  F   UNL A   1      43.767  25.572  37.000  1.00  0.00    -0.200 F 
ENDBRANCH  49  63
BRANCH  50  74
ATOM     74  C   UNL A   1      42.523  25.116  26.822  1.00  0.00     0.064 A 
ATOM     75  C   UNL A   1      43.125  24.791  25.578  1.00  0.00     0.173 A 
ATOM     76  C   UNL A   1      41.958  24.007  27.489  1.00  0.00     0.173 A 
ATOM     77  F   UNL A   1      43.688  25.741  24.815  1.00  0.00    -0.203 F 
ATOM     78  C   UNL A   1      43.223  23.454  25.118  1.00  0.00     0.198 A 
ATOM     79  C   UNL A   1      42.039  22.697  27.028  1.00  0.00     0.198 A 
ATOM     80  F   UNL A   1      41.387  24.123  28.688  1.00  0.00    -0.203 F 
ATOM     81  F   UNL A   1      43.877  23.168  23.981  1.00  0.00    -0.200 F 
ATOM     82  C   UNL A   1      42.703  22.408  25.863  1.00  0.00     0.200 A 
ATOM     83  F   UNL A   1      41.533  21.714  27.785  1.00  0.00    -0.200 F 
ATOM     84  F   UNL A   1      42.879  21.131  25.494  1.00  0.00    -0.200 F 
ENDBRANCH  50  74
BRANCH  62  85
ATOM     85  C   UNL A   1      45.347  30.552  28.427  1.00  0.00     0.064 A 
ATOM     86  C   UNL A   1      44.570  31.104  27.399  1.00  0.00     0.173 A 
ATOM     87  C   UNL A   1      46.702  30.919  28.442  1.00  0.00     0.173 A 
ATOM     88  F   UNL A   1      43.282  30.763  27.257  1.00  0.00    -0.203 F 
ATOM     89  C   UNL A   1      45.093  32.061  26.514  1.00  0.00     0.198 A 
ATOM     90  C   UNL A   1      47.229  31.852  27.550  1.00  0.00     0.198 A 
ATOM     91  F   UNL A   1      47.526  30.392  29.361  1.00  0.00    -0.203 F 
ATOM     92  F   UNL A   1      44.300  32.642  25.601  1.00  0.00    -0.200 F 
ATOM     93  C   UNL A   1      46.416  32.447  26.605  1.00  0.00     0.200 A 
ATOM     94  F   UNL A   1      48.522  32.190  27.630  1.00  0.00    -0.200 F 
ATOM     95  F   UNL A   1      46.909  33.384  25.782  1.00  0.00    -0.200 F 
ENDBRANCH  62  85
ENDBRANCH  36  37
ENDBRANCH  29  31
ENDBRANCH  28  29
ENDBRANCH  27  28
ENDBRANCH  26  27
ENDBRANCH  25  26
ENDBRANCH   1  25
TORSDOF 18
ENDMDL
MODEL 2
REMARK VINA RESULT:     -14.2      2.926      8.692
REMARK SMILES Cc1ccn2c([C@@H]3CCCC[C@@H]3C(=O)OCCOCCOCCOC(=O)c3ccc(-c4c5nc(c(-c6c(F)c(F)c(F)c(F)c6F)c6ccc([nH]6)c(-c6c(F)c(F)c(F)c(F)c6F)c6nc(c(-c7c(F)c(F)c(F)c(F)c7F)c7ccc4[nH]7)C=C6)C=C5)cc3)nnc2c1
REMARK SMILES IDX 20 1 19 2 18 3 17 4 16 5 15 6 13 7 14 8 12 9 7 10 8 11 9 12
REMARK SMILES IDX 11 13 10 14 6 15 1 16 2 17 3 18 93 19 4 20 92 21 5 22 91 23
REMARK SMILES IDX 90 24 21 25 22 26 23 27 24 28 25 29 26 30 27 31 28 32 89 33
REMARK SMILES IDX 29 34 88 35 30 36 31 37 32 38 82 39 33 40 87 41 81 42 83 43
REMARK SMILES IDX 34 44 86 45 80 46 79 47 35 49 67 50 47 51 66 52 48 53 51 54
REMARK SMILES IDX 65 55 84 56 49 57 50 58 64 60 85 61 52 62 36 63 37 64 45 65
REMARK SMILES IDX 38 66 39 67 43 68 46 69 40 70 41 71 44 72 42 73 68 74 69 75
REMARK SMILES IDX 77 76 70 77 71 78 75 79 78 80 72 81 73 82 76 83 74 84 53 85
REMARK SMILES IDX 54 86 62 87 55 88 56 89 60 90 63 91 57 92 58 93 61 94 59 95
REMARK H PARENT 83 48 51 59
REMARK Flexibility Score: inf
ROOT
ATOM      1  C   UNL A   1      32.595  19.065  24.102  1.00  0.00     0.188 C 
ENDROOT
BRANCH   1   2
ATOM      2  C   UNL A   1      32.510  20.610  22.795  1.00  0.00     0.188 C 
BRANCH   2   3
ATOM      3  O   UNL A   1      32.273  22.162  23.022  1.00  0.00    -0.376 OA
BRANCH   3   4
ATOM      4  C   UNL A   1      33.132  23.309  22.593  1.00  0.00     0.202 C 
BRANCH   4   5
ATOM      5  C   UNL A   1      32.810  24.424  21.497  1.00  0.00     0.261 C 
BRANCH   5   6
ATOM      6  O   UNL A   1      33.127  25.729  21.954  1.00  0.00    -0.463 OA
BRANCH   6   7
ATOM      7  C   UNL A   1      32.124  26.229  22.690  1.00  0.00     0.309 C 
ATOM      8  O   UNL A   1      30.988  25.773  22.685  1.00  0.00    -0.252 OA
BRANCH   7   9
ATOM      9  C   UNL A   1      32.591  27.325  23.589  1.00  0.00     0.110 C 
ATOM     10  C   UNL A   1      31.746  27.579  24.818  1.00  0.00     0.072 C 
ATOM     11  C   UNL A   1      30.732  28.764  24.651  1.00  0.00     0.012 C 
ATOM     12  C   UNL A   1      30.400  29.321  23.219  1.00  0.00     0.001 C 
ATOM     13  C   UNL A   1      32.651  28.569  22.693  1.00  0.00     0.016 C 
ATOM     14  C   UNL A   1      31.326  28.981  22.107  1.00  0.00     0.001 C 
BRANCH  10  15
ATOM     15  C   UNL A   1      31.567  26.551  25.940  1.00  0.00     0.141 A 
ATOM     16  C   UNL A   1      34.012  21.636  27.523  1.00  0.00     0.044 C 
ATOM     17  C   UNL A   1      33.352  22.379  26.314  1.00  0.00    -0.046 A 
ATOM     18  C   UNL A   1      34.586  23.606  25.679  1.00  0.00     0.022 A 
ATOM     19  C   UNL A   1      32.003  22.788  26.633  1.00  0.00     0.053 A 
ATOM     20  C   UNL A   1      34.278  25.351  26.059  1.00  0.00     0.095 A 
ATOM     21  C   UNL A   1      31.500  24.344  26.754  1.00  0.00     0.161 A 
ATOM     22  N   UNL A   1      32.538  25.687  26.547  1.00  0.00    -0.286 N 
ATOM     23  N   UNL A   1      30.274  24.797  26.599  1.00  0.00    -0.130 NA
ATOM     24  N   UNL A   1      30.329  26.092  26.163  1.00  0.00    -0.134 NA
ENDBRANCH  10  15
ENDBRANCH   7   9
ENDBRANCH   6   7
ENDBRANCH   5   6
ENDBRANCH   4   5
ENDBRANCH   3   4
ENDBRANCH   2   3
ENDBRANCH   1   2
BRANCH   1  25
ATOM     25  O   UNL A   1      34.566  18.441  24.461  1.00  0.00    -0.376 OA
BRANCH  25  26
ATOM     26  C   UNL A   1      35.712  19.930  24.959  1.00  0.00     0.202 C 
BRANCH  26  27
ATOM     27  C   UNL A   1      37.661  19.616  24.809  1.00  0.00     0.261 C 
BRANCH  27  28
ATOM     28  O   UNL A   1      38.958  20.671  25.575  1.00  0.00    -0.460 OA
BRANCH  28  29
ATOM     29  C   UNL A   1      40.299  20.629  26.254  1.00  0.00     0.338 C 
ATOM     30  O   UNL A   1      40.958  19.590  26.209  1.00  0.00    -0.246 OA
BRANCH  29  31
ATOM     31  C   UNL A   1      41.192  22.044  26.795  1.00  0.00     0.060 A 
ATOM     32  C   UNL A   1      41.440  22.448  28.116  1.00  0.00     0.016 A 
ATOM     33  C   UNL A   1      41.623  23.092  25.898  1.00  0.00     0.016 A 
ATOM     34  C   UNL A   1      41.726  23.873  28.478  1.00  0.00     0.010 A 
ATOM     35  C   UNL A   1      41.876  24.532  26.264  1.00  0.00     0.010 A 
ATOM     36  C   UNL A   1      41.726  25.008  27.565  1.00  0.00    -0.014 A 
BRANCH  36  37
ATOM     37  C   UNL A   1      41.497  26.624  28.138  1.00  0.00     0.031 A 
ATOM     38  C   UNL A   1      42.796  27.243  27.820  1.00  0.00     0.074 A 
ATOM     39  C   UNL A   1      40.587  27.445  28.908  1.00  0.00     0.049 A 
ATOM     40  N   UNL A   1      43.751  27.485  28.649  1.00  0.00    -0.248 NA
ATOM     41  C   UNL A   1      43.183  27.304  26.404  1.00  0.00     0.031 C 
ATOM     42  C   UNL A   1      39.198  27.163  29.293  1.00  0.00     0.029 A 
ATOM     43  N   UNL A   1      40.680  28.678  29.694  1.00  0.00    -0.354 N 
ATOM     44  C   UNL A   1      44.757  28.029  27.864  1.00  0.00     0.074 A 
ATOM     45  C   UNL A   1      44.458  27.683  26.501  1.00  0.00     0.031 C 
ATOM     46  C   UNL A   1      38.503  28.114  29.934  1.00  0.00     0.029 A 
ATOM     47  C   UNL A   1      39.390  29.194  30.191  1.00  0.00     0.049 A 
ATOM     48  H   UNL A   1      41.537  29.128  29.876  1.00  0.00     0.167 HD
ATOM     49  C   UNL A   1      45.456  29.075  28.370  1.00  0.00     0.037 A 
ATOM     50  C   UNL A   1      38.930  30.282  30.914  1.00  0.00     0.037 A 
ATOM     51  C   UNL A   1      45.453  29.040  29.811  1.00  0.00     0.049 A 
ATOM     52  C   UNL A   1      40.092  30.996  31.469  1.00  0.00     0.074 A 
ATOM     53  C   UNL A   1      46.035  28.232  30.765  1.00  0.00     0.029 A 
ATOM     54  N   UNL A   1      44.313  29.549  30.376  1.00  0.00    -0.354 N 
ATOM     55  N   UNL A   1      40.788  30.578  32.486  1.00  0.00    -0.248 NA
ATOM     56  C   UNL A   1      40.803  31.741  30.451  1.00  0.00     0.031 C 
ATOM     57  C   UNL A   1      45.156  28.234  31.890  1.00  0.00     0.029 A 
ATOM     58  C   UNL A   1      44.141  29.165  31.677  1.00  0.00     0.049 A 
ATOM     59  H   UNL A   1      43.682  30.132  29.894  1.00  0.00     0.167 HD
ATOM     60  C   UNL A   1      42.071  30.501  31.972  1.00  0.00     0.074 A 
ATOM     61  C   UNL A   1      42.019  31.267  30.719  1.00  0.00     0.031 C 
ATOM     62  C   UNL A   1      42.975  29.586  32.438  1.00  0.00     0.037 A 
BRANCH  49  63
ATOM     63  C   UNL A   1      45.588  30.348  27.571  1.00  0.00     0.064 A 
ATOM     64  C   UNL A   1      46.849  30.925  27.374  1.00  0.00     0.173 A 
ATOM     65  C   UNL A   1      44.481  31.146  27.188  1.00  0.00     0.173 A 
ATOM     66  F   UNL A   1      47.954  30.287  27.783  1.00  0.00    -0.203 F 
ATOM     67  C   UNL A   1      46.990  32.194  26.800  1.00  0.00     0.198 A 
ATOM     68  C   UNL A   1      44.624  32.380  26.564  1.00  0.00     0.198 A 
ATOM     69  F   UNL A   1      43.223  30.806  27.497  1.00  0.00    -0.203 F 
ATOM     70  F   UNL A   1      48.208  32.740  26.684  1.00  0.00    -0.200 F 
ATOM     71  C   UNL A   1      45.881  32.911  26.378  1.00  0.00     0.200 A 
ATOM     72  F   UNL A   1      43.533  33.070  26.199  1.00  0.00    -0.200 F 
ATOM     73  F   UNL A   1      46.018  34.128  25.835  1.00  0.00    -0.200 F 
ENDBRANCH  49  63
BRANCH  50  74
ATOM     74  C   UNL A   1      37.572  30.974  30.753  1.00  0.00     0.064 A 
ATOM     75  C   UNL A   1      36.644  31.210  31.801  1.00  0.00     0.173 A 
ATOM     76  C   UNL A   1      37.290  31.692  29.570  1.00  0.00     0.173 A 
ATOM     77  F   UNL A   1      36.765  30.585  32.983  1.00  0.00    -0.203 F 
ATOM     78  C   UNL A   1      35.598  32.159  31.679  1.00  0.00     0.198 A 
ATOM     79  C   UNL A   1      36.253  32.611  29.446  1.00  0.00     0.198 A 
ATOM     80  F   UNL A   1      38.081  31.622  28.499  1.00  0.00    -0.203 F 
ATOM     81  F   UNL A   1      34.792  32.425  32.719  1.00  0.00    -0.200 F 
ATOM     82  C   UNL A   1      35.427  32.877  30.508  1.00  0.00     0.200 A 
ATOM     83  F   UNL A   1      36.129  33.292  28.299  1.00  0.00    -0.200 F 
ATOM     84  F   UNL A   1      34.511  33.851  30.412  1.00  0.00    -0.200 F 
ENDBRANCH  50  74
BRANCH  62  85
ATOM     85  C   UNL A   1      42.745  28.946  33.790  1.00  0.00     0.064 A 
ATOM     86  C   UNL A   1      41.882  27.872  34.046  1.00  0.00     0.173 A 
ATOM     87  C   UNL A   1      43.539  29.371  34.867  1.00  0.00     0.173 A 
ATOM     88  F   UNL A   1      41.035  27.436  33.103  1.00  0.00    -0.203 F 
ATOM     89  C   UNL A   1      41.903  27.187  35.272  1.00  0.00     0.198 A 
ATOM     90  C   UNL A   1      43.545  28.706  36.093  1.00  0.00     0.198 A 
ATOM     91  F   UNL A   1      44.353  30.427  34.721  1.00  0.00    -0.203 F 
ATOM     92  F   UNL A   1      41.133  26.103  35.454  1.00  0.00    -0.200 F 
ATOM     93  C   UNL A   1      42.748  27.594  36.286  1.00  0.00     0.200 A 
ATOM     94  F   UNL A   1      44.346  29.135  37.076  1.00  0.00    -0.200 F 
ATOM     95  F   UNL A   1      42.793  26.922  37.445  1.00  0.00    -0.200 F 
ENDBRANCH  62  85
ENDBRANCH  36  37
ENDBRANCH  29  31
ENDBRANCH  28  29
ENDBRANCH  27  28
ENDBRANCH  26  27
ENDBRANCH  25  26
ENDBRANCH   1  25
TORSDOF 18
ENDMDL
MODEL 3
REMARK VINA RESULT:     -14.0      3.004      8.811
REMARK SMILES Cc1ccn2c([C@@H]3CCCC[C@@H]3C(=O)OCCOCCOCCOC(=O)c3ccc(-c4c5nc(c(-c6c(F)c(F)c(F)c(F)c6F)c6ccc([nH]6)c(-c6c(F)c(F)c(F)c(F)c6F)c6nc(c(-c7c(F)c(F)c(F)c(F)c7F)c7ccc4[nH]7)C=C6)C=C5)cc3)nnc2c1
REMARK SMILES IDX 20 1 19 2 18 3 17 4 16 5 15 6 13 7 14 8 12 9 7 10 8 11 9 12
REMARK SMILES IDX 11 13 10 14 6 15 1 16 2 17 3 18 93 19 4 20 92 21 5 22 91 23
REMARK SMILES IDX 90 24 21 25 22 26 23 27 24 28 25 29 26 30 27 31 28 32 89 33
REMARK SMILES IDX 29 34 88 35 30 36 31 37 32 38 82 39 33 40 87 41 81 42 83 43
REMARK SMILES IDX 34 44 86 45 80 46 79 47 35 49 67 50 47 51 66 52 48 53 51 54
REMARK SMILES IDX 65 55 84 56 49 57 50 58 64 60 85 61 52 62 36 63 37 64 45 65
REMARK SMILES IDX 38 66 39 67 43 68 46 69 40 70 41 71 44 72 42 73 68 74 69 75
REMARK SMILES IDX 77 76 70 77 71 78 75 79 78 80 72 81 73 82 76 83 74 84 53 85
REMARK SMILES IDX 54 86 62 87 55 88 56 89 60 90 63 91 57 92 58 93 61 94 59 95
REMARK H PARENT 83 48 51 59
REMARK Flexibility Score: inf
ROOT
ATOM      1  C   UNL A   1      33.004  21.289  24.039  1.00  0.00     0.188 C 
ENDROOT
BRANCH   1   2
ATOM      2  C   UNL A   1      33.329  23.266  24.336  1.00  0.00     0.188 C 
BRANCH   2   3
ATOM      3  O   UNL A   1      33.243  24.501  23.345  1.00  0.00    -0.376 OA
BRANCH   3   4
ATOM      4  C   UNL A   1      32.073  25.388  23.058  1.00  0.00     0.202 C 
BRANCH   4   5
ATOM      5  C   UNL A   1      32.007  26.647  22.079  1.00  0.00     0.261 C 
BRANCH   5   6
ATOM      6  O   UNL A   1      30.673  27.054  21.823  1.00  0.00    -0.463 OA
BRANCH   6   7
ATOM      7  C   UNL A   1      30.208  27.810  22.828  1.00  0.00     0.309 C 
ATOM      8  O   UNL A   1      29.504  27.376  23.731  1.00  0.00    -0.252 OA
BRANCH   7   9
ATOM      9  C   UNL A   1      30.745  29.201  22.768  1.00  0.00     0.110 C 
ATOM     10  C   UNL A   1      30.710  29.981  24.064  1.00  0.00     0.072 C 
ATOM     11  C   UNL A   1      29.480  30.947  24.185  1.00  0.00     0.012 C 
ATOM     12  C   UNL A   1      28.250  30.781  23.219  1.00  0.00     0.001 C 
ATOM     13  C   UNL A   1      29.913  29.896  21.682  1.00  0.00     0.016 C 
ATOM     14  C   UNL A   1      28.439  29.979  21.982  1.00  0.00     0.001 C 
BRANCH  10  15
ATOM     15  C   UNL A   1      31.513  29.580  25.306  1.00  0.00     0.141 A 
ATOM     16  C   UNL A   1      34.531  32.245  29.360  1.00  0.00     0.044 C 
ATOM     17  C   UNL A   1      34.360  32.099  27.811  1.00  0.00    -0.046 A 
ATOM     18  C   UNL A   1      32.840  33.044  27.331  1.00  0.00     0.022 A 
ATOM     19  C   UNL A   1      34.536  30.726  27.398  1.00  0.00     0.053 A 
ATOM     20  C   UNL A   1      31.369  32.071  26.912  1.00  0.00     0.095 A 
ATOM     21  C   UNL A   1      33.360  29.785  26.750  1.00  0.00     0.161 A 
ATOM     22  N   UNL A   1      31.753  30.318  26.512  1.00  0.00    -0.286 N 
ATOM     23  N   UNL A   1      33.521  28.738  25.970  1.00  0.00    -0.130 NA
ATOM     24  N   UNL A   1      32.423  28.608  25.164  1.00  0.00    -0.134 NA
ENDBRANCH  10  15
ENDBRANCH   7   9
ENDBRANCH   6   7
ENDBRANCH   5   6
ENDBRANCH   4   5
ENDBRANCH   3   4
ENDBRANCH   2   3
ENDBRANCH   1   2
BRANCH   1  25
ATOM     25  O   UNL A   1      34.642  20.121  24.638  1.00  0.00    -0.376 OA
BRANCH  25  26
ATOM     26  C   UNL A   1      36.155  21.220  25.165  1.00  0.00     0.202 C 
BRANCH  26  27
ATOM     27  C   UNL A   1      37.936  20.363  25.050  1.00  0.00     0.261 C 
BRANCH  27  28
ATOM     28  O   UNL A   1      39.455  20.977  25.885  1.00  0.00    -0.460 OA
BRANCH  28  29
ATOM     29  C   UNL A   1      39.945  21.868  26.993  1.00  0.00     0.338 C 
ATOM     30  O   UNL A   1      40.545  21.363  27.943  1.00  0.00    -0.246 OA
BRANCH  29  31
ATOM     31  C   UNL A   1      40.075  23.619  26.887  1.00  0.00     0.060 A 
ATOM     32  C   UNL A   1      41.242  24.396  26.939  1.00  0.00     0.016 A 
ATOM     33  C   UNL A   1      38.927  24.496  26.927  1.00  0.00     0.016 A 
ATOM     34  C   UNL A   1      41.229  25.832  27.363  1.00  0.00     0.010 A 
ATOM     35  C   UNL A   1      38.917  25.931  27.389  1.00  0.00     0.010 A 
ATOM     36  C   UNL A   1      40.069  26.582  27.825  1.00  0.00    -0.014 A 
BRANCH  36  37
ATOM     37  C   UNL A   1      40.243  27.996  28.807  1.00  0.00     0.031 A 
ATOM     38  C   UNL A   1      41.578  28.475  28.409  1.00  0.00     0.074 A 
ATOM     39  C   UNL A   1      39.629  28.703  29.910  1.00  0.00     0.049 A 
ATOM     40  N   UNL A   1      42.670  28.335  29.078  1.00  0.00    -0.248 NA
ATOM     41  C   UNL A   1      41.765  28.860  27.004  1.00  0.00     0.031 C 
ATOM     42  C   UNL A   1      38.280  28.539  30.469  1.00  0.00     0.029 A 
ATOM     43  N   UNL A   1      40.071  29.647  30.940  1.00  0.00    -0.354 N 
ATOM     44  C   UNL A   1      43.641  28.914  28.274  1.00  0.00     0.074 A 
ATOM     45  C   UNL A   1      43.090  29.002  26.949  1.00  0.00     0.031 C 
ATOM     46  C   UNL A   1      37.882  29.373  31.440  1.00  0.00     0.029 A 
ATOM     47  C   UNL A   1      38.989  30.196  31.781  1.00  0.00     0.049 A 
ATOM     48  H   UNL A   1      41.016  29.895  31.062  1.00  0.00     0.167 HD
ATOM     49  C   UNL A   1      44.595  29.665  28.879  1.00  0.00     0.037 A 
ATOM     50  C   UNL A   1      38.858  31.102  32.820  1.00  0.00     0.037 A 
ATOM     51  C   UNL A   1      44.790  29.240  30.242  1.00  0.00     0.049 A 
ATOM     52  C   UNL A   1      40.204  31.454  33.303  1.00  0.00     0.074 A 
ATOM     53  C   UNL A   1      45.333  28.124  30.844  1.00  0.00     0.029 A 
ATOM     54  N   UNL A   1      43.862  29.741  31.117  1.00  0.00    -0.354 N 
ATOM     55  N   UNL A   1      40.942  30.675  34.039  1.00  0.00    -0.248 NA
ATOM     56  C   UNL A   1      40.893  32.332  32.382  1.00  0.00     0.031 C 
ATOM     57  C   UNL A   1      44.640  27.952  32.080  1.00  0.00     0.029 A 
ATOM     58  C   UNL A   1      43.806  29.048  32.295  1.00  0.00     0.049 A 
ATOM     59  H   UNL A   1      43.296  30.521  30.919  1.00  0.00     0.167 HD
ATOM     60  C   UNL A   1      42.099  30.549  33.289  1.00  0.00     0.074 A 
ATOM     61  C   UNL A   1      42.019  31.626  32.293  1.00  0.00     0.031 C 
ATOM     62  C   UNL A   1      42.864  29.416  33.340  1.00  0.00     0.037 A 
BRANCH  49  63
ATOM     63  C   UNL A   1      44.858  31.072  28.403  1.00  0.00     0.064 A 
ATOM     64  C   UNL A   1      46.144  31.447  27.995  1.00  0.00     0.173 A 
ATOM     65  C   UNL A   1      43.929  32.132  28.556  1.00  0.00     0.173 A 
ATOM     66  F   UNL A   1      47.117  30.530  27.905  1.00  0.00    -0.203 F 
ATOM     67  C   UNL A   1      46.465  32.783  27.724  1.00  0.00     0.198 A 
ATOM     68  C   UNL A   1      44.232  33.450  28.230  1.00  0.00     0.198 A 
ATOM     69  F   UNL A   1      42.730  31.947  29.124  1.00  0.00    -0.203 F 
ATOM     70  F   UNL A   1      47.721  33.111  27.397  1.00  0.00    -0.200 F 
ATOM     71  C   UNL A   1      45.505  33.779  27.823  1.00  0.00     0.200 A 
ATOM     72  F   UNL A   1      43.296  34.400  28.370  1.00  0.00    -0.200 F 
ATOM     73  F   UNL A   1      45.817  35.056  27.570  1.00  0.00    -0.200 F 
ENDBRANCH  49  63
BRANCH  50  74
ATOM     74  C   UNL A   1      37.651  32.008  33.090  1.00  0.00     0.064 A 
ATOM     75  C   UNL A   1      37.151  32.343  34.376  1.00  0.00     0.173 A 
ATOM     76  C   UNL A   1      37.136  32.813  32.051  1.00  0.00     0.173 A 
ATOM     77  F   UNL A   1      37.531  31.655  35.464  1.00  0.00    -0.203 F 
ATOM     78  C   UNL A   1      36.291  33.451  34.582  1.00  0.00     0.198 A 
ATOM     79  C   UNL A   1      36.278  33.890  32.252  1.00  0.00     0.198 A 
ATOM     80  F   UNL A   1      37.528  32.664  30.785  1.00  0.00    -0.203 F 
ATOM     81  F   UNL A   1      35.907  33.797  35.820  1.00  0.00    -0.200 F 
ATOM     82  C   UNL A   1      35.882  34.238  33.518  1.00  0.00     0.200 A 
ATOM     83  F   UNL A   1      35.916  34.631  31.197  1.00  0.00    -0.200 F 
ATOM     84  F   UNL A   1      35.157  35.349  33.708  1.00  0.00    -0.200 F 
ENDBRANCH  50  74
BRANCH  62  85
ATOM     85  C   UNL A   1      42.709  28.474  34.515  1.00  0.00     0.064 A 
ATOM     86  C   UNL A   1      41.763  27.444  34.613  1.00  0.00     0.173 A 
ATOM     87  C   UNL A   1      43.655  28.544  35.550  1.00  0.00     0.173 A 
ATOM     88  F   UNL A   1      40.777  27.334  33.711  1.00  0.00    -0.203 F 
ATOM     89  C   UNL A   1      41.836  26.471  35.622  1.00  0.00     0.198 A 
ATOM     90  C   UNL A   1      43.716  27.591  36.565  1.00  0.00     0.198 A 
ATOM     91  F   UNL A   1      44.562  29.533  35.559  1.00  0.00    -0.203 F 
ATOM     92  F   UNL A   1      40.973  25.443  35.634  1.00  0.00    -0.200 F 
ATOM     93  C   UNL A   1      42.825  26.535  36.585  1.00  0.00     0.200 A 
ATOM     94  F   UNL A   1      44.660  27.688  37.510  1.00  0.00    -0.200 F 
ATOM     95  F   UNL A   1      42.916  25.589  37.530  1.00  0.00    -0.200 F 
ENDBRANCH  62  85
ENDBRANCH  36  37
ENDBRANCH  29  31
ENDBRANCH  28  29
ENDBRANCH  27  28
ENDBRANCH  26  27
ENDBRANCH  25  26
ENDBRANCH   1  25
TORSDOF 18
ENDMDL
