MODEL 1
REMARK VINA RESULT:     -10.4      0.000      0.000
REMARK SMILES CS(=O)(=O)N(Cc1ccc(Cl)cc1)Cc1nc(C(=O)OCCOCCOCCOC(=O)c2ccc(-c3c4nc(c(-c5c(F)c(F)c(F)c(F)c5F)c5ccc([nH]5)c(-c5c(F)c(F)c(F)c(F)c5F)c5nc(c(-c6c(F)c(F)c(F)c(F)c6F)c6ccc3[nH]6)C=C5)C=C4)cc2)cc(=O)[nH]1
REMARK SMILES IDX 24 1 23 2 22 3 21 4 20 5 18 6 19 7 17 8 15 9 16 10 98 11
REMARK SMILES IDX 96 12 95 14 97 15 14 16 5 17 2 18 1 19 3 20 4 21 6 22 7 23
REMARK SMILES IDX 8 24 13 25 9 26 12 27 10 28 11 29 25 30 26 31 27 32 28 33
REMARK SMILES IDX 29 34 30 35 31 36 32 37 33 38 94 39 34 40 93 41 35 42 36 43
REMARK SMILES IDX 37 44 87 45 38 46 92 47 86 48 88 49 39 50 91 51 85 52 84 53
REMARK SMILES IDX 40 55 72 56 52 57 71 58 53 59 56 60 70 61 89 62 54 63 55 64
REMARK SMILES IDX 69 66 90 67 57 68 41 69 42 70 50 71 43 72 44 73 48 74 51 75
REMARK SMILES IDX 45 76 46 77 49 78 47 79 73 80 74 81 82 82 75 83 76 84 80 85
REMARK SMILES IDX 83 86 77 87 78 88 81 89 79 90 58 91 59 92 67 93 60 94 61 95
REMARK SMILES IDX 65 96 68 97 62 98 63 99 66 100 64 101
REMARK H PARENT 98 13 88 54 56 65
REMARK Flexibility Score: inf
ROOT
ATOM      1  C   UNL A   1      41.356  21.694  26.386  1.00  0.00     0.188 C 
ENDROOT
BRANCH   1   2
ATOM      2  O   UNL A   1      40.614  22.418  27.360  1.00  0.00    -0.376 OA
BRANCH   2   3
ATOM      3  C   UNL A   1      39.492  23.126  26.838  1.00  0.00     0.202 C 
BRANCH   3   4
ATOM      4  C   UNL A   1      38.712  22.370  25.754  1.00  0.00     0.261 C 
BRANCH   4   5
ATOM      5  O   UNL A   1      37.360  22.022  26.127  1.00  0.00    -0.459 OA
BRANCH   5   6
ATOM      6  C   UNL A   1      36.749  21.101  25.323  1.00  0.00     0.357 C 
ATOM      7  O   UNL A   1      37.240  20.035  24.977  1.00  0.00    -0.244 OA
BRANCH   6   8
ATOM      8  C   UNL A   1      35.368  21.538  24.904  1.00  0.00     0.155 A 
ATOM      9  C   UNL A   1      34.087  23.239  24.035  1.00  0.00     0.125 A 
ATOM     10  N   UNL A   1      35.224  22.845  24.500  1.00  0.00    -0.226 NA
ATOM     11  N   UNL A   1      32.983  22.436  24.073  1.00  0.00    -0.309 N 
ATOM     12  C   UNL A   1      33.026  21.166  24.570  1.00  0.00     0.251 A 
ATOM     13  H   UNL A   1      32.128  22.785  23.731  1.00  0.00     0.171 HD
ATOM     14  C   UNL A   1      34.351  20.672  24.969  1.00  0.00     0.107 A 
ATOM     15  O   UNL A   1      32.020  20.475  24.677  1.00  0.00    -0.269 OA
BRANCH   9  16
ATOM     16  C   UNL A   1      33.918  24.631  23.423  1.00  0.00     0.177 C 
BRANCH  16  17
ATOM     17  N   UNL A   1      32.836  25.485  24.010  1.00  0.00    -0.190 NA
BRANCH  17  18
ATOM     18  S   UNL A   1      31.454  25.642  23.033  1.00  0.00     0.211 S 
ATOM     19  C   UNL A   1      32.107  25.716  21.402  1.00  0.00     0.176 C 
ATOM     20  O   UNL A   1      30.839  26.940  23.230  1.00  0.00    -0.212 OA
ATOM     21  O   UNL A   1      30.719  24.403  23.126  1.00  0.00    -0.212 OA
ENDBRANCH  17  18
BRANCH  17  22
ATOM     22  C   UNL A   1      32.716  25.427  25.493  1.00  0.00     0.138 C 
BRANCH  22  23
ATOM     23  C   UNL A   1      32.835  26.765  26.181  1.00  0.00    -0.033 A 
ATOM     24  C   UNL A   1      33.989  27.530  25.989  1.00  0.00     0.006 A 
ATOM     25  C   UNL A   1      31.754  27.332  26.876  1.00  0.00     0.006 A 
ATOM     26  C   UNL A   1      34.002  28.876  26.340  1.00  0.00     0.021 A 
ATOM     27  C   UNL A   1      31.786  28.679  27.249  1.00  0.00     0.021 A 
ATOM     28  C   UNL A   1      32.896  29.456  26.942  1.00  0.00     0.041 A 
ATOM     29  Cl  UNL A   1      32.898  31.145  27.246  1.00  0.00    -0.084 Cl
ENDBRANCH  22  23
ENDBRANCH  17  22
ENDBRANCH  16  17
ENDBRANCH   9  16
ENDBRANCH   6   8
ENDBRANCH   5   6
ENDBRANCH   4   5
ENDBRANCH   3   4
ENDBRANCH   2   3
ENDBRANCH   1   2
BRANCH   1  30
ATOM     30  C   UNL A   1      41.161  20.181  26.490  1.00  0.00     0.188 C 
BRANCH  30  31
ATOM     31  O   UNL A   1      41.808  19.596  27.621  1.00  0.00    -0.376 OA
BRANCH  31  32
ATOM     32  C   UNL A   1      42.672  18.500  27.302  1.00  0.00     0.202 C 
BRANCH  32  33
ATOM     33  C   UNL A   1      43.099  18.289  25.830  1.00  0.00     0.261 C 
BRANCH  33  34
ATOM     34  O   UNL A   1      44.422  18.743  25.491  1.00  0.00    -0.460 OA
BRANCH  34  35
ATOM     35  C   UNL A   1      44.504  19.500  24.368  1.00  0.00     0.338 C 
ATOM     36  O   UNL A   1      44.288  19.116  23.230  1.00  0.00    -0.246 OA
BRANCH  35  37
ATOM     37  C   UNL A   1      44.788  20.929  24.705  1.00  0.00     0.060 A 
ATOM     38  C   UNL A   1      45.343  21.195  25.960  1.00  0.00     0.016 A 
ATOM     39  C   UNL A   1      44.536  22.002  23.840  1.00  0.00     0.016 A 
ATOM     40  C   UNL A   1      45.638  22.507  26.356  1.00  0.00     0.010 A 
ATOM     41  C   UNL A   1      44.804  23.327  24.248  1.00  0.00     0.010 A 
ATOM     42  C   UNL A   1      45.344  23.593  25.519  1.00  0.00    -0.014 A 
BRANCH  42  43
ATOM     43  C   UNL A   1      45.408  24.973  26.092  1.00  0.00     0.031 A 
ATOM     44  C   UNL A   1      46.716  25.710  26.029  1.00  0.00     0.074 A 
ATOM     45  C   UNL A   1      44.349  25.608  26.628  1.00  0.00     0.049 A 
ATOM     46  N   UNL A   1      46.995  26.942  26.372  1.00  0.00    -0.248 NA
ATOM     47  C   UNL A   1      47.865  24.943  25.528  1.00  0.00     0.031 C 
ATOM     48  C   UNL A   1      43.037  25.017  26.826  1.00  0.00     0.029 A 
ATOM     49  N   UNL A   1      44.209  26.897  27.105  1.00  0.00    -0.354 N 
ATOM     50  C   UNL A   1      48.353  27.098  26.136  1.00  0.00     0.074 A 
ATOM     51  C   UNL A   1      48.841  25.831  25.631  1.00  0.00     0.031 C 
ATOM     52  C   UNL A   1      42.220  25.943  27.360  1.00  0.00     0.029 A 
ATOM     53  C   UNL A   1      42.937  27.200  27.535  1.00  0.00     0.049 A 
ATOM     54  H   UNL A   1      44.953  27.542  27.134  1.00  0.00     0.167 HD
ATOM     55  C   UNL A   1      49.131  28.189  26.333  1.00  0.00     0.037 A 
ATOM     56  C   UNL A   1      42.401  28.344  28.016  1.00  0.00     0.037 A 
ATOM     57  C   UNL A   1      48.679  29.439  26.887  1.00  0.00     0.049 A 
ATOM     58  C   UNL A   1      43.291  29.546  28.231  1.00  0.00     0.074 A 
ATOM     59  C   UNL A   1      49.415  30.586  27.131  1.00  0.00     0.029 A 
ATOM     60  N   UNL A   1      47.385  29.702  27.310  1.00  0.00    -0.354 N 
ATOM     61  N   UNL A   1      44.562  29.695  27.952  1.00  0.00    -0.248 NA
ATOM     62  C   UNL A   1      42.676  30.727  28.860  1.00  0.00     0.031 C 
ATOM     63  C   UNL A   1      48.583  31.520  27.758  1.00  0.00     0.029 A 
ATOM     64  C   UNL A   1      47.309  30.985  27.834  1.00  0.00     0.049 A 
ATOM     65  H   UNL A   1      46.632  29.071  27.249  1.00  0.00     0.167 HD
ATOM     66  C   UNL A   1      44.895  30.981  28.364  1.00  0.00     0.074 A 
ATOM     67  C   UNL A   1      43.684  31.587  28.868  1.00  0.00     0.031 C 
ATOM     68  C   UNL A   1      46.105  31.594  28.340  1.00  0.00     0.037 A 
BRANCH  55  69
ATOM     69  C   UNL A   1      50.585  28.045  25.993  1.00  0.00     0.064 A 
ATOM     70  C   UNL A   1      51.559  27.860  26.986  1.00  0.00     0.173 A 
ATOM     71  C   UNL A   1      51.008  28.103  24.658  1.00  0.00     0.173 A 
ATOM     72  F   UNL A   1      51.206  27.820  28.280  1.00  0.00    -0.203 F 
ATOM     73  C   UNL A   1      52.908  27.775  26.655  1.00  0.00     0.198 A 
ATOM     74  C   UNL A   1      52.354  27.981  24.328  1.00  0.00     0.198 A 
ATOM     75  F   UNL A   1      50.115  28.280  23.671  1.00  0.00    -0.203 F 
ATOM     76  F   UNL A   1      53.828  27.666  27.624  1.00  0.00    -0.200 F 
ATOM     77  C   UNL A   1      53.304  27.829  25.327  1.00  0.00     0.200 A 
ATOM     78  F   UNL A   1      52.732  28.023  23.043  1.00  0.00    -0.200 F 
ATOM     79  F   UNL A   1      54.602  27.749  25.010  1.00  0.00    -0.200 F 
ENDBRANCH  55  69
BRANCH  56  80
ATOM     80  C   UNL A   1      40.944  28.442  28.349  1.00  0.00     0.064 A 
ATOM     81  C   UNL A   1      40.019  28.952  27.421  1.00  0.00     0.173 A 
ATOM     82  C   UNL A   1      40.453  28.099  29.617  1.00  0.00     0.173 A 
ATOM     83  F   UNL A   1      40.434  29.328  26.201  1.00  0.00    -0.203 F 
ATOM     84  C   UNL A   1      38.678  29.140  27.757  1.00  0.00     0.198 A 
ATOM     85  C   UNL A   1      39.102  28.244  29.937  1.00  0.00     0.198 A 
ATOM     86  F   UNL A   1      41.285  27.616  30.551  1.00  0.00    -0.203 F 
ATOM     87  F   UNL A   1      37.840  29.700  26.873  1.00  0.00    -0.200 F 
ATOM     88  C   UNL A   1      38.219  28.779  29.012  1.00  0.00     0.200 A 
ATOM     89  F   UNL A   1      38.663  27.877  31.148  1.00  0.00    -0.200 F 
ATOM     90  F   UNL A   1      36.931  28.959  29.337  1.00  0.00    -0.200 F 
ENDBRANCH  56  80
BRANCH  68  91
ATOM     91  C   UNL A   1      46.176  33.011  28.845  1.00  0.00     0.064 A 
ATOM     92  C   UNL A   1      45.964  34.115  28.002  1.00  0.00     0.173 A 
ATOM     93  C   UNL A   1      46.448  33.269  30.197  1.00  0.00     0.173 A 
ATOM     94  F   UNL A   1      45.711  33.930  26.698  1.00  0.00    -0.203 F 
ATOM     95  C   UNL A   1      46.065  35.419  28.486  1.00  0.00     0.198 A 
ATOM     96  C   UNL A   1      46.511  34.573  30.685  1.00  0.00     0.198 A 
ATOM     97  F   UNL A   1      46.651  32.255  31.052  1.00  0.00    -0.203 F 
ATOM     98  F   UNL A   1      45.928  36.455  27.645  1.00  0.00    -0.200 F 
ATOM     99  C   UNL A   1      46.334  35.646  29.826  1.00  0.00     0.200 A 
ATOM    100  F   UNL A   1      46.753  34.788  31.985  1.00  0.00    -0.200 F 
ATOM    101  F   UNL A   1      46.431  36.900  30.290  1.00  0.00    -0.200 F 
ENDBRANCH  68  91
ENDBRANCH  42  43
ENDBRANCH  35  37
ENDBRANCH  34  35
ENDBRANCH  33  34
ENDBRANCH  32  33
ENDBRANCH  31  32
ENDBRANCH  30  31
ENDBRANCH   1  30
TORSDOF 22
ENDMDL
MODEL 2
REMARK VINA RESULT:     -10.3      1.063      2.010
REMARK SMILES CS(=O)(=O)N(Cc1ccc(Cl)cc1)Cc1nc(C(=O)OCCOCCOCCOC(=O)c2ccc(-c3c4nc(c(-c5c(F)c(F)c(F)c(F)c5F)c5ccc([nH]5)c(-c5c(F)c(F)c(F)c(F)c5F)c5nc(c(-c6c(F)c(F)c(F)c(F)c6F)c6ccc3[nH]6)C=C5)C=C4)cc2)cc(=O)[nH]1
REMARK SMILES IDX 24 1 23 2 22 3 21 4 20 5 18 6 19 7 17 8 15 9 16 10 98 11
REMARK SMILES IDX 96 12 95 14 97 15 14 16 5 17 2 18 1 19 3 20 4 21 6 22 7 23
REMARK SMILES IDX 8 24 13 25 9 26 12 27 10 28 11 29 25 30 26 31 27 32 28 33
REMARK SMILES IDX 29 34 30 35 31 36 32 37 33 38 94 39 34 40 93 41 35 42 36 43
REMARK SMILES IDX 37 44 87 45 38 46 92 47 86 48 88 49 39 50 91 51 85 52 84 53
REMARK SMILES IDX 40 55 72 56 52 57 71 58 53 59 56 60 70 61 89 62 54 63 55 64
REMARK SMILES IDX 69 66 90 67 57 68 41 69 42 70 50 71 43 72 44 73 48 74 51 75
REMARK SMILES IDX 45 76 46 77 49 78 47 79 73 80 74 81 82 82 75 83 76 84 80 85
REMARK SMILES IDX 83 86 77 87 78 88 81 89 79 90 58 91 59 92 67 93 60 94 61 95
REMARK SMILES IDX 65 96 68 97 62 98 63 99 66 100 64 101
REMARK H PARENT 98 13 88 54 56 65
REMARK Flexibility Score: inf
ROOT
ATOM      1  C   UNL A   1      41.443  21.411  27.472  1.00  0.00     0.188 C 
ENDROOT
BRANCH   1   2
ATOM      2  O   UNL A   1      40.099  21.864  27.585  1.00  0.00    -0.376 OA
BRANCH   2   3
ATOM      3  C   UNL A   1      39.621  22.576  26.447  1.00  0.00     0.202 C 
BRANCH   3   4
ATOM      4  C   UNL A   1      38.408  21.934  25.760  1.00  0.00     0.261 C 
BRANCH   4   5
ATOM      5  O   UNL A   1      37.150  22.585  26.042  1.00  0.00    -0.459 OA
BRANCH   5   6
ATOM      6  C   UNL A   1      36.032  21.870  25.713  1.00  0.00     0.357 C 
ATOM      7  O   UNL A   1      36.026  20.694  25.374  1.00  0.00    -0.244 OA
BRANCH   6   8
ATOM      8  C   UNL A   1      34.775  22.695  25.824  1.00  0.00     0.155 A 
ATOM      9  C   UNL A   1      33.604  24.504  25.021  1.00  0.00     0.125 A 
ATOM     10  N   UNL A   1      34.699  23.822  25.039  1.00  0.00    -0.226 NA
ATOM     11  N   UNL A   1      32.572  24.223  25.872  1.00  0.00    -0.309 N 
ATOM     12  C   UNL A   1      32.627  23.189  26.761  1.00  0.00     0.251 A 
ATOM     13  H   UNL A   1      31.764  24.783  25.843  1.00  0.00     0.171 HD
ATOM     14  C   UNL A   1      33.817  22.329  26.682  1.00  0.00     0.107 A 
ATOM     15  O   UNL A   1      31.736  22.985  27.577  1.00  0.00    -0.269 OA
BRANCH   9  16
ATOM     16  C   UNL A   1      33.408  25.668  24.049  1.00  0.00     0.177 C 
BRANCH  16  17
ATOM     17  N   UNL A   1      32.154  26.470  24.219  1.00  0.00    -0.190 NA
BRANCH  17  18
ATOM     18  S   UNL A   1      30.891  26.035  23.166  1.00  0.00     0.211 S 
ATOM     19  C   UNL A   1      29.480  26.813  23.871  1.00  0.00     0.176 C 
ATOM     20  O   UNL A   1      30.609  24.617  23.273  1.00  0.00    -0.212 OA
ATOM     21  O   UNL A   1      31.137  26.693  21.905  1.00  0.00    -0.212 OA
ENDBRANCH  17  18
BRANCH  17  22
ATOM     22  C   UNL A   1      31.865  26.908  25.611  1.00  0.00     0.138 C 
BRANCH  22  23
ATOM     23  C   UNL A   1      32.538  28.199  26.011  1.00  0.00    -0.033 A 
ATOM     24  C   UNL A   1      31.804  29.387  25.985  1.00  0.00     0.006 A 
ATOM     25  C   UNL A   1      33.831  28.212  26.562  1.00  0.00     0.006 A 
ATOM     26  C   UNL A   1      32.284  30.519  26.635  1.00  0.00     0.021 A 
ATOM     27  C   UNL A   1      34.316  29.363  27.191  1.00  0.00     0.021 A 
ATOM     28  C   UNL A   1      33.521  30.500  27.260  1.00  0.00     0.041 A 
ATOM     29  Cl  UNL A   1      34.027  31.871  28.160  1.00  0.00    -0.084 Cl
ENDBRANCH  22  23
ENDBRANCH  17  22
ENDBRANCH  16  17
ENDBRANCH   9  16
ENDBRANCH   6   8
ENDBRANCH   5   6
ENDBRANCH   4   5
ENDBRANCH   3   4
ENDBRANCH   2   3
ENDBRANCH   1   2
BRANCH   1  30
ATOM     30  C   UNL A   1      41.552  20.008  26.876  1.00  0.00     0.188 C 
BRANCH  30  31
ATOM     31  O   UNL A   1      42.328  19.107  27.668  1.00  0.00    -0.376 OA
BRANCH  31  32
ATOM     32  C   UNL A   1      43.029  18.113  26.914  1.00  0.00     0.202 C 
BRANCH  32  33
ATOM     33  C   UNL A   1      43.102  18.259  25.375  1.00  0.00     0.261 C 
BRANCH  33  34
ATOM     34  O   UNL A   1      44.418  18.450  24.826  1.00  0.00    -0.460 OA
BRANCH  34  35
ATOM     35  C   UNL A   1      44.543  19.497  23.972  1.00  0.00     0.338 C 
ATOM     36  O   UNL A   1      44.548  19.429  22.754  1.00  0.00    -0.246 OA
BRANCH  35  37
ATOM     37  C   UNL A   1      44.563  20.795  24.717  1.00  0.00     0.060 A 
ATOM     38  C   UNL A   1      43.780  21.837  24.212  1.00  0.00     0.016 A 
ATOM     39  C   UNL A   1      45.310  21.018  25.881  1.00  0.00     0.016 A 
ATOM     40  C   UNL A   1      43.744  23.086  24.848  1.00  0.00     0.010 A 
ATOM     41  C   UNL A   1      45.298  22.283  26.506  1.00  0.00     0.010 A 
ATOM     42  C   UNL A   1      44.525  23.336  25.984  1.00  0.00    -0.014 A 
BRANCH  42  43
ATOM     43  C   UNL A   1      44.673  24.750  26.451  1.00  0.00     0.031 A 
ATOM     44  C   UNL A   1      46.003  25.424  26.269  1.00  0.00     0.074 A 
ATOM     45  C   UNL A   1      43.668  25.466  26.990  1.00  0.00     0.049 A 
ATOM     46  N   UNL A   1      46.347  26.665  26.507  1.00  0.00    -0.248 NA
ATOM     47  C   UNL A   1      47.094  24.576  25.769  1.00  0.00     0.031 C 
ATOM     48  C   UNL A   1      42.347  24.945  27.297  1.00  0.00     0.029 A 
ATOM     49  N   UNL A   1      43.603  26.790  27.378  1.00  0.00    -0.354 N 
ATOM     50  C   UNL A   1      47.695  26.747  26.192  1.00  0.00     0.074 A 
ATOM     51  C   UNL A   1      48.107  25.427  25.759  1.00  0.00     0.031 C 
ATOM     52  C   UNL A   1      41.595  25.942  27.800  1.00  0.00     0.029 A 
ATOM     53  C   UNL A   1      42.368  27.177  27.848  1.00  0.00     0.049 A 
ATOM     54  H   UNL A   1      44.372  27.403  27.323  1.00  0.00     0.167 HD
ATOM     55  C   UNL A   1      48.524  27.815  26.270  1.00  0.00     0.037 A 
ATOM     56  C   UNL A   1      41.902  28.373  28.270  1.00  0.00     0.037 A 
ATOM     57  C   UNL A   1      48.150  29.119  26.753  1.00  0.00     0.049 A 
ATOM     58  C   UNL A   1      42.848  29.548  28.351  1.00  0.00     0.074 A 
ATOM     59  C   UNL A   1      48.942  30.249  26.875  1.00  0.00     0.029 A 
ATOM     60  N   UNL A   1      46.891  29.466  27.219  1.00  0.00    -0.354 N 
ATOM     61  N   UNL A   1      44.108  29.624  27.999  1.00  0.00    -0.248 NA
ATOM     62  C   UNL A   1      42.313  30.796  28.921  1.00  0.00     0.031 C 
ATOM     63  C   UNL A   1      48.180  31.259  27.472  1.00  0.00     0.029 A 
ATOM     64  C   UNL A   1      46.892  30.785  27.650  1.00  0.00     0.049 A 
ATOM     65  H   UNL A   1      46.112  28.865  27.242  1.00  0.00     0.167 HD
ATOM     66  C   UNL A   1      44.511  30.920  28.299  1.00  0.00     0.074 A 
ATOM     67  C   UNL A   1      43.352  31.612  28.817  1.00  0.00     0.031 C 
ATOM     68  C   UNL A   1      45.740  31.479  28.170  1.00  0.00     0.037 A 
BRANCH  55  69
ATOM     69  C   UNL A   1      49.952  27.586  25.870  1.00  0.00     0.064 A 
ATOM     70  C   UNL A   1      50.353  27.608  24.526  1.00  0.00     0.173 A 
ATOM     71  C   UNL A   1      50.927  27.333  26.846  1.00  0.00     0.173 A 
ATOM     72  F   UNL A   1      49.453  27.824  23.556  1.00  0.00    -0.203 F 
ATOM     73  C   UNL A   1      51.674  27.348  24.172  1.00  0.00     0.198 A 
ATOM     74  C   UNL A   1      52.253  27.109  26.490  1.00  0.00     0.198 A 
ATOM     75  F   UNL A   1      50.593  27.300  28.145  1.00  0.00    -0.203 F 
ATOM     76  F   UNL A   1      52.022  27.308  22.878  1.00  0.00    -0.200 F 
ATOM     77  C   UNL A   1      52.623  27.105  25.153  1.00  0.00     0.200 A 
ATOM     78  F   UNL A   1      53.171  26.886  27.441  1.00  0.00    -0.200 F 
ATOM     79  F   UNL A   1      53.893  26.854  24.810  1.00  0.00    -0.200 F 
ENDBRANCH  55  69
BRANCH  56  80
ATOM     80  C   UNL A   1      40.470  28.556  28.666  1.00  0.00     0.064 A 
ATOM     81  C   UNL A   1      39.520  29.048  27.753  1.00  0.00     0.173 A 
ATOM     82  C   UNL A   1      40.031  28.314  29.975  1.00  0.00     0.173 A 
ATOM     83  F   UNL A   1      39.887  29.329  26.493  1.00  0.00    -0.203 F 
ATOM     84  C   UNL A   1      38.207  29.316  28.141  1.00  0.00     0.198 A 
ATOM     85  C   UNL A   1      38.706  28.538  30.351  1.00  0.00     0.198 A 
ATOM     86  F   UNL A   1      40.889  27.853  30.897  1.00  0.00    -0.203 F 
ATOM     87  F   UNL A   1      37.349  29.856  27.265  1.00  0.00    -0.200 F 
ATOM     88  C   UNL A   1      37.799  29.054  29.438  1.00  0.00     0.200 A 
ATOM     89  F   UNL A   1      38.314  28.267  31.603  1.00  0.00    -0.200 F 
ATOM     90  F   UNL A   1      36.538  29.310  29.813  1.00  0.00    -0.200 F 
ENDBRANCH  56  80
BRANCH  68  91
ATOM     91  C   UNL A   1      45.893  32.924  28.565  1.00  0.00     0.064 A 
ATOM     92  C   UNL A   1      46.269  33.306  29.863  1.00  0.00     0.173 A 
ATOM     93  C   UNL A   1      45.671  33.943  27.626  1.00  0.00     0.173 A 
ATOM     94  F   UNL A   1      46.483  32.377  30.807  1.00  0.00    -0.203 F 
ATOM     95  C   UNL A   1      46.374  34.652  30.215  1.00  0.00     0.198 A 
ATOM     96  C   UNL A   1      45.814  35.286  27.971  1.00  0.00     0.198 A 
ATOM     97  F   UNL A   1      45.318  33.639  26.368  1.00  0.00    -0.203 F 
ATOM     98  F   UNL A   1      46.666  34.991  31.479  1.00  0.00    -0.200 F 
ATOM     99  C   UNL A   1      46.151  35.639  29.268  1.00  0.00     0.200 A 
ATOM    100  F   UNL A   1      45.616  36.236  27.048  1.00  0.00    -0.200 F 
ATOM    101  F   UNL A   1      46.252  36.932  29.607  1.00  0.00    -0.200 F 
ENDBRANCH  68  91
ENDBRANCH  42  43
ENDBRANCH  35  37
ENDBRANCH  34  35
ENDBRANCH  33  34
ENDBRANCH  32  33
ENDBRANCH  31  32
ENDBRANCH  30  31
ENDBRANCH   1  30
TORSDOF 22
ENDMDL
MODEL 3
REMARK VINA RESULT:     -10.3      2.471      3.775
REMARK SMILES CS(=O)(=O)N(Cc1ccc(Cl)cc1)Cc1nc(C(=O)OCCOCCOCCOC(=O)c2ccc(-c3c4nc(c(-c5c(F)c(F)c(F)c(F)c5F)c5ccc([nH]5)c(-c5c(F)c(F)c(F)c(F)c5F)c5nc(c(-c6c(F)c(F)c(F)c(F)c6F)c6ccc3[nH]6)C=C5)C=C4)cc2)cc(=O)[nH]1
REMARK SMILES IDX 24 1 23 2 22 3 21 4 20 5 18 6 19 7 17 8 15 9 16 10 98 11
REMARK SMILES IDX 96 12 95 14 97 15 14 16 5 17 2 18 1 19 3 20 4 21 6 22 7 23
REMARK SMILES IDX 8 24 13 25 9 26 12 27 10 28 11 29 25 30 26 31 27 32 28 33
REMARK SMILES IDX 29 34 30 35 31 36 32 37 33 38 94 39 34 40 93 41 35 42 36 43
REMARK SMILES IDX 37 44 87 45 38 46 92 47 86 48 88 49 39 50 91 51 85 52 84 53
REMARK SMILES IDX 40 55 72 56 52 57 71 58 53 59 56 60 70 61 89 62 54 63 55 64
REMARK SMILES IDX 69 66 90 67 57 68 41 69 42 70 50 71 43 72 44 73 48 74 51 75
REMARK SMILES IDX 45 76 46 77 49 78 47 79 73 80 74 81 82 82 75 83 76 84 80 85
REMARK SMILES IDX 83 86 77 87 78 88 81 89 79 90 58 91 59 92 67 93 60 94 61 95
REMARK SMILES IDX 65 96 68 97 62 98 63 99 66 100 64 101
REMARK H PARENT 98 13 88 54 56 65
REMARK Flexibility Score: inf
ROOT
ATOM      1  C   UNL A   1      35.777  23.332  26.028  1.00  0.00     0.188 C 
ENDROOT
BRANCH   1   2
ATOM      2  O   UNL A   1      35.162  22.223  26.674  1.00  0.00    -0.376 OA
BRANCH   2   3
ATOM      3  C   UNL A   1      33.742  22.304  26.761  1.00  0.00     0.202 C 
BRANCH   3   4
ATOM      4  C   UNL A   1      33.150  23.627  26.256  1.00  0.00     0.261 C 
BRANCH   4   5
ATOM      5  O   UNL A   1      32.234  23.485  25.148  1.00  0.00    -0.459 OA
BRANCH   5   6
ATOM      6  C   UNL A   1      32.816  23.255  23.932  1.00  0.00     0.357 C 
ATOM      7  O   UNL A   1      33.308  22.192  23.580  1.00  0.00    -0.244 OA
BRANCH   6   8
ATOM      8  C   UNL A   1      32.780  24.474  23.045  1.00  0.00     0.155 A 
ATOM      9  C   UNL A   1      32.596  26.765  22.956  1.00  0.00     0.125 A 
ATOM     10  N   UNL A   1      32.534  25.682  23.655  1.00  0.00    -0.226 NA
ATOM     11  N   UNL A   1      32.750  26.731  21.599  1.00  0.00    -0.309 N 
ATOM     12  C   UNL A   1      32.882  25.559  20.912  1.00  0.00     0.251 A 
ATOM     13  H   UNL A   1      32.766  27.579  21.100  1.00  0.00     0.171 HD
ATOM     14  C   UNL A   1      32.952  24.337  21.726  1.00  0.00     0.107 A 
ATOM     15  O   UNL A   1      32.941  25.525  19.689  1.00  0.00    -0.269 OA
BRANCH   9  16
ATOM     16  C   UNL A   1      32.491  28.142  23.613  1.00  0.00     0.177 C 
BRANCH  16  17
ATOM     17  N   UNL A   1      31.519  28.264  24.746  1.00  0.00    -0.190 NA
BRANCH  17  18
ATOM     18  S   UNL A   1      32.120  29.094  26.103  1.00  0.00     0.211 S 
ATOM     19  C   UNL A   1      33.765  28.492  26.261  1.00  0.00     0.176 C 
ATOM     20  O   UNL A   1      31.456  28.641  27.309  1.00  0.00    -0.212 OA
ATOM     21  O   UNL A   1      32.225  30.488  25.742  1.00  0.00    -0.212 OA
ENDBRANCH  17  18
BRANCH  17  22
ATOM     22  C   UNL A   1      30.092  28.395  24.346  1.00  0.00     0.138 C 
BRANCH  22  23
ATOM     23  C   UNL A   1      29.791  29.605  23.495  1.00  0.00    -0.033 A 
ATOM     24  C   UNL A   1      29.737  29.466  22.106  1.00  0.00     0.006 A 
ATOM     25  C   UNL A   1      29.406  30.828  24.070  1.00  0.00     0.006 A 
ATOM     26  C   UNL A   1      29.163  30.463  21.325  1.00  0.00     0.021 A 
ATOM     27  C   UNL A   1      28.854  31.837  23.273  1.00  0.00     0.021 A 
ATOM     28  C   UNL A   1      28.697  31.632  21.908  1.00  0.00     0.041 A 
ATOM     29  Cl  UNL A   1      27.881  32.786  20.935  1.00  0.00    -0.084 Cl
ENDBRANCH  22  23
ENDBRANCH  17  22
ENDBRANCH  16  17
ENDBRANCH   9  16
ENDBRANCH   6   8
ENDBRANCH   5   6
ENDBRANCH   4   5
ENDBRANCH   3   4
ENDBRANCH   2   3
ENDBRANCH   1   2
BRANCH   1  30
ATOM     30  C   UNL A   1      37.218  23.054  25.605  1.00  0.00     0.188 C 
BRANCH  30  31
ATOM     31  O   UNL A   1      37.537  21.662  25.537  1.00  0.00    -0.376 OA
BRANCH  31  32
ATOM     32  C   UNL A   1      38.914  21.361  25.784  1.00  0.00     0.202 C 
BRANCH  32  33
ATOM     33  C   UNL A   1      39.449  19.957  25.413  1.00  0.00     0.261 C 
BRANCH  33  34
ATOM     34  O   UNL A   1      40.277  19.322  26.404  1.00  0.00    -0.460 OA
BRANCH  34  35
ATOM     35  C   UNL A   1      41.610  19.356  26.152  1.00  0.00     0.338 C 
ATOM     36  O   UNL A   1      42.263  18.465  25.634  1.00  0.00    -0.246 OA
BRANCH  35  37
ATOM     37  C   UNL A   1      42.185  20.696  26.490  1.00  0.00     0.060 A 
ATOM     38  C   UNL A   1      42.172  21.080  27.834  1.00  0.00     0.016 A 
ATOM     39  C   UNL A   1      42.734  21.573  25.544  1.00  0.00     0.016 A 
ATOM     40  C   UNL A   1      42.688  22.320  28.235  1.00  0.00     0.010 A 
ATOM     41  C   UNL A   1      43.228  22.833  25.943  1.00  0.00     0.010 A 
ATOM     42  C   UNL A   1      43.195  23.226  27.293  1.00  0.00    -0.014 A 
BRANCH  42  43
ATOM     43  C   UNL A   1      43.465  24.631  27.729  1.00  0.00     0.031 A 
ATOM     44  C   UNL A   1      44.888  25.111  27.741  1.00  0.00     0.074 A 
ATOM     45  C   UNL A   1      42.499  25.504  28.074  1.00  0.00     0.049 A 
ATOM     46  N   UNL A   1      45.362  26.306  27.989  1.00  0.00    -0.248 NA
ATOM     47  C   UNL A   1      45.913  24.098  27.454  1.00  0.00     0.031 C 
ATOM     48  C   UNL A   1      41.086  25.182  28.180  1.00  0.00     0.029 A 
ATOM     49  N   UNL A   1      42.562  26.844  28.400  1.00  0.00    -0.354 N 
ATOM     50  C   UNL A   1      46.741  26.190  27.894  1.00  0.00     0.074 A 
ATOM     51  C   UNL A   1      47.026  24.805  27.578  1.00  0.00     0.031 C 
ATOM     52  C   UNL A   1      40.414  26.297  28.521  1.00  0.00     0.029 A 
ATOM     53  C   UNL A   1      41.336  27.418  28.650  1.00  0.00     0.049 A 
ATOM     54  H   UNL A   1      43.408  27.346  28.450  1.00  0.00     0.167 HD
ATOM     55  C   UNL A   1      47.689  27.140  28.069  1.00  0.00     0.037 A 
ATOM     56  C   UNL A   1      40.982  28.688  28.950  1.00  0.00     0.037 A 
ATOM     57  C   UNL A   1      47.432  28.508  28.440  1.00  0.00     0.049 A 
ATOM     58  C   UNL A   1      42.060  29.729  29.143  1.00  0.00     0.074 A 
ATOM     59  C   UNL A   1      48.346  29.527  28.650  1.00  0.00     0.029 A 
ATOM     60  N   UNL A   1      46.177  29.045  28.684  1.00  0.00    -0.354 N 
ATOM     61  N   UNL A   1      43.357  29.616  28.997  1.00  0.00    -0.248 NA
ATOM     62  C   UNL A   1      41.624  31.067  29.576  1.00  0.00     0.031 C 
ATOM     63  C   UNL A   1      47.650  30.661  29.081  1.00  0.00     0.029 A 
ATOM     64  C   UNL A   1      46.297  30.375  29.065  1.00  0.00     0.049 A 
ATOM     65  H   UNL A   1      45.328  28.555  28.601  1.00  0.00     0.167 HD
ATOM     66  C   UNL A   1      43.887  30.862  29.314  1.00  0.00     0.074 A 
ATOM     67  C   UNL A   1      42.771  31.730  29.614  1.00  0.00     0.031 C 
ATOM     68  C   UNL A   1      45.187  31.244  29.367  1.00  0.00     0.037 A 
BRANCH  55  69
ATOM     69  C   UNL A   1      49.116  26.701  27.913  1.00  0.00     0.064 A 
ATOM     70  C   UNL A   1      49.919  26.400  29.023  1.00  0.00     0.173 A 
ATOM     71  C   UNL A   1      49.685  26.590  26.637  1.00  0.00     0.173 A 
ATOM     72  F   UNL A   1      49.425  26.512  30.265  1.00  0.00    -0.203 F 
ATOM     73  C   UNL A   1      51.253  26.038  28.861  1.00  0.00     0.198 A 
ATOM     74  C   UNL A   1      51.010  26.193  26.477  1.00  0.00     0.198 A 
ATOM     75  F   UNL A   1      48.959  26.868  25.544  1.00  0.00    -0.203 F 
ATOM     76  F   UNL A   1      52.021  25.820  29.937  1.00  0.00    -0.200 F 
ATOM     77  C   UNL A   1      51.795  25.929  27.589  1.00  0.00     0.200 A 
ATOM     78  F   UNL A   1      51.527  26.078  25.247  1.00  0.00    -0.200 F 
ATOM     79  F   UNL A   1      53.080  25.583  27.434  1.00  0.00    -0.200 F 
ENDBRANCH  55  69
BRANCH  56  80
ATOM     80  C   UNL A   1      39.547  29.082  29.104  1.00  0.00     0.064 A 
ATOM     81  C   UNL A   1      38.912  29.042  30.358  1.00  0.00     0.173 A 
ATOM     82  C   UNL A   1      38.758  29.440  28.001  1.00  0.00     0.173 A 
ATOM     83  F   UNL A   1      39.606  28.677  31.447  1.00  0.00    -0.203 F 
ATOM     84  C   UNL A   1      37.549  29.312  30.494  1.00  0.00     0.198 A 
ATOM     85  C   UNL A   1      37.406  29.754  28.144  1.00  0.00     0.198 A 
ATOM     86  F   UNL A   1      39.301  29.488  26.775  1.00  0.00    -0.203 F 
ATOM     87  F   UNL A   1      36.961  29.189  31.692  1.00  0.00    -0.200 F 
ATOM     88  C   UNL A   1      36.799  29.675  29.388  1.00  0.00     0.200 A 
ATOM     89  F   UNL A   1      36.691  30.121  27.072  1.00  0.00    -0.200 F 
ATOM     90  F   UNL A   1      35.491  29.935  29.517  1.00  0.00    -0.200 F 
ENDBRANCH  56  80
BRANCH  68  91
ATOM     91  C   UNL A   1      45.478  32.676  29.732  1.00  0.00     0.064 A 
ATOM     92  C   UNL A   1      45.587  33.685  28.762  1.00  0.00     0.173 A 
ATOM     93  C   UNL A   1      45.637  33.046  31.076  1.00  0.00     0.173 A 
ATOM     94  F   UNL A   1      45.456  33.389  27.460  1.00  0.00    -0.203 F 
ATOM     95  C   UNL A   1      45.888  34.998  29.122  1.00  0.00     0.198 A 
ATOM     96  C   UNL A   1      45.899  34.367  31.435  1.00  0.00     0.198 A 
ATOM     97  F   UNL A   1      45.535  32.127  32.049  1.00  0.00    -0.203 F 
ATOM     98  F   UNL A   1      46.056  35.929  28.171  1.00  0.00    -0.200 F 
ATOM     99  C   UNL A   1      46.038  35.339  30.456  1.00  0.00     0.200 A 
ATOM    100  F   UNL A   1      46.025  34.695  32.728  1.00  0.00    -0.200 F 
ATOM    101  F   UNL A   1      46.326  36.601  30.801  1.00  0.00    -0.200 F 
ENDBRANCH  68  91
ENDBRANCH  42  43
ENDBRANCH  35  37
ENDBRANCH  34  35
ENDBRANCH  33  34
ENDBRANCH  32  33
ENDBRANCH  31  32
ENDBRANCH  30  31
ENDBRANCH   1  30
TORSDOF 22
ENDMDL
