MODEL 1
REMARK VINA RESULT:     -10.9      0.000      0.000
REMARK SMILES Cc1ncn(CC[C@@H]2CCC[C@@]2([NH3+])C(=O)OCCOCCOCCOC(=O)c2ccc(-c3c4nc(c(-c5c(F)c(F)c(F)c(F)c5F)c5ccc([nH]5)c(-c5c(F)c(F)c(F)c(F)c5F)c5nc(c(-c6c(F)c(F)c(F)c(F)c6F)c6ccc3[nH]6)C=C5)C=C4)cc2)c1C
REMARK SMILES IDX 20 1 19 2 18 3 17 4 16 5 14 6 15 7 12 8 8 9 9 10 10 11 11 12
REMARK SMILES IDX 7 13 6 14 5 15 1 16 2 17 3 18 91 19 4 20 92 21 13 22 21 26
REMARK SMILES IDX 22 27 23 28 24 29 25 30 26 31 27 32 28 33 29 34 90 35 30 36
REMARK SMILES IDX 89 37 31 38 32 39 33 40 83 41 34 42 88 43 82 44 84 45 35 46
REMARK SMILES IDX 87 47 81 48 80 49 36 51 68 52 48 53 67 54 49 55 52 56 66 57
REMARK SMILES IDX 85 58 50 59 51 60 65 62 86 63 53 64 37 65 38 66 46 67 39 68
REMARK SMILES IDX 40 69 44 70 47 71 41 72 42 73 45 74 43 75 69 76 70 77 78 78
REMARK SMILES IDX 71 79 72 80 76 81 79 82 73 83 74 84 77 85 75 86 54 87 55 88
REMARK SMILES IDX 63 89 56 90 57 91 61 92 64 93 58 94 59 95 62 96 60 97
REMARK H PARENT 13 23 13 24 13 25 84 50 52 61
REMARK Flexibility Score: inf
ROOT
ATOM      1  C   UNL A   1      41.212  20.258  26.800  1.00  0.00     0.188 C 
ENDROOT
BRANCH   1   2
ATOM      2  O   UNL A   1      39.984  20.167  26.111  1.00  0.00    -0.376 OA
BRANCH   2   3
ATOM      3  C   UNL A   1      39.335  21.401  25.844  1.00  0.00     0.202 C 
BRANCH   3   4
ATOM      4  C   UNL A   1      37.884  21.349  25.356  1.00  0.00     0.261 C 
BRANCH   4   5
ATOM      5  O   UNL A   1      37.407  22.521  24.655  1.00  0.00    -0.459 OA
BRANCH   5   6
ATOM      6  C   UNL A   1      36.633  23.431  25.292  1.00  0.00     0.368 C 
ATOM      7  O   UNL A   1      37.074  24.206  26.131  1.00  0.00    -0.245 OA
BRANCH   6   8
ATOM      8  C   UNL A   1      35.163  23.431  24.750  1.00  0.00     0.195 C 
ATOM      9  C   UNL A   1      34.450  24.812  24.570  1.00  0.00     0.064 C 
ATOM     10  C   UNL A   1      33.306  24.476  23.586  1.00  0.00     0.011 C 
ATOM     11  C   UNL A   1      33.847  23.368  22.685  1.00  0.00     0.008 C 
ATOM     12  C   UNL A   1      35.204  22.986  23.270  1.00  0.00     0.081 C 
BRANCH   9  13
ATOM     13  C   UNL A   1      33.887  25.611  25.764  1.00  0.00     0.032 C 
BRANCH  13  14
ATOM     14  C   UNL A   1      33.850  27.144  25.631  1.00  0.00     0.124 C 
BRANCH  14  15
ATOM     15  N   UNL A   1      32.715  27.679  24.897  1.00  0.00    -0.335 N 
ATOM     16  C   UNL A   1      30.718  29.272  22.306  1.00  0.00     0.069 C 
ATOM     17  C   UNL A   1      31.347  28.618  23.475  1.00  0.00     0.058 A 
ATOM     18  N   UNL A   1      30.581  28.169  24.519  1.00  0.00    -0.242 NA
ATOM     19  C   UNL A   1      32.690  28.390  23.717  1.00  0.00     0.037 A 
ATOM     20  C   UNL A   1      31.429  27.638  25.368  1.00  0.00     0.199 A 
ATOM     21  C   UNL A   1      33.854  28.803  22.900  1.00  0.00     0.066 C 
ENDBRANCH  14  15
ENDBRANCH  13  14
ENDBRANCH   9  13
BRANCH   8  22
ATOM     22  N   UNL A   1      34.328  22.419  25.439  1.00  0.00    -0.343 N 
ATOM     23  H   UNL A   1      34.799  22.113  26.292  1.00  0.00     0.345 HD
ATOM     24  H   UNL A   1      34.189  21.617  24.824  1.00  0.00     0.345 HD
ATOM     25  H   UNL A   1      33.425  22.826  25.677  1.00  0.00     0.345 HD
ENDBRANCH   8  22
ENDBRANCH   6   8
ENDBRANCH   5   6
ENDBRANCH   4   5
ENDBRANCH   3   4
ENDBRANCH   2   3
ENDBRANCH   1   2
BRANCH   1  26
ATOM     26  C   UNL A   1      42.250  19.204  26.369  1.00  0.00     0.188 C 
BRANCH  26  27
ATOM     27  O   UNL A   1      42.884  19.199  25.095  1.00  0.00    -0.376 OA
BRANCH  27  28
ATOM     28  C   UNL A   1      44.242  18.826  24.927  1.00  0.00     0.202 C 
BRANCH  28  29
ATOM     29  C   UNL A   1      45.027  19.504  23.815  1.00  0.00     0.261 C 
BRANCH  29  30
ATOM     30  O   UNL A   1      44.585  20.834  23.608  1.00  0.00    -0.460 OA
BRANCH  30  31
ATOM     31  C   UNL A   1      45.246  21.763  24.314  1.00  0.00     0.338 C 
ATOM     32  O   UNL A   1      46.446  22.045  24.251  1.00  0.00    -0.246 OA
BRANCH  31  33
ATOM     33  C   UNL A   1      44.307  22.428  25.215  1.00  0.00     0.060 A 
ATOM     34  C   UNL A   1      43.390  23.308  24.635  1.00  0.00     0.016 A 
ATOM     35  C   UNL A   1      44.494  22.353  26.605  1.00  0.00     0.016 A 
ATOM     36  C   UNL A   1      42.897  24.324  25.413  1.00  0.00     0.010 A 
ATOM     37  C   UNL A   1      44.003  23.366  27.384  1.00  0.00     0.010 A 
ATOM     38  C   UNL A   1      43.333  24.402  26.738  1.00  0.00    -0.014 A 
BRANCH  38  39
ATOM     39  C   UNL A   1      43.258  25.695  27.378  1.00  0.00     0.031 A 
ATOM     40  C   UNL A   1      44.361  26.608  27.061  1.00  0.00     0.074 A 
ATOM     41  C   UNL A   1      42.190  26.001  28.140  1.00  0.00     0.049 A 
ATOM     42  N   UNL A   1      45.213  27.128  27.877  1.00  0.00    -0.248 NA
ATOM     43  C   UNL A   1      44.609  26.905  25.643  1.00  0.00     0.031 C 
ATOM     44  C   UNL A   1      40.941  25.234  28.251  1.00  0.00     0.029 A 
ATOM     45  N   UNL A   1      41.941  27.113  28.889  1.00  0.00    -0.354 N 
ATOM     46  C   UNL A   1      45.977  27.988  27.100  1.00  0.00     0.074 A 
ATOM     47  C   UNL A   1      45.685  27.685  25.725  1.00  0.00     0.031 C 
ATOM     48  C   UNL A   1      40.000  26.002  28.837  1.00  0.00     0.029 A 
ATOM     49  C   UNL A   1      40.611  27.251  29.253  1.00  0.00     0.049 A 
ATOM     50  H   UNL A   1      42.640  27.757  29.147  1.00  0.00     0.167 HD
ATOM     51  C   UNL A   1      46.533  29.093  27.657  1.00  0.00     0.037 A 
ATOM     52  C   UNL A   1      40.031  28.348  29.793  1.00  0.00     0.037 A 
ATOM     53  C   UNL A   1      46.620  28.981  29.090  1.00  0.00     0.049 A 
ATOM     54  C   UNL A   1      41.093  29.172  30.416  1.00  0.00     0.074 A 
ATOM     55  C   UNL A   1      47.401  28.287  29.987  1.00  0.00     0.029 A 
ATOM     56  N   UNL A   1      45.529  29.446  29.773  1.00  0.00    -0.354 N 
ATOM     57  N   UNL A   1      41.783  28.802  31.459  1.00  0.00    -0.248 NA
ATOM     58  C   UNL A   1      41.631  30.320  29.691  1.00  0.00     0.031 C 
ATOM     59  C   UNL A   1      46.650  28.205  31.196  1.00  0.00     0.029 A 
ATOM     60  C   UNL A   1      45.426  28.842  30.999  1.00  0.00     0.049 A 
ATOM     61  H   UNL A   1      44.902  30.124  29.430  1.00  0.00     0.167 HD
ATOM     62  C   UNL A   1      43.021  29.386  31.278  1.00  0.00     0.074 A 
ATOM     63  C   UNL A   1      42.815  30.439  30.298  1.00  0.00     0.031 C 
ATOM     64  C   UNL A   1      44.157  28.748  31.681  1.00  0.00     0.037 A 
BRANCH  51  65
ATOM     65  C   UNL A   1      46.534  30.443  26.982  1.00  0.00     0.064 A 
ATOM     66  C   UNL A   1      47.728  31.189  26.968  1.00  0.00     0.173 A 
ATOM     67  C   UNL A   1      45.360  31.160  26.659  1.00  0.00     0.173 A 
ATOM     68  F   UNL A   1      48.896  30.610  27.285  1.00  0.00    -0.203 F 
ATOM     69  C   UNL A   1      47.731  32.564  26.720  1.00  0.00     0.198 A 
ATOM     70  C   UNL A   1      45.376  32.519  26.356  1.00  0.00     0.198 A 
ATOM     71  F   UNL A   1      44.141  30.613  26.739  1.00  0.00    -0.203 F 
ATOM     72  F   UNL A   1      48.871  33.258  26.843  1.00  0.00    -0.200 F 
ATOM     73  C   UNL A   1      46.556  33.228  26.420  1.00  0.00     0.200 A 
ATOM     74  F   UNL A   1      44.222  33.148  26.091  1.00  0.00    -0.200 F 
ATOM     75  F   UNL A   1      46.548  34.555  26.245  1.00  0.00    -0.200 F 
ENDBRANCH  51  65
BRANCH  52  76
ATOM     76  C   UNL A   1      38.644  28.827  29.594  1.00  0.00     0.064 A 
ATOM     77  C   UNL A   1      37.815  29.114  30.688  1.00  0.00     0.173 A 
ATOM     78  C   UNL A   1      38.186  29.253  28.331  1.00  0.00     0.173 A 
ATOM     79  F   UNL A   1      38.196  28.783  31.929  1.00  0.00    -0.203 F 
ATOM     80  C   UNL A   1      36.610  29.807  30.530  1.00  0.00     0.198 A 
ATOM     81  C   UNL A   1      36.977  29.928  28.173  1.00  0.00     0.198 A 
ATOM     82  F   UNL A   1      38.944  29.105  27.234  1.00  0.00    -0.203 F 
ATOM     83  F   UNL A   1      35.876  30.121  31.606  1.00  0.00    -0.200 F 
ATOM     84  C   UNL A   1      36.196  30.219  29.274  1.00  0.00     0.200 A 
ATOM     85  F   UNL A   1      36.606  30.348  26.954  1.00  0.00    -0.200 F 
ATOM     86  F   UNL A   1      35.070  30.930  29.129  1.00  0.00    -0.200 F 
ENDBRANCH  52  76
BRANCH  64  87
ATOM     87  C   UNL A   1      44.008  27.728  32.764  1.00  0.00     0.064 A 
ATOM     88  C   UNL A   1      43.961  26.344  32.532  1.00  0.00     0.173 A 
ATOM     89  C   UNL A   1      43.976  28.168  34.094  1.00  0.00     0.173 A 
ATOM     90  F   UNL A   1      44.071  25.852  31.292  1.00  0.00    -0.203 F 
ATOM     91  C   UNL A   1      43.834  25.445  33.589  1.00  0.00     0.198 A 
ATOM     92  C   UNL A   1      43.886  27.267  35.148  1.00  0.00     0.198 A 
ATOM     93  F   UNL A   1      44.067  29.479  34.369  1.00  0.00    -0.203 F 
ATOM     94  F   UNL A   1      43.765  24.128  33.345  1.00  0.00    -0.200 F 
ATOM     95  C   UNL A   1      43.801  25.907  34.895  1.00  0.00     0.200 A 
ATOM     96  F   UNL A   1      43.897  27.714  36.411  1.00  0.00    -0.200 F 
ATOM     97  F   UNL A   1      43.708  25.039  35.913  1.00  0.00    -0.200 F 
ENDBRANCH  64  87
ENDBRANCH  38  39
ENDBRANCH  31  33
ENDBRANCH  30  31
ENDBRANCH  29  30
ENDBRANCH  28  29
ENDBRANCH  27  28
ENDBRANCH  26  27
ENDBRANCH   1  26
TORSDOF 21
ENDMDL
MODEL 2
REMARK VINA RESULT:     -10.6      4.789      9.883
REMARK SMILES Cc1ncn(CC[C@@H]2CCC[C@@]2([NH3+])C(=O)OCCOCCOCCOC(=O)c2ccc(-c3c4nc(c(-c5c(F)c(F)c(F)c(F)c5F)c5ccc([nH]5)c(-c5c(F)c(F)c(F)c(F)c5F)c5nc(c(-c6c(F)c(F)c(F)c(F)c6F)c6ccc3[nH]6)C=C5)C=C4)cc2)c1C
REMARK SMILES IDX 20 1 19 2 18 3 17 4 16 5 14 6 15 7 12 8 8 9 9 10 10 11 11 12
REMARK SMILES IDX 7 13 6 14 5 15 1 16 2 17 3 18 91 19 4 20 92 21 13 22 21 26
REMARK SMILES IDX 22 27 23 28 24 29 25 30 26 31 27 32 28 33 29 34 90 35 30 36
REMARK SMILES IDX 89 37 31 38 32 39 33 40 83 41 34 42 88 43 82 44 84 45 35 46
REMARK SMILES IDX 87 47 81 48 80 49 36 51 68 52 48 53 67 54 49 55 52 56 66 57
REMARK SMILES IDX 85 58 50 59 51 60 65 62 86 63 53 64 37 65 38 66 46 67 39 68
REMARK SMILES IDX 40 69 44 70 47 71 41 72 42 73 45 74 43 75 69 76 70 77 78 78
REMARK SMILES IDX 71 79 72 80 76 81 79 82 73 83 74 84 77 85 75 86 54 87 55 88
REMARK SMILES IDX 63 89 56 90 57 91 61 92 64 93 58 94 59 95 62 96 60 97
REMARK H PARENT 13 23 13 24 13 25 84 50 52 61
REMARK Flexibility Score: inf
ROOT
ATOM      1  C   UNL A   1      34.198  31.520  28.052  1.00  0.00     0.188 C 
ENDROOT
BRANCH   1   2
ATOM      2  O   UNL A   1      33.926  30.782  26.881  1.00  0.00    -0.376 OA
BRANCH   2   3
ATOM      3  C   UNL A   1      33.446  29.461  27.084  1.00  0.00     0.202 C 
BRANCH   3   4
ATOM      4  C   UNL A   1      31.928  29.259  27.144  1.00  0.00     0.261 C 
BRANCH   4   5
ATOM      5  O   UNL A   1      31.379  28.286  26.226  1.00  0.00    -0.459 OA
BRANCH   5   6
ATOM      6  C   UNL A   1      31.457  28.486  24.889  1.00  0.00     0.368 C 
ATOM      7  O   UNL A   1      31.098  29.526  24.351  1.00  0.00    -0.245 OA
BRANCH   6   8
ATOM      8  C   UNL A   1      32.148  27.285  24.157  1.00  0.00     0.195 C 
ATOM      9  C   UNL A   1      31.274  26.412  23.198  1.00  0.00     0.064 C 
ATOM     10  C   UNL A   1      32.333  25.717  22.313  1.00  0.00     0.011 C 
ATOM     11  C   UNL A   1      33.484  26.713  22.185  1.00  0.00     0.008 C 
ATOM     12  C   UNL A   1      33.135  27.869  23.119  1.00  0.00     0.081 C 
BRANCH   9  13
ATOM     13  C   UNL A   1      30.270  25.364  23.723  1.00  0.00     0.032 C 
BRANCH  13  14
ATOM     14  C   UNL A   1      30.770  23.914  23.857  1.00  0.00     0.124 C 
BRANCH  14  15
ATOM     15  N   UNL A   1      31.285  23.551  25.166  1.00  0.00    -0.335 N 
ATOM     16  C   UNL A   1      33.412  22.183  27.783  1.00  0.00     0.069 C 
ATOM     17  C   UNL A   1      32.408  22.788  26.878  1.00  0.00     0.058 A 
ATOM     18  N   UNL A   1      31.316  23.442  27.385  1.00  0.00    -0.242 NA
ATOM     19  C   UNL A   1      32.377  22.777  25.495  1.00  0.00     0.037 A 
ATOM     20  C   UNL A   1      30.647  23.864  26.338  1.00  0.00     0.199 A 
ATOM     21  C   UNL A   1      33.303  22.100  24.560  1.00  0.00     0.066 C 
ENDBRANCH  14  15
ENDBRANCH  13  14
ENDBRANCH   9  13
BRANCH   8  22
ATOM     22  N   UNL A   1      32.985  26.489  25.086  1.00  0.00    -0.343 N 
ATOM     23  H   UNL A   1      32.745  25.501  24.998  1.00  0.00     0.345 HD
ATOM     24  H   UNL A   1      32.813  26.794  26.044  1.00  0.00     0.345 HD
ATOM     25  H   UNL A   1      33.969  26.623  24.858  1.00  0.00     0.345 HD
ENDBRANCH   8  22
ENDBRANCH   6   8
ENDBRANCH   5   6
ENDBRANCH   4   5
ENDBRANCH   3   4
ENDBRANCH   2   3
ENDBRANCH   1   2
BRANCH   1  26
ATOM     26  C   UNL A   1      35.259  32.621  27.865  1.00  0.00     0.188 C 
BRANCH  26  27
ATOM     27  O   UNL A   1      35.277  33.833  28.612  1.00  0.00    -0.376 OA
BRANCH  27  28
ATOM     28  C   UNL A   1      34.438  34.931  28.292  1.00  0.00     0.202 C 
BRANCH  28  29
ATOM     29  C   UNL A   1      33.355  35.305  29.293  1.00  0.00     0.261 C 
BRANCH  29  30
ATOM     30  O   UNL A   1      33.436  34.509  30.463  1.00  0.00    -0.460 OA
BRANCH  30  31
ATOM     31  C   UNL A   1      33.938  35.137  31.536  1.00  0.00     0.338 C 
ATOM     32  O   UNL A   1      33.744  36.305  31.885  1.00  0.00    -0.246 OA
BRANCH  31  33
ATOM     33  C   UNL A   1      34.790  34.205  32.273  1.00  0.00     0.060 A 
ATOM     34  C   UNL A   1      35.833  34.757  33.020  1.00  0.00     0.016 A 
ATOM     35  C   UNL A   1      34.689  32.824  32.035  1.00  0.00     0.016 A 
ATOM     36  C   UNL A   1      36.935  33.975  33.255  1.00  0.00     0.010 A 
ATOM     37  C   UNL A   1      35.787  32.042  32.269  1.00  0.00     0.010 A 
ATOM     38  C   UNL A   1      36.933  32.674  32.745  1.00  0.00    -0.014 A 
BRANCH  38  39
ATOM     39  C   UNL A   1      38.219  32.055  32.523  1.00  0.00     0.031 A 
ATOM     40  C   UNL A   1      39.059  31.922  33.718  1.00  0.00     0.074 A 
ATOM     41  C   UNL A   1      38.534  31.592  31.296  1.00  0.00     0.049 A 
ATOM     42  N   UNL A   1      40.221  32.439  33.926  1.00  0.00    -0.248 NA
ATOM     43  C   UNL A   1      38.491  31.204  34.868  1.00  0.00     0.031 C 
ATOM     44  C   UNL A   1      37.623  31.447  30.152  1.00  0.00     0.029 A 
ATOM     45  N   UNL A   1      39.697  31.048  30.841  1.00  0.00    -0.354 N 
ATOM     46  C   UNL A   1      40.625  31.934  35.154  1.00  0.00     0.074 A 
ATOM     47  C   UNL A   1      39.469  31.332  35.762  1.00  0.00     0.031 C 
ATOM     48  C   UNL A   1      38.202  30.662  29.221  1.00  0.00     0.029 A 
ATOM     49  C   UNL A   1      39.559  30.362  29.643  1.00  0.00     0.049 A 
ATOM     50  H   UNL A   1      40.555  31.133  31.316  1.00  0.00     0.167 HD
ATOM     51  C   UNL A   1      41.945  31.766  35.418  1.00  0.00     0.037 A 
ATOM     52  C   UNL A   1      40.469  29.541  29.072  1.00  0.00     0.037 A 
ATOM     53  C   UNL A   1      42.768  32.558  34.543  1.00  0.00     0.049 A 
ATOM     54  C   UNL A   1      41.804  29.883  29.618  1.00  0.00     0.074 A 
ATOM     55  C   UNL A   1      43.090  33.891  34.417  1.00  0.00     0.029 A 
ATOM     56  N   UNL A   1      43.140  31.937  33.381  1.00  0.00    -0.354 N 
ATOM     57  N   UNL A   1      42.415  31.013  29.392  1.00  0.00    -0.248 NA
ATOM     58  C   UNL A   1      42.367  29.079  30.699  1.00  0.00     0.031 C 
ATOM     59  C   UNL A   1      43.510  34.079  33.068  1.00  0.00     0.029 A 
ATOM     60  C   UNL A   1      43.421  32.856  32.404  1.00  0.00     0.049 A 
ATOM     61  H   UNL A   1      43.198  30.961  33.262  1.00  0.00     0.167 HD
ATOM     62  C   UNL A   1      43.148  31.243  30.539  1.00  0.00     0.074 A 
ATOM     63  C   UNL A   1      43.231  29.958  31.212  1.00  0.00     0.031 C 
ATOM     64  C   UNL A   1      43.332  32.511  31.005  1.00  0.00     0.037 A 
BRANCH  51  65
ATOM     65  C   UNL A   1      42.496  30.541  36.106  1.00  0.00     0.064 A 
ATOM     66  C   UNL A   1      43.484  30.709  37.095  1.00  0.00     0.173 A 
ATOM     67  C   UNL A   1      42.348  29.226  35.608  1.00  0.00     0.173 A 
ATOM     68  F   UNL A   1      43.725  31.922  37.616  1.00  0.00    -0.203 F 
ATOM     69  C   UNL A   1      44.306  29.655  37.499  1.00  0.00     0.198 A 
ATOM     70  C   UNL A   1      43.131  28.166  36.056  1.00  0.00     0.198 A 
ATOM     71  F   UNL A   1      41.529  28.935  34.590  1.00  0.00    -0.203 F 
ATOM     72  F   UNL A   1      45.317  29.889  38.347  1.00  0.00    -0.200 F 
ATOM     73  C   UNL A   1      44.133  28.386  36.976  1.00  0.00     0.200 A 
ATOM     74  F   UNL A   1      42.963  26.950  35.518  1.00  0.00    -0.200 F 
ATOM     75  F   UNL A   1      44.961  27.390  37.314  1.00  0.00    -0.200 F 
ENDBRANCH  51  65
BRANCH  52  76
ATOM     76  C   UNL A   1      40.211  28.331  28.259  1.00  0.00     0.064 A 
ATOM     77  C   UNL A   1      40.819  28.158  27.007  1.00  0.00     0.173 A 
ATOM     78  C   UNL A   1      39.560  27.205  28.801  1.00  0.00     0.173 A 
ATOM     79  F   UNL A   1      41.498  29.166  26.442  1.00  0.00    -0.203 F 
ATOM     80  C   UNL A   1      40.798  26.925  26.348  1.00  0.00     0.198 A 
ATOM     81  C   UNL A   1      39.524  25.981  28.135  1.00  0.00     0.198 A 
ATOM     82  F   UNL A   1      39.023  27.241  30.029  1.00  0.00    -0.203 F 
ATOM     83  F   UNL A   1      41.447  26.779  25.184  1.00  0.00    -0.200 F 
ATOM     84  C   UNL A   1      40.156  25.836  26.915  1.00  0.00     0.200 A 
ATOM     85  F   UNL A   1      38.926  24.929  28.712  1.00  0.00    -0.200 F 
ATOM     86  F   UNL A   1      40.182  24.641  26.310  1.00  0.00    -0.200 F 
ENDBRANCH  52  76
BRANCH  64  87
ATOM     87  C   UNL A   1      43.213  33.619  30.008  1.00  0.00     0.064 A 
ATOM     88  C   UNL A   1      44.264  34.040  29.178  1.00  0.00     0.173 A 
ATOM     89  C   UNL A   1      41.966  34.236  29.844  1.00  0.00     0.173 A 
ATOM     90  F   UNL A   1      45.459  33.436  29.224  1.00  0.00    -0.203 F 
ATOM     91  C   UNL A   1      44.083  35.071  28.260  1.00  0.00     0.198 A 
ATOM     92  C   UNL A   1      41.778  35.241  28.902  1.00  0.00     0.198 A 
ATOM     93  F   UNL A   1      40.917  33.836  30.581  1.00  0.00    -0.203 F 
ATOM     94  F   UNL A   1      45.107  35.476  27.493  1.00  0.00    -0.200 F 
ATOM     95  C   UNL A   1      42.839  35.668  28.120  1.00  0.00     0.200 A 
ATOM     96  F   UNL A   1      40.565  35.786  28.740  1.00  0.00    -0.200 F 
ATOM     97  F   UNL A   1      42.659  36.641  27.216  1.00  0.00    -0.200 F 
ENDBRANCH  64  87
ENDBRANCH  38  39
ENDBRANCH  31  33
ENDBRANCH  30  31
ENDBRANCH  29  30
ENDBRANCH  28  29
ENDBRANCH  27  28
ENDBRANCH  26  27
ENDBRANCH   1  26
TORSDOF 21
ENDMDL
MODEL 3
REMARK VINA RESULT:     -10.5      4.328      9.580
REMARK SMILES Cc1ncn(CC[C@@H]2CCC[C@@]2([NH3+])C(=O)OCCOCCOCCOC(=O)c2ccc(-c3c4nc(c(-c5c(F)c(F)c(F)c(F)c5F)c5ccc([nH]5)c(-c5c(F)c(F)c(F)c(F)c5F)c5nc(c(-c6c(F)c(F)c(F)c(F)c6F)c6ccc3[nH]6)C=C5)C=C4)cc2)c1C
REMARK SMILES IDX 20 1 19 2 18 3 17 4 16 5 14 6 15 7 12 8 8 9 9 10 10 11 11 12
REMARK SMILES IDX 7 13 6 14 5 15 1 16 2 17 3 18 91 19 4 20 92 21 13 22 21 26
REMARK SMILES IDX 22 27 23 28 24 29 25 30 26 31 27 32 28 33 29 34 90 35 30 36
REMARK SMILES IDX 89 37 31 38 32 39 33 40 83 41 34 42 88 43 82 44 84 45 35 46
REMARK SMILES IDX 87 47 81 48 80 49 36 51 68 52 48 53 67 54 49 55 52 56 66 57
REMARK SMILES IDX 85 58 50 59 51 60 65 62 86 63 53 64 37 65 38 66 46 67 39 68
REMARK SMILES IDX 40 69 44 70 47 71 41 72 42 73 45 74 43 75 69 76 70 77 78 78
REMARK SMILES IDX 71 79 72 80 76 81 79 82 73 83 74 84 77 85 75 86 54 87 55 88
REMARK SMILES IDX 63 89 56 90 57 91 61 92 64 93 58 94 59 95 62 96 60 97
REMARK H PARENT 13 23 13 24 13 25 84 50 52 61
REMARK Flexibility Score: inf
ROOT
ATOM      1  C   UNL A   1      34.112  31.149  27.731  1.00  0.00     0.188 C 
ENDROOT
BRANCH   1   2
ATOM      2  O   UNL A   1      34.724  29.879  27.791  1.00  0.00    -0.376 OA
BRANCH   2   3
ATOM      3  C   UNL A   1      34.508  29.037  26.668  1.00  0.00     0.202 C 
BRANCH   3   4
ATOM      4  C   UNL A   1      33.486  27.905  26.817  1.00  0.00     0.261 C 
BRANCH   4   5
ATOM      5  O   UNL A   1      33.746  26.710  26.046  1.00  0.00    -0.459 OA
BRANCH   5   6
ATOM      6  C   UNL A   1      32.869  25.679  26.065  1.00  0.00     0.368 C 
ATOM      7  O   UNL A   1      31.770  25.751  26.602  1.00  0.00    -0.245 OA
BRANCH   6   8
ATOM      8  C   UNL A   1      33.388  24.453  25.239  1.00  0.00     0.195 C 
ATOM      9  C   UNL A   1      33.490  24.606  23.686  1.00  0.00     0.064 C 
ATOM     10  C   UNL A   1      34.472  23.477  23.298  1.00  0.00     0.011 C 
ATOM     11  C   UNL A   1      35.434  23.342  24.476  1.00  0.00     0.008 C 
ATOM     12  C   UNL A   1      34.889  24.267  25.562  1.00  0.00     0.081 C 
BRANCH   9  13
ATOM     13  C   UNL A   1      32.250  24.551  22.769  1.00  0.00     0.032 C 
BRANCH  13  14
ATOM     14  C   UNL A   1      31.934  25.804  21.934  1.00  0.00     0.124 C 
BRANCH  14  15
ATOM     15  N   UNL A   1      32.005  27.066  22.651  1.00  0.00    -0.335 N 
ATOM     16  C   UNL A   1      31.170  29.834  24.861  1.00  0.00     0.069 C 
ATOM     17  C   UNL A   1      31.678  28.829  23.899  1.00  0.00     0.058 A 
ATOM     18  N   UNL A   1      32.886  29.007  23.277  1.00  0.00    -0.242 NA
ATOM     19  C   UNL A   1      31.071  27.661  23.472  1.00  0.00     0.037 A 
ATOM     20  C   UNL A   1      33.043  27.951  22.515  1.00  0.00     0.199 A 
ATOM     21  C   UNL A   1      29.727  27.144  23.815  1.00  0.00     0.066 C 
ENDBRANCH  14  15
ENDBRANCH  13  14
ENDBRANCH   9  13
BRANCH   8  22
ATOM     22  N   UNL A   1      32.737  23.192  25.669  1.00  0.00    -0.343 N 
ATOM     23  H   UNL A   1      33.449  22.474  25.815  1.00  0.00     0.345 HD
ATOM     24  H   UNL A   1      32.087  22.882  24.948  1.00  0.00     0.345 HD
ATOM     25  H   UNL A   1      32.231  23.350  26.540  1.00  0.00     0.345 HD
ENDBRANCH   8  22
ENDBRANCH   6   8
ENDBRANCH   5   6
ENDBRANCH   4   5
ENDBRANCH   3   4
ENDBRANCH   2   3
ENDBRANCH   1   2
BRANCH   1  26
ATOM     26  C   UNL A   1      35.095  32.325  27.883  1.00  0.00     0.188 C 
BRANCH  26  27
ATOM     27  O   UNL A   1      34.722  33.689  27.716  1.00  0.00    -0.376 OA
BRANCH  27  28
ATOM     28  C   UNL A   1      33.425  34.163  28.039  1.00  0.00     0.202 C 
BRANCH  28  29
ATOM     29  C   UNL A   1      33.297  35.118  29.216  1.00  0.00     0.261 C 
BRANCH  29  30
ATOM     30  O   UNL A   1      34.295  34.872  30.192  1.00  0.00    -0.460 OA
BRANCH  30  31
ATOM     31  C   UNL A   1      33.847  34.823  31.454  1.00  0.00     0.338 C 
ATOM     32  O   UNL A   1      32.783  35.269  31.894  1.00  0.00    -0.246 OA
BRANCH  31  33
ATOM     33  C   UNL A   1      34.837  34.134  32.281  1.00  0.00     0.060 A 
ATOM     34  C   UNL A   1      35.945  34.878  32.691  1.00  0.00     0.016 A 
ATOM     35  C   UNL A   1      34.772  32.740  32.437  1.00  0.00     0.016 A 
ATOM     36  C   UNL A   1      37.107  34.199  32.962  1.00  0.00     0.010 A 
ATOM     37  C   UNL A   1      35.929  32.061  32.708  1.00  0.00     0.010 A 
ATOM     38  C   UNL A   1      37.097  32.809  32.824  1.00  0.00    -0.014 A 
BRANCH  38  39
ATOM     39  C   UNL A   1      38.369  32.166  32.589  1.00  0.00     0.031 A 
ATOM     40  C   UNL A   1      39.220  32.020  33.775  1.00  0.00     0.074 A 
ATOM     41  C   UNL A   1      38.661  31.693  31.360  1.00  0.00     0.049 A 
ATOM     42  N   UNL A   1      40.394  32.515  33.968  1.00  0.00    -0.248 NA
ATOM     43  C   UNL A   1      38.652  31.315  34.933  1.00  0.00     0.031 C 
ATOM     44  C   UNL A   1      37.734  31.563  30.227  1.00  0.00     0.029 A 
ATOM     45  N   UNL A   1      39.808  31.126  30.893  1.00  0.00    -0.354 N 
ATOM     46  C   UNL A   1      40.803  32.006  35.192  1.00  0.00     0.074 A 
ATOM     47  C   UNL A   1      39.643  31.427  35.816  1.00  0.00     0.031 C 
ATOM     48  C   UNL A   1      38.288  30.765  29.291  1.00  0.00     0.029 A 
ATOM     49  C   UNL A   1      39.643  30.440  29.699  1.00  0.00     0.049 A 
ATOM     50  H   UNL A   1      40.673  31.196  31.358  1.00  0.00     0.167 HD
ATOM     51  C   UNL A   1      42.122  31.814  35.442  1.00  0.00     0.037 A 
ATOM     52  C   UNL A   1      40.532  29.601  29.119  1.00  0.00     0.037 A 
ATOM     53  C   UNL A   1      42.950  32.588  34.555  1.00  0.00     0.049 A 
ATOM     54  C   UNL A   1      41.878  29.919  29.649  1.00  0.00     0.074 A 
ATOM     55  C   UNL A   1      43.296  33.914  34.422  1.00  0.00     0.029 A 
ATOM     56  N   UNL A   1      43.296  31.957  33.390  1.00  0.00    -0.354 N 
ATOM     57  N   UNL A   1      42.508  31.036  29.413  1.00  0.00    -0.248 NA
ATOM     58  C   UNL A   1      42.439  29.107  30.726  1.00  0.00     0.031 C 
ATOM     59  C   UNL A   1      43.703  34.091  33.067  1.00  0.00     0.029 A 
ATOM     60  C   UNL A   1      43.584  32.868  32.408  1.00  0.00     0.049 A 
ATOM     61  H   UNL A   1      43.334  30.980  33.274  1.00  0.00     0.167 HD
ATOM     62  C   UNL A   1      43.259  31.256  30.551  1.00  0.00     0.074 A 
ATOM     63  C   UNL A   1      43.325  29.971  31.227  1.00  0.00     0.031 C 
ATOM     64  C   UNL A   1      43.472  32.521  31.011  1.00  0.00     0.037 A 
BRANCH  51  65
ATOM     65  C   UNL A   1      42.658  30.580  36.127  1.00  0.00     0.064 A 
ATOM     66  C   UNL A   1      43.636  30.735  37.128  1.00  0.00     0.173 A 
ATOM     67  C   UNL A   1      42.507  29.270  35.618  1.00  0.00     0.173 A 
ATOM     68  F   UNL A   1      43.878  31.943  37.661  1.00  0.00    -0.203 F 
ATOM     69  C   UNL A   1      44.447  29.673  37.533  1.00  0.00     0.198 A 
ATOM     70  C   UNL A   1      43.279  28.202  36.066  1.00  0.00     0.198 A 
ATOM     71  F   UNL A   1      41.698  28.991  34.588  1.00  0.00    -0.203 F 
ATOM     72  F   UNL A   1      45.449  29.894  38.395  1.00  0.00    -0.200 F 
ATOM     73  C   UNL A   1      44.272  28.409  36.999  1.00  0.00     0.200 A 
ATOM     74  F   UNL A   1      43.109  26.991  35.517  1.00  0.00    -0.200 F 
ATOM     75  F   UNL A   1      45.090  27.406  37.339  1.00  0.00    -0.200 F 
ENDBRANCH  51  65
BRANCH  52  76
ATOM     76  C   UNL A   1      40.241  28.394  28.313  1.00  0.00     0.064 A 
ATOM     77  C   UNL A   1      40.819  28.214  27.048  1.00  0.00     0.173 A 
ATOM     78  C   UNL A   1      39.589  27.276  28.869  1.00  0.00     0.173 A 
ATOM     79  F   UNL A   1      41.497  29.214  26.467  1.00  0.00    -0.203 F 
ATOM     80  C   UNL A   1      40.769  26.981  26.389  1.00  0.00     0.198 A 
ATOM     81  C   UNL A   1      39.523  26.052  28.204  1.00  0.00     0.198 A 
ATOM     82  F   UNL A   1      39.079  27.318  30.109  1.00  0.00    -0.203 F 
ATOM     83  F   UNL A   1      41.390  26.827  25.212  1.00  0.00    -0.200 F 
ATOM     84  C   UNL A   1      40.127  25.900  26.972  1.00  0.00     0.200 A 
ATOM     85  F   UNL A   1      38.927  25.007  28.796  1.00  0.00    -0.200 F 
ATOM     86  F   UNL A   1      40.126  24.704  26.367  1.00  0.00    -0.200 F 
ENDBRANCH  52  76
BRANCH  64  87
ATOM     87  C   UNL A   1      43.362  33.629  30.012  1.00  0.00     0.064 A 
ATOM     88  C   UNL A   1      42.172  34.323  29.743  1.00  0.00     0.173 A 
ATOM     89  C   UNL A   1      44.524  34.043  29.348  1.00  0.00     0.173 A 
ATOM     90  F   UNL A   1      41.044  34.033  30.403  1.00  0.00    -0.203 F 
ATOM     91  C   UNL A   1      42.142  35.355  28.808  1.00  0.00     0.198 A 
ATOM     92  C   UNL A   1      44.498  35.097  28.442  1.00  0.00     0.198 A 
ATOM     93  F   UNL A   1      45.696  33.442  29.607  1.00  0.00    -0.203 F 
ATOM     94  F   UNL A   1      40.989  35.991  28.546  1.00  0.00    -0.200 F 
ATOM     95  C   UNL A   1      43.305  35.744  28.162  1.00  0.00     0.200 A 
ATOM     96  F   UNL A   1      45.632  35.498  27.851  1.00  0.00    -0.200 F 
ATOM     97  F   UNL A   1      43.279  36.756  27.284  1.00  0.00    -0.200 F 
ENDBRANCH  64  87
ENDBRANCH  38  39
ENDBRANCH  31  33
ENDBRANCH  30  31
ENDBRANCH  29  30
ENDBRANCH  28  29
ENDBRANCH  27  28
ENDBRANCH  26  27
ENDBRANCH   1  26
TORSDOF 21
ENDMDL
