MODEL 1
REMARK VINA RESULT:     -12.6      0.000      0.000
REMARK SMILES Cc1cc(F)ccc1OC1(C(=O)OCCOCCOCCOC(=O)c2ccc(-c3c4nc(c(-c5c(F)c(F)c(F)c(F)c5F)c5ccc([nH]5)c(-c5c(F)c(F)c(F)c(F)c5F)c5nc(c(-c6c(F)c(F)c(F)c(F)c6F)c6ccc3[nH]6)C=C5)C=C4)cc2)CCN(C(=O)[C@H]2CCOC2)CC1
REMARK SMILES IDX 17 1 16 2 15 3 14 4 13 5 11 6 12 7 10 8 88 9 99 10 89 11
REMARK SMILES IDX 98 12 90 13 91 14 92 15 9 16 8 17 1 18 2 19 3 20 4 21 7 22
REMARK SMILES IDX 5 23 6 24 93 25 94 26 97 27 95 28 96 29 18 30 19 31 20 32
REMARK SMILES IDX 21 33 22 34 23 35 24 36 25 37 26 38 87 39 27 40 86 41 28 42
REMARK SMILES IDX 29 43 30 44 80 45 31 46 85 47 79 48 81 49 32 50 84 51 78 52
REMARK SMILES IDX 77 53 33 55 65 56 45 57 64 58 46 59 49 60 63 61 82 62 47 63
REMARK SMILES IDX 48 64 62 66 83 67 50 68 34 69 35 70 43 71 36 72 37 73 41 74
REMARK SMILES IDX 44 75 38 76 39 77 42 78 40 79 66 80 67 81 75 82 68 83 69 84
REMARK SMILES IDX 73 85 76 86 70 87 71 88 74 89 72 90 51 91 52 92 60 93 53 94
REMARK SMILES IDX 54 95 58 96 61 97 55 98 56 99 59 100 57 101
REMARK H PARENT 81 54 49 65
REMARK Flexibility Score: inf
ROOT
ATOM      1  C   UNL A   1      32.551  31.032  27.156  1.00  0.00     0.188 C 
ENDROOT
BRANCH   1   2
ATOM      2  O   UNL A   1      31.845  29.840  26.843  1.00  0.00    -0.376 OA
BRANCH   2   3
ATOM      3  C   UNL A   1      32.589  28.637  27.002  1.00  0.00     0.202 C 
BRANCH   3   4
ATOM      4  C   UNL A   1      31.769  27.333  27.102  1.00  0.00     0.261 C 
BRANCH   4   5
ATOM      5  O   UNL A   1      32.394  26.145  26.551  1.00  0.00    -0.460 OA
BRANCH   5   6
ATOM      6  C   UNL A   1      31.590  25.182  26.009  1.00  0.00     0.350 C 
ATOM      7  O   UNL A   1      30.445  24.975  26.406  1.00  0.00    -0.247 OA
BRANCH   6   8
ATOM      8  C   UNL A   1      32.236  24.378  24.802  1.00  0.00     0.209 C 
ATOM      9  C   UNL A   1      33.758  24.289  24.902  1.00  0.00     0.082 C 
ATOM     10  C   UNL A   1      31.458  23.066  24.883  1.00  0.00     0.082 C 
ATOM     11  C   UNL A   1      34.403  22.911  24.846  1.00  0.00     0.124 C 
ATOM     12  C   UNL A   1      32.161  21.829  24.386  1.00  0.00     0.124 C 
ATOM     13  N   UNL A   1      33.558  21.723  24.796  1.00  0.00    -0.342 N 
ATOM     14  C   UNL A   1      34.266  20.518  24.820  1.00  0.00     0.228 C 
ATOM     15  O   UNL A   1      35.491  20.510  24.972  1.00  0.00    -0.274 OA
BRANCH   8  16
ATOM     16  O   UNL A   1      31.833  25.244  23.710  1.00  0.00    -0.475 OA
BRANCH  16  17
ATOM     17  C   UNL A   1      31.530  26.550  23.510  1.00  0.00     0.124 A 
ATOM     18  C   UNL A   1      33.766  27.870  23.571  1.00  0.00     0.048 C 
ATOM     19  C   UNL A   1      32.296  27.718  23.387  1.00  0.00    -0.006 A 
ATOM     20  C   UNL A   1      31.652  28.960  23.142  1.00  0.00     0.046 A 
ATOM     21  C   UNL A   1      30.274  29.061  23.076  1.00  0.00     0.123 A 
ATOM     22  C   UNL A   1      30.123  26.705  23.460  1.00  0.00     0.050 A 
ATOM     23  F   UNL A   1      29.704  30.254  22.862  1.00  0.00    -0.207 F 
ATOM     24  C   UNL A   1      29.496  27.939  23.254  1.00  0.00     0.043 A 
ENDBRANCH  16  17
ENDBRANCH   8  16
BRANCH  14  25
ATOM     25  C   UNL A   1      33.516  19.217  24.594  1.00  0.00     0.107 C 
ATOM     26  C   UNL A   1      34.455  18.063  24.315  1.00  0.00     0.044 C 
ATOM     27  C   UNL A   1      32.810  18.759  25.858  1.00  0.00     0.173 C 
ATOM     28  C   UNL A   1      33.727  16.861  24.878  1.00  0.00     0.161 C 
ATOM     29  O   UNL A   1      32.748  17.330  25.808  1.00  0.00    -0.381 OA
ENDBRANCH  14  25
ENDBRANCH   6   8
ENDBRANCH   5   6
ENDBRANCH   4   5
ENDBRANCH   3   4
ENDBRANCH   2   3
ENDBRANCH   1   2
BRANCH   1  30
ATOM     30  C   UNL A   1      33.929  30.834  27.788  1.00  0.00     0.188 C 
BRANCH  30  31
ATOM     31  O   UNL A   1      35.075  31.486  27.249  1.00  0.00    -0.376 OA
BRANCH  31  32
ATOM     32  C   UNL A   1      35.501  32.689  27.912  1.00  0.00     0.202 C 
BRANCH  32  33
ATOM     33  C   UNL A   1      35.701  32.641  29.447  1.00  0.00     0.261 C 
BRANCH  33  34
ATOM     34  O   UNL A   1      36.409  31.495  29.911  1.00  0.00    -0.460 OA
BRANCH  34  35
ATOM     35  C   UNL A   1      37.628  31.358  29.376  1.00  0.00     0.338 C 
ATOM     36  O   UNL A   1      38.563  32.158  29.422  1.00  0.00    -0.246 OA
BRANCH  35  37
ATOM     37  C   UNL A   1      37.765  30.011  28.828  1.00  0.00     0.060 A 
ATOM     38  C   UNL A   1      37.456  28.946  29.693  1.00  0.00     0.016 A 
ATOM     39  C   UNL A   1      38.540  29.876  27.683  1.00  0.00     0.016 A 
ATOM     40  C   UNL A   1      38.305  27.883  29.705  1.00  0.00     0.010 A 
ATOM     41  C   UNL A   1      39.414  28.840  27.713  1.00  0.00     0.010 A 
ATOM     42  C   UNL A   1      39.374  27.998  28.838  1.00  0.00    -0.014 A 
BRANCH  42  43
ATOM     43  C   UNL A   1      40.667  27.499  29.210  1.00  0.00     0.031 A 
ATOM     44  C   UNL A   1      40.925  26.128  28.813  1.00  0.00     0.074 A 
ATOM     45  C   UNL A   1      41.522  28.458  29.633  1.00  0.00     0.049 A 
ATOM     46  N   UNL A   1      41.892  25.409  29.239  1.00  0.00    -0.248 NA
ATOM     47  C   UNL A   1      40.003  25.403  27.936  1.00  0.00     0.031 C 
ATOM     48  C   UNL A   1      42.976  28.487  29.620  1.00  0.00     0.029 A 
ATOM     49  N   UNL A   1      41.164  29.623  30.348  1.00  0.00    -0.354 N 
ATOM     50  C   UNL A   1      41.973  24.346  28.367  1.00  0.00     0.074 A 
ATOM     51  C   UNL A   1      40.682  24.275  27.737  1.00  0.00     0.031 C 
ATOM     52  C   UNL A   1      43.397  29.404  30.512  1.00  0.00     0.029 A 
ATOM     53  C   UNL A   1      42.222  29.859  31.246  1.00  0.00     0.049 A 
ATOM     54  H   UNL A   1      40.344  30.159  30.240  1.00  0.00     0.167 HD
ATOM     55  C   UNL A   1      43.218  23.854  28.110  1.00  0.00     0.037 A 
ATOM     56  C   UNL A   1      42.026  29.634  32.580  1.00  0.00     0.037 A 
ATOM     57  C   UNL A   1      44.182  24.497  29.017  1.00  0.00     0.049 A 
ATOM     58  C   UNL A   1      42.854  28.463  33.064  1.00  0.00     0.074 A 
ATOM     59  C   UNL A   1      45.054  25.562  28.843  1.00  0.00     0.029 A 
ATOM     60  N   UNL A   1      44.005  24.363  30.396  1.00  0.00    -0.354 N 
ATOM     61  N   UNL A   1      43.144  27.412  32.343  1.00  0.00    -0.248 NA
ATOM     62  C   UNL A   1      43.480  28.447  34.379  1.00  0.00     0.031 C 
ATOM     63  C   UNL A   1      45.332  26.115  30.124  1.00  0.00     0.029 A 
ATOM     64  C   UNL A   1      44.634  25.389  31.076  1.00  0.00     0.049 A 
ATOM     65  H   UNL A   1      43.500  23.634  30.826  1.00  0.00     0.167 HD
ATOM     66  C   UNL A   1      44.020  26.619  33.041  1.00  0.00     0.074 A 
ATOM     67  C   UNL A   1      44.192  27.310  34.309  1.00  0.00     0.031 C 
ATOM     68  C   UNL A   1      44.574  25.477  32.530  1.00  0.00     0.037 A 
BRANCH  55  69
ATOM     69  C   UNL A   1      43.600  23.128  26.834  1.00  0.00     0.064 A 
ATOM     70  C   UNL A   1      43.220  21.781  26.652  1.00  0.00     0.173 A 
ATOM     71  C   UNL A   1      44.391  23.650  25.789  1.00  0.00     0.173 A 
ATOM     72  F   UNL A   1      42.396  21.166  27.511  1.00  0.00    -0.203 F 
ATOM     73  C   UNL A   1      43.667  21.006  25.577  1.00  0.00     0.198 A 
ATOM     74  C   UNL A   1      44.867  22.867  24.731  1.00  0.00     0.198 A 
ATOM     75  F   UNL A   1      44.698  24.945  25.705  1.00  0.00    -0.203 F 
ATOM     76  F   UNL A   1      43.280  19.728  25.475  1.00  0.00    -0.200 F 
ATOM     77  C   UNL A   1      44.512  21.542  24.628  1.00  0.00     0.200 A 
ATOM     78  F   UNL A   1      45.669  23.419  23.808  1.00  0.00    -0.200 F 
ATOM     79  F   UNL A   1      44.958  20.796  23.610  1.00  0.00    -0.200 F 
ENDBRANCH  55  69
BRANCH  56  80
ATOM     80  C   UNL A   1      40.643  29.962  33.043  1.00  0.00     0.064 A 
ATOM     81  C   UNL A   1      40.259  31.319  33.115  1.00  0.00     0.173 A 
ATOM     82  C   UNL A   1      39.620  29.009  33.071  1.00  0.00     0.173 A 
ATOM     83  F   UNL A   1      41.198  32.279  33.111  1.00  0.00    -0.203 F 
ATOM     84  C   UNL A   1      38.917  31.703  33.100  1.00  0.00     0.198 A 
ATOM     85  C   UNL A   1      38.275  29.398  33.051  1.00  0.00     0.198 A 
ATOM     86  F   UNL A   1      39.906  27.701  33.018  1.00  0.00    -0.203 F 
ATOM     87  F   UNL A   1      38.591  33.004  33.085  1.00  0.00    -0.200 F 
ATOM     88  C   UNL A   1      37.926  30.740  33.030  1.00  0.00     0.200 A 
ATOM     89  F   UNL A   1      37.312  28.467  32.960  1.00  0.00    -0.200 F 
ATOM     90  F   UNL A   1      36.639  31.096  32.893  1.00  0.00    -0.200 F 
ENDBRANCH  56  80
BRANCH  68  91
ATOM     91  C   UNL A   1      45.251  24.394  33.346  1.00  0.00     0.064 A 
ATOM     92  C   UNL A   1      44.659  23.157  33.653  1.00  0.00     0.173 A 
ATOM     93  C   UNL A   1      46.606  24.523  33.746  1.00  0.00     0.173 A 
ATOM     94  F   UNL A   1      43.454  22.817  33.180  1.00  0.00    -0.203 F 
ATOM     95  C   UNL A   1      45.318  22.187  34.410  1.00  0.00     0.198 A 
ATOM     96  C   UNL A   1      47.288  23.517  34.425  1.00  0.00     0.198 A 
ATOM     97  F   UNL A   1      47.332  25.614  33.464  1.00  0.00    -0.203 F 
ATOM     98  F   UNL A   1      44.671  21.062  34.747  1.00  0.00    -0.200 F 
ATOM     99  C   UNL A   1      46.632  22.363  34.792  1.00  0.00     0.200 A 
ATOM    100  F   UNL A   1      48.589  23.671  34.709  1.00  0.00    -0.200 F 
ATOM    101  F   UNL A   1      47.272  21.413  35.484  1.00  0.00    -0.200 F 
ENDBRANCH  68  91
ENDBRANCH  42  43
ENDBRANCH  35  37
ENDBRANCH  34  35
ENDBRANCH  33  34
ENDBRANCH  32  33
ENDBRANCH  31  32
ENDBRANCH  30  31
ENDBRANCH   1  30
TORSDOF 20
ENDMDL
MODEL 2
REMARK VINA RESULT:     -11.6      4.287      9.407
REMARK SMILES Cc1cc(F)ccc1OC1(C(=O)OCCOCCOCCOC(=O)c2ccc(-c3c4nc(c(-c5c(F)c(F)c(F)c(F)c5F)c5ccc([nH]5)c(-c5c(F)c(F)c(F)c(F)c5F)c5nc(c(-c6c(F)c(F)c(F)c(F)c6F)c6ccc3[nH]6)C=C5)C=C4)cc2)CCN(C(=O)[C@H]2CCOC2)CC1
REMARK SMILES IDX 17 1 16 2 15 3 14 4 13 5 11 6 12 7 10 8 88 9 99 10 89 11
REMARK SMILES IDX 98 12 90 13 91 14 92 15 9 16 8 17 1 18 2 19 3 20 4 21 7 22
REMARK SMILES IDX 5 23 6 24 93 25 94 26 97 27 95 28 96 29 18 30 19 31 20 32
REMARK SMILES IDX 21 33 22 34 23 35 24 36 25 37 26 38 87 39 27 40 86 41 28 42
REMARK SMILES IDX 29 43 30 44 80 45 31 46 85 47 79 48 81 49 32 50 84 51 78 52
REMARK SMILES IDX 77 53 33 55 65 56 45 57 64 58 46 59 49 60 63 61 82 62 47 63
REMARK SMILES IDX 48 64 62 66 83 67 50 68 34 69 35 70 43 71 36 72 37 73 41 74
REMARK SMILES IDX 44 75 38 76 39 77 42 78 40 79 66 80 67 81 75 82 68 83 69 84
REMARK SMILES IDX 73 85 76 86 70 87 71 88 74 89 72 90 51 91 52 92 60 93 53 94
REMARK SMILES IDX 54 95 58 96 61 97 55 98 56 99 59 100 57 101
REMARK H PARENT 81 54 49 65
REMARK Flexibility Score: inf
ROOT
ATOM      1  C   UNL A   1      39.447  22.839  26.495  1.00  0.00     0.188 C 
ENDROOT
BRANCH   1   2
ATOM      2  O   UNL A   1      38.151  23.301  26.141  1.00  0.00    -0.376 OA
BRANCH   2   3
ATOM      3  C   UNL A   1      37.521  22.585  25.084  1.00  0.00     0.202 C 
BRANCH   3   4
ATOM      4  C   UNL A   1      36.697  23.425  24.084  1.00  0.00     0.261 C 
BRANCH   4   5
ATOM      5  O   UNL A   1      35.384  23.844  24.538  1.00  0.00    -0.460 OA
BRANCH   5   6
ATOM      6  C   UNL A   1      34.338  23.753  23.666  1.00  0.00     0.350 C 
ATOM      7  O   UNL A   1      34.314  24.353  22.593  1.00  0.00    -0.247 OA
BRANCH   6   8
ATOM      8  C   UNL A   1      33.171  22.780  24.127  1.00  0.00     0.209 C 
ATOM      9  C   UNL A   1      32.387  22.203  22.949  1.00  0.00     0.082 C 
ATOM     10  C   UNL A   1      33.947  21.790  24.994  1.00  0.00     0.082 C 
ATOM     11  C   UNL A   1      32.245  20.690  22.851  1.00  0.00     0.124 C 
ATOM     12  C   UNL A   1      33.395  20.391  25.086  1.00  0.00     0.124 C 
ATOM     13  N   UNL A   1      32.932  19.840  23.817  1.00  0.00    -0.342 N 
ATOM     14  C   UNL A   1      32.782  18.470  23.578  1.00  0.00     0.228 C 
ATOM     15  O   UNL A   1      32.195  18.067  22.570  1.00  0.00    -0.274 OA
BRANCH   8  16
ATOM     16  O   UNL A   1      32.367  23.727  24.876  1.00  0.00    -0.475 OA
BRANCH  16  17
ATOM     17  C   UNL A   1      31.887  24.986  24.734  1.00  0.00     0.124 A 
ATOM     18  C   UNL A   1      33.582  26.582  25.886  1.00  0.00     0.048 C 
ATOM     19  C   UNL A   1      32.368  26.255  25.089  1.00  0.00    -0.006 A 
ATOM     20  C   UNL A   1      31.614  27.412  24.756  1.00  0.00     0.046 A 
ATOM     21  C   UNL A   1      30.382  27.321  24.136  1.00  0.00     0.123 A 
ATOM     22  C   UNL A   1      30.611  24.939  24.122  1.00  0.00     0.050 A 
ATOM     23  F   UNL A   1      29.694  28.434  23.855  1.00  0.00    -0.207 F 
ATOM     24  C   UNL A   1      29.859  26.083  23.830  1.00  0.00     0.043 A 
ENDBRANCH  16  17
ENDBRANCH   8  16
BRANCH  14  25
ATOM     25  C   UNL A   1      33.298  17.482  24.609  1.00  0.00     0.107 C 
ATOM     26  C   UNL A   1      32.171  16.727  25.283  1.00  0.00     0.044 C 
ATOM     27  C   UNL A   1      34.090  16.363  23.956  1.00  0.00     0.173 C 
ATOM     28  C   UNL A   1      32.784  15.381  25.610  1.00  0.00     0.161 C 
ATOM     29  O   UNL A   1      33.935  15.203  24.781  1.00  0.00    -0.381 OA
ENDBRANCH  14  25
ENDBRANCH   6   8
ENDBRANCH   5   6
ENDBRANCH   4   5
ENDBRANCH   3   4
ENDBRANCH   2   3
ENDBRANCH   1   2
BRANCH   1  30
ATOM     30  C   UNL A   1      39.679  21.337  26.325  1.00  0.00     0.188 C 
BRANCH  30  31
ATOM     31  O   UNL A   1      40.508  20.624  27.238  1.00  0.00    -0.376 OA
BRANCH  31  32
ATOM     32  C   UNL A   1      41.496  19.752  26.662  1.00  0.00     0.202 C 
BRANCH  32  33
ATOM     33  C   UNL A   1      42.673  20.398  25.889  1.00  0.00     0.261 C 
BRANCH  33  34
ATOM     34  O   UNL A   1      43.055  21.684  26.369  1.00  0.00    -0.460 OA
BRANCH  34  35
ATOM     35  C   UNL A   1      43.530  22.498  25.419  1.00  0.00     0.338 C 
ATOM     36  O   UNL A   1      42.961  22.865  24.390  1.00  0.00    -0.246 OA
BRANCH  35  37
ATOM     37  C   UNL A   1      44.817  23.038  25.846  1.00  0.00     0.060 A 
ATOM     38  C   UNL A   1      45.144  22.883  27.206  1.00  0.00     0.016 A 
ATOM     39  C   UNL A   1      45.414  23.975  25.011  1.00  0.00     0.016 A 
ATOM     40  C   UNL A   1      45.677  23.958  27.849  1.00  0.00     0.010 A 
ATOM     41  C   UNL A   1      45.908  25.064  25.649  1.00  0.00     0.010 A 
ATOM     42  C   UNL A   1      45.834  25.076  27.053  1.00  0.00    -0.014 A 
BRANCH  42  43
ATOM     43  C   UNL A   1      45.607  26.387  27.591  1.00  0.00     0.031 A 
ATOM     44  C   UNL A   1      44.240  26.861  27.476  1.00  0.00     0.074 A 
ATOM     45  C   UNL A   1      46.630  26.855  28.341  1.00  0.00     0.049 A 
ATOM     46  N   UNL A   1      43.863  28.068  27.660  1.00  0.00    -0.248 NA
ATOM     47  C   UNL A   1      43.164  25.978  27.024  1.00  0.00     0.031 C 
ATOM     48  C   UNL A   1      46.629  27.833  29.417  1.00  0.00     0.029 A 
ATOM     49  N   UNL A   1      48.000  26.587  28.124  1.00  0.00    -0.354 N 
ATOM     50  C   UNL A   1      42.495  28.009  27.805  1.00  0.00     0.074 A 
ATOM     51  C   UNL A   1      42.105  26.765  27.196  1.00  0.00     0.031 C 
ATOM     52  C   UNL A   1      47.882  28.307  29.570  1.00  0.00     0.029 A 
ATOM     53  C   UNL A   1      48.679  27.770  28.474  1.00  0.00     0.049 A 
ATOM     54  H   UNL A   1      48.398  25.749  27.795  1.00  0.00     0.167 HD
ATOM     55  C   UNL A   1      41.928  28.900  28.667  1.00  0.00     0.037 A 
ATOM     56  C   UNL A   1      49.228  28.540  27.487  1.00  0.00     0.037 A 
ATOM     57  C   UNL A   1      42.953  29.863  29.100  1.00  0.00     0.049 A 
ATOM     58  C   UNL A   1      48.508  29.865  27.363  1.00  0.00     0.074 A 
ATOM     59  C   UNL A   1      43.735  29.935  30.243  1.00  0.00     0.029 A 
ATOM     60  N   UNL A   1      43.603  30.638  28.137  1.00  0.00    -0.354 N 
ATOM     61  N   UNL A   1      47.230  30.037  27.579  1.00  0.00    -0.248 NA
ATOM     62  C   UNL A   1      49.211  31.106  27.065  1.00  0.00     0.031 C 
ATOM     63  C   UNL A   1      44.899  30.692  29.931  1.00  0.00     0.029 A 
ATOM     64  C   UNL A   1      44.826  31.081  28.603  1.00  0.00     0.049 A 
ATOM     65  H   UNL A   1      43.237  30.841  27.245  1.00  0.00     0.167 HD
ATOM     66  C   UNL A   1      46.942  31.377  27.515  1.00  0.00     0.074 A 
ATOM     67  C   UNL A   1      48.215  31.999  27.185  1.00  0.00     0.031 C 
ATOM     68  C   UNL A   1      45.700  31.895  27.768  1.00  0.00     0.037 A 
BRANCH  55  69
ATOM     69  C   UNL A   1      40.616  28.667  29.390  1.00  0.00     0.064 A 
ATOM     70  C   UNL A   1      39.394  28.932  28.732  1.00  0.00     0.173 A 
ATOM     71  C   UNL A   1      40.469  28.265  30.734  1.00  0.00     0.173 A 
ATOM     72  F   UNL A   1      39.357  29.239  27.428  1.00  0.00    -0.203 F 
ATOM     73  C   UNL A   1      38.158  28.890  29.383  1.00  0.00     0.198 A 
ATOM     74  C   UNL A   1      39.237  28.255  31.397  1.00  0.00     0.198 A 
ATOM     75  F   UNL A   1      41.494  27.811  31.457  1.00  0.00    -0.203 F 
ATOM     76  F   UNL A   1      37.040  29.168  28.700  1.00  0.00    -0.200 F 
ATOM     77  C   UNL A   1      38.080  28.575  30.723  1.00  0.00     0.200 A 
ATOM     78  F   UNL A   1      39.186  27.923  32.695  1.00  0.00    -0.200 F 
ATOM     79  F   UNL A   1      36.899  28.554  31.354  1.00  0.00    -0.200 F 
ENDBRANCH  55  69
BRANCH  56  80
ATOM     80  C   UNL A   1      49.773  27.745  26.345  1.00  0.00     0.064 A 
ATOM     81  C   UNL A   1      48.994  27.621  25.174  1.00  0.00     0.173 A 
ATOM     82  C   UNL A   1      51.131  27.421  26.242  1.00  0.00     0.173 A 
ATOM     83  F   UNL A   1      47.681  27.900  25.214  1.00  0.00    -0.203 F 
ATOM     84  C   UNL A   1      49.566  27.300  23.942  1.00  0.00     0.198 A 
ATOM     85  C   UNL A   1      51.702  27.104  25.004  1.00  0.00     0.198 A 
ATOM     86  F   UNL A   1      51.933  27.502  27.313  1.00  0.00    -0.203 F 
ATOM     87  F   UNL A   1      48.808  27.273  22.836  1.00  0.00    -0.200 F 
ATOM     88  C   UNL A   1      50.929  27.078  23.853  1.00  0.00     0.200 A 
ATOM     89  F   UNL A   1      53.027  26.911  24.910  1.00  0.00    -0.200 F 
ATOM     90  F   UNL A   1      51.511  26.888  22.658  1.00  0.00    -0.200 F 
ENDBRANCH  56  80
BRANCH  68  91
ATOM     91  C   UNL A   1      45.238  33.285  27.379  1.00  0.00     0.064 A 
ATOM     92  C   UNL A   1      44.309  33.546  26.358  1.00  0.00     0.173 A 
ATOM     93  C   UNL A   1      45.631  34.420  28.133  1.00  0.00     0.173 A 
ATOM     94  F   UNL A   1      43.706  32.557  25.686  1.00  0.00    -0.203 F 
ATOM     95  C   UNL A   1      43.911  34.843  26.031  1.00  0.00     0.198 A 
ATOM     96  C   UNL A   1      45.164  35.703  27.859  1.00  0.00     0.198 A 
ATOM     97  F   UNL A   1      46.456  34.326  29.186  1.00  0.00    -0.203 F 
ATOM     98  F   UNL A   1      43.090  35.038  24.989  1.00  0.00    -0.200 F 
ATOM     99  C   UNL A   1      44.333  35.920  26.783  1.00  0.00     0.200 A 
ATOM    100  F   UNL A   1      45.516  36.722  28.656  1.00  0.00    -0.200 F 
ATOM    101  F   UNL A   1      43.917  37.159  26.489  1.00  0.00    -0.200 F 
ENDBRANCH  68  91
ENDBRANCH  42  43
ENDBRANCH  35  37
ENDBRANCH  34  35
ENDBRANCH  33  34
ENDBRANCH  32  33
ENDBRANCH  31  32
ENDBRANCH  30  31
ENDBRANCH   1  30
TORSDOF 20
ENDMDL
MODEL 3
REMARK VINA RESULT:     -11.4      4.566     10.141
REMARK SMILES Cc1cc(F)ccc1OC1(C(=O)OCCOCCOCCOC(=O)c2ccc(-c3c4nc(c(-c5c(F)c(F)c(F)c(F)c5F)c5ccc([nH]5)c(-c5c(F)c(F)c(F)c(F)c5F)c5nc(c(-c6c(F)c(F)c(F)c(F)c6F)c6ccc3[nH]6)C=C5)C=C4)cc2)CCN(C(=O)[C@H]2CCOC2)CC1
REMARK SMILES IDX 17 1 16 2 15 3 14 4 13 5 11 6 12 7 10 8 88 9 99 10 89 11
REMARK SMILES IDX 98 12 90 13 91 14 92 15 9 16 8 17 1 18 2 19 3 20 4 21 7 22
REMARK SMILES IDX 5 23 6 24 93 25 94 26 97 27 95 28 96 29 18 30 19 31 20 32
REMARK SMILES IDX 21 33 22 34 23 35 24 36 25 37 26 38 87 39 27 40 86 41 28 42
REMARK SMILES IDX 29 43 30 44 80 45 31 46 85 47 79 48 81 49 32 50 84 51 78 52
REMARK SMILES IDX 77 53 33 55 65 56 45 57 64 58 46 59 49 60 63 61 82 62 47 63
REMARK SMILES IDX 48 64 62 66 83 67 50 68 34 69 35 70 43 71 36 72 37 73 41 74
REMARK SMILES IDX 44 75 38 76 39 77 42 78 40 79 66 80 67 81 75 82 68 83 69 84
REMARK SMILES IDX 73 85 76 86 70 87 71 88 74 89 72 90 51 91 52 92 60 93 53 94
REMARK SMILES IDX 54 95 58 96 61 97 55 98 56 99 59 100 57 101
REMARK H PARENT 81 54 49 65
REMARK Flexibility Score: inf
ROOT
ATOM      1  C   UNL A   1      38.530  24.443  26.924  1.00  0.00     0.188 C 
ENDROOT
BRANCH   1   2
ATOM      2  O   UNL A   1      38.034  24.003  25.668  1.00  0.00    -0.376 OA
BRANCH   2   3
ATOM      3  C   UNL A   1      37.270  22.803  25.706  1.00  0.00     0.202 C 
BRANCH   3   4
ATOM      4  C   UNL A   1      36.116  22.692  24.686  1.00  0.00     0.261 C 
BRANCH   4   5
ATOM      5  O   UNL A   1      35.231  23.839  24.603  1.00  0.00    -0.460 OA
BRANCH   5   6
ATOM      6  C   UNL A   1      34.240  23.825  23.663  1.00  0.00     0.350 C 
ATOM      7  O   UNL A   1      34.429  23.454  22.506  1.00  0.00    -0.247 OA
BRANCH   6   8
ATOM      8  C   UNL A   1      32.816  24.289  24.190  1.00  0.00     0.209 C 
ATOM      9  C   UNL A   1      32.911  25.355  25.281  1.00  0.00     0.082 C 
ATOM     10  C   UNL A   1      32.143  24.696  22.880  1.00  0.00     0.082 C 
ATOM     11  C   UNL A   1      32.144  26.655  25.085  1.00  0.00     0.124 C 
ATOM     12  C   UNL A   1      31.084  25.764  22.965  1.00  0.00     0.124 C 
ATOM     13  N   UNL A   1      31.425  26.884  23.836  1.00  0.00    -0.342 N 
ATOM     14  C   UNL A   1      30.822  28.143  23.748  1.00  0.00     0.228 C 
ATOM     15  O   UNL A   1      30.992  28.986  24.633  1.00  0.00    -0.274 OA
BRANCH   8  16
ATOM     16  O   UNL A   1      32.351  23.025  24.732  1.00  0.00    -0.475 OA
BRANCH  16  17
ATOM     17  C   UNL A   1      32.539  21.700  24.520  1.00  0.00     0.124 A 
ATOM     18  C   UNL A   1      31.831  21.213  22.069  1.00  0.00     0.048 C 
ATOM     19  C   UNL A   1      32.391  20.865  23.404  1.00  0.00    -0.006 A 
ATOM     20  C   UNL A   1      32.712  19.485  23.510  1.00  0.00     0.046 A 
ATOM     21  C   UNL A   1      33.119  18.925  24.707  1.00  0.00     0.123 A 
ATOM     22  C   UNL A   1      32.934  21.080  25.730  1.00  0.00     0.050 A 
ATOM     23  F   UNL A   1      33.395  17.617  24.770  1.00  0.00    -0.207 F 
ATOM     24  C   UNL A   1      33.215  19.713  25.833  1.00  0.00     0.043 A 
ENDBRANCH  16  17
ENDBRANCH   8  16
BRANCH  14  25
ATOM     25  C   UNL A   1      29.899  28.437  22.579  1.00  0.00     0.107 C 
ATOM     26  C   UNL A   1      28.491  28.756  23.036  1.00  0.00     0.044 C 
ATOM     27  C   UNL A   1      30.303  29.715  21.864  1.00  0.00     0.173 C 
ATOM     28  C   UNL A   1      27.981  29.721  21.986  1.00  0.00     0.161 C 
ATOM     29  O   UNL A   1      29.109  30.278  21.309  1.00  0.00    -0.381 OA
ENDBRANCH  14  25
ENDBRANCH   6   8
ENDBRANCH   5   6
ENDBRANCH   4   5
ENDBRANCH   3   4
ENDBRANCH   2   3
ENDBRANCH   1   2
BRANCH   1  30
ATOM     30  C   UNL A   1      39.798  23.742  27.412  1.00  0.00     0.188 C 
BRANCH  30  31
ATOM     31  O   UNL A   1      40.686  23.122  26.487  1.00  0.00    -0.376 OA
BRANCH  31  32
ATOM     32  C   UNL A   1      40.869  21.702  26.624  1.00  0.00     0.202 C 
BRANCH  32  33
ATOM     33  C   UNL A   1      42.140  21.070  26.003  1.00  0.00     0.261 C 
BRANCH  33  34
ATOM     34  O   UNL A   1      43.349  21.753  26.318  1.00  0.00    -0.460 OA
BRANCH  34  35
ATOM     35  C   UNL A   1      43.846  22.471  25.303  1.00  0.00     0.338 C 
ATOM     36  O   UNL A   1      43.297  22.740  24.233  1.00  0.00    -0.246 OA
BRANCH  35  37
ATOM     37  C   UNL A   1      45.127  23.046  25.701  1.00  0.00     0.060 A 
ATOM     38  C   UNL A   1      45.496  22.888  27.050  1.00  0.00     0.016 A 
ATOM     39  C   UNL A   1      45.672  24.008  24.860  1.00  0.00     0.016 A 
ATOM     40  C   UNL A   1      46.013  23.972  27.689  1.00  0.00     0.010 A 
ATOM     41  C   UNL A   1      46.151  25.106  25.495  1.00  0.00     0.010 A 
ATOM     42  C   UNL A   1      46.115  25.102  26.900  1.00  0.00    -0.014 A 
BRANCH  42  43
ATOM     43  C   UNL A   1      45.864  26.401  27.457  1.00  0.00     0.031 A 
ATOM     44  C   UNL A   1      44.492  26.856  27.337  1.00  0.00     0.074 A 
ATOM     45  C   UNL A   1      46.873  26.872  28.224  1.00  0.00     0.049 A 
ATOM     46  N   UNL A   1      44.095  28.054  27.538  1.00  0.00    -0.248 NA
ATOM     47  C   UNL A   1      43.432  25.965  26.862  1.00  0.00     0.031 C 
ATOM     48  C   UNL A   1      46.849  27.831  29.316  1.00  0.00     0.029 A 
ATOM     49  N   UNL A   1      48.249  26.628  28.014  1.00  0.00    -0.354 N 
ATOM     50  C   UNL A   1      42.726  27.973  27.669  1.00  0.00     0.074 A 
ATOM     51  C   UNL A   1      42.360  26.734  27.037  1.00  0.00     0.031 C 
ATOM     52  C   UNL A   1      48.093  28.321  29.488  1.00  0.00     0.029 A 
ATOM     53  C   UNL A   1      48.908  27.815  28.390  1.00  0.00     0.049 A 
ATOM     54  H   UNL A   1      48.663  25.800  27.676  1.00  0.00     0.167 HD
ATOM     55  C   UNL A   1      42.139  28.841  28.541  1.00  0.00     0.037 A 
ATOM     56  C   UNL A   1      49.454  28.608  27.420  1.00  0.00     0.037 A 
ATOM     57  C   UNL A   1      43.146  29.812  28.999  1.00  0.00     0.049 A 
ATOM     58  C   UNL A   1      48.715  29.925  27.311  1.00  0.00     0.074 A 
ATOM     59  C   UNL A   1      43.917  29.878  30.149  1.00  0.00     0.029 A 
ATOM     60  N   UNL A   1      43.792  30.612  28.053  1.00  0.00    -0.354 N 
ATOM     61  N   UNL A   1      47.433  30.074  27.519  1.00  0.00    -0.248 NA
ATOM     62  C   UNL A   1      49.402  31.180  27.040  1.00  0.00     0.031 C 
ATOM     63  C   UNL A   1      45.072  30.656  29.860  1.00  0.00     0.029 A 
ATOM     64  C   UNL A   1      45.005  31.066  28.538  1.00  0.00     0.049 A 
ATOM     65  H   UNL A   1      43.431  30.825  27.162  1.00  0.00     0.167 HD
ATOM     66  C   UNL A   1      47.125  31.411  27.473  1.00  0.00     0.074 A 
ATOM     67  C   UNL A   1      48.392  32.057  27.165  1.00  0.00     0.031 C 
ATOM     68  C   UNL A   1      45.874  31.906  27.724  1.00  0.00     0.037 A 
BRANCH  55  69
ATOM     69  C   UNL A   1      40.824  28.578  29.248  1.00  0.00     0.064 A 
ATOM     70  C   UNL A   1      39.605  28.830  28.581  1.00  0.00     0.173 A 
ATOM     71  C   UNL A   1      40.672  28.156  30.585  1.00  0.00     0.173 A 
ATOM     72  F   UNL A   1      39.574  29.154  27.282  1.00  0.00    -0.203 F 
ATOM     73  C   UNL A   1      38.363  28.759  29.221  1.00  0.00     0.198 A 
ATOM     74  C   UNL A   1      39.433  28.117  31.236  1.00  0.00     0.198 A 
ATOM     75  F   UNL A   1      41.697  27.709  31.313  1.00  0.00    -0.203 F 
ATOM     76  F   UNL A   1      37.247  29.028  28.531  1.00  0.00    -0.200 F 
ATOM     77  C   UNL A   1      38.278  28.426  30.556  1.00  0.00     0.200 A 
ATOM     78  F   UNL A   1      39.376  27.766  32.530  1.00  0.00    -0.200 F 
ATOM     79  F   UNL A   1      37.092  28.377  31.174  1.00  0.00    -0.200 F 
ENDBRANCH  55  69
BRANCH  56  80
ATOM     80  C   UNL A   1      50.021  27.841  26.270  1.00  0.00     0.064 A 
ATOM     81  C   UNL A   1      49.240  27.698  25.102  1.00  0.00     0.173 A 
ATOM     82  C   UNL A   1      51.388  27.563  26.160  1.00  0.00     0.173 A 
ATOM     83  F   UNL A   1      47.919  27.932  25.150  1.00  0.00    -0.203 F 
ATOM     84  C   UNL A   1      49.818  27.405  23.865  1.00  0.00     0.198 A 
ATOM     85  C   UNL A   1      51.964  27.275  24.918  1.00  0.00     0.198 A 
ATOM     86  F   UNL A   1      52.192  27.665  27.228  1.00  0.00    -0.203 F 
ATOM     87  F   UNL A   1      49.057  27.360  22.762  1.00  0.00    -0.200 F 
ATOM     88  C   UNL A   1      51.188  27.230  23.769  1.00  0.00     0.200 A 
ATOM     89  F   UNL A   1      53.294  27.128  24.817  1.00  0.00    -0.200 F 
ATOM     90  F   UNL A   1      51.771  27.068  22.570  1.00  0.00    -0.200 F 
ENDBRANCH  56  80
BRANCH  68  91
ATOM     91  C   UNL A   1      45.395  33.295  27.354  1.00  0.00     0.064 A 
ATOM     92  C   UNL A   1      44.444  33.556  26.352  1.00  0.00     0.173 A 
ATOM     93  C   UNL A   1      45.794  34.428  28.108  1.00  0.00     0.173 A 
ATOM     94  F   UNL A   1      43.836  32.568  25.685  1.00  0.00    -0.203 F 
ATOM     95  C   UNL A   1      44.031  34.853  26.042  1.00  0.00     0.198 A 
ATOM     96  C   UNL A   1      45.312  35.709  27.851  1.00  0.00     0.198 A 
ATOM     97  F   UNL A   1      46.640  34.333  29.144  1.00  0.00    -0.203 F 
ATOM     98  F   UNL A   1      43.189  35.048  25.017  1.00  0.00    -0.200 F 
ATOM     99  C   UNL A   1      44.459  35.928  26.792  1.00  0.00     0.200 A 
ATOM    100  F   UNL A   1      45.672  36.726  28.648  1.00  0.00    -0.200 F 
ATOM    101  F   UNL A   1      44.029  37.165  26.516  1.00  0.00    -0.200 F 
ENDBRANCH  68  91
ENDBRANCH  42  43
ENDBRANCH  35  37
ENDBRANCH  34  35
ENDBRANCH  33  34
ENDBRANCH  32  33
ENDBRANCH  31  32
ENDBRANCH  30  31
ENDBRANCH   1  30
TORSDOF 20
ENDMDL
