MODEL 1
REMARK VINA RESULT:     -10.0      0.000      0.000
REMARK SMILES CC(C)c1cc(N2CCC(C(=O)OCCOCCOCCOC(=O)c3ccc(-c4c5nc(c(-c6c(F)c(F)c(F)c(F)c6F)c6ccc([nH]6)c(-c6c(F)c(F)c(F)c(F)c6F)c6nc(c(-c7c(F)c(F)c(F)c(F)c7F)c7ccc4[nH]7)C=C6)C=C5)cc3)CC2)nc(-c2ccc(F)cc2)n1
REMARK SMILES IDX 17 1 16 2 15 3 14 4 13 5 11 6 12 7 10 8 7 9 8 10 89 11 9 12
REMARK SMILES IDX 88 13 6 14 4 15 5 16 99 17 91 18 90 19 2 20 1 21 3 22 92 23
REMARK SMILES IDX 93 24 98 25 94 26 97 27 95 28 96 29 18 30 19 31 20 32 21 33
REMARK SMILES IDX 22 34 23 35 24 36 25 37 26 38 87 39 27 40 86 41 28 42 29 43
REMARK SMILES IDX 30 44 80 45 31 46 85 47 79 48 81 49 32 50 84 51 78 52 77 53
REMARK SMILES IDX 33 55 65 56 45 57 64 58 46 59 49 60 63 61 82 62 47 63 48 64
REMARK SMILES IDX 62 66 83 67 50 68 34 69 35 70 43 71 36 72 37 73 41 74 44 75
REMARK SMILES IDX 38 76 39 77 42 78 40 79 66 80 67 81 75 82 68 83 69 84 73 85
REMARK SMILES IDX 76 86 70 87 71 88 74 89 72 90 51 91 52 92 60 93 53 94 54 95
REMARK SMILES IDX 58 96 61 97 55 98 56 99 59 100 57 101
REMARK H PARENT 81 54 49 65
REMARK Flexibility Score: inf
ROOT
ATOM      1  C   UNL A   1      33.382  27.594  25.789  1.00  0.00     0.188 C 
ENDROOT
BRANCH   1   2
ATOM      2  O   UNL A   1      33.387  26.185  25.636  1.00  0.00    -0.376 OA
BRANCH   2   3
ATOM      3  C   UNL A   1      32.653  25.652  24.537  1.00  0.00     0.202 C 
BRANCH   3   4
ATOM      4  C   UNL A   1      31.787  24.409  24.797  1.00  0.00     0.261 C 
BRANCH   4   5
ATOM      5  O   UNL A   1      32.105  23.254  23.990  1.00  0.00    -0.463 OA
BRANCH   5   6
ATOM      6  C   UNL A   1      32.530  22.153  24.671  1.00  0.00     0.309 C 
ATOM      7  O   UNL A   1      31.832  21.500  25.440  1.00  0.00    -0.252 OA
BRANCH   6   8
ATOM      8  C   UNL A   1      33.971  21.754  24.385  1.00  0.00     0.103 C 
ATOM      9  N   UNL A   1      36.726  22.009  25.012  1.00  0.00    -0.356 N 
ATOM     10  C   UNL A   1      36.328  22.474  23.699  1.00  0.00     0.119 C 
ATOM     11  C   UNL A   1      36.033  20.869  25.567  1.00  0.00     0.119 C 
ATOM     12  C   UNL A   1      34.843  22.820  23.706  1.00  0.00     0.037 C 
ATOM     13  C   UNL A   1      34.566  21.250  25.706  1.00  0.00     0.037 C 
BRANCH   9  14
ATOM     14  C   UNL A   1      37.926  22.460  25.500  1.00  0.00     0.132 A 
ATOM     15  C   UNL A   1      39.277  24.092  26.550  1.00  0.00     0.049 A 
ATOM     16  C   UNL A   1      38.083  23.760  25.936  1.00  0.00     0.071 A 
ATOM     17  N   UNL A   1      40.285  23.203  26.653  1.00  0.00    -0.233 NA
ATOM     18  C   UNL A   1      40.074  21.984  26.129  1.00  0.00     0.161 A 
ATOM     19  N   UNL A   1      38.923  21.567  25.584  1.00  0.00    -0.211 NA
BRANCH  15  20
ATOM     20  C   UNL A   1      39.475  25.481  27.135  1.00  0.00     0.032 C 
ATOM     21  C   UNL A   1      39.766  25.417  28.639  1.00  0.00     0.014 C 
ATOM     22  C   UNL A   1      40.592  26.267  26.439  1.00  0.00     0.014 C 
ENDBRANCH  15  20
BRANCH  18  23
ATOM     23  C   UNL A   1      41.212  21.061  26.092  1.00  0.00     0.019 A 
ATOM     24  C   UNL A   1      42.513  21.517  25.812  1.00  0.00     0.015 A 
ATOM     25  C   UNL A   1      41.024  19.680  26.305  1.00  0.00     0.015 A 
ATOM     26  C   UNL A   1      43.587  20.627  25.746  1.00  0.00     0.040 A 
ATOM     27  C   UNL A   1      42.094  18.786  26.220  1.00  0.00     0.040 A 
ATOM     28  C   UNL A   1      43.365  19.269  25.942  1.00  0.00     0.123 A 
ATOM     29  F   UNL A   1      44.392  18.414  25.859  1.00  0.00    -0.207 F 
ENDBRANCH  18  23
ENDBRANCH   9  14
ENDBRANCH   6   8
ENDBRANCH   5   6
ENDBRANCH   4   5
ENDBRANCH   3   4
ENDBRANCH   2   3
ENDBRANCH   1   2
BRANCH   1  30
ATOM     30  C   UNL A   1      32.790  28.434  24.655  1.00  0.00     0.188 C 
BRANCH  30  31
ATOM     31  O   UNL A   1      32.698  29.830  24.857  1.00  0.00    -0.376 OA
BRANCH  31  32
ATOM     32  C   UNL A   1      31.733  30.241  25.831  1.00  0.00     0.202 C 
BRANCH  32  33
ATOM     33  C   UNL A   1      32.290  31.038  27.036  1.00  0.00     0.261 C 
BRANCH  33  34
ATOM     34  O   UNL A   1      33.724  31.247  27.089  1.00  0.00    -0.460 OA
BRANCH  34  35
ATOM     35  C   UNL A   1      34.188  32.361  27.706  1.00  0.00     0.338 C 
ATOM     36  O   UNL A   1      33.599  33.426  27.803  1.00  0.00    -0.246 OA
BRANCH  35  37
ATOM     37  C   UNL A   1      35.400  32.010  28.513  1.00  0.00     0.060 A 
ATOM     38  C   UNL A   1      36.472  32.918  28.529  1.00  0.00     0.016 A 
ATOM     39  C   UNL A   1      35.469  30.866  29.313  1.00  0.00     0.016 A 
ATOM     40  C   UNL A   1      37.613  32.674  29.310  1.00  0.00     0.010 A 
ATOM     41  C   UNL A   1      36.623  30.612  30.079  1.00  0.00     0.010 A 
ATOM     42  C   UNL A   1      37.713  31.503  30.072  1.00  0.00    -0.014 A 
BRANCH  42  43
ATOM     43  C   UNL A   1      38.993  31.133  30.746  1.00  0.00     0.031 A 
ATOM     44  C   UNL A   1      39.299  31.722  32.101  1.00  0.00     0.074 A 
ATOM     45  C   UNL A   1      39.886  30.295  30.184  1.00  0.00     0.049 A 
ATOM     46  N   UNL A   1      40.384  31.629  32.828  1.00  0.00    -0.248 NA
ATOM     47  C   UNL A   1      38.231  32.525  32.718  1.00  0.00     0.031 C 
ATOM     48  C   UNL A   1      39.716  29.605  28.909  1.00  0.00     0.029 A 
ATOM     49  N   UNL A   1      41.134  29.897  30.614  1.00  0.00    -0.354 N 
ATOM     50  C   UNL A   1      40.138  32.371  33.978  1.00  0.00     0.074 A 
ATOM     51  C   UNL A   1      38.805  32.921  33.845  1.00  0.00     0.031 C 
ATOM     52  C   UNL A   1      40.823  28.887  28.648  1.00  0.00     0.029 A 
ATOM     53  C   UNL A   1      41.802  29.099  29.715  1.00  0.00     0.049 A 
ATOM     54  H   UNL A   1      41.512  30.160  31.484  1.00  0.00     0.167 HD
ATOM     55  C   UNL A   1      40.945  32.578  35.046  1.00  0.00     0.037 A 
ATOM     56  C   UNL A   1      43.066  28.624  29.731  1.00  0.00     0.037 A 
ATOM     57  C   UNL A   1      42.269  32.032  35.193  1.00  0.00     0.049 A 
ATOM     58  C   UNL A   1      43.979  28.950  30.892  1.00  0.00     0.074 A 
ATOM     59  C   UNL A   1      43.140  32.163  36.263  1.00  0.00     0.029 A 
ATOM     60  N   UNL A   1      42.921  31.264  34.242  1.00  0.00    -0.354 N 
ATOM     61  N   UNL A   1      43.724  29.622  31.987  1.00  0.00    -0.248 NA
ATOM     62  C   UNL A   1      45.363  28.452  30.813  1.00  0.00     0.031 C 
ATOM     63  C   UNL A   1      44.343  31.532  35.931  1.00  0.00     0.029 A 
ATOM     64  C   UNL A   1      44.199  30.950  34.683  1.00  0.00     0.049 A 
ATOM     65  H   UNL A   1      42.535  30.983  33.381  1.00  0.00     0.167 HD
ATOM     66  C   UNL A   1      44.898  29.601  32.734  1.00  0.00     0.074 A 
ATOM     67  C   UNL A   1      45.861  28.832  31.980  1.00  0.00     0.031 C 
ATOM     68  C   UNL A   1      45.154  30.173  33.937  1.00  0.00     0.037 A 
BRANCH  55  69
ATOM     69  C   UNL A   1      40.438  33.462  36.148  1.00  0.00     0.064 A 
ATOM     70  C   UNL A   1      40.791  34.817  36.231  1.00  0.00     0.173 A 
ATOM     71  C   UNL A   1      39.517  32.964  37.085  1.00  0.00     0.173 A 
ATOM     72  F   UNL A   1      41.673  35.339  35.366  1.00  0.00    -0.203 F 
ATOM     73  C   UNL A   1      40.253  35.636  37.221  1.00  0.00     0.198 A 
ATOM     74  C   UNL A   1      38.959  33.793  38.053  1.00  0.00     0.198 A 
ATOM     75  F   UNL A   1      39.141  31.677  37.044  1.00  0.00    -0.203 F 
ATOM     76  F   UNL A   1      40.628  36.920  37.302  1.00  0.00    -0.200 F 
ATOM     77  C   UNL A   1      39.330  35.127  38.124  1.00  0.00     0.200 A 
ATOM     78  F   UNL A   1      38.056  33.303  38.913  1.00  0.00    -0.200 F 
ATOM     79  F   UNL A   1      38.798  35.923  39.062  1.00  0.00    -0.200 F 
ENDBRANCH  55  69
BRANCH  56  80
ATOM     80  C   UNL A   1      43.588  27.817  28.590  1.00  0.00     0.064 A 
ATOM     81  C   UNL A   1      43.507  26.416  28.594  1.00  0.00     0.173 A 
ATOM     82  C   UNL A   1      44.246  28.424  27.511  1.00  0.00     0.173 A 
ATOM     83  F   UNL A   1      42.922  25.782  29.621  1.00  0.00    -0.203 F 
ATOM     84  C   UNL A   1      44.091  25.656  27.582  1.00  0.00     0.198 A 
ATOM     85  C   UNL A   1      44.798  27.665  26.480  1.00  0.00     0.198 A 
ATOM     86  F   UNL A   1      44.367  29.759  27.461  1.00  0.00    -0.203 F 
ATOM     87  F   UNL A   1      44.062  24.318  27.650  1.00  0.00    -0.200 F 
ATOM     88  C   UNL A   1      44.732  26.281  26.522  1.00  0.00     0.200 A 
ATOM     89  F   UNL A   1      45.412  28.274  25.456  1.00  0.00    -0.200 F 
ATOM     90  F   UNL A   1      45.300  25.549  25.555  1.00  0.00    -0.200 F 
ENDBRANCH  56  80
BRANCH  68  91
ATOM     91  C   UNL A   1      46.516  29.963  34.537  1.00  0.00     0.064 A 
ATOM     92  C   UNL A   1      46.805  28.855  35.348  1.00  0.00     0.173 A 
ATOM     93  C   UNL A   1      47.562  30.860  34.263  1.00  0.00     0.173 A 
ATOM     94  F   UNL A   1      45.841  27.973  35.653  1.00  0.00    -0.203 F 
ATOM     95  C   UNL A   1      48.078  28.669  35.884  1.00  0.00     0.198 A 
ATOM     96  C   UNL A   1      48.842  30.653  34.773  1.00  0.00     0.198 A 
ATOM     97  F   UNL A   1      47.347  31.932  33.486  1.00  0.00    -0.203 F 
ATOM     98  F   UNL A   1      48.314  27.630  36.698  1.00  0.00    -0.200 F 
ATOM     99  C   UNL A   1      49.096  29.562  35.589  1.00  0.00     0.200 A 
ATOM    100  F   UNL A   1      49.829  31.508  34.471  1.00  0.00    -0.200 F 
ATOM    101  F   UNL A   1      50.322  29.376  36.098  1.00  0.00    -0.200 F 
ENDBRANCH  68  91
ENDBRANCH  42  43
ENDBRANCH  35  37
ENDBRANCH  34  35
ENDBRANCH  33  34
ENDBRANCH  32  33
ENDBRANCH  31  32
ENDBRANCH  30  31
ENDBRANCH   1  30
TORSDOF 20
ENDMDL
MODEL 2
REMARK VINA RESULT:      -9.9      3.591      7.103
REMARK SMILES CC(C)c1cc(N2CCC(C(=O)OCCOCCOCCOC(=O)c3ccc(-c4c5nc(c(-c6c(F)c(F)c(F)c(F)c6F)c6ccc([nH]6)c(-c6c(F)c(F)c(F)c(F)c6F)c6nc(c(-c7c(F)c(F)c(F)c(F)c7F)c7ccc4[nH]7)C=C6)C=C5)cc3)CC2)nc(-c2ccc(F)cc2)n1
REMARK SMILES IDX 17 1 16 2 15 3 14 4 13 5 11 6 12 7 10 8 7 9 8 10 89 11 9 12
REMARK SMILES IDX 88 13 6 14 4 15 5 16 99 17 91 18 90 19 2 20 1 21 3 22 92 23
REMARK SMILES IDX 93 24 98 25 94 26 97 27 95 28 96 29 18 30 19 31 20 32 21 33
REMARK SMILES IDX 22 34 23 35 24 36 25 37 26 38 87 39 27 40 86 41 28 42 29 43
REMARK SMILES IDX 30 44 80 45 31 46 85 47 79 48 81 49 32 50 84 51 78 52 77 53
REMARK SMILES IDX 33 55 65 56 45 57 64 58 46 59 49 60 63 61 82 62 47 63 48 64
REMARK SMILES IDX 62 66 83 67 50 68 34 69 35 70 43 71 36 72 37 73 41 74 44 75
REMARK SMILES IDX 38 76 39 77 42 78 40 79 66 80 67 81 75 82 68 83 69 84 73 85
REMARK SMILES IDX 76 86 70 87 71 88 74 89 72 90 51 91 52 92 60 93 53 94 54 95
REMARK SMILES IDX 58 96 61 97 55 98 56 99 59 100 57 101
REMARK H PARENT 81 54 49 65
REMARK Flexibility Score: inf
ROOT
ATOM      1  C   UNL A   1      38.203  34.313  31.345  1.00  0.00     0.188 C 
ENDROOT
BRANCH   1   2
ATOM      2  O   UNL A   1      39.619  34.326  31.386  1.00  0.00    -0.376 OA
BRANCH   2   3
ATOM      3  C   UNL A   1      40.303  34.193  30.142  1.00  0.00     0.202 C 
BRANCH   3   4
ATOM      4  C   UNL A   1      41.755  33.691  30.180  1.00  0.00     0.261 C 
BRANCH   4   5
ATOM      5  O   UNL A   1      41.929  32.282  29.910  1.00  0.00    -0.463 OA
BRANCH   5   6
ATOM      6  C   UNL A   1      43.217  31.841  29.873  1.00  0.00     0.309 C 
ATOM      7  O   UNL A   1      43.999  31.897  30.817  1.00  0.00    -0.252 OA
BRANCH   6   8
ATOM      8  C   UNL A   1      43.632  31.222  28.545  1.00  0.00     0.103 C 
ATOM      9  N   UNL A   1      45.289  29.403  27.132  1.00  0.00    -0.356 N 
ATOM     10  C   UNL A   1      45.482  30.806  26.827  1.00  0.00     0.119 C 
ATOM     11  C   UNL A   1      43.952  28.956  27.451  1.00  0.00     0.119 C 
ATOM     12  C   UNL A   1      44.999  31.656  27.998  1.00  0.00     0.037 C 
ATOM     13  C   UNL A   1      43.509  29.701  28.702  1.00  0.00     0.037 C 
BRANCH   9  14
ATOM     14  C   UNL A   1      46.299  28.541  26.788  1.00  0.00     0.132 A 
ATOM     15  C   UNL A   1      47.864  26.843  27.295  1.00  0.00     0.049 A 
ATOM     16  C   UNL A   1      46.963  27.794  27.740  1.00  0.00     0.071 A 
ATOM     17  N   UNL A   1      48.144  26.698  25.986  1.00  0.00    -0.233 NA
ATOM     18  C   UNL A   1      47.511  27.523  25.135  1.00  0.00     0.161 A 
ATOM     19  N   UNL A   1      46.576  28.419  25.481  1.00  0.00    -0.211 NA
BRANCH  15  20
ATOM     20  C   UNL A   1      48.556  25.925  28.289  1.00  0.00     0.032 C 
ATOM     21  C   UNL A   1      49.510  24.955  27.582  1.00  0.00     0.014 C 
ATOM     22  C   UNL A   1      49.327  26.691  29.371  1.00  0.00     0.014 C 
ENDBRANCH  15  20
BRANCH  18  23
ATOM     23  C   UNL A   1      47.922  27.487  23.728  1.00  0.00     0.019 A 
ATOM     24  C   UNL A   1      49.038  26.737  23.314  1.00  0.00     0.015 A 
ATOM     25  C   UNL A   1      47.224  28.231  22.757  1.00  0.00     0.015 A 
ATOM     26  C   UNL A   1      49.444  26.733  21.977  1.00  0.00     0.040 A 
ATOM     27  C   UNL A   1      47.639  28.243  21.423  1.00  0.00     0.040 A 
ATOM     28  C   UNL A   1      48.745  27.493  21.046  1.00  0.00     0.123 A 
ATOM     29  F   UNL A   1      49.146  27.504  19.769  1.00  0.00    -0.207 F 
ENDBRANCH  18  23
ENDBRANCH   9  14
ENDBRANCH   6   8
ENDBRANCH   5   6
ENDBRANCH   4   5
ENDBRANCH   3   4
ENDBRANCH   2   3
ENDBRANCH   1   2
BRANCH   1  30
ATOM     30  C   UNL A   1      37.529  33.592  30.175  1.00  0.00     0.188 C 
BRANCH  30  31
ATOM     31  O   UNL A   1      36.122  33.461  30.213  1.00  0.00    -0.376 OA
BRANCH  31  32
ATOM     32  C   UNL A   1      35.421  34.136  29.163  1.00  0.00     0.202 C 
BRANCH  32  33
ATOM     33  C   UNL A   1      34.917  33.239  28.005  1.00  0.00     0.261 C 
BRANCH  33  34
ATOM     34  O   UNL A   1      34.189  32.036  28.364  1.00  0.00    -0.460 OA
BRANCH  34  35
ATOM     35  C   UNL A   1      34.477  30.890  27.700  1.00  0.00     0.338 C 
ATOM     36  O   UNL A   1      33.922  30.488  26.689  1.00  0.00    -0.246 OA
BRANCH  35  37
ATOM     37  C   UNL A   1      35.772  30.337  28.209  1.00  0.00     0.060 A 
ATOM     38  C   UNL A   1      35.795  29.789  29.503  1.00  0.00     0.016 A 
ATOM     39  C   UNL A   1      36.924  30.265  27.422  1.00  0.00     0.016 A 
ATOM     40  C   UNL A   1      36.962  29.203  30.017  1.00  0.00     0.010 A 
ATOM     41  C   UNL A   1      38.100  29.697  27.948  1.00  0.00     0.010 A 
ATOM     42  C   UNL A   1      38.137  29.177  29.256  1.00  0.00    -0.014 A 
BRANCH  42  43
ATOM     43  C   UNL A   1      39.433  28.742  29.858  1.00  0.00     0.031 A 
ATOM     44  C   UNL A   1      39.984  29.509  31.034  1.00  0.00     0.074 A 
ATOM     45  C   UNL A   1      40.128  27.690  29.383  1.00  0.00     0.049 A 
ATOM     46  N   UNL A   1      41.131  29.382  31.653  1.00  0.00    -0.248 NA
ATOM     47  C   UNL A   1      39.119  30.563  31.586  1.00  0.00     0.031 C 
ATOM     48  C   UNL A   1      39.707  26.818  28.291  1.00  0.00     0.029 A 
ATOM     49  N   UNL A   1      41.357  27.188  29.755  1.00  0.00    -0.354 N 
ATOM     50  C   UNL A   1      41.133  30.346  32.655  1.00  0.00     0.074 A 
ATOM     51  C   UNL A   1      39.879  31.061  32.551  1.00  0.00     0.031 C 
ATOM     52  C   UNL A   1      40.668  25.904  28.065  1.00  0.00     0.029 A 
ATOM     53  C   UNL A   1      41.794  26.149  28.966  1.00  0.00     0.049 A 
ATOM     54  H   UNL A   1      41.874  27.541  30.515  1.00  0.00     0.167 HD
ATOM     55  C   UNL A   1      42.091  30.613  33.576  1.00  0.00     0.037 A 
ATOM     56  C   UNL A   1      42.976  25.496  28.948  1.00  0.00     0.037 A 
ATOM     57  C   UNL A   1      43.339  29.906  33.692  1.00  0.00     0.049 A 
ATOM     58  C   UNL A   1      44.064  25.880  29.925  1.00  0.00     0.074 A 
ATOM     59  C   UNL A   1      44.349  30.090  34.623  1.00  0.00     0.029 A 
ATOM     60  N   UNL A   1      43.757  28.890  32.849  1.00  0.00    -0.354 N 
ATOM     61  N   UNL A   1      44.042  26.768  30.889  1.00  0.00    -0.248 NA
ATOM     62  C   UNL A   1      45.349  25.169  29.807  1.00  0.00     0.031 C 
ATOM     63  C   UNL A   1      45.405  29.233  34.302  1.00  0.00     0.029 A 
ATOM     64  C   UNL A   1      45.027  28.467  33.212  1.00  0.00     0.049 A 
ATOM     65  H   UNL A   1      43.231  28.523  32.103  1.00  0.00     0.167 HD
ATOM     66  C   UNL A   1      45.288  26.700  31.504  1.00  0.00     0.074 A 
ATOM     67  C   UNL A   1      46.037  25.670  30.822  1.00  0.00     0.031 C 
ATOM     68  C   UNL A   1      45.769  27.432  32.540  1.00  0.00     0.037 A 
BRANCH  55  69
ATOM     69  C   UNL A   1      41.848  31.748  34.529  1.00  0.00     0.064 A 
ATOM     70  C   UNL A   1      42.293  33.050  34.258  1.00  0.00     0.173 A 
ATOM     71  C   UNL A   1      41.087  31.542  35.691  1.00  0.00     0.173 A 
ATOM     72  F   UNL A   1      43.032  33.298  33.166  1.00  0.00    -0.203 F 
ATOM     73  C   UNL A   1      41.997  34.101  35.122  1.00  0.00     0.198 A 
ATOM     74  C   UNL A   1      40.768  32.600  36.537  1.00  0.00     0.198 A 
ATOM     75  F   UNL A   1      40.632  30.316  35.993  1.00  0.00    -0.203 F 
ATOM     76  F   UNL A   1      42.458  35.332  34.860  1.00  0.00    -0.200 F 
ATOM     77  C   UNL A   1      41.226  33.878  36.254  1.00  0.00     0.200 A 
ATOM     78  F   UNL A   1      40.010  32.385  37.620  1.00  0.00    -0.200 F 
ATOM     79  F   UNL A   1      40.925  34.895  37.073  1.00  0.00    -0.200 F 
ENDBRANCH  55  69
BRANCH  56  80
ATOM     80  C   UNL A   1      43.237  24.428  27.940  1.00  0.00     0.064 A 
ATOM     81  C   UNL A   1      43.871  24.717  26.723  1.00  0.00     0.173 A 
ATOM     82  C   UNL A   1      42.786  23.115  28.139  1.00  0.00     0.173 A 
ATOM     83  F   UNL A   1      44.287  25.967  26.464  1.00  0.00    -0.203 F 
ATOM     84  C   UNL A   1      44.017  23.745  25.735  1.00  0.00     0.198 A 
ATOM     85  C   UNL A   1      42.965  22.134  27.165  1.00  0.00     0.198 A 
ATOM     86  F   UNL A   1      42.159  22.783  29.277  1.00  0.00    -0.203 F 
ATOM     87  F   UNL A   1      44.561  24.070  24.553  1.00  0.00    -0.200 F 
ATOM     88  C   UNL A   1      43.568  22.452  25.958  1.00  0.00     0.200 A 
ATOM     89  F   UNL A   1      42.534  20.884  27.388  1.00  0.00    -0.200 F 
ATOM     90  F   UNL A   1      43.700  21.521  25.004  1.00  0.00    -0.200 F 
ENDBRANCH  56  80
BRANCH  68  91
ATOM     91  C   UNL A   1      47.157  27.126  33.030  1.00  0.00     0.064 A 
ATOM     92  C   UNL A   1      48.269  27.874  32.618  1.00  0.00     0.173 A 
ATOM     93  C   UNL A   1      47.373  26.094  33.959  1.00  0.00     0.173 A 
ATOM     94  F   UNL A   1      48.123  28.863  31.722  1.00  0.00    -0.203 F 
ATOM     95  C   UNL A   1      49.547  27.585  33.095  1.00  0.00     0.198 A 
ATOM     96  C   UNL A   1      48.646  25.830  34.459  1.00  0.00     0.198 A 
ATOM     97  F   UNL A   1      46.345  25.351  34.396  1.00  0.00    -0.203 F 
ATOM     98  F   UNL A   1      50.600  28.282  32.646  1.00  0.00    -0.200 F 
ATOM     99  C   UNL A   1      49.733  26.570  34.020  1.00  0.00     0.200 A 
ATOM    100  F   UNL A   1      48.820  24.860  35.367  1.00  0.00    -0.200 F 
ATOM    101  F   UNL A   1      50.961  26.299  34.484  1.00  0.00    -0.200 F 
ENDBRANCH  68  91
ENDBRANCH  42  43
ENDBRANCH  35  37
ENDBRANCH  34  35
ENDBRANCH  33  34
ENDBRANCH  32  33
ENDBRANCH  31  32
ENDBRANCH  30  31
ENDBRANCH   1  30
TORSDOF 20
ENDMDL
MODEL 3
REMARK VINA RESULT:      -9.9      7.140     11.073
REMARK SMILES CC(C)c1cc(N2CCC(C(=O)OCCOCCOCCOC(=O)c3ccc(-c4c5nc(c(-c6c(F)c(F)c(F)c(F)c6F)c6ccc([nH]6)c(-c6c(F)c(F)c(F)c(F)c6F)c6nc(c(-c7c(F)c(F)c(F)c(F)c7F)c7ccc4[nH]7)C=C6)C=C5)cc3)CC2)nc(-c2ccc(F)cc2)n1
REMARK SMILES IDX 17 1 16 2 15 3 14 4 13 5 11 6 12 7 10 8 7 9 8 10 89 11 9 12
REMARK SMILES IDX 88 13 6 14 4 15 5 16 99 17 91 18 90 19 2 20 1 21 3 22 92 23
REMARK SMILES IDX 93 24 98 25 94 26 97 27 95 28 96 29 18 30 19 31 20 32 21 33
REMARK SMILES IDX 22 34 23 35 24 36 25 37 26 38 87 39 27 40 86 41 28 42 29 43
REMARK SMILES IDX 30 44 80 45 31 46 85 47 79 48 81 49 32 50 84 51 78 52 77 53
REMARK SMILES IDX 33 55 65 56 45 57 64 58 46 59 49 60 63 61 82 62 47 63 48 64
REMARK SMILES IDX 62 66 83 67 50 68 34 69 35 70 43 71 36 72 37 73 41 74 44 75
REMARK SMILES IDX 38 76 39 77 42 78 40 79 66 80 67 81 75 82 68 83 69 84 73 85
REMARK SMILES IDX 76 86 70 87 71 88 74 89 72 90 51 91 52 92 60 93 53 94 54 95
REMARK SMILES IDX 58 96 61 97 55 98 56 99 59 100 57 101
REMARK H PARENT 81 54 49 65
REMARK Flexibility Score: inf
ROOT
ATOM      1  C   UNL A   1      34.308  33.249  31.749  1.00  0.00     0.188 C 
ENDROOT
BRANCH   1   2
ATOM      2  O   UNL A   1      34.339  34.505  31.094  1.00  0.00    -0.376 OA
BRANCH   2   3
ATOM      3  C   UNL A   1      33.796  34.561  29.778  1.00  0.00     0.202 C 
BRANCH   3   4
ATOM      4  C   UNL A   1      34.759  34.889  28.625  1.00  0.00     0.261 C 
BRANCH   4   5
ATOM      5  O   UNL A   1      34.861  33.878  27.599  1.00  0.00    -0.463 OA
BRANCH   5   6
ATOM      6  C   UNL A   1      35.538  32.748  27.945  1.00  0.00     0.309 C 
ATOM      7  O   UNL A   1      36.741  32.704  28.186  1.00  0.00    -0.252 OA
BRANCH   6   8
ATOM      8  C   UNL A   1      34.670  31.501  28.048  1.00  0.00     0.103 C 
ATOM      9  N   UNL A   1      33.518  29.241  26.778  1.00  0.00    -0.356 N 
ATOM     10  C   UNL A   1      32.587  30.236  27.269  1.00  0.00     0.119 C 
ATOM     11  C   UNL A   1      34.733  29.019  27.529  1.00  0.00     0.119 C 
ATOM     12  C   UNL A   1      33.291  31.585  27.379  1.00  0.00     0.037 C 
ATOM     13  C   UNL A   1      35.512  30.327  27.532  1.00  0.00     0.037 C 
BRANCH   9  14
ATOM     14  C   UNL A   1      33.054  28.356  25.837  1.00  0.00     0.132 A 
ATOM     15  C   UNL A   1      31.583  27.740  24.092  1.00  0.00     0.049 A 
ATOM     16  C   UNL A   1      31.901  28.607  25.122  1.00  0.00     0.071 A 
ATOM     17  N   UNL A   1      32.327  26.645  23.840  1.00  0.00    -0.233 NA
ATOM     18  C   UNL A   1      33.387  26.436  24.638  1.00  0.00     0.161 A 
ATOM     19  N   UNL A   1      33.799  27.265  25.608  1.00  0.00    -0.211 NA
BRANCH  15  20
ATOM     20  C   UNL A   1      30.378  28.014  23.207  1.00  0.00     0.032 C 
ATOM     21  C   UNL A   1      29.222  27.058  23.526  1.00  0.00     0.014 C 
ATOM     22  C   UNL A   1      29.878  29.460  23.313  1.00  0.00     0.014 C 
ENDBRANCH  15  20
BRANCH  18  23
ATOM     23  C   UNL A   1      34.112  25.171  24.480  1.00  0.00     0.019 A 
ATOM     24  C   UNL A   1      34.972  24.693  25.485  1.00  0.00     0.015 A 
ATOM     25  C   UNL A   1      33.988  24.416  23.296  1.00  0.00     0.015 A 
ATOM     26  C   UNL A   1      35.684  23.503  25.313  1.00  0.00     0.040 A 
ATOM     27  C   UNL A   1      34.714  23.236  23.115  1.00  0.00     0.040 A 
ATOM     28  C   UNL A   1      35.554  22.791  24.127  1.00  0.00     0.123 A 
ATOM     29  F   UNL A   1      36.253  21.662  23.956  1.00  0.00    -0.207 F 
ENDBRANCH  18  23
ENDBRANCH   9  14
ENDBRANCH   6   8
ENDBRANCH   5   6
ENDBRANCH   4   5
ENDBRANCH   3   4
ENDBRANCH   2   3
ENDBRANCH   1   2
BRANCH   1  30
ATOM     30  C   UNL A   1      34.450  33.234  33.273  1.00  0.00     0.188 C 
BRANCH  30  31
ATOM     31  O   UNL A   1      35.672  32.771  33.810  1.00  0.00    -0.376 OA
BRANCH  31  32
ATOM     32  C   UNL A   1      36.272  31.680  33.103  1.00  0.00     0.202 C 
BRANCH  32  33
ATOM     33  C   UNL A   1      37.620  31.987  32.407  1.00  0.00     0.261 C 
BRANCH  33  34
ATOM     34  O   UNL A   1      37.596  32.914  31.291  1.00  0.00    -0.460 OA
BRANCH  34  35
ATOM     35  C   UNL A   1      37.985  34.194  31.511  1.00  0.00     0.338 C 
ATOM     36  O   UNL A   1      37.498  34.962  32.325  1.00  0.00    -0.246 OA
BRANCH  35  37
ATOM     37  C   UNL A   1      39.294  34.436  30.825  1.00  0.00     0.060 A 
ATOM     38  C   UNL A   1      40.473  34.287  31.576  1.00  0.00     0.016 A 
ATOM     39  C   UNL A   1      39.392  34.715  29.460  1.00  0.00     0.016 A 
ATOM     40  C   UNL A   1      41.734  34.444  30.978  1.00  0.00     0.010 A 
ATOM     41  C   UNL A   1      40.656  34.894  28.866  1.00  0.00     0.010 A 
ATOM     42  C   UNL A   1      41.839  34.779  29.622  1.00  0.00    -0.014 A 
BRANCH  42  43
ATOM     43  C   UNL A   1      43.156  35.145  29.021  1.00  0.00     0.031 A 
ATOM     44  C   UNL A   1      44.149  34.049  28.721  1.00  0.00     0.074 A 
ATOM     45  C   UNL A   1      43.489  36.420  28.742  1.00  0.00     0.049 A 
ATOM     46  N   UNL A   1      45.385  34.134  28.297  1.00  0.00    -0.248 NA
ATOM     47  C   UNL A   1      43.678  32.671  28.927  1.00  0.00     0.031 C 
ATOM     48  C   UNL A   1      42.625  37.582  28.924  1.00  0.00     0.029 A 
ATOM     49  N   UNL A   1      44.666  36.953  28.260  1.00  0.00    -0.354 N 
ATOM     50  C   UNL A   1      45.845  32.825  28.201  1.00  0.00     0.074 A 
ATOM     51  C   UNL A   1      44.759  31.966  28.624  1.00  0.00     0.031 C 
ATOM     52  C   UNL A   1      43.304  38.692  28.580  1.00  0.00     0.029 A 
ATOM     53  C   UNL A   1      44.667  38.326  28.195  1.00  0.00     0.049 A 
ATOM     54  H   UNL A   1      45.434  36.400  27.987  1.00  0.00     0.167 HD
ATOM     55  C   UNL A   1      47.059  32.378  27.798  1.00  0.00     0.037 A 
ATOM     56  C   UNL A   1      45.661  39.191  27.895  1.00  0.00     0.037 A 
ATOM     57  C   UNL A   1      48.144  33.221  27.369  1.00  0.00     0.049 A 
ATOM     58  C   UNL A   1      47.035  38.667  27.541  1.00  0.00     0.074 A 
ATOM     59  C   UNL A   1      49.396  32.845  26.909  1.00  0.00     0.029 A 
ATOM     60  N   UNL A   1      48.116  34.606  27.357  1.00  0.00    -0.354 N 
ATOM     61  N   UNL A   1      47.447  37.430  27.420  1.00  0.00    -0.248 NA
ATOM     62  C   UNL A   1      48.085  39.668  27.288  1.00  0.00     0.031 C 
ATOM     63  C   UNL A   1      50.148  34.002  26.683  1.00  0.00     0.029 A 
ATOM     64  C   UNL A   1      49.343  35.100  26.938  1.00  0.00     0.049 A 
ATOM     65  H   UNL A   1      47.341  35.158  27.609  1.00  0.00     0.167 HD
ATOM     66  C   UNL A   1      48.786  37.505  27.049  1.00  0.00     0.074 A 
ATOM     67  C   UNL A   1      49.114  38.908  26.943  1.00  0.00     0.031 C 
ATOM     68  C   UNL A   1      49.666  36.498  26.821  1.00  0.00     0.037 A 
BRANCH  55  69
ATOM     69  C   UNL A   1      47.305  30.897  27.825  1.00  0.00     0.064 A 
ATOM     70  C   UNL A   1      46.973  30.072  26.741  1.00  0.00     0.173 A 
ATOM     71  C   UNL A   1      47.959  30.311  28.921  1.00  0.00     0.173 A 
ATOM     72  F   UNL A   1      46.339  30.581  25.674  1.00  0.00    -0.203 F 
ATOM     73  C   UNL A   1      47.274  28.712  26.759  1.00  0.00     0.198 A 
ATOM     74  C   UNL A   1      48.285  28.958  28.923  1.00  0.00     0.198 A 
ATOM     75  F   UNL A   1      48.305  31.058  29.980  1.00  0.00    -0.203 F 
ATOM     76  F   UNL A   1      46.920  27.936  25.725  1.00  0.00    -0.200 F 
ATOM     77  C   UNL A   1      47.939  28.159  27.844  1.00  0.00     0.200 A 
ATOM     78  F   UNL A   1      48.941  28.430  29.964  1.00  0.00    -0.200 F 
ATOM     79  F   UNL A   1      48.245  26.854  27.850  1.00  0.00    -0.200 F 
ENDBRANCH  55  69
BRANCH  56  80
ATOM     80  C   UNL A   1      45.428  40.663  27.954  1.00  0.00     0.064 A 
ATOM     81  C   UNL A   1      44.916  41.363  26.851  1.00  0.00     0.173 A 
ATOM     82  C   UNL A   1      45.786  41.411  29.086  1.00  0.00     0.173 A 
ATOM     83  F   UNL A   1      44.594  40.701  25.729  1.00  0.00    -0.203 F 
ATOM     84  C   UNL A   1      44.801  42.752  26.867  1.00  0.00     0.198 A 
ATOM     85  C   UNL A   1      45.636  42.797  29.113  1.00  0.00     0.198 A 
ATOM     86  F   UNL A   1      46.295  40.798  30.164  1.00  0.00    -0.203 F 
ATOM     87  F   UNL A   1      44.377  43.399  25.772  1.00  0.00    -0.200 F 
ATOM     88  C   UNL A   1      45.156  43.468  28.000  1.00  0.00     0.200 A 
ATOM     89  F   UNL A   1      45.976  43.483  30.213  1.00  0.00    -0.200 F 
ATOM     90  F   UNL A   1      45.054  44.804  28.011  1.00  0.00    -0.200 F 
ENDBRANCH  56  80
BRANCH  68  91
ATOM     91  C   UNL A   1      51.061  36.868  26.398  1.00  0.00     0.064 A 
ATOM     92  C   UNL A   1      52.077  37.112  27.334  1.00  0.00     0.173 A 
ATOM     93  C   UNL A   1      51.398  36.938  25.036  1.00  0.00     0.173 A 
ATOM     94  F   UNL A   1      51.809  37.071  28.648  1.00  0.00    -0.203 F 
ATOM     95  C   UNL A   1      53.369  37.439  26.923  1.00  0.00     0.198 A 
ATOM     96  C   UNL A   1      52.697  37.232  24.629  1.00  0.00     0.198 A 
ATOM     97  F   UNL A   1      50.468  36.705  24.097  1.00  0.00    -0.203 F 
ATOM     98  F   UNL A   1      54.309  37.719  27.836  1.00  0.00    -0.200 F 
ATOM     99  C   UNL A   1      53.679  37.491  25.573  1.00  0.00     0.200 A 
ATOM    100  F   UNL A   1      52.998  37.263  23.324  1.00  0.00    -0.200 F 
ATOM    101  F   UNL A   1      54.923  37.797  25.180  1.00  0.00    -0.200 F 
ENDBRANCH  68  91
ENDBRANCH  42  43
ENDBRANCH  35  37
ENDBRANCH  34  35
ENDBRANCH  33  34
ENDBRANCH  32  33
ENDBRANCH  31  32
ENDBRANCH  30  31
ENDBRANCH   1  30
TORSDOF 20
ENDMDL
