MODEL 1
REMARK VINA RESULT:     -10.3      0.000      0.000
REMARK SMILES CC[NH2+][C@H](CC[N@H+](C)C1CCC(C)(C)CC1)C(=O)OCCOCCOCCOC(=O)c1ccc(-c2c3nc(c(-c4c(F)c(F)c(F)c(F)c4F)c4ccc([nH]4)c(-c4c(F)c(F)c(F)c(F)c4F)c4nc(c(-c5c(F)c(F)c(F)c(F)c5F)c5ccc2[nH]5)C=C4)C=C3)cc1
REMARK SMILES IDX 23 1 22 2 21 3 20 4 19 5 17 6 18 7 4 8 3 9 2 12 1 13 5 14
REMARK SMILES IDX 6 15 7 16 8 17 9 19 10 20 16 21 11 22 15 23 12 24 13 25
REMARK SMILES IDX 14 26 24 27 25 28 26 29 27 30 28 31 29 32 30 33 31 34 32 35
REMARK SMILES IDX 93 36 33 37 92 38 34 39 35 40 36 41 86 42 37 43 91 44 85 45
REMARK SMILES IDX 87 46 38 47 90 48 84 49 83 50 39 52 71 53 51 54 70 55 52 56
REMARK SMILES IDX 55 57 69 58 88 59 53 60 54 61 68 63 89 64 56 65 40 66 41 67
REMARK SMILES IDX 49 68 42 69 43 70 47 71 50 72 44 73 45 74 48 75 46 76 72 77
REMARK SMILES IDX 73 78 81 79 74 80 75 81 79 82 82 83 76 84 77 85 80 86 78 87
REMARK SMILES IDX 57 88 58 89 66 90 59 91 60 92 64 93 67 94 61 95 62 96 65 97
REMARK SMILES IDX 63 98
REMARK H PARENT 3 10 3 11 7 18 87 51 55 62
REMARK Flexibility Score: inf
ROOT
ATOM      1  C   UNL A   1      35.385  32.194  28.248  1.00  0.00     0.188 C 
ENDROOT
BRANCH   1   2
ATOM      2  O   UNL A   1      36.414  31.349  27.741  1.00  0.00    -0.376 OA
BRANCH   2   3
ATOM      3  C   UNL A   1      36.373  29.947  27.966  1.00  0.00     0.202 C 
BRANCH   3   4
ATOM      4  C   UNL A   1      35.151  28.981  27.470  1.00  0.00     0.261 C 
BRANCH   4   5
ATOM      5  O   UNL A   1      33.610  29.350  26.381  1.00  0.00    -0.459 OA
BRANCH   5   6
ATOM      6  C   UNL A   1      32.289  29.420  25.784  1.00  0.00     0.365 C 
ATOM      7  O   UNL A   1      31.559  30.362  26.134  1.00  0.00    -0.245 OA
BRANCH   6   8
ATOM      8  C   UNL A   1      31.678  28.530  24.494  1.00  0.00     0.299 C 
BRANCH   8   9
ATOM      9  N   UNL A   1      31.969  29.329  23.266  1.00  0.00    -0.335 N 
ATOM     10  H   UNL A   1      31.084  29.596  22.833  1.00  0.00     0.347 HD
ATOM     11  H   UNL A   1      32.508  30.148  23.546  1.00  0.00     0.347 HD
BRANCH   9  12
ATOM     12  C   UNL A   1      32.759  28.585  22.296  1.00  0.00     0.257 C 
ATOM     13  C   UNL A   1      34.098  28.213  22.892  1.00  0.00     0.071 C 
ENDBRANCH   9  12
ENDBRANCH   8   9
BRANCH   8  14
ATOM     14  C   UNL A   1      30.309  27.765  24.245  1.00  0.00     0.139 C 
BRANCH  14  15
ATOM     15  C   UNL A   1      30.303  26.341  23.586  1.00  0.00     0.269 C 
BRANCH  15  16
ATOM     16  N   UNL A   1      30.258  25.164  24.497  1.00  0.00    -0.335 N 
ATOM     17  C   UNL A   1      29.613  25.581  25.754  1.00  0.00     0.332 C 
ATOM     18  H   UNL A   1      29.708  24.396  24.113  1.00  0.00     0.348 HD
BRANCH  16  19
ATOM     19  C   UNL A   1      31.638  24.651  24.677  1.00  0.00     0.183 C 
ATOM     20  C   UNL A   1      31.830  22.996  23.654  1.00  0.00     0.065 C 
ATOM     21  C   UNL A   1      33.223  25.362  25.591  1.00  0.00     0.065 C 
ATOM     22  C   UNL A   1      33.494  22.124  23.513  1.00  0.00     0.012 C 
ATOM     23  C   UNL A   1      34.927  24.432  25.374  1.00  0.00     0.012 C 
ATOM     24  C   UNL A   1      35.047  22.828  24.320  1.00  0.00    -0.035 C 
ATOM     25  C   UNL A   1      36.135  22.953  23.211  1.00  0.00     0.011 C 
ATOM     26  C   UNL A   1      35.610  21.654  25.177  1.00  0.00     0.011 C 
ENDBRANCH  16  19
ENDBRANCH  15  16
ENDBRANCH  14  15
ENDBRANCH   8  14
ENDBRANCH   6   8
ENDBRANCH   5   6
ENDBRANCH   4   5
ENDBRANCH   3   4
ENDBRANCH   2   3
ENDBRANCH   1   2
BRANCH   1  27
ATOM     27  C   UNL A   1      35.492  33.660  27.909  1.00  0.00     0.188 C 
BRANCH  27  28
ATOM     28  O   UNL A   1      34.948  34.586  28.820  1.00  0.00    -0.376 OA
BRANCH  28  29
ATOM     29  C   UNL A   1      34.153  35.691  28.450  1.00  0.00     0.202 C 
BRANCH  29  30
ATOM     30  C   UNL A   1      32.905  36.090  29.244  1.00  0.00     0.261 C 
BRANCH  30  31
ATOM     31  O   UNL A   1      32.529  35.220  30.307  1.00  0.00    -0.460 OA
BRANCH  31  32
ATOM     32  C   UNL A   1      32.630  35.701  31.567  1.00  0.00     0.338 C 
ATOM     33  O   UNL A   1      31.843  36.449  32.137  1.00  0.00    -0.246 OA
BRANCH  32  34
ATOM     34  C   UNL A   1      33.753  34.972  32.214  1.00  0.00     0.060 A 
ATOM     35  C   UNL A   1      35.014  35.584  32.270  1.00  0.00     0.016 A 
ATOM     36  C   UNL A   1      33.525  33.774  32.906  1.00  0.00     0.016 A 
ATOM     37  C   UNL A   1      36.063  34.967  32.957  1.00  0.00     0.010 A 
ATOM     38  C   UNL A   1      34.568  33.158  33.594  1.00  0.00     0.010 A 
ATOM     39  C   UNL A   1      35.855  33.724  33.574  1.00  0.00    -0.014 A 
BRANCH  39  40
ATOM     40  C   UNL A   1      36.999  32.831  33.875  1.00  0.00     0.031 A 
ATOM     41  C   UNL A   1      37.724  33.097  35.168  1.00  0.00     0.074 A 
ATOM     42  C   UNL A   1      37.427  31.873  33.037  1.00  0.00     0.049 A 
ATOM     43  N   UNL A   1      38.865  32.631  35.603  1.00  0.00    -0.248 NA
ATOM     44  C   UNL A   1      37.071  34.046  36.087  1.00  0.00     0.031 C 
ATOM     45  C   UNL A   1      36.785  31.486  31.784  1.00  0.00     0.029 A 
ATOM     46  N   UNL A   1      38.536  31.065  33.114  1.00  0.00    -0.354 N 
ATOM     47  C   UNL A   1      39.071  33.248  36.830  1.00  0.00     0.074 A 
ATOM     48  C   UNL A   1      37.960  34.141  37.060  1.00  0.00     0.031 C 
ATOM     49  C   UNL A   1      37.528  30.530  31.194  1.00  0.00     0.029 A 
ATOM     50  C   UNL A   1      38.718  30.275  32.005  1.00  0.00     0.049 A 
ATOM     51  H   UNL A   1      39.143  31.055  33.889  1.00  0.00     0.167 HD
ATOM     52  C   UNL A   1      40.096  33.082  37.695  1.00  0.00     0.037 A 
ATOM     53  C   UNL A   1      39.752  29.472  31.677  1.00  0.00     0.037 A 
ATOM     54  C   UNL A   1      41.203  32.200  37.460  1.00  0.00     0.049 A 
ATOM     55  C   UNL A   1      40.926  29.358  32.622  1.00  0.00     0.074 A 
ATOM     56  C   UNL A   1      42.300  31.956  38.264  1.00  0.00     0.029 A 
ATOM     57  N   UNL A   1      41.353  31.417  36.323  1.00  0.00    -0.354 N 
ATOM     58  N   UNL A   1      41.121  29.940  33.783  1.00  0.00    -0.248 NA
ATOM     59  C   UNL A   1      42.028  28.477  32.208  1.00  0.00     0.031 C 
ATOM     60  C   UNL A   1      43.140  31.062  37.592  1.00  0.00     0.029 A 
ATOM     61  C   UNL A   1      42.534  30.703  36.397  1.00  0.00     0.049 A 
ATOM     62  H   UNL A   1      40.713  31.377  35.576  1.00  0.00     0.167 HD
ATOM     63  C   UNL A   1      42.345  29.473  34.248  1.00  0.00     0.074 A 
ATOM     64  C   UNL A   1      42.844  28.550  33.250  1.00  0.00     0.031 C 
ATOM     65  C   UNL A   1      43.000  29.777  35.397  1.00  0.00     0.037 A 
BRANCH  52  66
ATOM     66  C   UNL A   1      40.075  33.903  38.950  1.00  0.00     0.064 A 
ATOM     67  C   UNL A   1      39.392  33.477  40.100  1.00  0.00     0.173 A 
ATOM     68  C   UNL A   1      40.739  35.137  39.001  1.00  0.00     0.173 A 
ATOM     69  F   UNL A   1      38.717  32.317  40.094  1.00  0.00    -0.203 F 
ATOM     70  C   UNL A   1      39.351  34.269  41.244  1.00  0.00     0.198 A 
ATOM     71  C   UNL A   1      40.725  35.912  40.156  1.00  0.00     0.198 A 
ATOM     72  F   UNL A   1      41.398  35.595  37.926  1.00  0.00    -0.203 F 
ATOM     73  F   UNL A   1      38.642  33.871  42.308  1.00  0.00    -0.200 F 
ATOM     74  C   UNL A   1      40.024  35.482  41.274  1.00  0.00     0.200 A 
ATOM     75  F   UNL A   1      41.380  37.081  40.186  1.00  0.00    -0.200 F 
ATOM     76  F   UNL A   1      39.987  36.244  42.376  1.00  0.00    -0.200 F 
ENDBRANCH  52  66
BRANCH  53  77
ATOM     77  C   UNL A   1      39.748  28.733  30.386  1.00  0.00     0.064 A 
ATOM     78  C   UNL A   1      39.227  27.433  30.295  1.00  0.00     0.173 A 
ATOM     79  C   UNL A   1      40.302  29.292  29.224  1.00  0.00     0.173 A 
ATOM     80  F   UNL A   1      38.717  26.840  31.385  1.00  0.00    -0.203 F 
ATOM     81  C   UNL A   1      39.278  26.716  29.101  1.00  0.00     0.198 A 
ATOM     82  C   UNL A   1      40.325  28.584  28.022  1.00  0.00     0.198 A 
ATOM     83  F   UNL A   1      40.824  30.526  29.255  1.00  0.00    -0.203 F 
ATOM     84  F   UNL A   1      38.826  25.455  29.060  1.00  0.00    -0.200 F 
ATOM     85  C   UNL A   1      39.822  27.294  27.964  1.00  0.00     0.200 A 
ATOM     86  F   UNL A   1      40.846  29.150  26.925  1.00  0.00    -0.200 F 
ATOM     87  F   UNL A   1      39.874  26.603  26.817  1.00  0.00    -0.200 F 
ENDBRANCH  53  77
BRANCH  65  88
ATOM     88  C   UNL A   1      44.298  29.070  35.666  1.00  0.00     0.064 A 
ATOM     89  C   UNL A   1      44.348  27.846  36.348  1.00  0.00     0.173 A 
ATOM     90  C   UNL A   1      45.502  29.600  35.177  1.00  0.00     0.173 A 
ATOM     91  F   UNL A   1      43.225  27.302  36.842  1.00  0.00    -0.203 F 
ATOM     92  C   UNL A   1      45.559  27.190  36.552  1.00  0.00     0.198 A 
ATOM     93  C   UNL A   1      46.707  28.926  35.355  1.00  0.00     0.198 A 
ATOM     94  F   UNL A   1      45.508  30.762  34.507  1.00  0.00    -0.203 F 
ATOM     95  F   UNL A   1      45.590  26.044  37.246  1.00  0.00    -0.200 F 
ATOM     96  C   UNL A   1      46.736  27.726  36.049  1.00  0.00     0.200 A 
ATOM     97  F   UNL A   1      47.839  29.435  34.850  1.00  0.00    -0.200 F 
ATOM     98  F   UNL A   1      47.899  27.087  36.235  1.00  0.00    -0.200 F 
ENDBRANCH  65  88
ENDBRANCH  39  40
ENDBRANCH  32  34
ENDBRANCH  31  32
ENDBRANCH  30  31
ENDBRANCH  29  30
ENDBRANCH  28  29
ENDBRANCH  27  28
ENDBRANCH   1  27
TORSDOF 23
ENDMDL
MODEL 2
REMARK VINA RESULT:     -10.0      1.611      2.649
REMARK SMILES CC[NH2+][C@H](CC[N@H+](C)C1CCC(C)(C)CC1)C(=O)OCCOCCOCCOC(=O)c1ccc(-c2c3nc(c(-c4c(F)c(F)c(F)c(F)c4F)c4ccc([nH]4)c(-c4c(F)c(F)c(F)c(F)c4F)c4nc(c(-c5c(F)c(F)c(F)c(F)c5F)c5ccc2[nH]5)C=C4)C=C3)cc1
REMARK SMILES IDX 23 1 22 2 21 3 20 4 19 5 17 6 18 7 4 8 3 9 2 12 1 13 5 14
REMARK SMILES IDX 6 15 7 16 8 17 9 19 10 20 16 21 11 22 15 23 12 24 13 25
REMARK SMILES IDX 14 26 24 27 25 28 26 29 27 30 28 31 29 32 30 33 31 34 32 35
REMARK SMILES IDX 93 36 33 37 92 38 34 39 35 40 36 41 86 42 37 43 91 44 85 45
REMARK SMILES IDX 87 46 38 47 90 48 84 49 83 50 39 52 71 53 51 54 70 55 52 56
REMARK SMILES IDX 55 57 69 58 88 59 53 60 54 61 68 63 89 64 56 65 40 66 41 67
REMARK SMILES IDX 49 68 42 69 43 70 47 71 50 72 44 73 45 74 48 75 46 76 72 77
REMARK SMILES IDX 73 78 81 79 74 80 75 81 79 82 82 83 76 84 77 85 80 86 78 87
REMARK SMILES IDX 57 88 58 89 66 90 59 91 60 92 64 93 67 94 61 95 62 96 65 97
REMARK SMILES IDX 63 98
REMARK H PARENT 3 10 3 11 7 18 87 51 55 62
REMARK Flexibility Score: inf
ROOT
ATOM      1  C   UNL A   1      32.785  30.957  27.048  1.00  0.00     0.188 C 
ENDROOT
BRANCH   1   2
ATOM      2  O   UNL A   1      33.269  29.662  27.393  1.00  0.00    -0.376 OA
BRANCH   2   3
ATOM      3  C   UNL A   1      34.165  28.974  26.532  1.00  0.00     0.202 C 
BRANCH   3   4
ATOM      4  C   UNL A   1      33.823  27.544  25.818  1.00  0.00     0.261 C 
BRANCH   4   5
ATOM      5  O   UNL A   1      33.773  27.038  23.964  1.00  0.00    -0.459 OA
BRANCH   5   6
ATOM      6  C   UNL A   1      33.510  26.418  22.678  1.00  0.00     0.365 C 
ATOM      7  O   UNL A   1      33.690  27.117  21.666  1.00  0.00    -0.245 OA
BRANCH   6   8
ATOM      8  C   UNL A   1      33.217  24.798  22.340  1.00  0.00     0.299 C 
BRANCH   8   9
ATOM      9  N   UNL A   1      31.759  24.696  22.032  1.00  0.00    -0.335 N 
ATOM     10  H   UNL A   1      31.416  25.620  21.765  1.00  0.00     0.347 HD
ATOM     11  H   UNL A   1      31.646  24.024  21.273  1.00  0.00     0.347 HD
BRANCH   9  12
ATOM     12  C   UNL A   1      30.986  24.219  23.169  1.00  0.00     0.257 C 
ATOM     13  C   UNL A   1      30.279  25.376  23.839  1.00  0.00     0.071 C 
ENDBRANCH   9  12
ENDBRANCH   8   9
BRANCH   8  14
ATOM     14  C   UNL A   1      33.645  23.439  23.043  1.00  0.00     0.139 C 
BRANCH  14  15
ATOM     15  C   UNL A   1      34.331  23.456  24.454  1.00  0.00     0.269 C 
BRANCH  15  16
ATOM     16  N   UNL A   1      33.710  22.633  25.528  1.00  0.00    -0.335 N 
ATOM     17  C   UNL A   1      34.153  23.167  26.828  1.00  0.00     0.332 C 
ATOM     18  H   UNL A   1      32.691  22.677  25.513  1.00  0.00     0.348 HD
BRANCH  16  19
ATOM     19  C   UNL A   1      34.080  21.214  25.311  1.00  0.00     0.183 C 
ATOM     20  C   UNL A   1      32.444  20.170  25.072  1.00  0.00     0.065 C 
ATOM     21  C   UNL A   1      35.801  20.292  25.108  1.00  0.00     0.065 C 
ATOM     22  C   UNL A   1      32.509  18.342  24.621  1.00  0.00     0.012 C 
ATOM     23  C   UNL A   1      35.802  18.406  24.602  1.00  0.00     0.012 C 
ATOM     24  C   UNL A   1      34.150  17.453  24.347  1.00  0.00    -0.035 C 
ATOM     25  C   UNL A   1      34.090  16.780  22.942  1.00  0.00     0.011 C 
ATOM     26  C   UNL A   1      34.087  16.212  25.289  1.00  0.00     0.011 C 
ENDBRANCH  16  19
ENDBRANCH  15  16
ENDBRANCH  14  15
ENDBRANCH   8  14
ENDBRANCH   6   8
ENDBRANCH   5   6
ENDBRANCH   4   5
ENDBRANCH   3   4
ENDBRANCH   2   3
ENDBRANCH   1   2
BRANCH   1  27
ATOM     27  C   UNL A   1      33.437  32.125  27.746  1.00  0.00     0.188 C 
BRANCH  27  28
ATOM     28  O   UNL A   1      32.788  33.373  27.681  1.00  0.00    -0.376 OA
BRANCH  28  29
ATOM     29  C   UNL A   1      33.290  34.560  28.256  1.00  0.00     0.202 C 
BRANCH  29  30
ATOM     30  C   UNL A   1      33.576  34.673  29.756  1.00  0.00     0.261 C 
BRANCH  30  31
ATOM     31  O   UNL A   1      33.098  35.848  30.404  1.00  0.00    -0.460 OA
BRANCH  31  32
ATOM     32  C   UNL A   1      32.817  35.760  31.723  1.00  0.00     0.338 C 
ATOM     33  O   UNL A   1      31.765  36.063  32.276  1.00  0.00    -0.246 OA
BRANCH  32  34
ATOM     34  C   UNL A   1      33.940  35.013  32.350  1.00  0.00     0.060 A 
ATOM     35  C   UNL A   1      35.192  35.636  32.457  1.00  0.00     0.016 A 
ATOM     36  C   UNL A   1      33.716  33.778  32.978  1.00  0.00     0.016 A 
ATOM     37  C   UNL A   1      36.238  34.997  33.129  1.00  0.00     0.010 A 
ATOM     38  C   UNL A   1      34.757  33.142  33.651  1.00  0.00     0.010 A 
ATOM     39  C   UNL A   1      36.037  33.723  33.679  1.00  0.00    -0.014 A 
BRANCH  39  40
ATOM     40  C   UNL A   1      37.187  32.830  33.953  1.00  0.00     0.031 A 
ATOM     41  C   UNL A   1      37.925  33.077  35.243  1.00  0.00     0.074 A 
ATOM     42  C   UNL A   1      37.608  31.887  33.095  1.00  0.00     0.049 A 
ATOM     43  N   UNL A   1      39.072  32.609  35.657  1.00  0.00    -0.248 NA
ATOM     44  C   UNL A   1      37.279  34.009  36.183  1.00  0.00     0.031 C 
ATOM     45  C   UNL A   1      36.954  31.517  31.843  1.00  0.00     0.029 A 
ATOM     46  N   UNL A   1      38.722  31.082  33.147  1.00  0.00    -0.354 N 
ATOM     47  C   UNL A   1      39.290  33.207  36.892  1.00  0.00     0.074 A 
ATOM     48  C   UNL A   1      38.179  34.092  37.147  1.00  0.00     0.031 C 
ATOM     49  C   UNL A   1      37.694  30.573  31.230  1.00  0.00     0.029 A 
ATOM     50  C   UNL A   1      38.894  30.310  32.024  1.00  0.00     0.049 A 
ATOM     51  H   UNL A   1      39.337  31.062  33.915  1.00  0.00     0.167 HD
ATOM     52  C   UNL A   1      40.326  33.031  37.742  1.00  0.00     0.037 A 
ATOM     53  C   UNL A   1      39.927  29.516  31.672  1.00  0.00     0.037 A 
ATOM     54  C   UNL A   1      41.433  32.157  37.480  1.00  0.00     0.049 A 
ATOM     55  C   UNL A   1      41.112  29.391  32.602  1.00  0.00     0.074 A 
ATOM     56  C   UNL A   1      42.540  31.905  38.268  1.00  0.00     0.029 A 
ATOM     57  N   UNL A   1      41.573  31.393  36.330  1.00  0.00    -0.354 N 
ATOM     58  N   UNL A   1      41.318  29.956  33.769  1.00  0.00    -0.248 NA
ATOM     59  C   UNL A   1      42.213  28.522  32.161  1.00  0.00     0.031 C 
ATOM     60  C   UNL A   1      43.375  31.025  37.573  1.00  0.00     0.029 A 
ATOM     61  C   UNL A   1      42.757  30.682  36.380  1.00  0.00     0.049 A 
ATOM     62  H   UNL A   1      40.924  31.362  35.590  1.00  0.00     0.167 HD
ATOM     63  C   UNL A   1      42.549  29.486  34.213  1.00  0.00     0.074 A 
ATOM     64  C   UNL A   1      43.039  28.581  33.195  1.00  0.00     0.031 C 
ATOM     65  C   UNL A   1      43.215  29.774  35.359  1.00  0.00     0.037 A 
BRANCH  52  66
ATOM     66  C   UNL A   1      40.315  33.832  39.010  1.00  0.00     0.064 A 
ATOM     67  C   UNL A   1      39.623  33.399  40.152  1.00  0.00     0.173 A 
ATOM     68  C   UNL A   1      41.000  35.054  39.082  1.00  0.00     0.173 A 
ATOM     69  F   UNL A   1      38.929  32.251  40.126  1.00  0.00    -0.203 F 
ATOM     70  C   UNL A   1      39.593  34.174  41.308  1.00  0.00     0.198 A 
ATOM     71  C   UNL A   1      40.996  35.810  40.250  1.00  0.00     0.198 A 
ATOM     72  F   UNL A   1      41.670  35.518  38.016  1.00  0.00    -0.203 F 
ATOM     73  F   UNL A   1      38.875  33.770  42.365  1.00  0.00    -0.200 F 
ATOM     74  C   UNL A   1      40.287  35.374  41.359  1.00  0.00     0.200 A 
ATOM     75  F   UNL A   1      41.671  36.967  40.300  1.00  0.00    -0.200 F 
ATOM     76  F   UNL A   1      40.260  36.118  42.474  1.00  0.00    -0.200 F 
ENDBRANCH  52  66
BRANCH  53  77
ATOM     77  C   UNL A   1      39.911  28.798  30.369  1.00  0.00     0.064 A 
ATOM     78  C   UNL A   1      39.365  27.510  30.256  1.00  0.00     0.173 A 
ATOM     79  C   UNL A   1      40.479  29.363  29.217  1.00  0.00     0.173 A 
ATOM     80  F   UNL A   1      38.841  26.911  31.336  1.00  0.00    -0.203 F 
ATOM     81  C   UNL A   1      39.404  26.811  29.051  1.00  0.00     0.198 A 
ATOM     82  C   UNL A   1      40.491  28.675  28.004  1.00  0.00     0.198 A 
ATOM     83  F   UNL A   1      41.025  30.587  29.268  1.00  0.00    -0.203 F 
ATOM     84  F   UNL A   1      38.927  25.560  28.990  1.00  0.00    -0.200 F 
ATOM     85  C   UNL A   1      39.962  27.396  27.925  1.00  0.00     0.200 A 
ATOM     86  F   UNL A   1      41.025  29.247  26.917  1.00  0.00    -0.200 F 
ATOM     87  F   UNL A   1      40.002  26.722  26.767  1.00  0.00    -0.200 F 
ENDBRANCH  53  77
BRANCH  65  88
ATOM     88  C   UNL A   1      44.519  29.068  35.603  1.00  0.00     0.064 A 
ATOM     89  C   UNL A   1      45.746  29.621  35.207  1.00  0.00     0.173 A 
ATOM     90  C   UNL A   1      44.541  27.850  36.299  1.00  0.00     0.173 A 
ATOM     91  F   UNL A   1      45.777  30.780  34.532  1.00  0.00    -0.203 F 
ATOM     92  C   UNL A   1      46.945  28.967  35.478  1.00  0.00     0.198 A 
ATOM     93  C   UNL A   1      45.743  27.215  36.597  1.00  0.00     0.198 A 
ATOM     94  F   UNL A   1      43.396  27.285  36.711  1.00  0.00    -0.203 F 
ATOM     95  F   UNL A   1      48.103  29.490  35.051  1.00  0.00    -0.200 F 
ATOM     96  C   UNL A   1      46.943  27.770  36.179  1.00  0.00     0.200 A 
ATOM     97  F   UNL A   1      45.741  26.069  37.292  1.00  0.00    -0.200 F 
ATOM     98  F   UNL A   1      48.100  27.148  36.450  1.00  0.00    -0.200 F 
ENDBRANCH  65  88
ENDBRANCH  39  40
ENDBRANCH  32  34
ENDBRANCH  31  32
ENDBRANCH  30  31
ENDBRANCH  29  30
ENDBRANCH  28  29
ENDBRANCH  27  28
ENDBRANCH   1  27
TORSDOF 23
ENDMDL
MODEL 3
REMARK VINA RESULT:     -10.0      1.204      3.104
REMARK SMILES CC[NH2+][C@H](CC[N@H+](C)C1CCC(C)(C)CC1)C(=O)OCCOCCOCCOC(=O)c1ccc(-c2c3nc(c(-c4c(F)c(F)c(F)c(F)c4F)c4ccc([nH]4)c(-c4c(F)c(F)c(F)c(F)c4F)c4nc(c(-c5c(F)c(F)c(F)c(F)c5F)c5ccc2[nH]5)C=C4)C=C3)cc1
REMARK SMILES IDX 23 1 22 2 21 3 20 4 19 5 17 6 18 7 4 8 3 9 2 12 1 13 5 14
REMARK SMILES IDX 6 15 7 16 8 17 9 19 10 20 16 21 11 22 15 23 12 24 13 25
REMARK SMILES IDX 14 26 24 27 25 28 26 29 27 30 28 31 29 32 30 33 31 34 32 35
REMARK SMILES IDX 93 36 33 37 92 38 34 39 35 40 36 41 86 42 37 43 91 44 85 45
REMARK SMILES IDX 87 46 38 47 90 48 84 49 83 50 39 52 71 53 51 54 70 55 52 56
REMARK SMILES IDX 55 57 69 58 88 59 53 60 54 61 68 63 89 64 56 65 40 66 41 67
REMARK SMILES IDX 49 68 42 69 43 70 47 71 50 72 44 73 45 74 48 75 46 76 72 77
REMARK SMILES IDX 73 78 81 79 74 80 75 81 79 82 82 83 76 84 77 85 80 86 78 87
REMARK SMILES IDX 57 88 58 89 66 90 59 91 60 92 64 93 67 94 61 95 62 96 65 97
REMARK SMILES IDX 63 98
REMARK H PARENT 3 10 3 11 7 18 87 51 55 62
REMARK Flexibility Score: inf
ROOT
ATOM      1  C   UNL A   1      34.864  31.947  28.276  1.00  0.00     0.188 C 
ENDROOT
BRANCH   1   2
ATOM      2  O   UNL A   1      35.611  30.941  27.598  1.00  0.00    -0.376 OA
BRANCH   2   3
ATOM      3  C   UNL A   1      35.345  29.566  27.828  1.00  0.00     0.202 C 
BRANCH   3   4
ATOM      4  C   UNL A   1      34.003  28.797  27.297  1.00  0.00     0.261 C 
BRANCH   4   5
ATOM      5  O   UNL A   1      33.692  27.739  25.723  1.00  0.00    -0.459 OA
BRANCH   5   6
ATOM      6  C   UNL A   1      33.747  27.096  24.422  1.00  0.00     0.365 C 
ATOM      7  O   UNL A   1      34.297  27.724  23.503  1.00  0.00    -0.245 OA
BRANCH   6   8
ATOM      8  C   UNL A   1      33.374  25.504  24.029  1.00  0.00     0.299 C 
BRANCH   8   9
ATOM      9  N   UNL A   1      34.648  24.887  23.549  1.00  0.00    -0.335 N 
ATOM     10  H   UNL A   1      34.444  24.311  22.732  1.00  0.00     0.347 HD
ATOM     11  H   UNL A   1      35.294  25.643  23.320  1.00  0.00     0.347 HD
BRANCH   9  12
ATOM     12  C   UNL A   1      35.276  24.055  24.565  1.00  0.00     0.257 C 
ATOM     13  C   UNL A   1      35.676  22.723  23.972  1.00  0.00     0.071 C 
ENDBRANCH   9  12
ENDBRANCH   8   9
BRANCH   8  14
ATOM     14  C   UNL A   1      32.189  24.827  23.218  1.00  0.00     0.139 C 
BRANCH  14  15
ATOM     15  C   UNL A   1      30.744  24.766  23.824  1.00  0.00     0.269 C 
BRANCH  15  16
ATOM     16  N   UNL A   1      30.438  25.674  24.964  1.00  0.00    -0.335 N 
ATOM     17  C   UNL A   1      29.844  24.868  26.046  1.00  0.00     0.332 C 
ATOM     18  H   UNL A   1      31.275  26.120  25.342  1.00  0.00     0.348 HD
BRANCH  16  19
ATOM     19  C   UNL A   1      29.556  26.762  24.480  1.00  0.00     0.183 C 
ATOM     20  C   UNL A   1      30.641  28.361  24.179  1.00  0.00     0.065 C 
ATOM     21  C   UNL A   1      27.654  26.834  24.002  1.00  0.00     0.065 C 
ATOM     22  C   UNL A   1      29.899  29.915  23.416  1.00  0.00     0.012 C 
ATOM     23  C   UNL A   1      26.953  28.461  23.180  1.00  0.00     0.012 C 
ATOM     24  C   UNL A   1      28.092  29.982  22.879  1.00  0.00    -0.035 C 
ATOM     25  C   UNL A   1      28.062  30.432  21.387  1.00  0.00     0.011 C 
ATOM     26  C   UNL A   1      27.516  31.242  23.595  1.00  0.00     0.011 C 
ENDBRANCH  16  19
ENDBRANCH  15  16
ENDBRANCH  14  15
ENDBRANCH   8  14
ENDBRANCH   6   8
ENDBRANCH   5   6
ENDBRANCH   4   5
ENDBRANCH   3   4
ENDBRANCH   2   3
ENDBRANCH   1   2
BRANCH   1  27
ATOM     27  C   UNL A   1      35.060  33.364  27.799  1.00  0.00     0.188 C 
BRANCH  27  28
ATOM     28  O   UNL A   1      35.026  34.392  28.763  1.00  0.00    -0.376 OA
BRANCH  28  29
ATOM     29  C   UNL A   1      34.302  35.594  28.619  1.00  0.00     0.202 C 
BRANCH  29  30
ATOM     30  C   UNL A   1      32.896  35.764  29.202  1.00  0.00     0.261 C 
BRANCH  30  31
ATOM     31  O   UNL A   1      32.603  35.011  30.375  1.00  0.00    -0.460 OA
BRANCH  31  32
ATOM     32  C   UNL A   1      32.810  35.613  31.568  1.00  0.00     0.338 C 
ATOM     33  O   UNL A   1      32.096  36.453  32.105  1.00  0.00    -0.246 OA
BRANCH  32  34
ATOM     34  C   UNL A   1      33.945  34.903  32.213  1.00  0.00     0.060 A 
ATOM     35  C   UNL A   1      35.202  35.524  32.247  1.00  0.00     0.016 A 
ATOM     36  C   UNL A   1      33.733  33.713  32.927  1.00  0.00     0.016 A 
ATOM     37  C   UNL A   1      36.263  34.925  32.933  1.00  0.00     0.010 A 
ATOM     38  C   UNL A   1      34.788  33.117  33.614  1.00  0.00     0.010 A 
ATOM     39  C   UNL A   1      36.070  33.691  33.571  1.00  0.00    -0.014 A 
BRANCH  39  40
ATOM     40  C   UNL A   1      37.223  32.811  33.874  1.00  0.00     0.031 A 
ATOM     41  C   UNL A   1      37.941  33.083  35.170  1.00  0.00     0.074 A 
ATOM     42  C   UNL A   1      37.664  31.859  33.036  1.00  0.00     0.049 A 
ATOM     43  N   UNL A   1      39.086  32.630  35.608  1.00  0.00    -0.248 NA
ATOM     44  C   UNL A   1      37.275  34.023  36.088  1.00  0.00     0.031 C 
ATOM     45  C   UNL A   1      37.031  31.466  31.781  1.00  0.00     0.029 A 
ATOM     46  N   UNL A   1      38.783  31.064  33.115  1.00  0.00    -0.354 N 
ATOM     47  C   UNL A   1      39.282  33.247  36.836  1.00  0.00     0.074 A 
ATOM     48  C   UNL A   1      38.161  34.127  37.063  1.00  0.00     0.031 C 
ATOM     49  C   UNL A   1      37.786  30.519  31.192  1.00  0.00     0.029 A 
ATOM     50  C   UNL A   1      38.977  30.277  32.006  1.00  0.00     0.049 A 
ATOM     51  H   UNL A   1      39.387  31.059  33.892  1.00  0.00     0.167 HD
ATOM     52  C   UNL A   1      40.307  33.092  37.704  1.00  0.00     0.037 A 
ATOM     53  C   UNL A   1      40.021  29.487  31.680  1.00  0.00     0.037 A 
ATOM     54  C   UNL A   1      41.425  32.223  37.470  1.00  0.00     0.049 A 
ATOM     55  C   UNL A   1      41.194  29.384  32.628  1.00  0.00     0.074 A 
ATOM     56  C   UNL A   1      42.522  31.991  38.277  1.00  0.00     0.029 A 
ATOM     57  N   UNL A   1      41.586  31.444  36.333  1.00  0.00    -0.354 N 
ATOM     58  N   UNL A   1      41.378  29.968  33.790  1.00  0.00    -0.248 NA
ATOM     59  C   UNL A   1      42.307  28.517  32.216  1.00  0.00     0.031 C 
ATOM     60  C   UNL A   1      43.374  31.108  37.606  1.00  0.00     0.029 A 
ATOM     61  C   UNL A   1      42.776  30.743  36.409  1.00  0.00     0.049 A 
ATOM     62  H   UNL A   1      40.949  31.397  35.584  1.00  0.00     0.167 HD
ATOM     63  C   UNL A   1      42.607  29.514  34.258  1.00  0.00     0.074 A 
ATOM     64  C   UNL A   1      43.119  28.598  33.260  1.00  0.00     0.031 C 
ATOM     65  C   UNL A   1      43.255  29.824  35.409  1.00  0.00     0.037 A 
BRANCH  52  66
ATOM     66  C   UNL A   1      40.272  33.911  38.959  1.00  0.00     0.064 A 
ATOM     67  C   UNL A   1      39.596  33.473  40.109  1.00  0.00     0.173 A 
ATOM     68  C   UNL A   1      40.917  35.155  39.011  1.00  0.00     0.173 A 
ATOM     69  F   UNL A   1      38.941  32.302  40.102  1.00  0.00    -0.203 F 
ATOM     70  C   UNL A   1      39.544  34.263  41.254  1.00  0.00     0.198 A 
ATOM     71  C   UNL A   1      40.890  35.929  40.168  1.00  0.00     0.198 A 
ATOM     72  F   UNL A   1      41.569  35.625  37.937  1.00  0.00    -0.203 F 
ATOM     73  F   UNL A   1      38.841  33.852  42.318  1.00  0.00    -0.200 F 
ATOM     74  C   UNL A   1      40.197  35.487  41.285  1.00  0.00     0.200 A 
ATOM     75  F   UNL A   1      41.527  37.107  40.199  1.00  0.00    -0.200 F 
ATOM     76  F   UNL A   1      40.148  36.246  42.389  1.00  0.00    -0.200 F 
ENDBRANCH  52  66
BRANCH  53  77
ATOM     77  C   UNL A   1      40.029  28.749  30.387  1.00  0.00     0.064 A 
ATOM     78  C   UNL A   1      40.606  29.308  29.237  1.00  0.00     0.173 A 
ATOM     79  C   UNL A   1      39.425  27.488  30.263  1.00  0.00     0.173 A 
ATOM     80  F   UNL A   1      41.166  30.525  29.294  1.00  0.00    -0.203 F 
ATOM     81  C   UNL A   1      40.562  28.645  28.011  1.00  0.00     0.198 A 
ATOM     82  C   UNL A   1      39.408  26.813  29.043  1.00  0.00     0.198 A 
ATOM     83  F   UNL A   1      38.849  26.912  31.327  1.00  0.00    -0.203 F 
ATOM     84  F   UNL A   1      41.070  29.229  26.918  1.00  0.00    -0.200 F 
ATOM     85  C   UNL A   1      39.968  27.396  27.916  1.00  0.00     0.200 A 
ATOM     86  F   UNL A   1      38.839  25.603  28.958  1.00  0.00    -0.200 F 
ATOM     87  F   UNL A   1      39.923  26.760  26.737  1.00  0.00    -0.200 F 
ENDBRANCH  53  77
BRANCH  65  88
ATOM     88  C   UNL A   1      44.561  29.132  35.681  1.00  0.00     0.064 A 
ATOM     89  C   UNL A   1      44.622  27.904  36.355  1.00  0.00     0.173 A 
ATOM     90  C   UNL A   1      45.761  29.679  35.202  1.00  0.00     0.173 A 
ATOM     91  F   UNL A   1      43.503  27.343  36.840  1.00  0.00    -0.203 F 
ATOM     92  C   UNL A   1      45.840  27.262  36.562  1.00  0.00     0.198 A 
ATOM     93  C   UNL A   1      46.973  29.020  35.382  1.00  0.00     0.198 A 
ATOM     94  F   UNL A   1      45.755  30.846  34.539  1.00  0.00    -0.203 F 
ATOM     95  F   UNL A   1      45.882  26.112  37.249  1.00  0.00    -0.200 F 
ATOM     96  C   UNL A   1      47.013  27.816  36.069  1.00  0.00     0.200 A 
ATOM     97  F   UNL A   1      48.101  29.546  34.887  1.00  0.00    -0.200 F 
ATOM     98  F   UNL A   1      48.183  27.190  36.257  1.00  0.00    -0.200 F 
ENDBRANCH  65  88
ENDBRANCH  39  40
ENDBRANCH  32  34
ENDBRANCH  31  32
ENDBRANCH  30  31
ENDBRANCH  29  30
ENDBRANCH  28  29
ENDBRANCH  27  28
ENDBRANCH   1  27
TORSDOF 23
ENDMDL
