MODEL 1
REMARK VINA RESULT:     -12.2      0.000      0.000
REMARK SMILES Cc1ccnc(C(=O)c2[nH]c3cc(F)ccc3c2CC(=O)OCCOCCOCCOC(=O)c2ccc(-c3c4nc(c(-c5c(F)c(F)c(F)c(F)c5F)c5ccc([nH]5)c(-c5c(F)c(F)c(F)c(F)c5F)c5nc(c(-c6c(F)c(F)c(F)c(F)c6F)c6ccc3[nH]6)C=C5)C=C4)cc2)c1
REMARK SMILES IDX 26 1 25 2 24 3 23 4 22 5 20 6 21 7 19 8 18 9 9 10 10 11
REMARK SMILES IDX 11 12 17 14 12 15 16 16 13 17 15 18 14 19 7 20 8 21 6 22
REMARK SMILES IDX 1 23 2 24 3 25 97 26 4 27 5 28 27 29 28 30 29 31 30 32 31 33
REMARK SMILES IDX 32 34 33 35 34 36 35 37 96 38 36 39 95 40 37 41 38 42 39 43
REMARK SMILES IDX 89 44 40 45 94 46 88 47 90 48 41 49 93 50 87 51 86 52 42 54
REMARK SMILES IDX 74 55 54 56 73 57 55 58 58 59 72 60 91 61 56 62 57 63 71 65
REMARK SMILES IDX 92 66 59 67 43 68 44 69 52 70 45 71 46 72 50 73 53 74 47 75
REMARK SMILES IDX 48 76 51 77 49 78 75 79 76 80 84 81 77 82 78 83 82 84 85 85
REMARK SMILES IDX 79 86 80 87 83 88 81 89 60 90 61 91 69 92 62 93 63 94 67 95
REMARK SMILES IDX 70 96 64 97 65 98 68 99 66 100
REMARK H PARENT 10 13 90 53 58 64
REMARK Flexibility Score: inf
ROOT
ATOM      1  C   UNL A   1      30.901  27.515  22.344  1.00  0.00     0.188 C 
ENDROOT
BRANCH   1   2
ATOM      2  O   UNL A   1      31.984  26.654  22.010  1.00  0.00    -0.376 OA
BRANCH   2   3
ATOM      3  C   UNL A   1      33.048  26.541  22.949  1.00  0.00     0.202 C 
BRANCH   3   4
ATOM      4  C   UNL A   1      33.078  25.231  23.736  1.00  0.00     0.261 C 
BRANCH   4   5
ATOM      5  O   UNL A   1      31.769  24.855  24.225  1.00  0.00    -0.463 OA
BRANCH   5   6
ATOM      6  C   UNL A   1      31.571  23.524  24.392  1.00  0.00     0.310 C 
ATOM      7  O   UNL A   1      30.666  23.058  25.083  1.00  0.00    -0.252 OA
BRANCH   6   8
ATOM      8  C   UNL A   1      32.518  22.601  23.654  1.00  0.00     0.161 C 
BRANCH   8   9
ATOM      9  C   UNL A   1      33.137  21.407  24.341  1.00  0.00     0.000 A 
ATOM     10  C   UNL A   1      34.141  21.409  25.319  1.00  0.00     0.093 A 
ATOM     11  N   UNL A   1      34.408  20.094  25.629  1.00  0.00    -0.351 N 
ATOM     12  C   UNL A   1      33.846  19.260  24.698  1.00  0.00     0.049 A 
ATOM     13  H   UNL A   1      34.928  19.795  26.411  1.00  0.00     0.167 HD
ATOM     14  C   UNL A   1      33.008  20.043  23.902  1.00  0.00     0.004 A 
ATOM     15  C   UNL A   1      34.036  17.890  24.490  1.00  0.00     0.066 A 
ATOM     16  C   UNL A   1      32.317  19.419  22.842  1.00  0.00     0.013 A 
ATOM     17  C   UNL A   1      33.376  17.318  23.405  1.00  0.00     0.125 A 
ATOM     18  C   UNL A   1      32.527  18.056  22.592  1.00  0.00     0.040 A 
ATOM     19  F   UNL A   1      33.585  16.024  23.128  1.00  0.00    -0.207 F 
BRANCH  10  20
ATOM     20  C   UNL A   1      34.819  22.540  25.928  1.00  0.00     0.227 C 
ATOM     21  O   UNL A   1      34.220  23.458  26.485  1.00  0.00    -0.285 OA
BRANCH  20  22
ATOM     22  C   UNL A   1      36.307  22.630  25.851  1.00  0.00     0.113 A 
ATOM     23  C   UNL A   1      39.119  24.940  26.879  1.00  0.00     0.044 C 
ATOM     24  C   UNL A   1      38.354  23.746  26.387  1.00  0.00    -0.047 A 
ATOM     25  C   UNL A   1      39.019  22.544  26.128  1.00  0.00     0.023 A 
ATOM     26  C   UNL A   1      36.960  23.785  26.265  1.00  0.00     0.036 A 
ATOM     27  C   UNL A   1      38.283  21.461  25.677  1.00  0.00     0.112 A 
ATOM     28  N   UNL A   1      36.944  21.487  25.504  1.00  0.00    -0.253 NA
ENDBRANCH  20  22
ENDBRANCH  10  20
ENDBRANCH   8   9
ENDBRANCH   6   8
ENDBRANCH   5   6
ENDBRANCH   4   5
ENDBRANCH   3   4
ENDBRANCH   2   3
ENDBRANCH   1   2
BRANCH   1  29
ATOM     29  C   UNL A   1      31.228  28.934  22.851  1.00  0.00     0.188 C 
BRANCH  29  30
ATOM     30  O   UNL A   1      30.805  29.301  24.159  1.00  0.00    -0.376 OA
BRANCH  30  31
ATOM     31  C   UNL A   1      31.812  29.396  25.161  1.00  0.00     0.202 C 
BRANCH  31  32
ATOM     32  C   UNL A   1      31.709  30.657  26.010  1.00  0.00     0.261 C 
BRANCH  32  33
ATOM     33  O   UNL A   1      32.528  30.529  27.191  1.00  0.00    -0.460 OA
BRANCH  33  34
ATOM     34  C   UNL A   1      33.298  31.607  27.439  1.00  0.00     0.338 C 
ATOM     35  O   UNL A   1      32.937  32.771  27.470  1.00  0.00    -0.246 OA
BRANCH  34  36
ATOM     36  C   UNL A   1      34.696  31.212  27.708  1.00  0.00     0.060 A 
ATOM     37  C   UNL A   1      35.030  29.875  27.913  1.00  0.00     0.016 A 
ATOM     38  C   UNL A   1      35.631  32.205  28.002  1.00  0.00     0.016 A 
ATOM     39  C   UNL A   1      36.216  29.542  28.572  1.00  0.00     0.010 A 
ATOM     40  C   UNL A   1      36.863  31.859  28.569  1.00  0.00     0.010 A 
ATOM     41  C   UNL A   1      37.138  30.531  28.940  1.00  0.00    -0.014 A 
BRANCH  41  42
ATOM     42  C   UNL A   1      38.309  30.205  29.809  1.00  0.00     0.031 A 
ATOM     43  C   UNL A   1      39.428  29.335  29.277  1.00  0.00     0.074 A 
ATOM     44  C   UNL A   1      38.425  30.717  31.051  1.00  0.00     0.049 A 
ATOM     45  N   UNL A   1      40.441  28.797  29.912  1.00  0.00    -0.248 NA
ATOM     46  C   UNL A   1      39.407  29.032  27.835  1.00  0.00     0.031 C 
ATOM     47  C   UNL A   1      37.486  31.645  31.679  1.00  0.00     0.029 A 
ATOM     48  N   UNL A   1      39.395  30.530  32.009  1.00  0.00    -0.354 N 
ATOM     49  C   UNL A   1      41.147  28.066  28.963  1.00  0.00     0.074 A 
ATOM     50  C   UNL A   1      40.445  28.219  27.707  1.00  0.00     0.031 C 
ATOM     51  C   UNL A   1      37.936  31.970  32.900  1.00  0.00     0.029 A 
ATOM     52  C   UNL A   1      39.142  31.199  33.183  1.00  0.00     0.049 A 
ATOM     53  H   UNL A   1      40.193  29.972  31.868  1.00  0.00     0.167 HD
ATOM     54  C   UNL A   1      42.276  27.333  29.121  1.00  0.00     0.037 A 
ATOM     55  C   UNL A   1      39.771  31.157  34.374  1.00  0.00     0.037 A 
ATOM     56  C   UNL A   1      42.994  27.191  30.363  1.00  0.00     0.049 A 
ATOM     57  C   UNL A   1      40.962  30.254  34.550  1.00  0.00     0.074 A 
ATOM     58  C   UNL A   1      44.124  26.436  30.626  1.00  0.00     0.029 A 
ATOM     59  N   UNL A   1      42.658  27.829  31.546  1.00  0.00    -0.354 N 
ATOM     60  N   UNL A   1      41.571  29.500  33.669  1.00  0.00    -0.248 NA
ATOM     61  C   UNL A   1      41.539  30.181  35.901  1.00  0.00     0.031 C 
ATOM     62  C   UNL A   1      44.448  26.585  31.979  1.00  0.00     0.029 A 
ATOM     63  C   UNL A   1      43.549  27.472  32.546  1.00  0.00     0.049 A 
ATOM     64  H   UNL A   1      41.898  28.445  31.659  1.00  0.00     0.167 HD
ATOM     65  C   UNL A   1      42.603  28.871  34.353  1.00  0.00     0.074 A 
ATOM     66  C   UNL A   1      42.560  29.360  35.715  1.00  0.00     0.031 C 
ATOM     67  C   UNL A   1      43.497  27.961  33.898  1.00  0.00     0.037 A 
BRANCH  54  68
ATOM     68  C   UNL A   1      42.804  26.592  27.926  1.00  0.00     0.064 A 
ATOM     69  C   UNL A   1      43.624  27.214  26.975  1.00  0.00     0.173 A 
ATOM     70  C   UNL A   1      42.541  25.222  27.772  1.00  0.00     0.173 A 
ATOM     71  F   UNL A   1      43.891  28.525  27.067  1.00  0.00    -0.203 F 
ATOM     72  C   UNL A   1      44.158  26.491  25.909  1.00  0.00     0.198 A 
ATOM     73  C   UNL A   1      43.094  24.498  26.720  1.00  0.00     0.198 A 
ATOM     74  F   UNL A   1      41.763  24.579  28.657  1.00  0.00    -0.203 F 
ATOM     75  F   UNL A   1      44.918  27.111  24.996  1.00  0.00    -0.200 F 
ATOM     76  C   UNL A   1      43.900  25.133  25.788  1.00  0.00     0.200 A 
ATOM     77  F   UNL A   1      42.852  23.184  26.611  1.00  0.00    -0.200 F 
ATOM     78  F   UNL A   1      44.427  24.438  24.770  1.00  0.00    -0.200 F 
ENDBRANCH  54  68
BRANCH  55  79
ATOM     79  C   UNL A   1      39.244  31.940  35.524  1.00  0.00     0.064 A 
ATOM     80  C   UNL A   1      39.626  33.272  35.733  1.00  0.00     0.173 A 
ATOM     81  C   UNL A   1      38.375  31.358  36.460  1.00  0.00     0.173 A 
ATOM     82  F   UNL A   1      40.484  33.863  34.888  1.00  0.00    -0.203 F 
ATOM     83  C   UNL A   1      39.174  33.984  36.842  1.00  0.00     0.198 A 
ATOM     84  C   UNL A   1      37.892  32.083  37.546  1.00  0.00     0.198 A 
ATOM     85  F   UNL A   1      37.988  30.082  36.315  1.00  0.00    -0.203 F 
ATOM     86  F   UNL A   1      39.605  35.236  37.052  1.00  0.00    -0.200 F 
ATOM     87  C   UNL A   1      38.301  33.393  37.743  1.00  0.00     0.200 A 
ATOM     88  F   UNL A   1      37.041  31.509  38.407  1.00  0.00    -0.200 F 
ATOM     89  F   UNL A   1      37.866  34.079  38.807  1.00  0.00    -0.200 F 
ENDBRANCH  55  79
BRANCH  67  90
ATOM     90  C   UNL A   1      44.514  27.458  34.881  1.00  0.00     0.064 A 
ATOM     91  C   UNL A   1      44.287  26.303  35.647  1.00  0.00     0.173 A 
ATOM     92  C   UNL A   1      45.723  28.144  35.070  1.00  0.00     0.173 A 
ATOM     93  F   UNL A   1      43.139  25.622  35.515  1.00  0.00    -0.203 F 
ATOM     94  C   UNL A   1      45.213  25.881  36.597  1.00  0.00     0.198 A 
ATOM     95  C   UNL A   1      46.662  27.700  35.999  1.00  0.00     0.198 A 
ATOM     96  F   UNL A   1      45.994  29.247  34.358  1.00  0.00    -0.203 F 
ATOM     97  F   UNL A   1      44.945  24.815  37.363  1.00  0.00    -0.200 F 
ATOM     98  C   UNL A   1      46.400  26.578  36.770  1.00  0.00     0.200 A 
ATOM     99  F   UNL A   1      47.812  28.368  36.158  1.00  0.00    -0.200 F 
ATOM    100  F   UNL A   1      47.286  26.175  37.691  1.00  0.00    -0.200 F 
ENDBRANCH  67  90
ENDBRANCH  41  42
ENDBRANCH  34  36
ENDBRANCH  33  34
ENDBRANCH  32  33
ENDBRANCH  31  32
ENDBRANCH  30  31
ENDBRANCH  29  30
ENDBRANCH   1  29
TORSDOF 20
ENDMDL
MODEL 2
REMARK VINA RESULT:     -12.1      4.491     10.123
REMARK SMILES Cc1ccnc(C(=O)c2[nH]c3cc(F)ccc3c2CC(=O)OCCOCCOCCOC(=O)c2ccc(-c3c4nc(c(-c5c(F)c(F)c(F)c(F)c5F)c5ccc([nH]5)c(-c5c(F)c(F)c(F)c(F)c5F)c5nc(c(-c6c(F)c(F)c(F)c(F)c6F)c6ccc3[nH]6)C=C5)C=C4)cc2)c1
REMARK SMILES IDX 26 1 25 2 24 3 23 4 22 5 20 6 21 7 19 8 18 9 9 10 10 11
REMARK SMILES IDX 11 12 17 14 12 15 16 16 13 17 15 18 14 19 7 20 8 21 6 22
REMARK SMILES IDX 1 23 2 24 3 25 97 26 4 27 5 28 27 29 28 30 29 31 30 32 31 33
REMARK SMILES IDX 32 34 33 35 34 36 35 37 96 38 36 39 95 40 37 41 38 42 39 43
REMARK SMILES IDX 89 44 40 45 94 46 88 47 90 48 41 49 93 50 87 51 86 52 42 54
REMARK SMILES IDX 74 55 54 56 73 57 55 58 58 59 72 60 91 61 56 62 57 63 71 65
REMARK SMILES IDX 92 66 59 67 43 68 44 69 52 70 45 71 46 72 50 73 53 74 47 75
REMARK SMILES IDX 48 76 51 77 49 78 75 79 76 80 84 81 77 82 78 83 82 84 85 85
REMARK SMILES IDX 79 86 80 87 83 88 81 89 60 90 61 91 69 92 62 93 63 94 67 95
REMARK SMILES IDX 70 96 64 97 65 98 68 99 66 100
REMARK H PARENT 10 13 90 53 58 64
REMARK Flexibility Score: inf
ROOT
ATOM      1  C   UNL A   1      33.248  21.058  24.290  1.00  0.00     0.188 C 
ENDROOT
BRANCH   1   2
ATOM      2  O   UNL A   1      32.261  21.998  23.879  1.00  0.00    -0.376 OA
BRANCH   2   3
ATOM      3  C   UNL A   1      32.611  22.910  22.844  1.00  0.00     0.202 C 
BRANCH   3   4
ATOM      4  C   UNL A   1      32.001  24.306  22.980  1.00  0.00     0.261 C 
BRANCH   4   5
ATOM      5  O   UNL A   1      30.904  24.336  23.923  1.00  0.00    -0.463 OA
BRANCH   5   6
ATOM      6  C   UNL A   1      31.065  25.173  24.977  1.00  0.00     0.310 C 
ATOM      7  O   UNL A   1      31.836  24.945  25.909  1.00  0.00    -0.252 OA
BRANCH   6   8
ATOM      8  C   UNL A   1      30.255  26.453  24.955  1.00  0.00     0.161 C 
BRANCH   8   9
ATOM      9  C   UNL A   1      30.568  27.557  23.973  1.00  0.00     0.000 A 
ATOM     10  C   UNL A   1      31.782  28.240  23.813  1.00  0.00     0.093 A 
ATOM     11  N   UNL A   1      31.592  29.178  22.824  1.00  0.00    -0.351 N 
ATOM     12  C   UNL A   1      30.256  29.330  22.560  1.00  0.00     0.049 A 
ATOM     13  H   UNL A   1      32.315  29.671  22.371  1.00  0.00     0.167 HD
ATOM     14  C   UNL A   1      29.590  28.302  23.229  1.00  0.00     0.004 A 
ATOM     15  C   UNL A   1      29.595  30.305  21.806  1.00  0.00     0.066 A 
ATOM     16  C   UNL A   1      28.183  28.244  23.132  1.00  0.00     0.013 A 
ATOM     17  C   UNL A   1      28.204  30.245  21.773  1.00  0.00     0.125 A 
ATOM     18  C   UNL A   1      27.501  29.236  22.416  1.00  0.00     0.040 A 
ATOM     19  F   UNL A   1      27.529  31.200  21.121  1.00  0.00    -0.207 F 
BRANCH  10  20
ATOM     20  C   UNL A   1      33.036  28.050  24.522  1.00  0.00     0.227 C 
ATOM     21  O   UNL A   1      33.866  27.202  24.198  1.00  0.00    -0.285 OA
BRANCH  20  22
ATOM     22  C   UNL A   1      33.332  28.884  25.723  1.00  0.00     0.113 A 
ATOM     23  C   UNL A   1      36.090  29.437  28.250  1.00  0.00     0.044 C 
ATOM     24  C   UNL A   1      34.834  29.594  27.445  1.00  0.00    -0.047 A 
ATOM     25  C   UNL A   1      34.039  30.733  27.599  1.00  0.00     0.023 A 
ATOM     26  C   UNL A   1      34.482  28.654  26.469  1.00  0.00     0.036 A 
ATOM     27  C   UNL A   1      32.887  30.849  26.839  1.00  0.00     0.112 A 
ATOM     28  N   UNL A   1      32.499  29.933  25.925  1.00  0.00    -0.253 NA
ENDBRANCH  20  22
ENDBRANCH  10  20
ENDBRANCH   8   9
ENDBRANCH   6   8
ENDBRANCH   5   6
ENDBRANCH   4   5
ENDBRANCH   3   4
ENDBRANCH   2   3
ENDBRANCH   1   2
BRANCH   1  29
ATOM     29  C   UNL A   1      33.582  20.962  25.792  1.00  0.00     0.188 C 
BRANCH  29  30
ATOM     30  O   UNL A   1      34.898  21.299  26.218  1.00  0.00    -0.376 OA
BRANCH  30  31
ATOM     31  C   UNL A   1      35.820  21.696  25.209  1.00  0.00     0.202 C 
BRANCH  31  32
ATOM     32  C   UNL A   1      37.095  20.862  25.186  1.00  0.00     0.261 C 
BRANCH  32  33
ATOM     33  O   UNL A   1      38.249  21.721  25.076  1.00  0.00    -0.460 OA
BRANCH  33  34
ATOM     34  C   UNL A   1      39.221  21.443  25.966  1.00  0.00     0.338 C 
ATOM     35  O   UNL A   1      39.771  20.368  26.137  1.00  0.00    -0.246 OA
BRANCH  34  36
ATOM     36  C   UNL A   1      39.591  22.645  26.742  1.00  0.00     0.060 A 
ATOM     37  C   UNL A   1      38.998  23.876  26.470  1.00  0.00     0.016 A 
ATOM     38  C   UNL A   1      40.710  22.590  27.574  1.00  0.00     0.016 A 
ATOM     39  C   UNL A   1      39.621  25.058  26.877  1.00  0.00     0.010 A 
ATOM     40  C   UNL A   1      41.273  23.774  28.065  1.00  0.00     0.010 A 
ATOM     41  C   UNL A   1      40.787  25.028  27.654  1.00  0.00    -0.014 A 
BRANCH  41  42
ATOM     42  C   UNL A   1      41.560  26.277  27.930  1.00  0.00     0.031 A 
ATOM     43  C   UNL A   1      40.937  27.389  28.746  1.00  0.00     0.074 A 
ATOM     44  C   UNL A   1      42.835  26.419  27.513  1.00  0.00     0.049 A 
ATOM     45  N   UNL A   1      41.363  28.611  28.955  1.00  0.00    -0.248 NA
ATOM     46  C   UNL A   1      39.663  27.085  29.421  1.00  0.00     0.031 C 
ATOM     47  C   UNL A   1      43.612  25.409  26.798  1.00  0.00     0.029 A 
ATOM     48  N   UNL A   1      43.704  27.478  27.638  1.00  0.00    -0.354 N 
ATOM     49  C   UNL A   1      40.399  29.227  29.745  1.00  0.00     0.074 A 
ATOM     50  C   UNL A   1      39.356  28.250  29.973  1.00  0.00     0.031 C 
ATOM     51  C   UNL A   1      44.849  25.880  26.575  1.00  0.00     0.029 A 
ATOM     52  C   UNL A   1      44.923  27.261  27.040  1.00  0.00     0.049 A 
ATOM     53  H   UNL A   1      43.476  28.311  28.111  1.00  0.00     0.167 HD
ATOM     54  C   UNL A   1      40.381  30.490  30.236  1.00  0.00     0.037 A 
ATOM     55  C   UNL A   1      45.963  28.092  26.834  1.00  0.00     0.037 A 
ATOM     56  C   UNL A   1      41.424  31.463  30.032  1.00  0.00     0.049 A 
ATOM     57  C   UNL A   1      45.873  29.520  27.299  1.00  0.00     0.074 A 
ATOM     58  C   UNL A   1      41.472  32.780  30.457  1.00  0.00     0.029 A 
ATOM     59  N   UNL A   1      42.608  31.221  29.355  1.00  0.00    -0.354 N 
ATOM     60  N   UNL A   1      44.919  30.117  27.970  1.00  0.00    -0.248 NA
ATOM     61  C   UNL A   1      47.001  30.397  26.953  1.00  0.00     0.031 C 
ATOM     62  C   UNL A   1      42.668  33.347  30.002  1.00  0.00     0.029 A 
ATOM     63  C   UNL A   1      43.387  32.368  29.337  1.00  0.00     0.049 A 
ATOM     64  H   UNL A   1      42.859  30.361  28.947  1.00  0.00     0.167 HD
ATOM     65  C   UNL A   1      45.335  31.432  28.133  1.00  0.00     0.074 A 
ATOM     66  C   UNL A   1      46.642  31.537  27.523  1.00  0.00     0.031 C 
ATOM     67  C   UNL A   1      44.685  32.464  28.724  1.00  0.00     0.037 A 
BRANCH  54  68
ATOM     68  C   UNL A   1      39.177  30.918  31.025  1.00  0.00     0.064 A 
ATOM     69  C   UNL A   1      38.078  31.539  30.415  1.00  0.00     0.173 A 
ATOM     70  C   UNL A   1      39.095  30.639  32.398  1.00  0.00     0.173 A 
ATOM     71  F   UNL A   1      38.113  31.845  29.109  1.00  0.00    -0.203 F 
ATOM     72  C   UNL A   1      36.943  31.870  31.153  1.00  0.00     0.198 A 
ATOM     73  C   UNL A   1      37.951  30.948  33.127  1.00  0.00     0.198 A 
ATOM     74  F   UNL A   1      40.119  30.043  33.029  1.00  0.00    -0.203 F 
ATOM     75  F   UNL A   1      35.914  32.487  30.556  1.00  0.00    -0.200 F 
ATOM     76  C   UNL A   1      36.877  31.565  32.505  1.00  0.00     0.200 A 
ATOM     77  F   UNL A   1      37.885  30.645  34.431  1.00  0.00    -0.200 F 
ATOM     78  F   UNL A   1      35.778  31.871  33.209  1.00  0.00    -0.200 F 
ENDBRANCH  54  68
BRANCH  55  79
ATOM     79  C   UNL A   1      47.158  27.618  26.085  1.00  0.00     0.064 A 
ATOM     80  C   UNL A   1      48.272  27.090  26.752  1.00  0.00     0.173 A 
ATOM     81  C   UNL A   1      47.225  27.720  24.686  1.00  0.00     0.173 A 
ATOM     82  F   UNL A   1      48.273  27.006  28.090  1.00  0.00    -0.203 F 
ATOM     83  C   UNL A   1      49.411  26.699  26.051  1.00  0.00     0.198 A 
ATOM     84  C   UNL A   1      48.349  27.293  23.984  1.00  0.00     0.198 A 
ATOM     85  F   UNL A   1      46.193  28.231  23.999  1.00  0.00    -0.203 F 
ATOM     86  F   UNL A   1      50.486  26.257  26.718  1.00  0.00    -0.200 F 
ATOM     87  C   UNL A   1      49.446  26.793  24.668  1.00  0.00     0.200 A 
ATOM     88  F   UNL A   1      48.372  27.375  22.647  1.00  0.00    -0.200 F 
ATOM     89  F   UNL A   1      50.541  26.416  23.996  1.00  0.00    -0.200 F 
ENDBRANCH  55  79
BRANCH  67  90
ATOM     90  C   UNL A   1      45.396  33.785  28.757  1.00  0.00     0.064 A 
ATOM     91  C   UNL A   1      45.220  34.739  27.742  1.00  0.00     0.173 A 
ATOM     92  C   UNL A   1      46.274  34.098  29.805  1.00  0.00     0.173 A 
ATOM     93  F   UNL A   1      44.405  34.481  26.708  1.00  0.00    -0.203 F 
ATOM     94  C   UNL A   1      45.931  35.937  27.753  1.00  0.00     0.198 A 
ATOM     95  C   UNL A   1      46.959  35.310  29.830  1.00  0.00     0.198 A 
ATOM     96  F   UNL A   1      46.471  33.226  30.805  1.00  0.00    -0.203 F 
ATOM     97  F   UNL A   1      45.797  36.802  26.739  1.00  0.00    -0.200 F 
ATOM     98  C   UNL A   1      46.797  36.221  28.799  1.00  0.00     0.200 A 
ATOM     99  F   UNL A   1      47.787  35.589  30.846  1.00  0.00    -0.200 F 
ATOM    100  F   UNL A   1      47.487  37.371  28.803  1.00  0.00    -0.200 F 
ENDBRANCH  67  90
ENDBRANCH  41  42
ENDBRANCH  34  36
ENDBRANCH  33  34
ENDBRANCH  32  33
ENDBRANCH  31  32
ENDBRANCH  30  31
ENDBRANCH  29  30
ENDBRANCH   1  29
TORSDOF 20
ENDMDL
MODEL 3
REMARK VINA RESULT:     -11.6      0.956      2.205
REMARK SMILES Cc1ccnc(C(=O)c2[nH]c3cc(F)ccc3c2CC(=O)OCCOCCOCCOC(=O)c2ccc(-c3c4nc(c(-c5c(F)c(F)c(F)c(F)c5F)c5ccc([nH]5)c(-c5c(F)c(F)c(F)c(F)c5F)c5nc(c(-c6c(F)c(F)c(F)c(F)c6F)c6ccc3[nH]6)C=C5)C=C4)cc2)c1
REMARK SMILES IDX 26 1 25 2 24 3 23 4 22 5 20 6 21 7 19 8 18 9 9 10 10 11
REMARK SMILES IDX 11 12 17 14 12 15 16 16 13 17 15 18 14 19 7 20 8 21 6 22
REMARK SMILES IDX 1 23 2 24 3 25 97 26 4 27 5 28 27 29 28 30 29 31 30 32 31 33
REMARK SMILES IDX 32 34 33 35 34 36 35 37 96 38 36 39 95 40 37 41 38 42 39 43
REMARK SMILES IDX 89 44 40 45 94 46 88 47 90 48 41 49 93 50 87 51 86 52 42 54
REMARK SMILES IDX 74 55 54 56 73 57 55 58 58 59 72 60 91 61 56 62 57 63 71 65
REMARK SMILES IDX 92 66 59 67 43 68 44 69 52 70 45 71 46 72 50 73 53 74 47 75
REMARK SMILES IDX 48 76 51 77 49 78 75 79 76 80 84 81 77 82 78 83 82 84 85 85
REMARK SMILES IDX 79 86 80 87 83 88 81 89 60 90 61 91 69 92 62 93 63 94 67 95
REMARK SMILES IDX 70 96 64 97 65 98 68 99 66 100
REMARK H PARENT 10 13 90 53 58 64
REMARK Flexibility Score: inf
ROOT
ATOM      1  C   UNL A   1      30.652  27.377  22.573  1.00  0.00     0.188 C 
ENDROOT
BRANCH   1   2
ATOM      2  O   UNL A   1      31.415  26.261  23.021  1.00  0.00    -0.376 OA
BRANCH   2   3
ATOM      3  C   UNL A   1      30.778  25.339  23.899  1.00  0.00     0.202 C 
BRANCH   3   4
ATOM      4  C   UNL A   1      31.485  23.991  24.043  1.00  0.00     0.261 C 
BRANCH   4   5
ATOM      5  O   UNL A   1      31.963  23.484  22.775  1.00  0.00    -0.463 OA
BRANCH   5   6
ATOM      6  C   UNL A   1      32.185  22.147  22.730  1.00  0.00     0.310 C 
ATOM      7  O   UNL A   1      31.534  21.377  22.024  1.00  0.00    -0.252 OA
BRANCH   6   8
ATOM      8  C   UNL A   1      33.316  21.620  23.588  1.00  0.00     0.161 C 
BRANCH   8   9
ATOM      9  C   UNL A   1      33.070  20.564  24.640  1.00  0.00     0.000 A 
ATOM     10  C   UNL A   1      33.207  20.694  26.029  1.00  0.00     0.093 A 
ATOM     11  N   UNL A   1      32.906  19.470  26.583  1.00  0.00    -0.351 N 
ATOM     12  C   UNL A   1      32.877  18.502  25.613  1.00  0.00     0.049 A 
ATOM     13  H   UNL A   1      32.736  19.312  27.540  1.00  0.00     0.167 HD
ATOM     14  C   UNL A   1      32.933  19.156  24.382  1.00  0.00     0.004 A 
ATOM     15  C   UNL A   1      32.831  17.109  25.736  1.00  0.00     0.066 A 
ATOM     16  C   UNL A   1      32.936  18.373  23.208  1.00  0.00     0.013 A 
ATOM     17  C   UNL A   1      32.886  16.367  24.559  1.00  0.00     0.125 A 
ATOM     18  C   UNL A   1      32.933  16.976  23.312  1.00  0.00     0.040 A 
ATOM     19  F   UNL A   1      32.915  15.030  24.635  1.00  0.00    -0.207 F 
BRANCH  10  20
ATOM     20  C   UNL A   1      33.593  21.862  26.803  1.00  0.00     0.227 C 
ATOM     21  O   UNL A   1      32.932  22.286  27.749  1.00  0.00    -0.285 OA
BRANCH  20  22
ATOM     22  C   UNL A   1      34.823  22.617  26.424  1.00  0.00     0.113 A 
ATOM     23  C   UNL A   1      38.493  22.011  25.745  1.00  0.00     0.044 C 
ATOM     24  C   UNL A   1      37.143  22.659  25.840  1.00  0.00    -0.047 A 
ATOM     25  C   UNL A   1      36.927  23.919  25.275  1.00  0.00     0.023 A 
ATOM     26  C   UNL A   1      36.059  21.982  26.412  1.00  0.00     0.036 A 
ATOM     27  C   UNL A   1      35.667  24.487  25.378  1.00  0.00     0.112 A 
ATOM     28  N   UNL A   1      34.617  23.876  25.968  1.00  0.00    -0.253 NA
ENDBRANCH  20  22
ENDBRANCH  10  20
ENDBRANCH   8   9
ENDBRANCH   6   8
ENDBRANCH   5   6
ENDBRANCH   4   5
ENDBRANCH   3   4
ENDBRANCH   2   3
ENDBRANCH   1   2
BRANCH   1  29
ATOM     29  C   UNL A   1      31.096  28.786  23.015  1.00  0.00     0.188 C 
BRANCH  29  30
ATOM     30  O   UNL A   1      30.710  29.245  24.307  1.00  0.00    -0.376 OA
BRANCH  30  31
ATOM     31  C   UNL A   1      31.715  29.251  25.315  1.00  0.00     0.202 C 
BRANCH  31  32
ATOM     32  C   UNL A   1      31.792  30.561  26.089  1.00  0.00     0.261 C 
BRANCH  32  33
ATOM     33  O   UNL A   1      32.655  30.411  27.235  1.00  0.00    -0.460 OA
BRANCH  33  34
ATOM     34  C   UNL A   1      33.435  31.484  27.474  1.00  0.00     0.338 C 
ATOM     35  O   UNL A   1      33.082  32.650  27.517  1.00  0.00    -0.246 OA
BRANCH  34  36
ATOM     36  C   UNL A   1      34.837  31.081  27.713  1.00  0.00     0.060 A 
ATOM     37  C   UNL A   1      35.174  29.736  27.856  1.00  0.00     0.016 A 
ATOM     38  C   UNL A   1      35.772  32.062  28.042  1.00  0.00     0.016 A 
ATOM     39  C   UNL A   1      36.366  29.377  28.489  1.00  0.00     0.010 A 
ATOM     40  C   UNL A   1      37.009  31.693  28.583  1.00  0.00     0.010 A 
ATOM     41  C   UNL A   1      37.290  30.351  28.893  1.00  0.00    -0.014 A 
BRANCH  41  42
ATOM     42  C   UNL A   1      38.469  29.989  29.736  1.00  0.00     0.031 A 
ATOM     43  C   UNL A   1      39.531  29.057  29.194  1.00  0.00     0.074 A 
ATOM     44  C   UNL A   1      38.644  30.521  30.963  1.00  0.00     0.049 A 
ATOM     45  N   UNL A   1      40.536  28.485  29.812  1.00  0.00    -0.248 NA
ATOM     46  C   UNL A   1      39.455  28.725  27.760  1.00  0.00     0.031 C 
ATOM     47  C   UNL A   1      37.766  31.504  31.595  1.00  0.00     0.029 A 
ATOM     48  N   UNL A   1      39.630  30.310  31.898  1.00  0.00    -0.354 N 
ATOM     49  C   UNL A   1      41.180  27.703  28.861  1.00  0.00     0.074 A 
ATOM     50  C   UNL A   1      40.451  27.862  27.621  1.00  0.00     0.031 C 
ATOM     51  C   UNL A   1      38.265  31.834  32.796  1.00  0.00     0.029 A 
ATOM     52  C   UNL A   1      39.442  31.014  33.063  1.00  0.00     0.049 A 
ATOM     53  H   UNL A   1      40.398  29.712  31.747  1.00  0.00     0.167 HD
ATOM     54  C   UNL A   1      42.279  26.922  29.004  1.00  0.00     0.037 A 
ATOM     55  C   UNL A   1      40.102  30.968  34.237  1.00  0.00     0.037 A 
ATOM     56  C   UNL A   1      43.025  26.773  30.229  1.00  0.00     0.049 A 
ATOM     57  C   UNL A   1      41.255  30.014  34.401  1.00  0.00     0.074 A 
ATOM     58  C   UNL A   1      44.126  25.972  30.478  1.00  0.00     0.029 A 
ATOM     59  N   UNL A   1      42.752  27.450  31.406  1.00  0.00    -0.354 N 
ATOM     60  N   UNL A   1      41.803  29.214  33.520  1.00  0.00    -0.248 NA
ATOM     61  C   UNL A   1      41.865  29.943  35.736  1.00  0.00     0.031 C 
ATOM     62  C   UNL A   1      44.495  26.134  31.818  1.00  0.00     0.029 A 
ATOM     63  C   UNL A   1      43.654  27.074  32.389  1.00  0.00     0.049 A 
ATOM     64  H   UNL A   1      42.024  28.103  31.526  1.00  0.00     0.167 HD
ATOM     65  C   UNL A   1      42.824  28.553  34.190  1.00  0.00     0.074 A 
ATOM     66  C   UNL A   1      42.843  29.071  35.541  1.00  0.00     0.031 C 
ATOM     67  C   UNL A   1      43.663  27.592  33.731  1.00  0.00     0.037 A 
BRANCH  54  68
ATOM     68  C   UNL A   1      42.738  26.132  27.812  1.00  0.00     0.064 A 
ATOM     69  C   UNL A   1      42.160  24.899  27.477  1.00  0.00     0.173 A 
ATOM     70  C   UNL A   1      43.722  26.650  26.956  1.00  0.00     0.173 A 
ATOM     71  F   UNL A   1      41.228  24.351  28.272  1.00  0.00    -0.203 F 
ATOM     72  C   UNL A   1      42.554  24.213  26.330  1.00  0.00     0.198 A 
ATOM     73  C   UNL A   1      44.096  25.974  25.799  1.00  0.00     0.198 A 
ATOM     74  F   UNL A   1      44.305  27.828  27.232  1.00  0.00    -0.203 F 
ATOM     75  F   UNL A   1      42.008  23.024  26.042  1.00  0.00    -0.200 F 
ATOM     76  C   UNL A   1      43.514  24.756  25.488  1.00  0.00     0.200 A 
ATOM     77  F   UNL A   1      45.017  26.504  24.982  1.00  0.00    -0.200 F 
ATOM     78  F   UNL A   1      43.881  24.100  24.377  1.00  0.00    -0.200 F 
ENDBRANCH  54  68
BRANCH  55  79
ATOM     79  C   UNL A   1      39.644  31.798  35.383  1.00  0.00     0.064 A 
ATOM     80  C   UNL A   1      38.672  31.330  36.278  1.00  0.00     0.173 A 
ATOM     81  C   UNL A   1      40.142  33.095  35.585  1.00  0.00     0.173 A 
ATOM     82  F   UNL A   1      38.136  30.112  36.107  1.00  0.00    -0.203 F 
ATOM     83  C   UNL A   1      38.204  32.132  37.317  1.00  0.00     0.198 A 
ATOM     84  C   UNL A   1      39.703  33.880  36.647  1.00  0.00     0.198 A 
ATOM     85  F   UNL A   1      41.064  33.598  34.750  1.00  0.00    -0.203 F 
ATOM     86  F   UNL A   1      37.229  31.683  38.120  1.00  0.00    -0.200 F 
ATOM     87  C   UNL A   1      38.726  33.403  37.506  1.00  0.00     0.200 A 
ATOM     88  F   UNL A   1      40.219  35.103  36.831  1.00  0.00    -0.200 F 
ATOM     89  F   UNL A   1      38.277  34.172  38.506  1.00  0.00    -0.200 F 
ENDBRANCH  55  79
BRANCH  67  90
ATOM     90  C   UNL A   1      44.683  27.064  34.697  1.00  0.00     0.064 A 
ATOM     91  C   UNL A   1      45.959  27.640  34.806  1.00  0.00     0.173 A 
ATOM     92  C   UNL A   1      44.389  25.961  35.512  1.00  0.00     0.173 A 
ATOM     93  F   UNL A   1      46.295  28.685  34.036  1.00  0.00    -0.203 F 
ATOM     94  C   UNL A   1      46.915  27.103  35.663  1.00  0.00     0.198 A 
ATOM     95  C   UNL A   1      45.338  25.446  36.392  1.00  0.00     0.198 A 
ATOM     96  F   UNL A   1      43.182  25.379  35.454  1.00  0.00    -0.203 F 
ATOM     97  F   UNL A   1      48.148  27.628  35.701  1.00  0.00    -0.200 F 
ATOM     98  C   UNL A   1      46.603  26.009  36.457  1.00  0.00     0.200 A 
ATOM     99  F   UNL A   1      45.032  24.396  37.166  1.00  0.00    -0.200 F 
ATOM    100  F   UNL A   1      47.528  25.488  37.275  1.00  0.00    -0.200 F 
ENDBRANCH  67  90
ENDBRANCH  41  42
ENDBRANCH  34  36
ENDBRANCH  33  34
ENDBRANCH  32  33
ENDBRANCH  31  32
ENDBRANCH  30  31
ENDBRANCH  29  30
ENDBRANCH   1  29
TORSDOF 20
ENDMDL
