MODEL 1
REMARK VINA RESULT:     -12.1      0.000      0.000
REMARK SMILES Cc1cccc(C(=O)OCCOCCOCCOC(=O)c2ccc(-c3c4nc(c(-c5c(F)c(F)c(F)c(F)c5F)c5ccc([nH]5)c(-c5c(F)c(F)c(F)c(F)c5F)c5nc(c(-c6c(F)c(F)c(F)c(F)c6F)c6ccc3[nH]6)C=C5)C=C4)cc2)c1O[C@H](C)[C@H](C)O
REMARK SMILES IDX 13 1 12 2 11 3 10 4 9 5 7 6 8 7 6 8 1 9 2 10 3 11 84 12 4 13
REMARK SMILES IDX 5 14 85 15 86 16 87 17 88 18 89 19 90 20 14 22 15 23 16 24
REMARK SMILES IDX 17 25 18 26 19 27 20 28 21 29 22 30 83 31 23 32 82 33 24 34
REMARK SMILES IDX 25 35 26 36 76 37 27 38 81 39 75 40 77 41 28 42 80 43 74 44
REMARK SMILES IDX 73 45 29 47 61 48 41 49 60 50 42 51 45 52 59 53 78 54 43 55
REMARK SMILES IDX 44 56 58 58 79 59 46 60 30 61 31 62 39 63 32 64 33 65 37 66
REMARK SMILES IDX 40 67 34 68 35 69 38 70 36 71 62 72 63 73 71 74 64 75 65 76
REMARK SMILES IDX 69 77 72 78 66 79 67 80 70 81 68 82 47 83 48 84 56 85 49 86
REMARK SMILES IDX 50 87 54 88 57 89 51 90 52 91 55 92 53 93
REMARK H PARENT 90 21 77 46 45 57
REMARK Flexibility Score: inf
ROOT
ATOM      1  C   UNL A   1      41.502  22.938  27.519  1.00  0.00     0.188 C 
ENDROOT
BRANCH   1   2
ATOM      2  O   UNL A   1      40.189  23.385  27.789  1.00  0.00    -0.376 OA
BRANCH   2   3
ATOM      3  C   UNL A   1      39.810  24.511  27.027  1.00  0.00     0.202 C 
BRANCH   3   4
ATOM      4  C   UNL A   1      38.561  24.437  26.135  1.00  0.00     0.261 C 
BRANCH   4   5
ATOM      5  O   UNL A   1      37.062  23.884  26.462  1.00  0.00    -0.460 OA
BRANCH   5   6
ATOM      6  C   UNL A   1      35.842  23.270  25.736  1.00  0.00     0.342 C 
ATOM      7  O   UNL A   1      36.161  22.172  25.255  1.00  0.00    -0.246 OA
BRANCH   6   8
ATOM      8  C   UNL A   1      34.062  23.648  25.597  1.00  0.00     0.102 A 
ATOM      9  C   UNL A   1      30.698  23.660  23.365  1.00  0.00     0.048 C 
ATOM     10  C   UNL A   1      31.860  23.984  24.259  1.00  0.00    -0.008 A 
ATOM     11  C   UNL A   1      31.949  25.332  24.685  1.00  0.00     0.007 A 
ATOM     12  C   UNL A   1      32.828  23.054  24.726  1.00  0.00     0.137 A 
ATOM     13  C   UNL A   1      32.932  25.809  25.561  1.00  0.00     0.001 A 
ATOM     14  C   UNL A   1      33.956  24.988  26.020  1.00  0.00     0.019 A 
BRANCH  12  15
ATOM     15  O   UNL A   1      32.376  21.540  24.269  1.00  0.00    -0.487 OA
BRANCH  15  16
ATOM     16  C   UNL A   1      32.878  19.938  23.720  1.00  0.00     0.198 C 
ATOM     17  C   UNL A   1      32.141  19.049  22.698  1.00  0.00     0.056 C 
BRANCH  16  18
ATOM     18  C   UNL A   1      33.687  18.728  24.590  1.00  0.00     0.151 C 
ATOM     19  C   UNL A   1      32.838  18.238  25.776  1.00  0.00     0.042 C 
BRANCH  18  20
ATOM     20  O   UNL A   1      34.972  19.133  25.123  1.00  0.00    -0.390 OA
ATOM     21  H   UNL A   1      34.911  20.041  25.458  1.00  0.00     0.211 HD
ENDBRANCH  18  20
ENDBRANCH  16  18
ENDBRANCH  15  16
ENDBRANCH  12  15
ENDBRANCH   6   8
ENDBRANCH   5   6
ENDBRANCH   4   5
ENDBRANCH   3   4
ENDBRANCH   2   3
ENDBRANCH   1   2
BRANCH   1  22
ATOM     22  C   UNL A   1      41.613  21.760  26.545  1.00  0.00     0.188 C 
BRANCH  22  23
ATOM     23  O   UNL A   1      41.265  20.487  27.084  1.00  0.00    -0.376 OA
BRANCH  23  24
ATOM     24  C   UNL A   1      41.243  19.390  26.169  1.00  0.00     0.202 C 
BRANCH  24  25
ATOM     25  C   UNL A   1      42.607  18.706  26.054  1.00  0.00     0.261 C 
BRANCH  25  26
ATOM     26  O   UNL A   1      43.198  19.001  24.774  1.00  0.00    -0.460 OA
BRANCH  26  27
ATOM     27  C   UNL A   1      44.558  19.033  24.811  1.00  0.00     0.338 C 
ATOM     28  O   UNL A   1      45.285  18.141  25.200  1.00  0.00    -0.246 OA
BRANCH  27  29
ATOM     29  C   UNL A   1      44.969  20.441  24.660  1.00  0.00     0.060 A 
ATOM     30  C   UNL A   1      46.023  20.915  25.361  1.00  0.00     0.016 A 
ATOM     31  C   UNL A   1      44.259  21.400  23.998  1.00  0.00     0.016 A 
ATOM     32  C   UNL A   1      46.032  22.301  25.670  1.00  0.00     0.010 A 
ATOM     33  C   UNL A   1      44.390  22.775  24.384  1.00  0.00     0.010 A 
ATOM     34  C   UNL A   1      44.984  23.361  25.544  1.00  0.00    -0.014 A 
BRANCH  34  35
ATOM     35  C   UNL A   1      44.771  25.124  26.339  1.00  0.00     0.031 A 
ATOM     36  C   UNL A   1      43.535  26.472  26.034  1.00  0.00     0.074 A 
ATOM     37  C   UNL A   1      45.712  26.047  26.892  1.00  0.00     0.049 A 
ATOM     38  N   UNL A   1      43.536  27.613  26.711  1.00  0.00    -0.248 NA
ATOM     39  C   UNL A   1      42.259  26.586  25.187  1.00  0.00     0.031 C 
ATOM     40  C   UNL A   1      45.501  26.869  28.120  1.00  0.00     0.029 A 
ATOM     41  N   UNL A   1      47.091  26.285  26.742  1.00  0.00    -0.354 N 
ATOM     42  C   UNL A   1      42.248  28.144  26.765  1.00  0.00     0.074 A 
ATOM     43  C   UNL A   1      41.549  27.602  25.671  1.00  0.00     0.031 C 
ATOM     44  C   UNL A   1      46.614  27.558  28.443  1.00  0.00     0.029 A 
ATOM     45  C   UNL A   1      47.646  27.284  27.473  1.00  0.00     0.049 A 
ATOM     46  H   UNL A   1      47.635  25.743  26.125  1.00  0.00     0.167 HD
ATOM     47  C   UNL A   1      41.812  28.760  27.901  1.00  0.00     0.037 A 
ATOM     48  C   UNL A   1      48.751  27.964  27.073  1.00  0.00     0.037 A 
ATOM     49  C   UNL A   1      42.925  29.431  28.544  1.00  0.00     0.049 A 
ATOM     50  C   UNL A   1      48.358  29.397  27.080  1.00  0.00     0.074 A 
ATOM     51  C   UNL A   1      43.538  29.420  29.779  1.00  0.00     0.029 A 
ATOM     52  N   UNL A   1      43.729  30.207  27.714  1.00  0.00    -0.354 N 
ATOM     53  N   UNL A   1      47.099  29.716  27.160  1.00  0.00    -0.248 NA
ATOM     54  C   UNL A   1      49.226  30.564  27.063  1.00  0.00     0.031 C 
ATOM     55  C   UNL A   1      44.754  30.164  29.658  1.00  0.00     0.029 A 
ATOM     56  C   UNL A   1      44.841  30.665  28.367  1.00  0.00     0.049 A 
ATOM     57  H   UNL A   1      43.524  30.402  26.772  1.00  0.00     0.167 HD
ATOM     58  C   UNL A   1      46.978  31.039  27.371  1.00  0.00     0.074 A 
ATOM     59  C   UNL A   1      48.321  31.555  27.208  1.00  0.00     0.031 C 
ATOM     60  C   UNL A   1      45.760  31.554  27.665  1.00  0.00     0.037 A 
BRANCH  47  61
ATOM     61  C   UNL A   1      40.405  28.610  28.502  1.00  0.00     0.064 A 
ATOM     62  C   UNL A   1      39.284  29.169  27.850  1.00  0.00     0.173 A 
ATOM     63  C   UNL A   1      40.108  28.089  29.791  1.00  0.00     0.173 A 
ATOM     64  F   UNL A   1      39.394  29.669  26.612  1.00  0.00    -0.203 F 
ATOM     65  C   UNL A   1      38.010  29.235  28.445  1.00  0.00     0.198 A 
ATOM     66  C   UNL A   1      38.846  28.180  30.394  1.00  0.00     0.198 A 
ATOM     67  F   UNL A   1      41.015  27.460  30.543  1.00  0.00    -0.203 F 
ATOM     68  F   UNL A   1      36.988  29.785  27.776  1.00  0.00    -0.200 F 
ATOM     69  C   UNL A   1      37.795  28.754  29.723  1.00  0.00     0.200 A 
ATOM     70  F   UNL A   1      38.672  27.713  31.641  1.00  0.00    -0.200 F 
ATOM     71  F   UNL A   1      36.587  28.836  30.299  1.00  0.00    -0.200 F 
ENDBRANCH  47  61
BRANCH  48  72
ATOM     72  C   UNL A   1      49.738  27.225  26.220  1.00  0.00     0.064 A 
ATOM     73  C   UNL A   1      49.624  27.400  24.820  1.00  0.00     0.173 A 
ATOM     74  C   UNL A   1      50.937  26.649  26.668  1.00  0.00     0.173 A 
ATOM     75  F   UNL A   1      48.499  27.928  24.310  1.00  0.00    -0.203 F 
ATOM     76  C   UNL A   1      50.676  27.132  23.937  1.00  0.00     0.198 A 
ATOM     77  C   UNL A   1      51.989  26.351  25.774  1.00  0.00     0.198 A 
ATOM     78  F   UNL A   1      51.152  26.480  27.981  1.00  0.00    -0.203 F 
ATOM     79  F   UNL A   1      50.549  27.424  22.634  1.00  0.00    -0.200 F 
ATOM     80  C   UNL A   1      51.873  26.637  24.418  1.00  0.00     0.200 A 
ATOM     81  F   UNL A   1      53.164  25.903  26.245  1.00  0.00    -0.200 F 
ATOM     82  F   UNL A   1      52.920  26.490  23.591  1.00  0.00    -0.200 F 
ENDBRANCH  48  72
BRANCH  60  83
ATOM     83  C   UNL A   1      45.315  32.918  27.246  1.00  0.00     0.064 A 
ATOM     84  C   UNL A   1      44.330  33.133  26.268  1.00  0.00     0.173 A 
ATOM     85  C   UNL A   1      45.703  34.049  27.998  1.00  0.00     0.173 A 
ATOM     86  F   UNL A   1      43.782  32.121  25.583  1.00  0.00    -0.203 F 
ATOM     87  C   UNL A   1      43.819  34.402  26.014  1.00  0.00     0.198 A 
ATOM     88  C   UNL A   1      45.141  35.301  27.785  1.00  0.00     0.198 A 
ATOM     89  F   UNL A   1      46.594  33.963  28.996  1.00  0.00    -0.203 F 
ATOM     90  F   UNL A   1      42.907  34.564  25.046  1.00  0.00    -0.200 F 
ATOM     91  C   UNL A   1      44.215  35.483  26.779  1.00  0.00     0.200 A 
ATOM     92  F   UNL A   1      45.478  36.323  28.584  1.00  0.00    -0.200 F 
ATOM     93  F   UNL A   1      43.687  36.693  26.561  1.00  0.00    -0.200 F 
ENDBRANCH  60  83
ENDBRANCH  34  35
ENDBRANCH  27  29
ENDBRANCH  26  27
ENDBRANCH  25  26
ENDBRANCH  24  25
ENDBRANCH  23  24
ENDBRANCH  22  23
ENDBRANCH   1  22
TORSDOF 21
ENDMDL
MODEL 2
REMARK VINA RESULT:     -11.8      6.295     12.049
REMARK SMILES Cc1cccc(C(=O)OCCOCCOCCOC(=O)c2ccc(-c3c4nc(c(-c5c(F)c(F)c(F)c(F)c5F)c5ccc([nH]5)c(-c5c(F)c(F)c(F)c(F)c5F)c5nc(c(-c6c(F)c(F)c(F)c(F)c6F)c6ccc3[nH]6)C=C5)C=C4)cc2)c1O[C@H](C)[C@H](C)O
REMARK SMILES IDX 13 1 12 2 11 3 10 4 9 5 7 6 8 7 6 8 1 9 2 10 3 11 84 12 4 13
REMARK SMILES IDX 5 14 85 15 86 16 87 17 88 18 89 19 90 20 14 22 15 23 16 24
REMARK SMILES IDX 17 25 18 26 19 27 20 28 21 29 22 30 83 31 23 32 82 33 24 34
REMARK SMILES IDX 25 35 26 36 76 37 27 38 81 39 75 40 77 41 28 42 80 43 74 44
REMARK SMILES IDX 73 45 29 47 61 48 41 49 60 50 42 51 45 52 59 53 78 54 43 55
REMARK SMILES IDX 44 56 58 58 79 59 46 60 30 61 31 62 39 63 32 64 33 65 37 66
REMARK SMILES IDX 40 67 34 68 35 69 38 70 36 71 62 72 63 73 71 74 64 75 65 76
REMARK SMILES IDX 69 77 72 78 66 79 67 80 70 81 68 82 47 83 48 84 56 85 49 86
REMARK SMILES IDX 50 87 54 88 57 89 51 90 52 91 55 92 53 93
REMARK H PARENT 90 21 77 46 45 57
REMARK Flexibility Score: inf
ROOT
ATOM      1  C   UNL A   1      34.258  34.649  28.372  1.00  0.00     0.188 C 
ENDROOT
BRANCH   1   2
ATOM      2  O   UNL A   1      33.795  33.364  28.008  1.00  0.00    -0.376 OA
BRANCH   2   3
ATOM      3  C   UNL A   1      34.606  32.315  28.492  1.00  0.00     0.202 C 
BRANCH   3   4
ATOM      4  C   UNL A   1      34.872  31.091  27.604  1.00  0.00     0.261 C 
BRANCH   4   5
ATOM      5  O   UNL A   1      33.917  29.816  27.250  1.00  0.00    -0.460 OA
BRANCH   5   6
ATOM      6  C   UNL A   1      32.841  29.393  26.223  1.00  0.00     0.342 C 
ATOM      7  O   UNL A   1      32.050  30.332  26.047  1.00  0.00    -0.246 OA
BRANCH   6   8
ATOM      8  C   UNL A   1      32.579  27.985  25.093  1.00  0.00     0.102 A 
ATOM      9  C   UNL A   1      30.168  25.037  23.748  1.00  0.00     0.048 C 
ATOM     10  C   UNL A   1      31.298  25.879  24.269  1.00  0.00    -0.008 A 
ATOM     11  C   UNL A   1      32.478  25.174  24.614  1.00  0.00     0.007 A 
ATOM     12  C   UNL A   1      31.282  27.293  24.403  1.00  0.00     0.137 A 
ATOM     13  C   UNL A   1      33.650  25.793  25.067  1.00  0.00     0.001 A 
ATOM     14  C   UNL A   1      33.709  27.165  25.288  1.00  0.00     0.019 A 
BRANCH  12  15
ATOM     15  O   UNL A   1      29.895  27.876  23.737  1.00  0.00    -0.487 OA
BRANCH  15  16
ATOM     16  C   UNL A   1      29.149  28.976  22.574  1.00  0.00     0.198 C 
ATOM     17  C   UNL A   1      29.867  30.074  21.764  1.00  0.00     0.056 C 
BRANCH  16  18
ATOM     18  C   UNL A   1      27.589  29.641  22.599  1.00  0.00     0.151 C 
ATOM     19  C   UNL A   1      27.505  30.817  23.587  1.00  0.00     0.042 C 
BRANCH  18  20
ATOM     20  O   UNL A   1      26.546  28.703  22.961  1.00  0.00    -0.390 OA
ATOM     21  H   UNL A   1      26.508  28.618  23.926  1.00  0.00     0.211 HD
ENDBRANCH  18  20
ENDBRANCH  16  18
ENDBRANCH  15  16
ENDBRANCH  12  15
ENDBRANCH   6   8
ENDBRANCH   5   6
ENDBRANCH   4   5
ENDBRANCH   3   4
ENDBRANCH   2   3
ENDBRANCH   1   2
BRANCH   1  22
ATOM     22  C   UNL A   1      33.171  35.691  28.653  1.00  0.00     0.188 C 
BRANCH  22  23
ATOM     23  O   UNL A   1      32.576  35.621  29.946  1.00  0.00    -0.376 OA
BRANCH  23  24
ATOM     24  C   UNL A   1      32.813  36.728  30.819  1.00  0.00     0.202 C 
BRANCH  24  25
ATOM     25  C   UNL A   1      32.471  36.400  32.274  1.00  0.00     0.261 C 
BRANCH  25  26
ATOM     26  O   UNL A   1      32.896  35.060  32.587  1.00  0.00    -0.460 OA
BRANCH  26  27
ATOM     27  C   UNL A   1      34.146  35.010  33.124  1.00  0.00     0.338 C 
ATOM     28  O   UNL A   1      34.615  35.800  33.918  1.00  0.00    -0.246 OA
BRANCH  27  29
ATOM     29  C   UNL A   1      34.939  34.074  32.307  1.00  0.00     0.060 A 
ATOM     30  C   UNL A   1      34.794  32.741  32.477  1.00  0.00     0.016 A 
ATOM     31  C   UNL A   1      35.975  34.426  31.492  1.00  0.00     0.016 A 
ATOM     32  C   UNL A   1      35.909  31.918  32.168  1.00  0.00     0.010 A 
ATOM     33  C   UNL A   1      37.021  33.483  31.225  1.00  0.00     0.010 A 
ATOM     34  C   UNL A   1      37.336  32.242  31.860  1.00  0.00    -0.014 A 
BRANCH  34  35
ATOM     35  C   UNL A   1      38.973  31.189  31.871  1.00  0.00     0.031 A 
ATOM     36  C   UNL A   1      39.299  29.412  31.457  1.00  0.00     0.074 A 
ATOM     37  C   UNL A   1      40.161  31.272  32.662  1.00  0.00     0.049 A 
ATOM     38  N   UNL A   1      40.511  28.876  31.498  1.00  0.00    -0.248 NA
ATOM     39  C   UNL A   1      38.448  28.273  30.875  1.00  0.00     0.031 C 
ATOM     40  C   UNL A   1      41.553  31.084  32.158  1.00  0.00     0.029 A 
ATOM     41  N   UNL A   1      40.488  31.789  33.930  1.00  0.00    -0.354 N 
ATOM     42  C   UNL A   1      40.599  27.812  30.600  1.00  0.00     0.074 A 
ATOM     43  C   UNL A   1      39.284  27.357  30.393  1.00  0.00     0.031 C 
ATOM     44  C   UNL A   1      42.460  31.331  33.125  1.00  0.00     0.029 A 
ATOM     45  C   UNL A   1      41.775  31.681  34.346  1.00  0.00     0.049 A 
ATOM     46  H   UNL A   1      39.805  32.215  34.496  1.00  0.00     0.167 HD
ATOM     47  C   UNL A   1      41.747  27.612  29.892  1.00  0.00     0.037 A 
ATOM     48  C   UNL A   1      42.123  31.623  35.657  1.00  0.00     0.037 A 
ATOM     49  C   UNL A   1      42.887  28.007  30.697  1.00  0.00     0.049 A 
ATOM     50  C   UNL A   1      42.919  30.377  35.801  1.00  0.00     0.074 A 
ATOM     51  C   UNL A   1      43.953  28.875  30.586  1.00  0.00     0.029 A 
ATOM     52  N   UNL A   1      42.901  27.534  32.005  1.00  0.00    -0.354 N 
ATOM     53  N   UNL A   1      42.904  29.494  34.845  1.00  0.00    -0.248 NA
ATOM     54  C   UNL A   1      43.806  30.001  36.890  1.00  0.00     0.031 C 
ATOM     55  C   UNL A   1      44.577  28.950  31.871  1.00  0.00     0.029 A 
ATOM     56  C   UNL A   1      43.918  28.087  32.735  1.00  0.00     0.049 A 
ATOM     57  H   UNL A   1      42.258  26.880  32.363  1.00  0.00     0.167 HD
ATOM     58  C   UNL A   1      43.848  28.561  35.074  1.00  0.00     0.074 A 
ATOM     59  C   UNL A   1      44.327  28.853  36.408  1.00  0.00     0.031 C 
ATOM     60  C   UNL A   1      44.124  27.649  34.111  1.00  0.00     0.037 A 
BRANCH  47  61
ATOM     61  C   UNL A   1      41.811  27.207  28.410  1.00  0.00     0.064 A 
ATOM     62  C   UNL A   1      42.195  25.900  28.040  1.00  0.00     0.173 A 
ATOM     63  C   UNL A   1      41.682  28.093  27.305  1.00  0.00     0.173 A 
ATOM     64  F   UNL A   1      42.324  24.940  28.965  1.00  0.00    -0.203 F 
ATOM     65  C   UNL A   1      42.461  25.531  26.707  1.00  0.00     0.198 A 
ATOM     66  C   UNL A   1      41.973  27.732  25.983  1.00  0.00     0.198 A 
ATOM     67  F   UNL A   1      41.265  29.355  27.435  1.00  0.00    -0.203 F 
ATOM     68  F   UNL A   1      42.829  24.274  26.424  1.00  0.00    -0.200 F 
ATOM     69  C   UNL A   1      42.365  26.451  25.681  1.00  0.00     0.200 A 
ATOM     70  F   UNL A   1      41.880  28.652  25.009  1.00  0.00    -0.200 F 
ATOM     71  F   UNL A   1      42.639  26.107  24.415  1.00  0.00    -0.200 F 
ENDBRANCH  47  61
BRANCH  48  72
ATOM     72  C   UNL A   1      41.234  32.333  36.633  1.00  0.00     0.064 A 
ATOM     73  C   UNL A   1      41.669  33.603  37.081  1.00  0.00     0.173 A 
ATOM     74  C   UNL A   1      39.890  32.021  36.893  1.00  0.00     0.173 A 
ATOM     75  F   UNL A   1      42.947  33.970  36.887  1.00  0.00    -0.203 F 
ATOM     76  C   UNL A   1      40.800  34.545  37.642  1.00  0.00     0.198 A 
ATOM     77  C   UNL A   1      39.019  32.961  37.486  1.00  0.00     0.198 A 
ATOM     78  F   UNL A   1      39.377  30.856  36.472  1.00  0.00    -0.203 F 
ATOM     79  F   UNL A   1      41.247  35.774  37.944  1.00  0.00    -0.200 F 
ATOM     80  C   UNL A   1      39.465  34.236  37.815  1.00  0.00     0.200 A 
ATOM     81  F   UNL A   1      37.714  32.674  37.622  1.00  0.00    -0.200 F 
ATOM     82  F   UNL A   1      38.608  35.177  38.243  1.00  0.00    -0.200 F 
ENDBRANCH  48  72
BRANCH  60  83
ATOM     83  C   UNL A   1      44.542  26.243  34.398  1.00  0.00     0.064 A 
ATOM     84  C   UNL A   1      43.626  25.217  34.684  1.00  0.00     0.173 A 
ATOM     85  C   UNL A   1      45.873  25.838  34.155  1.00  0.00     0.173 A 
ATOM     86  F   UNL A   1      42.313  25.455  34.801  1.00  0.00    -0.203 F 
ATOM     87  C   UNL A   1      44.028  23.889  34.786  1.00  0.00     0.198 A 
ATOM     88  C   UNL A   1      46.255  24.504  34.192  1.00  0.00     0.198 A 
ATOM     89  F   UNL A   1      46.829  26.717  33.818  1.00  0.00    -0.203 F 
ATOM     90  F   UNL A   1      43.124  22.949  35.097  1.00  0.00    -0.200 F 
ATOM     91  C   UNL A   1      45.337  23.531  34.530  1.00  0.00     0.200 A 
ATOM     92  F   UNL A   1      47.509  24.164  33.867  1.00  0.00    -0.200 F 
ATOM     93  F   UNL A   1      45.709  22.246  34.584  1.00  0.00    -0.200 F 
ENDBRANCH  60  83
ENDBRANCH  34  35
ENDBRANCH  27  29
ENDBRANCH  26  27
ENDBRANCH  25  26
ENDBRANCH  24  25
ENDBRANCH  23  24
ENDBRANCH  22  23
ENDBRANCH   1  22
TORSDOF 21
ENDMDL
MODEL 3
REMARK VINA RESULT:     -11.8      4.061      8.044
REMARK SMILES Cc1cccc(C(=O)OCCOCCOCCOC(=O)c2ccc(-c3c4nc(c(-c5c(F)c(F)c(F)c(F)c5F)c5ccc([nH]5)c(-c5c(F)c(F)c(F)c(F)c5F)c5nc(c(-c6c(F)c(F)c(F)c(F)c6F)c6ccc3[nH]6)C=C5)C=C4)cc2)c1O[C@H](C)[C@H](C)O
REMARK SMILES IDX 13 1 12 2 11 3 10 4 9 5 7 6 8 7 6 8 1 9 2 10 3 11 84 12 4 13
REMARK SMILES IDX 5 14 85 15 86 16 87 17 88 18 89 19 90 20 14 22 15 23 16 24
REMARK SMILES IDX 17 25 18 26 19 27 20 28 21 29 22 30 83 31 23 32 82 33 24 34
REMARK SMILES IDX 25 35 26 36 76 37 27 38 81 39 75 40 77 41 28 42 80 43 74 44
REMARK SMILES IDX 73 45 29 47 61 48 41 49 60 50 42 51 45 52 59 53 78 54 43 55
REMARK SMILES IDX 44 56 58 58 79 59 46 60 30 61 31 62 39 63 32 64 33 65 37 66
REMARK SMILES IDX 40 67 34 68 35 69 38 70 36 71 62 72 63 73 71 74 64 75 65 76
REMARK SMILES IDX 69 77 72 78 66 79 67 80 70 81 68 82 47 83 48 84 56 85 49 86
REMARK SMILES IDX 50 87 54 88 57 89 51 90 52 91 55 92 53 93
REMARK H PARENT 90 21 77 46 45 57
REMARK Flexibility Score: inf
ROOT
ATOM      1  C   UNL A   1      31.283  26.310  23.425  1.00  0.00     0.188 C 
ENDROOT
BRANCH   1   2
ATOM      2  O   UNL A   1      31.163  27.693  23.686  1.00  0.00    -0.376 OA
BRANCH   2   3
ATOM      3  C   UNL A   1      32.097  28.483  22.981  1.00  0.00     0.202 C 
BRANCH   3   4
ATOM      4  C   UNL A   1      33.233  29.177  23.748  1.00  0.00     0.261 C 
BRANCH   4   5
ATOM      5  O   UNL A   1      33.685  29.049  25.310  1.00  0.00    -0.460 OA
BRANCH   5   6
ATOM      6  C   UNL A   1      33.556  29.819  26.646  1.00  0.00     0.342 C 
ATOM      7  O   UNL A   1      32.380  29.771  27.036  1.00  0.00    -0.246 OA
BRANCH   6   8
ATOM      8  C   UNL A   1      34.703  30.570  27.850  1.00  0.00     0.102 A 
ATOM      9  C   UNL A   1      37.259  33.552  28.789  1.00  0.00     0.048 C 
ATOM     10  C   UNL A   1      36.568  32.240  28.545  1.00  0.00    -0.008 A 
ATOM     11  C   UNL A   1      37.358  31.084  28.758  1.00  0.00     0.007 A 
ATOM     12  C   UNL A   1      35.209  32.080  28.164  1.00  0.00     0.137 A 
ATOM     13  C   UNL A   1      36.873  29.776  28.633  1.00  0.00     0.001 A 
ATOM     14  C   UNL A   1      35.575  29.520  28.204  1.00  0.00     0.019 A 
BRANCH  12  15
ATOM     15  O   UNL A   1      34.469  33.549  28.197  1.00  0.00    -0.487 OA
BRANCH  15  16
ATOM     16  C   UNL A   1      33.758  34.837  29.175  1.00  0.00     0.198 C 
ATOM     17  C   UNL A   1      33.531  36.298  28.738  1.00  0.00     0.056 C 
BRANCH  16  18
ATOM     18  C   UNL A   1      33.867  35.074  30.850  1.00  0.00     0.151 C 
ATOM     19  C   UNL A   1      34.760  34.004  31.503  1.00  0.00     0.042 C 
BRANCH  18  20
ATOM     20  O   UNL A   1      32.595  35.048  31.542  1.00  0.00    -0.390 OA
ATOM     21  H   UNL A   1      31.972  34.489  31.052  1.00  0.00     0.211 HD
ENDBRANCH  18  20
ENDBRANCH  16  18
ENDBRANCH  15  16
ENDBRANCH  12  15
ENDBRANCH   6   8
ENDBRANCH   5   6
ENDBRANCH   4   5
ENDBRANCH   3   4
ENDBRANCH   2   3
ENDBRANCH   1   2
BRANCH   1  22
ATOM     22  C   UNL A   1      31.748  25.941  22.012  1.00  0.00     0.188 C 
BRANCH  22  23
ATOM     23  O   UNL A   1      32.844  25.031  21.947  1.00  0.00    -0.376 OA
BRANCH  23  24
ATOM     24  C   UNL A   1      33.106  24.262  23.122  1.00  0.00     0.202 C 
BRANCH  24  25
ATOM     25  C   UNL A   1      33.543  22.833  22.792  1.00  0.00     0.261 C 
BRANCH  25  26
ATOM     26  O   UNL A   1      34.542  22.396  23.732  1.00  0.00    -0.460 OA
BRANCH  26  27
ATOM     27  C   UNL A   1      35.787  22.863  23.441  1.00  0.00     0.338 C 
ATOM     28  O   UNL A   1      36.293  22.910  22.338  1.00  0.00    -0.246 OA
BRANCH  27  29
ATOM     29  C   UNL A   1      36.534  22.947  24.710  1.00  0.00     0.060 A 
ATOM     30  C   UNL A   1      36.151  23.828  25.660  1.00  0.00     0.016 A 
ATOM     31  C   UNL A   1      37.725  22.332  24.962  1.00  0.00     0.016 A 
ATOM     32  C   UNL A   1      37.152  24.312  26.543  1.00  0.00     0.010 A 
ATOM     33  C   UNL A   1      38.634  22.904  25.911  1.00  0.00     0.010 A 
ATOM     34  C   UNL A   1      38.643  24.195  26.525  1.00  0.00    -0.014 A 
BRANCH  34  35
ATOM     35  C   UNL A   1      40.068  25.178  27.415  1.00  0.00     0.031 A 
ATOM     36  C   UNL A   1      40.497  26.981  27.431  1.00  0.00     0.074 A 
ATOM     37  C   UNL A   1      41.396  24.809  27.793  1.00  0.00     0.049 A 
ATOM     38  N   UNL A   1      41.508  27.472  28.136  1.00  0.00    -0.248 NA
ATOM     39  C   UNL A   1      39.828  28.248  26.877  1.00  0.00     0.031 C 
ATOM     40  C   UNL A   1      42.071  25.189  29.069  1.00  0.00     0.029 A 
ATOM     41  N   UNL A   1      42.331  23.848  27.365  1.00  0.00    -0.354 N 
ATOM     42  C   UNL A   1      41.256  28.799  28.481  1.00  0.00     0.074 A 
ATOM     43  C   UNL A   1      40.332  29.286  27.539  1.00  0.00     0.031 C 
ATOM     44  C   UNL A   1      43.279  24.598  29.177  1.00  0.00     0.029 A 
ATOM     45  C   UNL A   1      43.528  23.800  28.001  1.00  0.00     0.049 A 
ATOM     46  H   UNL A   1      42.122  23.231  26.627  1.00  0.00     0.167 HD
ATOM     47  C   UNL A   1      41.630  29.267  29.706  1.00  0.00     0.037 A 
ATOM     48  C   UNL A   1      44.663  23.354  27.403  1.00  0.00     0.037 A 
ATOM     49  C   UNL A   1      42.849  28.603  30.126  1.00  0.00     0.049 A 
ATOM     50  C   UNL A   1      45.648  24.457  27.549  1.00  0.00     0.074 A 
ATOM     51  C   UNL A   1      43.276  27.855  31.203  1.00  0.00     0.029 A 
ATOM     52  N   UNL A   1      43.864  28.538  29.176  1.00  0.00    -0.354 N 
ATOM     53  N   UNL A   1      45.237  25.639  27.906  1.00  0.00    -0.248 NA
ATOM     54  C   UNL A   1      47.093  24.395  27.395  1.00  0.00     0.031 C 
ATOM     55  C   UNL A   1      44.548  27.298  30.857  1.00  0.00     0.029 A 
ATOM     56  C   UNL A   1      44.906  27.757  29.597  1.00  0.00     0.049 A 
ATOM     57  H   UNL A   1      43.837  28.999  28.307  1.00  0.00     0.167 HD
ATOM     58  C   UNL A   1      46.295  26.421  28.189  1.00  0.00     0.074 A 
ATOM     59  C   UNL A   1      47.441  25.644  27.767  1.00  0.00     0.031 C 
ATOM     60  C   UNL A   1      46.088  27.636  28.753  1.00  0.00     0.037 A 
BRANCH  47  61
ATOM     61  C   UNL A   1      40.791  30.210  30.584  1.00  0.00     0.064 A 
ATOM     62  C   UNL A   1      39.765  29.698  31.409  1.00  0.00     0.173 A 
ATOM     63  C   UNL A   1      40.820  31.630  30.533  1.00  0.00     0.173 A 
ATOM     64  F   UNL A   1      39.630  28.377  31.587  1.00  0.00    -0.203 F 
ATOM     65  C   UNL A   1      38.842  30.523  32.079  1.00  0.00     0.198 A 
ATOM     66  C   UNL A   1      39.884  32.450  31.179  1.00  0.00     0.198 A 
ATOM     67  F   UNL A   1      41.753  32.312  29.864  1.00  0.00    -0.203 F 
ATOM     68  F   UNL A   1      37.886  29.973  32.841  1.00  0.00    -0.200 F 
ATOM     69  C   UNL A   1      38.891  31.898  31.951  1.00  0.00     0.200 A 
ATOM     70  F   UNL A   1      39.953  33.782  31.027  1.00  0.00    -0.200 F 
ATOM     71  F   UNL A   1      37.999  32.683  32.571  1.00  0.00    -0.200 F 
ENDBRANCH  47  61
BRANCH  48  72
ATOM     72  C   UNL A   1      44.510  22.315  26.333  1.00  0.00     0.064 A 
ATOM     73  C   UNL A   1      45.594  22.162  25.437  1.00  0.00     0.173 A 
ATOM     74  C   UNL A   1      43.562  21.280  26.328  1.00  0.00     0.173 A 
ATOM     75  F   UNL A   1      46.535  23.118  25.369  1.00  0.00    -0.203 F 
ATOM     76  C   UNL A   1      45.786  21.005  24.674  1.00  0.00     0.198 A 
ATOM     77  C   UNL A   1      43.739  20.124  25.535  1.00  0.00     0.198 A 
ATOM     78  F   UNL A   1      42.520  21.318  27.171  1.00  0.00    -0.203 F 
ATOM     79  F   UNL A   1      46.892  20.870  23.926  1.00  0.00    -0.200 F 
ATOM     80  C   UNL A   1      44.874  19.970  24.747  1.00  0.00     0.200 A 
ATOM     81  F   UNL A   1      42.872  19.104  25.633  1.00  0.00    -0.200 F 
ATOM     82  F   UNL A   1      45.116  18.815  24.107  1.00  0.00    -0.200 F 
ENDBRANCH  48  72
BRANCH  60  83
ATOM     83  C   UNL A   1      46.951  28.828  28.491  1.00  0.00     0.064 A 
ATOM     84  C   UNL A   1      46.682  29.756  27.472  1.00  0.00     0.173 A 
ATOM     85  C   UNL A   1      47.947  29.198  29.422  1.00  0.00     0.173 A 
ATOM     86  F   UNL A   1      45.672  29.585  26.608  1.00  0.00    -0.203 F 
ATOM     87  C   UNL A   1      47.405  30.940  27.354  1.00  0.00     0.198 A 
ATOM     88  C   UNL A   1      48.618  30.410  29.338  1.00  0.00     0.198 A 
ATOM     89  F   UNL A   1      48.256  28.422  30.471  1.00  0.00    -0.203 F 
ATOM     90  F   UNL A   1      47.136  31.778  26.343  1.00  0.00    -0.200 F 
ATOM     91  C   UNL A   1      48.363  31.272  28.291  1.00  0.00     0.200 A 
ATOM     92  F   UNL A   1      49.490  30.753  30.296  1.00  0.00    -0.200 F 
ATOM     93  F   UNL A   1      49.024  32.432  28.200  1.00  0.00    -0.200 F 
ENDBRANCH  60  83
ENDBRANCH  34  35
ENDBRANCH  27  29
ENDBRANCH  26  27
ENDBRANCH  25  26
ENDBRANCH  24  25
ENDBRANCH  23  24
ENDBRANCH  22  23
ENDBRANCH   1  22
TORSDOF 21
ENDMDL
