MODEL 1
REMARK VINA RESULT:     -11.0      0.000      0.000
REMARK SMILES Cc1cc(-c2cc(C(=O)OCCOCCOCCOC(=O)c3ccc(-c4c5nc(c(-c6c(F)c(F)c(F)c(F)c6F)c6ccc([nH]6)c(-c6c(F)c(F)c(F)c(F)c6F)c6nc(c(-c7c(F)c(F)c(F)c(F)c7F)c7ccc4[nH]7)C=C6)C=C5)cc3)c[nH]c2=O)ccc1Cl
REMARK SMILES IDX 15 1 14 2 13 3 12 4 11 5 10 6 8 7 9 8 7 9 5 10 6 11 87 12
REMARK SMILES IDX 86 13 88 14 85 15 4 17 1 18 2 19 3 20 91 21 90 22 92 23
REMARK SMILES IDX 89 24 16 25 17 26 18 27 19 28 20 29 21 30 22 31 23 32 84 33
REMARK SMILES IDX 24 34 83 35 25 36 26 37 27 38 77 39 28 40 82 41 76 42 78 43
REMARK SMILES IDX 29 44 81 45 75 46 74 47 30 49 62 50 42 51 61 52 43 53 46 54
REMARK SMILES IDX 60 55 79 56 44 57 45 58 59 60 80 61 47 62 31 63 32 64 40 65
REMARK SMILES IDX 33 66 34 67 38 68 41 69 35 70 36 71 39 72 37 73 63 74 64 75
REMARK SMILES IDX 72 76 65 77 66 78 70 79 73 80 67 81 68 82 71 83 69 84 48 85
REMARK SMILES IDX 49 86 57 87 50 88 51 89 55 90 58 91 52 92 53 93 56 94 54 95
REMARK H PARENT 86 16 78 48 46 59
REMARK Flexibility Score: inf
ROOT
ATOM      1  C   UNL A   1      35.180  33.431  27.992  1.00  0.00     0.188 C 
ENDROOT
BRANCH   1   2
ATOM      2  C   UNL A   1      34.648  31.986  28.096  1.00  0.00     0.188 C 
BRANCH   2   3
ATOM      3  O   UNL A   1      35.481  30.937  28.565  1.00  0.00    -0.376 OA
BRANCH   3   4
ATOM      4  C   UNL A   1      35.447  29.661  27.943  1.00  0.00     0.202 C 
BRANCH   4   5
ATOM      5  C   UNL A   1      34.178  29.160  27.232  1.00  0.00     0.261 C 
BRANCH   5   6
ATOM      6  O   UNL A   1      34.118  29.425  25.823  1.00  0.00    -0.460 OA
BRANCH   6   7
ATOM      7  C   UNL A   1      32.923  29.180  25.226  1.00  0.00     0.339 C 
ATOM      8  O   UNL A   1      31.888  29.809  25.387  1.00  0.00    -0.246 OA
BRANCH   7   9
ATOM      9  C   UNL A   1      33.085  28.131  24.186  1.00  0.00     0.077 A 
ATOM     10  C   UNL A   1      33.602  25.837  23.504  1.00  0.00     0.048 A 
ATOM     11  C   UNL A   1      33.505  26.774  24.473  1.00  0.00     0.031 A 
ATOM     12  C   UNL A   1      33.358  26.271  22.078  1.00  0.00     0.255 A 
ATOM     13  N   UNL A   1      32.993  27.587  21.898  1.00  0.00    -0.328 N 
ATOM     14  O   UNL A   1      33.473  25.519  21.116  1.00  0.00    -0.269 OA
ATOM     15  C   UNL A   1      32.838  28.491  22.917  1.00  0.00     0.101 A 
ATOM     16  H   UNL A   1      32.831  27.899  20.979  1.00  0.00     0.169 HD
BRANCH  10  17
ATOM     17  C   UNL A   1      33.884  24.426  23.850  1.00  0.00    -0.012 A 
ATOM     18  C   UNL A   1      36.838  22.009  24.049  1.00  0.00     0.046 C 
ATOM     19  C   UNL A   1      35.432  22.539  24.109  1.00  0.00    -0.032 A 
ATOM     20  C   UNL A   1      35.185  23.898  23.828  1.00  0.00     0.014 A 
ATOM     21  C   UNL A   1      34.347  21.707  24.421  1.00  0.00     0.044 A 
ATOM     22  C   UNL A   1      33.050  22.215  24.443  1.00  0.00     0.021 A 
ATOM     23  Cl  UNL A   1      34.559  20.030  24.774  1.00  0.00    -0.084 Cl
ATOM     24  C   UNL A   1      32.821  23.561  24.154  1.00  0.00     0.010 A 
ENDBRANCH  10  17
ENDBRANCH   7   9
ENDBRANCH   6   7
ENDBRANCH   5   6
ENDBRANCH   4   5
ENDBRANCH   3   4
ENDBRANCH   2   3
ENDBRANCH   1   2
BRANCH   1  25
ATOM     25  O   UNL A   1      34.781  34.292  29.026  1.00  0.00    -0.376 OA
BRANCH  25  26
ATOM     26  C   UNL A   1      34.014  35.449  28.736  1.00  0.00     0.202 C 
BRANCH  26  27
ATOM     27  C   UNL A   1      32.870  36.016  29.604  1.00  0.00     0.261 C 
BRANCH  27  28
ATOM     28  O   UNL A   1      32.406  35.252  30.720  1.00  0.00    -0.460 OA
BRANCH  28  29
ATOM     29  C   UNL A   1      32.706  35.732  31.950  1.00  0.00     0.338 C 
ATOM     30  O   UNL A   1      32.063  36.532  32.613  1.00  0.00    -0.246 OA
BRANCH  29  31
ATOM     31  C   UNL A   1      33.876  34.995  32.460  1.00  0.00     0.060 A 
ATOM     32  C   UNL A   1      35.140  35.598  32.406  1.00  0.00     0.016 A 
ATOM     33  C   UNL A   1      33.725  33.712  32.989  1.00  0.00     0.016 A 
ATOM     34  C   UNL A   1      36.261  34.916  32.884  1.00  0.00     0.010 A 
ATOM     35  C   UNL A   1      34.851  33.023  33.447  1.00  0.00     0.010 A 
ATOM     36  C   UNL A   1      36.126  33.614  33.383  1.00  0.00    -0.014 A 
BRANCH  36  37
ATOM     37  C   UNL A   1      37.327  32.810  33.719  1.00  0.00     0.031 A 
ATOM     38  C   UNL A   1      38.064  33.105  34.993  1.00  0.00     0.074 A 
ATOM     39  C   UNL A   1      37.771  31.847  32.892  1.00  0.00     0.049 A 
ATOM     40  N   UNL A   1      39.190  32.609  35.439  1.00  0.00    -0.248 NA
ATOM     41  C   UNL A   1      37.450  34.104  35.881  1.00  0.00     0.031 C 
ATOM     42  C   UNL A   1      37.127  31.444  31.644  1.00  0.00     0.029 A 
ATOM     43  N   UNL A   1      38.887  31.050  32.970  1.00  0.00    -0.354 N 
ATOM     44  C   UNL A   1      39.425  33.243  36.652  1.00  0.00     0.074 A 
ATOM     45  C   UNL A   1      38.339  34.178  36.859  1.00  0.00     0.031 C 
ATOM     46  C   UNL A   1      37.875  30.494  31.058  1.00  0.00     0.029 A 
ATOM     47  C   UNL A   1      39.068  30.251  31.868  1.00  0.00     0.049 A 
ATOM     48  H   UNL A   1      39.498  31.051  33.743  1.00  0.00     0.167 HD
ATOM     49  C   UNL A   1      40.452  33.059  37.516  1.00  0.00     0.037 A 
ATOM     50  C   UNL A   1      40.098  29.448  31.536  1.00  0.00     0.037 A 
ATOM     51  C   UNL A   1      41.534  32.134  37.301  1.00  0.00     0.049 A 
ATOM     52  C   UNL A   1      41.271  29.315  32.475  1.00  0.00     0.074 A 
ATOM     53  C   UNL A   1      42.604  31.850  38.132  1.00  0.00     0.029 A 
ATOM     54  N   UNL A   1      41.695  31.354  36.164  1.00  0.00    -0.354 N 
ATOM     55  N   UNL A   1      41.470  29.887  33.638  1.00  0.00    -0.248 NA
ATOM     56  C   UNL A   1      42.364  28.427  32.054  1.00  0.00     0.031 C 
ATOM     57  C   UNL A   1      43.446  30.952  37.469  1.00  0.00     0.029 A 
ATOM     58  C   UNL A   1      42.867  30.620  36.255  1.00  0.00     0.049 A 
ATOM     59  H   UNL A   1      41.068  31.327  35.405  1.00  0.00     0.167 HD
ATOM     60  C   UNL A   1      42.692  29.409  34.098  1.00  0.00     0.074 A 
ATOM     61  C   UNL A   1      43.183  28.489  33.094  1.00  0.00     0.031 C 
ATOM     62  C   UNL A   1      43.347  29.706  35.248  1.00  0.00     0.037 A 
BRANCH  49  63
ATOM     63  C   UNL A   1      40.475  33.907  38.755  1.00  0.00     0.064 A 
ATOM     64  C   UNL A   1      39.862  33.495  39.948  1.00  0.00     0.173 A 
ATOM     65  C   UNL A   1      41.138  35.144  38.753  1.00  0.00     0.173 A 
ATOM     66  F   UNL A   1      39.204  32.327  40.001  1.00  0.00    -0.203 F 
ATOM     67  C   UNL A   1      39.882  34.305  41.081  1.00  0.00     0.198 A 
ATOM     68  C   UNL A   1      41.186  35.935  39.897  1.00  0.00     0.198 A 
ATOM     69  F   UNL A   1      41.746  35.584  37.641  1.00  0.00    -0.203 F 
ATOM     70  F   UNL A   1      39.241  33.916  42.192  1.00  0.00    -0.200 F 
ATOM     71  C   UNL A   1      40.549  35.520  41.057  1.00  0.00     0.200 A 
ATOM     72  F   UNL A   1      41.844  37.103  39.876  1.00  0.00    -0.200 F 
ATOM     73  F   UNL A   1      40.571  36.297  42.149  1.00  0.00    -0.200 F 
ENDBRANCH  49  63
BRANCH  50  74
ATOM     74  C   UNL A   1      40.084  28.729  30.234  1.00  0.00     0.064 A 
ATOM     75  C   UNL A   1      40.652  29.295  29.085  1.00  0.00     0.173 A 
ATOM     76  C   UNL A   1      39.488  27.463  30.110  1.00  0.00     0.173 A 
ATOM     77  F   UNL A   1      41.207  30.514  29.143  1.00  0.00    -0.203 F 
ATOM     78  C   UNL A   1      40.612  28.631  27.859  1.00  0.00     0.198 A 
ATOM     79  C   UNL A   1      39.477  26.787  28.892  1.00  0.00     0.198 A 
ATOM     80  F   UNL A   1      38.924  26.880  31.178  1.00  0.00    -0.203 F 
ATOM     81  F   UNL A   1      41.121  29.216  26.766  1.00  0.00    -0.200 F 
ATOM     82  C   UNL A   1      40.032  27.375  27.766  1.00  0.00     0.200 A 
ATOM     83  F   UNL A   1      38.926  25.569  28.810  1.00  0.00    -0.200 F 
ATOM     84  F   UNL A   1      40.000  26.734  26.590  1.00  0.00    -0.200 F 
ENDBRANCH  50  74
BRANCH  62  85
ATOM     85  C   UNL A   1      44.654  29.008  35.506  1.00  0.00     0.064 A 
ATOM     86  C   UNL A   1      44.711  27.748  36.121  1.00  0.00     0.173 A 
ATOM     87  C   UNL A   1      45.863  29.584  35.082  1.00  0.00     0.173 A 
ATOM     88  F   UNL A   1      43.587  27.159  36.557  1.00  0.00    -0.203 F 
ATOM     89  C   UNL A   1      45.929  27.103  36.323  1.00  0.00     0.198 A 
ATOM     90  C   UNL A   1      47.075  28.921  35.255  1.00  0.00     0.198 A 
ATOM     91  F   UNL A   1      45.866  30.783  34.482  1.00  0.00    -0.203 F 
ATOM     92  F   UNL A   1      45.963  25.921  36.954  1.00  0.00    -0.200 F 
ATOM     93  C   UNL A   1      47.107  27.685  35.881  1.00  0.00     0.200 A 
ATOM     94  F   UNL A   1      48.210  29.477  34.812  1.00  0.00    -0.200 F 
ATOM     95  F   UNL A   1      48.277  27.057  36.064  1.00  0.00    -0.200 F 
ENDBRANCH  62  85
ENDBRANCH  36  37
ENDBRANCH  29  31
ENDBRANCH  28  29
ENDBRANCH  27  28
ENDBRANCH  26  27
ENDBRANCH  25  26
ENDBRANCH   1  25
TORSDOF 18
ENDMDL
MODEL 2
REMARK VINA RESULT:     -11.0      5.140      7.981
REMARK SMILES Cc1cc(-c2cc(C(=O)OCCOCCOCCOC(=O)c3ccc(-c4c5nc(c(-c6c(F)c(F)c(F)c(F)c6F)c6ccc([nH]6)c(-c6c(F)c(F)c(F)c(F)c6F)c6nc(c(-c7c(F)c(F)c(F)c(F)c7F)c7ccc4[nH]7)C=C6)C=C5)cc3)c[nH]c2=O)ccc1Cl
REMARK SMILES IDX 15 1 14 2 13 3 12 4 11 5 10 6 8 7 9 8 7 9 5 10 6 11 87 12
REMARK SMILES IDX 86 13 88 14 85 15 4 17 1 18 2 19 3 20 91 21 90 22 92 23
REMARK SMILES IDX 89 24 16 25 17 26 18 27 19 28 20 29 21 30 22 31 23 32 84 33
REMARK SMILES IDX 24 34 83 35 25 36 26 37 27 38 77 39 28 40 82 41 76 42 78 43
REMARK SMILES IDX 29 44 81 45 75 46 74 47 30 49 62 50 42 51 61 52 43 53 46 54
REMARK SMILES IDX 60 55 79 56 44 57 45 58 59 60 80 61 47 62 31 63 32 64 40 65
REMARK SMILES IDX 33 66 34 67 38 68 41 69 35 70 36 71 39 72 37 73 63 74 64 75
REMARK SMILES IDX 72 76 65 77 66 78 70 79 73 80 67 81 68 82 71 83 69 84 48 85
REMARK SMILES IDX 49 86 57 87 50 88 51 89 55 90 58 91 52 92 53 93 56 94 54 95
REMARK H PARENT 86 16 78 48 46 59
REMARK Flexibility Score: inf
ROOT
ATOM      1  C   UNL A   1      32.538  36.076  31.067  1.00  0.00     0.188 C 
ENDROOT
BRANCH   1   2
ATOM      2  C   UNL A   1      33.095  35.818  29.651  1.00  0.00     0.188 C 
BRANCH   2   3
ATOM      3  O   UNL A   1      32.808  34.609  28.967  1.00  0.00    -0.376 OA
BRANCH   3   4
ATOM      4  C   UNL A   1      33.730  34.080  28.025  1.00  0.00     0.202 C 
BRANCH   4   5
ATOM      5  C   UNL A   1      34.631  32.886  28.384  1.00  0.00     0.261 C 
BRANCH   5   6
ATOM      6  O   UNL A   1      33.999  31.599  28.322  1.00  0.00    -0.460 OA
BRANCH   6   7
ATOM      7  C   UNL A   1      34.671  30.644  27.627  1.00  0.00     0.339 C 
ATOM      8  O   UNL A   1      35.855  30.366  27.735  1.00  0.00    -0.246 OA
BRANCH   7   9
ATOM      9  C   UNL A   1      33.714  29.835  26.827  1.00  0.00     0.077 A 
ATOM     10  C   UNL A   1      33.051  27.750  25.728  1.00  0.00     0.048 A 
ATOM     11  C   UNL A   1      33.964  28.467  26.421  1.00  0.00     0.031 A 
ATOM     12  C   UNL A   1      31.788  28.455  25.291  1.00  0.00     0.255 A 
ATOM     13  N   UNL A   1      31.651  29.763  25.698  1.00  0.00    -0.328 N 
ATOM     14  O   UNL A   1      30.919  27.919  24.612  1.00  0.00    -0.269 OA
ATOM     15  C   UNL A   1      32.571  30.435  26.460  1.00  0.00     0.101 A 
ATOM     16  H   UNL A   1      30.839  30.248  25.424  1.00  0.00     0.169 HD
BRANCH  10  17
ATOM     17  C   UNL A   1      33.271  26.312  25.462  1.00  0.00    -0.012 A 
ATOM     18  C   UNL A   1      32.552  22.910  27.048  1.00  0.00     0.046 C 
ATOM     19  C   UNL A   1      33.058  23.948  26.085  1.00  0.00    -0.032 A 
ATOM     20  C   UNL A   1      32.795  25.311  26.325  1.00  0.00     0.014 A 
ATOM     21  C   UNL A   1      33.807  23.594  24.954  1.00  0.00     0.044 A 
ATOM     22  C   UNL A   1      34.289  24.575  24.090  1.00  0.00     0.021 A 
ATOM     23  Cl  UNL A   1      34.179  21.948  24.586  1.00  0.00    -0.084 Cl
ATOM     24  C   UNL A   1      34.028  25.922  24.346  1.00  0.00     0.010 A 
ENDBRANCH  10  17
ENDBRANCH   7   9
ENDBRANCH   6   7
ENDBRANCH   5   6
ENDBRANCH   4   5
ENDBRANCH   3   4
ENDBRANCH   2   3
ENDBRANCH   1   2
BRANCH   1  25
ATOM     25  O   UNL A   1      33.438  35.831  32.117  1.00  0.00    -0.376 OA
BRANCH  25  26
ATOM     26  C   UNL A   1      34.402  34.798  32.005  1.00  0.00     0.202 C 
BRANCH  26  27
ATOM     27  C   UNL A   1      34.122  33.284  32.118  1.00  0.00     0.261 C 
BRANCH  27  28
ATOM     28  O   UNL A   1      35.180  32.364  31.838  1.00  0.00    -0.460 OA
BRANCH  28  29
ATOM     29  C   UNL A   1      36.156  32.260  32.769  1.00  0.00     0.338 C 
ATOM     30  O   UNL A   1      36.036  32.330  33.985  1.00  0.00    -0.246 OA
BRANCH  29  31
ATOM     31  C   UNL A   1      37.404  31.870  32.089  1.00  0.00     0.060 A 
ATOM     32  C   UNL A   1      37.489  31.992  30.696  1.00  0.00     0.016 A 
ATOM     33  C   UNL A   1      38.486  31.384  32.826  1.00  0.00     0.016 A 
ATOM     34  C   UNL A   1      38.663  31.628  30.032  1.00  0.00     0.010 A 
ATOM     35  C   UNL A   1      39.651  30.999  32.157  1.00  0.00     0.010 A 
ATOM     36  C   UNL A   1      39.742  31.104  30.758  1.00  0.00    -0.014 A 
BRANCH  36  37
ATOM     37  C   UNL A   1      40.918  30.540  30.051  1.00  0.00     0.031 A 
ATOM     38  C   UNL A   1      42.085  31.437  29.757  1.00  0.00     0.074 A 
ATOM     39  C   UNL A   1      40.939  29.254  29.656  1.00  0.00     0.049 A 
ATOM     40  N   UNL A   1      43.169  31.194  29.065  1.00  0.00    -0.248 NA
ATOM     41  C   UNL A   1      42.016  32.796  30.315  1.00  0.00     0.031 C 
ATOM     42  C   UNL A   1      39.884  28.276  29.909  1.00  0.00     0.029 A 
ATOM     43  N   UNL A   1      41.879  28.560  28.933  1.00  0.00    -0.354 N 
ATOM     44  C   UNL A   1      43.904  32.373  29.092  1.00  0.00     0.074 A 
ATOM     45  C   UNL A   1      43.131  33.336  29.847  1.00  0.00     0.031 C 
ATOM     46  C   UNL A   1      40.222  27.114  29.325  1.00  0.00     0.029 A 
ATOM     47  C   UNL A   1      41.495  27.279  28.625  1.00  0.00     0.049 A 
ATOM     48  H   UNL A   1      42.744  28.945  28.663  1.00  0.00     0.167 HD
ATOM     49  C   UNL A   1      45.114  32.626  28.540  1.00  0.00     0.037 A 
ATOM     50  C   UNL A   1      42.087  26.360  27.836  1.00  0.00     0.037 A 
ATOM     51  C   UNL A   1      45.875  31.666  27.783  1.00  0.00     0.049 A 
ATOM     52  C   UNL A   1      43.397  26.688  27.165  1.00  0.00     0.074 A 
ATOM     53  C   UNL A   1      47.126  31.815  27.211  1.00  0.00     0.029 A 
ATOM     54  N   UNL A   1      45.447  30.382  27.475  1.00  0.00    -0.354 N 
ATOM     55  N   UNL A   1      44.106  27.789  27.227  1.00  0.00    -0.248 NA
ATOM     56  C   UNL A   1      43.989  25.645  26.315  1.00  0.00     0.031 C 
ATOM     57  C   UNL A   1      47.424  30.648  26.500  1.00  0.00     0.029 A 
ATOM     58  C   UNL A   1      46.392  29.744  26.687  1.00  0.00     0.049 A 
ATOM     59  H   UNL A   1      44.596  29.984  27.772  1.00  0.00     0.167 HD
ATOM     60  C   UNL A   1      45.235  27.563  26.448  1.00  0.00     0.074 A 
ATOM     61  C   UNL A   1      45.125  26.214  25.936  1.00  0.00     0.031 C 
ATOM     62  C   UNL A   1      46.270  28.398  26.181  1.00  0.00     0.037 A 
BRANCH  49  63
ATOM     63  C   UNL A   1      45.672  34.011  28.701  1.00  0.00     0.064 A 
ATOM     64  C   UNL A   1      45.408  35.030  27.773  1.00  0.00     0.173 A 
ATOM     65  C   UNL A   1      46.466  34.328  29.813  1.00  0.00     0.173 A 
ATOM     66  F   UNL A   1      44.664  34.778  26.685  1.00  0.00    -0.203 F 
ATOM     67  C   UNL A   1      45.949  36.303  27.935  1.00  0.00     0.198 A 
ATOM     68  C   UNL A   1      46.976  35.611  29.990  1.00  0.00     0.198 A 
ATOM     69  F   UNL A   1      46.745  33.394  30.734  1.00  0.00    -0.203 F 
ATOM     70  F   UNL A   1      45.731  37.245  27.005  1.00  0.00    -0.200 F 
ATOM     71  C   UNL A   1      46.725  36.595  29.045  1.00  0.00     0.200 A 
ATOM     72  F   UNL A   1      47.715  35.895  31.072  1.00  0.00    -0.200 F 
ATOM     73  F   UNL A   1      47.242  37.822  29.201  1.00  0.00    -0.200 F 
ENDBRANCH  49  63
BRANCH  50  74
ATOM     74  C   UNL A   1      41.425  25.048  27.607  1.00  0.00     0.064 A 
ATOM     75  C   UNL A   1      41.900  23.878  28.216  1.00  0.00     0.173 A 
ATOM     76  C   UNL A   1      40.309  24.934  26.762  1.00  0.00     0.173 A 
ATOM     77  F   UNL A   1      42.980  23.927  29.008  1.00  0.00    -0.203 F 
ATOM     78  C   UNL A   1      41.294  22.645  27.978  1.00  0.00     0.198 A 
ATOM     79  C   UNL A   1      39.685  23.706  26.551  1.00  0.00     0.198 A 
ATOM     80  F   UNL A   1      39.818  26.022  26.150  1.00  0.00    -0.203 F 
ATOM     81  F   UNL A   1      41.798  21.535  28.536  1.00  0.00    -0.200 F 
ATOM     82  C   UNL A   1      40.183  22.562  27.152  1.00  0.00     0.200 A 
ATOM     83  F   UNL A   1      38.605  23.634  25.762  1.00  0.00    -0.200 F 
ATOM     84  F   UNL A   1      39.598  21.378  26.930  1.00  0.00    -0.200 F 
ENDBRANCH  50  74
BRANCH  62  85
ATOM     85  C   UNL A   1      47.388  27.873  25.322  1.00  0.00     0.064 A 
ATOM     86  C   UNL A   1      48.503  27.225  25.875  1.00  0.00     0.173 A 
ATOM     87  C   UNL A   1      47.315  27.972  23.924  1.00  0.00     0.173 A 
ATOM     88  F   UNL A   1      48.629  27.115  27.206  1.00  0.00    -0.203 F 
ATOM     89  C   UNL A   1      49.513  26.716  25.061  1.00  0.00     0.198 A 
ATOM     90  C   UNL A   1      48.309  27.432  23.112  1.00  0.00     0.198 A 
ATOM     91  F   UNL A   1      46.267  28.574  23.342  1.00  0.00    -0.203 F 
ATOM     92  F   UNL A   1      50.590  26.142  25.613  1.00  0.00    -0.200 F 
ATOM     93  C   UNL A   1      49.410  26.812  23.681  1.00  0.00     0.200 A 
ATOM     94  F   UNL A   1      48.200  27.510  21.779  1.00  0.00    -0.200 F 
ATOM     95  F   UNL A   1      50.376  26.310  22.899  1.00  0.00    -0.200 F 
ENDBRANCH  62  85
ENDBRANCH  36  37
ENDBRANCH  29  31
ENDBRANCH  28  29
ENDBRANCH  27  28
ENDBRANCH  26  27
ENDBRANCH  25  26
ENDBRANCH   1  25
TORSDOF 18
ENDMDL
MODEL 3
REMARK VINA RESULT:     -10.8      6.562     11.258
REMARK SMILES Cc1cc(-c2cc(C(=O)OCCOCCOCCOC(=O)c3ccc(-c4c5nc(c(-c6c(F)c(F)c(F)c(F)c6F)c6ccc([nH]6)c(-c6c(F)c(F)c(F)c(F)c6F)c6nc(c(-c7c(F)c(F)c(F)c(F)c7F)c7ccc4[nH]7)C=C6)C=C5)cc3)c[nH]c2=O)ccc1Cl
REMARK SMILES IDX 15 1 14 2 13 3 12 4 11 5 10 6 8 7 9 8 7 9 5 10 6 11 87 12
REMARK SMILES IDX 86 13 88 14 85 15 4 17 1 18 2 19 3 20 91 21 90 22 92 23
REMARK SMILES IDX 89 24 16 25 17 26 18 27 19 28 20 29 21 30 22 31 23 32 84 33
REMARK SMILES IDX 24 34 83 35 25 36 26 37 27 38 77 39 28 40 82 41 76 42 78 43
REMARK SMILES IDX 29 44 81 45 75 46 74 47 30 49 62 50 42 51 61 52 43 53 46 54
REMARK SMILES IDX 60 55 79 56 44 57 45 58 59 60 80 61 47 62 31 63 32 64 40 65
REMARK SMILES IDX 33 66 34 67 38 68 41 69 35 70 36 71 39 72 37 73 63 74 64 75
REMARK SMILES IDX 72 76 65 77 66 78 70 79 73 80 67 81 68 82 71 83 69 84 48 85
REMARK SMILES IDX 49 86 57 87 50 88 51 89 55 90 58 91 52 92 53 93 56 94 54 95
REMARK H PARENT 86 16 78 48 46 59
REMARK Flexibility Score: inf
ROOT
ATOM      1  C   UNL A   1      38.090  21.896  25.545  1.00  0.00     0.188 C 
ENDROOT
BRANCH   1   2
ATOM      2  C   UNL A   1      36.902  22.869  25.709  1.00  0.00     0.188 C 
BRANCH   2   3
ATOM      3  O   UNL A   1      36.539  23.756  24.663  1.00  0.00    -0.376 OA
BRANCH   3   4
ATOM      4  C   UNL A   1      35.676  23.323  23.622  1.00  0.00     0.202 C 
BRANCH   4   5
ATOM      5  C   UNL A   1      34.632  22.221  23.866  1.00  0.00     0.261 C 
BRANCH   5   6
ATOM      6  O   UNL A   1      33.319  22.493  23.351  1.00  0.00    -0.460 OA
BRANCH   6   7
ATOM      7  C   UNL A   1      32.289  22.246  24.202  1.00  0.00     0.339 C 
ATOM      8  O   UNL A   1      31.856  21.149  24.519  1.00  0.00    -0.246 OA
BRANCH   7   9
ATOM      9  C   UNL A   1      31.864  23.510  24.859  1.00  0.00     0.077 A 
ATOM     10  C   UNL A   1      31.077  25.826  24.762  1.00  0.00     0.048 A 
ATOM     11  C   UNL A   1      31.498  24.708  24.130  1.00  0.00     0.031 A 
ATOM     12  C   UNL A   1      31.097  25.832  26.272  1.00  0.00     0.255 A 
ATOM     13  N   UNL A   1      31.488  24.658  26.878  1.00  0.00    -0.328 N 
ATOM     14  O   UNL A   1      30.789  26.808  26.946  1.00  0.00    -0.269 OA
ATOM     15  C   UNL A   1      31.843  23.520  26.200  1.00  0.00     0.101 A 
ATOM     16  H   UNL A   1      31.514  24.633  27.861  1.00  0.00     0.169 HD
BRANCH  10  17
ATOM     17  C   UNL A   1      30.565  26.979  23.987  1.00  0.00    -0.012 A 
ATOM     18  C   UNL A   1      27.242  28.618  23.052  1.00  0.00     0.046 C 
ATOM     19  C   UNL A   1      28.719  28.348  23.126  1.00  0.00    -0.032 A 
ATOM     20  C   UNL A   1      29.195  27.278  23.911  1.00  0.00     0.014 A 
ATOM     21  C   UNL A   1      29.644  29.126  22.415  1.00  0.00     0.044 A 
ATOM     22  C   UNL A   1      31.006  28.840  22.478  1.00  0.00     0.021 A 
ATOM     23  Cl  UNL A   1      29.147  30.453  21.428  1.00  0.00    -0.084 Cl
ATOM     24  C   UNL A   1      31.461  27.771  23.252  1.00  0.00     0.010 A 
ENDBRANCH  10  17
ENDBRANCH   7   9
ENDBRANCH   6   7
ENDBRANCH   5   6
ENDBRANCH   4   5
ENDBRANCH   3   4
ENDBRANCH   2   3
ENDBRANCH   1   2
BRANCH   1  25
ATOM     25  O   UNL A   1      37.757  20.625  25.050  1.00  0.00    -0.376 OA
BRANCH  25  26
ATOM     26  C   UNL A   1      38.619  19.522  25.279  1.00  0.00     0.202 C 
BRANCH  26  27
ATOM     27  C   UNL A   1      39.971  19.571  26.023  1.00  0.00     0.261 C 
BRANCH  27  28
ATOM     28  O   UNL A   1      41.104  18.926  25.436  1.00  0.00    -0.460 OA
BRANCH  28  29
ATOM     29  C   UNL A   1      42.263  18.984  26.132  1.00  0.00     0.338 C 
ATOM     30  O   UNL A   1      43.025  18.063  26.388  1.00  0.00    -0.246 OA
BRANCH  29  31
ATOM     31  C   UNL A   1      42.568  20.400  26.404  1.00  0.00     0.060 A 
ATOM     32  C   UNL A   1      43.094  21.195  25.377  1.00  0.00     0.016 A 
ATOM     33  C   UNL A   1      42.338  20.940  27.671  1.00  0.00     0.016 A 
ATOM     34  C   UNL A   1      43.390  22.539  25.615  1.00  0.00     0.010 A 
ATOM     35  C   UNL A   1      42.656  22.279  27.913  1.00  0.00     0.010 A 
ATOM     36  C   UNL A   1      43.198  23.082  26.892  1.00  0.00    -0.014 A 
BRANCH  36  37
ATOM     37  C   UNL A   1      43.681  24.448  27.209  1.00  0.00     0.031 A 
ATOM     38  C   UNL A   1      42.702  25.462  27.724  1.00  0.00     0.074 A 
ATOM     39  C   UNL A   1      44.969  24.790  27.019  1.00  0.00     0.049 A 
ATOM     40  N   UNL A   1      42.872  26.737  27.966  1.00  0.00    -0.248 NA
ATOM     41  C   UNL A   1      41.342  24.971  27.995  1.00  0.00     0.031 C 
ATOM     42  C   UNL A   1      46.021  23.889  26.555  1.00  0.00     0.029 A 
ATOM     43  N   UNL A   1      45.600  26.000  27.172  1.00  0.00    -0.354 N 
ATOM     44  C   UNL A   1      41.640  27.204  28.405  1.00  0.00     0.074 A 
ATOM     45  C   UNL A   1      40.725  26.081  28.372  1.00  0.00     0.031 C 
ATOM     46  C   UNL A   1      47.164  24.585  26.433  1.00  0.00     0.029 A 
ATOM     47  C   UNL A   1      46.913  25.986  26.771  1.00  0.00     0.049 A 
ATOM     48  H   UNL A   1      45.155  26.800  27.534  1.00  0.00     0.167 HD
ATOM     49  C   UNL A   1      41.303  28.453  28.804  1.00  0.00     0.037 A 
ATOM     50  C   UNL A   1      47.798  26.997  26.654  1.00  0.00     0.037 A 
ATOM     51  C   UNL A   1      42.214  29.568  28.827  1.00  0.00     0.049 A 
ATOM     52  C   UNL A   1      47.381  28.397  27.028  1.00  0.00     0.074 A 
ATOM     53  C   UNL A   1      41.979  30.866  29.246  1.00  0.00     0.029 A 
ATOM     54  N   UNL A   1      43.533  29.521  28.397  1.00  0.00    -0.354 N 
ATOM     55  N   UNL A   1      46.227  28.825  27.480  1.00  0.00    -0.248 NA
ATOM     56  C   UNL A   1      48.390  29.455  26.875  1.00  0.00     0.031 C 
ATOM     57  C   UNL A   1      43.132  31.619  29.005  1.00  0.00     0.029 A 
ATOM     58  C   UNL A   1      44.110  30.777  28.502  1.00  0.00     0.049 A 
ATOM     59  H   UNL A   1      43.990  28.714  28.066  1.00  0.00     0.167 HD
ATOM     60  C   UNL A   1      46.378  30.191  27.688  1.00  0.00     0.074 A 
ATOM     61  C   UNL A   1      47.741  30.519  27.328  1.00  0.00     0.031 C 
ATOM     62  C   UNL A   1      45.470  31.092  28.139  1.00  0.00     0.037 A 
BRANCH  49  63
ATOM     63  C   UNL A   1      39.876  28.690  29.207  1.00  0.00     0.064 A 
ATOM     64  C   UNL A   1      38.905  29.112  28.287  1.00  0.00     0.173 A 
ATOM     65  C   UNL A   1      39.471  28.471  30.532  1.00  0.00     0.173 A 
ATOM     66  F   UNL A   1      39.241  29.348  27.010  1.00  0.00    -0.203 F 
ATOM     67  C   UNL A   1      37.590  29.340  28.687  1.00  0.00     0.198 A 
ATOM     68  C   UNL A   1      38.148  28.666  30.921  1.00  0.00     0.198 A 
ATOM     69  F   UNL A   1      40.357  28.061  31.452  1.00  0.00    -0.203 F 
ATOM     70  F   UNL A   1      36.692  29.799  27.803  1.00  0.00    -0.200 F 
ATOM     71  C   UNL A   1      37.211  29.111  30.001  1.00  0.00     0.200 A 
ATOM     72  F   UNL A   1      37.782  28.429  32.189  1.00  0.00    -0.200 F 
ATOM     73  F   UNL A   1      35.945  29.327  30.383  1.00  0.00    -0.200 F 
ENDBRANCH  49  63
BRANCH  50  74
ATOM     74  C   UNL A   1      49.162  26.726  26.125  1.00  0.00     0.064 A 
ATOM     75  C   UNL A   1      49.468  26.922  24.772  1.00  0.00     0.173 A 
ATOM     76  C   UNL A   1      50.185  26.254  26.963  1.00  0.00     0.173 A 
ATOM     77  F   UNL A   1      48.519  27.344  23.925  1.00  0.00    -0.203 F 
ATOM     78  C   UNL A   1      50.740  26.641  24.273  1.00  0.00     0.198 A 
ATOM     79  C   UNL A   1      51.463  26.004  26.470  1.00  0.00     0.198 A 
ATOM     80  F   UNL A   1      49.942  26.044  28.265  1.00  0.00    -0.203 F 
ATOM     81  F   UNL A   1      50.993  26.792  22.966  1.00  0.00    -0.200 F 
ATOM     82  C   UNL A   1      51.738  26.191  25.125  1.00  0.00     0.200 A 
ATOM     83  F   UNL A   1      52.427  25.581  27.299  1.00  0.00    -0.200 F 
ATOM     84  F   UNL A   1      52.961  25.928  24.646  1.00  0.00    -0.200 F 
ENDBRANCH  50  74
BRANCH  62  85
ATOM     85  C   UNL A   1      45.922  32.517  28.301  1.00  0.00     0.064 A 
ATOM     86  C   UNL A   1      46.518  32.974  29.486  1.00  0.00     0.173 A 
ATOM     87  C   UNL A   1      45.807  33.425  27.235  1.00  0.00     0.173 A 
ATOM     88  F   UNL A   1      46.641  32.153  30.540  1.00  0.00    -0.203 F 
ATOM     89  C   UNL A   1      46.960  34.290  29.606  1.00  0.00     0.198 A 
ATOM     90  C   UNL A   1      46.281  34.729  27.347  1.00  0.00     0.198 A 
ATOM     91  F   UNL A   1      45.253  33.039  26.076  1.00  0.00    -0.203 F 
ATOM     92  F   UNL A   1      47.484  34.716  30.763  1.00  0.00    -0.200 F 
ATOM     93  C   UNL A   1      46.850  35.162  28.534  1.00  0.00     0.200 A 
ATOM     94  F   UNL A   1      46.189  35.565  26.304  1.00  0.00    -0.200 F 
ATOM     95  F   UNL A   1      47.288  36.424  28.647  1.00  0.00    -0.200 F 
ENDBRANCH  62  85
ENDBRANCH  36  37
ENDBRANCH  29  31
ENDBRANCH  28  29
ENDBRANCH  27  28
ENDBRANCH  26  27
ENDBRANCH  25  26
ENDBRANCH   1  25
TORSDOF 18
ENDMDL
