MODEL 1
REMARK VINA RESULT:     -12.5      0.000      0.000
REMARK SMILES N#C/C(=C/c1cccc(OCC(=O)OCCOCCOCCOC(=O)c2ccc(-c3c4nc(c(-c5c(F)c(F)c(F)c(F)c5F)c5ccc([nH]5)c(-c5c(F)c(F)c(F)c(F)c5F)c5nc(c(-c6c(F)c(F)c(F)c(F)c6F)c6ccc3[nH]6)C=C5)C=C4)cc2)c1)c1nc2ccccc2[nH]1
REMARK SMILES IDX 18 1 17 2 16 3 15 4 14 5 12 6 13 7 11 8 10 9 9 10 5 11 6 12
REMARK SMILES IDX 89 13 7 14 8 15 4 16 3 17 2 18 1 19 90 20 91 21 98 22 92 23
REMARK SMILES IDX 97 24 93 26 96 27 94 28 95 29 19 30 20 31 21 32 22 33 23 34
REMARK SMILES IDX 24 35 25 36 26 37 27 38 88 39 28 40 87 41 29 42 30 43 31 44
REMARK SMILES IDX 81 45 32 46 86 47 80 48 82 49 33 50 85 51 79 52 78 53 34 55
REMARK SMILES IDX 66 56 46 57 65 58 47 59 50 60 64 61 83 62 48 63 49 64 63 66
REMARK SMILES IDX 84 67 51 68 35 69 36 70 44 71 37 72 38 73 42 74 45 75 39 76
REMARK SMILES IDX 40 77 43 78 41 79 67 80 68 81 76 82 69 83 70 84 74 85 77 86
REMARK SMILES IDX 71 87 72 88 75 89 73 90 52 91 53 92 61 93 54 94 55 95 59 96
REMARK SMILES IDX 62 97 56 98 57 99 60 100 58 101
REMARK H PARENT 98 25 82 54 50 65
REMARK Flexibility Score: inf
ROOT
ATOM      1  C   UNL A   1      33.899  32.246  27.815  1.00  0.00     0.188 C 
ENDROOT
BRANCH   1   2
ATOM      2  O   UNL A   1      33.569  30.279  27.241  1.00  0.00    -0.376 OA
BRANCH   2   3
ATOM      3  C   UNL A   1      32.141  29.620  26.837  1.00  0.00     0.202 C 
BRANCH   3   4
ATOM      4  C   UNL A   1      32.262  27.876  26.896  1.00  0.00     0.261 C 
BRANCH   4   5
ATOM      5  O   UNL A   1      31.917  26.885  25.146  1.00  0.00    -0.461 OA
BRANCH   5   6
ATOM      6  C   UNL A   1      32.218  26.231  23.783  1.00  0.00     0.344 C 
ATOM      7  O   UNL A   1      31.654  26.608  22.743  1.00  0.00    -0.248 OA
BRANCH   6   8
ATOM      8  C   UNL A   1      33.687  25.180  23.491  1.00  0.00     0.351 C 
BRANCH   8   9
ATOM      9  O   UNL A   1      34.755  24.492  24.233  1.00  0.00    -0.482 OA
BRANCH   9  10
ATOM     10  C   UNL A   1      35.423  23.255  24.059  1.00  0.00     0.120 A 
ATOM     11  C   UNL A   1      37.375  21.850  24.868  1.00  0.00    -0.021 A 
ATOM     12  C   UNL A   1      36.534  20.761  25.067  1.00  0.00     0.008 A 
ATOM     13  C   UNL A   1      36.807  22.950  23.997  1.00  0.00     0.054 A 
ATOM     14  C   UNL A   1      35.175  20.897  24.710  1.00  0.00     0.004 A 
ATOM     15  C   UNL A   1      34.618  22.141  24.299  1.00  0.00     0.046 A 
BRANCH  11  16
ATOM     16  C   UNL A   1      38.690  22.143  26.186  1.00  0.00     0.031 C 
ATOM     17  C   UNL A   1      39.924  23.489  26.669  1.00  0.00     0.095 C 
BRANCH  17  18
ATOM     18  C   UNL A   1      41.076  23.063  27.565  1.00  0.00     0.103 C 
ATOM     19  N   UNL A   1      42.031  22.710  28.308  1.00  0.00    -0.192 NA
ENDBRANCH  17  18
BRANCH  17  20
ATOM     20  C   UNL A   1      39.952  25.239  26.398  1.00  0.00     0.149 A 
ATOM     21  N   UNL A   1      41.212  26.184  25.711  1.00  0.00    -0.228 NA
ATOM     22  N   UNL A   1      39.163  26.278  27.704  1.00  0.00    -0.337 N 
ATOM     23  C   UNL A   1      41.549  27.835  26.674  1.00  0.00     0.089 A 
ATOM     24  C   UNL A   1      40.119  27.826  27.993  1.00  0.00     0.066 A 
ATOM     25  H   UNL A   1      38.339  26.037  28.184  1.00  0.00     0.168 HD
ATOM     26  C   UNL A   1      42.833  29.066  26.810  1.00  0.00     0.030 A 
ATOM     27  C   UNL A   1      40.042  29.167  29.155  1.00  0.00     0.028 A 
ATOM     28  C   UNL A   1      42.695  30.341  28.027  1.00  0.00     0.002 A 
ATOM     29  C   UNL A   1      41.324  30.421  29.121  1.00  0.00     0.002 A 
ENDBRANCH  17  20
ENDBRANCH  11  16
ENDBRANCH   9  10
ENDBRANCH   8   9
ENDBRANCH   6   8
ENDBRANCH   5   6
ENDBRANCH   4   5
ENDBRANCH   3   4
ENDBRANCH   2   3
ENDBRANCH   1   2
BRANCH   1  30
ATOM     30  C   UNL A   1      34.594  32.630  29.533  1.00  0.00     0.188 C 
BRANCH  30  31
ATOM     31  O   UNL A   1      34.103  33.369  30.681  1.00  0.00    -0.376 OA
BRANCH  31  32
ATOM     32  C   UNL A   1      34.797  33.767  31.862  1.00  0.00     0.202 C 
BRANCH  32  33
ATOM     33  C   UNL A   1      36.189  33.207  32.199  1.00  0.00     0.261 C 
BRANCH  33  34
ATOM     34  O   UNL A   1      36.164  31.841  32.555  1.00  0.00    -0.460 OA
BRANCH  34  35
ATOM     35  C   UNL A   1      37.000  31.603  33.584  1.00  0.00     0.338 C 
ATOM     36  O   UNL A   1      37.045  32.200  34.640  1.00  0.00    -0.246 OA
BRANCH  35  37
ATOM     37  C   UNL A   1      37.926  30.581  33.071  1.00  0.00     0.060 A 
ATOM     38  C   UNL A   1      37.845  28.682  32.776  1.00  0.00     0.016 A 
ATOM     39  C   UNL A   1      39.575  31.386  33.057  1.00  0.00     0.016 A 
ATOM     40  C   UNL A   1      39.468  27.705  32.537  1.00  0.00     0.010 A 
ATOM     41  C   UNL A   1      41.106  30.427  32.911  1.00  0.00     0.010 A 
ATOM     42  C   UNL A   1      41.100  28.593  32.703  1.00  0.00    -0.014 A 
BRANCH  42  43
ATOM     43  C   UNL A   1      42.486  27.941  32.970  1.00  0.00     0.031 A 
ATOM     44  C   UNL A   1      43.162  27.767  34.376  1.00  0.00     0.074 A 
ATOM     45  C   UNL A   1      43.240  27.541  31.929  1.00  0.00     0.049 A 
ATOM     46  N   UNL A   1      44.391  27.363  34.681  1.00  0.00    -0.248 NA
ATOM     47  C   UNL A   1      42.378  28.073  35.581  1.00  0.00     0.031 C 
ATOM     48  C   UNL A   1      42.839  27.637  30.537  1.00  0.00     0.029 A 
ATOM     49  N   UNL A   1      44.510  27.000  31.880  1.00  0.00    -0.354 N 
ATOM     50  C   UNL A   1      44.522  27.411  36.080  1.00  0.00     0.074 A 
ATOM     51  C   UNL A   1      43.255  27.913  36.566  1.00  0.00     0.031 C 
ATOM     52  C   UNL A   1      43.816  27.143  29.766  1.00  0.00     0.029 A 
ATOM     53  C   UNL A   1      44.960  26.781  30.602  1.00  0.00     0.049 A 
ATOM     54  H   UNL A   1      45.039  26.791  32.683  1.00  0.00     0.167 HD
ATOM     55  C   UNL A   1      45.561  27.062  36.902  1.00  0.00     0.037 A 
ATOM     56  C   UNL A   1      46.155  26.386  30.116  1.00  0.00     0.037 A 
ATOM     57  C   UNL A   1      46.830  26.506  36.470  1.00  0.00     0.049 A 
ATOM     58  C   UNL A   1      47.310  26.056  31.022  1.00  0.00     0.074 A 
ATOM     59  C   UNL A   1      47.893  26.059  37.249  1.00  0.00     0.029 A 
ATOM     60  N   UNL A   1      47.220  26.331  35.154  1.00  0.00    -0.354 N 
ATOM     61  N   UNL A   1      47.378  26.083  32.328  1.00  0.00    -0.248 NA
ATOM     62  C   UNL A   1      48.562  25.636  30.370  1.00  0.00     0.031 C 
ATOM     63  C   UNL A   1      48.951  25.700  36.407  1.00  0.00     0.029 A 
ATOM     64  C   UNL A   1      48.517  25.829  35.100  1.00  0.00     0.049 A 
ATOM     65  H   UNL A   1      46.662  26.533  34.369  1.00  0.00     0.167 HD
ATOM     66  C   UNL A   1      48.662  25.656  32.653  1.00  0.00     0.074 A 
ATOM     67  C   UNL A   1      49.335  25.359  31.410  1.00  0.00     0.031 C 
ATOM     68  C   UNL A   1      49.221  25.523  33.881  1.00  0.00     0.037 A 
BRANCH  55  69
ATOM     69  C   UNL A   1      45.414  27.263  38.407  1.00  0.00     0.064 A 
ATOM     70  C   UNL A   1      44.875  26.276  39.247  1.00  0.00     0.173 A 
ATOM     71  C   UNL A   1      45.935  28.414  39.033  1.00  0.00     0.173 A 
ATOM     72  F   UNL A   1      44.393  25.137  38.728  1.00  0.00    -0.203 F 
ATOM     73  C   UNL A   1      44.812  26.454  40.634  1.00  0.00     0.198 A 
ATOM     74  C   UNL A   1      45.909  28.570  40.420  1.00  0.00     0.198 A 
ATOM     75  F   UNL A   1      46.516  29.378  38.301  1.00  0.00    -0.203 F 
ATOM     76  F   UNL A   1      44.243  25.515  41.403  1.00  0.00    -0.200 F 
ATOM     77  C   UNL A   1      45.332  27.597  41.218  1.00  0.00     0.200 A 
ATOM     78  F   UNL A   1      46.454  29.658  40.984  1.00  0.00    -0.200 F 
ATOM     79  F   UNL A   1      45.279  27.760  42.549  1.00  0.00    -0.200 F 
ENDBRANCH  55  69
BRANCH  56  80
ATOM     80  C   UNL A   1      46.323  26.296  28.641  1.00  0.00     0.064 A 
ATOM     81  C   UNL A   1      46.702  27.414  27.886  1.00  0.00     0.173 A 
ATOM     82  C   UNL A   1      46.141  25.079  27.965  1.00  0.00     0.173 A 
ATOM     83  F   UNL A   1      46.860  28.604  28.485  1.00  0.00    -0.203 F 
ATOM     84  C   UNL A   1      46.884  27.320  26.509  1.00  0.00     0.198 A 
ATOM     85  C   UNL A   1      46.371  24.976  26.597  1.00  0.00     0.198 A 
ATOM     86  F   UNL A   1      45.785  23.979  28.646  1.00  0.00    -0.203 F 
ATOM     87  F   UNL A   1      47.203  28.412  25.802  1.00  0.00    -0.200 F 
ATOM     88  C   UNL A   1      46.734  26.098  25.869  1.00  0.00     0.200 A 
ATOM     89  F   UNL A   1      46.256  23.787  25.990  1.00  0.00    -0.200 F 
ATOM     90  F   UNL A   1      46.940  26.002  24.549  1.00  0.00    -0.200 F 
ENDBRANCH  56  80
BRANCH  68  91
ATOM     91  C   UNL A   1      50.625  24.980  33.964  1.00  0.00     0.064 A 
ATOM     92  C   UNL A   1      50.894  23.600  33.978  1.00  0.00     0.173 A 
ATOM     93  C   UNL A   1      51.725  25.852  34.023  1.00  0.00     0.173 A 
ATOM     94  F   UNL A   1      49.886  22.716  33.937  1.00  0.00    -0.203 F 
ATOM     95  C   UNL A   1      52.198  23.119  34.088  1.00  0.00     0.198 A 
ATOM     96  C   UNL A   1      53.031  25.368  34.095  1.00  0.00     0.198 A 
ATOM     97  F   UNL A   1      51.538  27.180  34.009  1.00  0.00    -0.203 F 
ATOM     98  F   UNL A   1      52.421  21.800  34.168  1.00  0.00    -0.200 F 
ATOM     99  C   UNL A   1      53.266  24.003  34.140  1.00  0.00     0.200 A 
ATOM    100  F   UNL A   1      54.060  26.224  34.127  1.00  0.00    -0.200 F 
ATOM    101  F   UNL A   1      54.520  23.539  34.244  1.00  0.00    -0.200 F 
ENDBRANCH  68  91
ENDBRANCH  42  43
ENDBRANCH  35  37
ENDBRANCH  34  35
ENDBRANCH  33  34
ENDBRANCH  32  33
ENDBRANCH  31  32
ENDBRANCH  30  31
ENDBRANCH   1  30
TORSDOF 22
ENDMDL
MODEL 2
REMARK VINA RESULT:     -11.8      3.659      7.904
REMARK SMILES N#C/C(=C/c1cccc(OCC(=O)OCCOCCOCCOC(=O)c2ccc(-c3c4nc(c(-c5c(F)c(F)c(F)c(F)c5F)c5ccc([nH]5)c(-c5c(F)c(F)c(F)c(F)c5F)c5nc(c(-c6c(F)c(F)c(F)c(F)c6F)c6ccc3[nH]6)C=C5)C=C4)cc2)c1)c1nc2ccccc2[nH]1
REMARK SMILES IDX 18 1 17 2 16 3 15 4 14 5 12 6 13 7 11 8 10 9 9 10 5 11 6 12
REMARK SMILES IDX 89 13 7 14 8 15 4 16 3 17 2 18 1 19 90 20 91 21 98 22 92 23
REMARK SMILES IDX 97 24 93 26 96 27 94 28 95 29 19 30 20 31 21 32 22 33 23 34
REMARK SMILES IDX 24 35 25 36 26 37 27 38 88 39 28 40 87 41 29 42 30 43 31 44
REMARK SMILES IDX 81 45 32 46 86 47 80 48 82 49 33 50 85 51 79 52 78 53 34 55
REMARK SMILES IDX 66 56 46 57 65 58 47 59 50 60 64 61 83 62 48 63 49 64 63 66
REMARK SMILES IDX 84 67 51 68 35 69 36 70 44 71 37 72 38 73 42 74 45 75 39 76
REMARK SMILES IDX 40 77 43 78 41 79 67 80 68 81 76 82 69 83 70 84 74 85 77 86
REMARK SMILES IDX 71 87 72 88 75 89 73 90 52 91 53 92 61 93 54 94 55 95 59 96
REMARK SMILES IDX 62 97 56 98 57 99 60 100 58 101
REMARK H PARENT 98 25 82 54 50 65
REMARK Flexibility Score: inf
ROOT
ATOM      1  C   UNL A   1      32.937  36.488  30.895  1.00  0.00     0.188 C 
ENDROOT
BRANCH   1   2
ATOM      2  O   UNL A   1      33.573  35.883  29.015  1.00  0.00    -0.376 OA
BRANCH   2   3
ATOM      3  C   UNL A   1      33.080  34.560  28.210  1.00  0.00     0.202 C 
BRANCH   3   4
ATOM      4  C   UNL A   1      34.384  33.396  28.142  1.00  0.00     0.261 C 
BRANCH   4   5
ATOM      5  O   UNL A   1      33.888  31.518  27.517  1.00  0.00    -0.461 OA
BRANCH   5   6
ATOM      6  C   UNL A   1      33.011  30.278  27.252  1.00  0.00     0.344 C 
ATOM      7  O   UNL A   1      31.873  30.379  26.765  1.00  0.00    -0.248 OA
BRANCH   6   8
ATOM      8  C   UNL A   1      33.686  28.578  27.213  1.00  0.00     0.351 C 
BRANCH   8   9
ATOM      9  O   UNL A   1      33.709  27.385  26.350  1.00  0.00    -0.482 OA
BRANCH   9  10
ATOM     10  C   UNL A   1      32.745  26.762  25.522  1.00  0.00     0.120 A 
ATOM     11  C   UNL A   1      31.954  24.523  24.626  1.00  0.00    -0.021 A 
ATOM     12  C   UNL A   1      30.653  24.800  25.027  1.00  0.00     0.008 A 
ATOM     13  C   UNL A   1      32.877  25.721  24.567  1.00  0.00     0.054 A 
ATOM     14  C   UNL A   1      30.390  26.060  25.609  1.00  0.00     0.004 A 
ATOM     15  C   UNL A   1      31.427  26.981  25.927  1.00  0.00     0.046 A 
BRANCH  11  16
ATOM     16  C   UNL A   1      32.558  22.760  24.905  1.00  0.00     0.031 C 
ATOM     17  C   UNL A   1      34.134  21.753  24.640  1.00  0.00     0.095 C 
BRANCH  17  18
ATOM     18  C   UNL A   1      33.979  20.241  24.631  1.00  0.00     0.103 C 
ATOM     19  N   UNL A   1      33.850  18.986  24.624  1.00  0.00    -0.192 NA
ENDBRANCH  17  18
BRANCH  17  20
ATOM     20  C   UNL A   1      35.841  22.210  24.529  1.00  0.00     0.149 A 
ATOM     21  N   UNL A   1      37.220  21.193  24.659  1.00  0.00    -0.228 NA
ATOM     22  N   UNL A   1      36.302  23.827  25.290  1.00  0.00    -0.337 N 
ATOM     23  C   UNL A   1      38.634  21.950  25.751  1.00  0.00     0.089 A 
ATOM     24  C   UNL A   1      37.940  23.728  26.127  1.00  0.00     0.066 A 
ATOM     25  H   UNL A   1      35.746  24.638  25.253  1.00  0.00     0.168 HD
ATOM     26  C   UNL A   1      40.099  21.401  26.611  1.00  0.00     0.030 A 
ATOM     27  C   UNL A   1      38.908  24.806  27.155  1.00  0.00     0.028 A 
ATOM     28  C   UNL A   1      40.975  22.532  27.651  1.00  0.00     0.002 A 
ATOM     29  C   UNL A   1      40.432  24.187  27.870  1.00  0.00     0.002 A 
ENDBRANCH  17  20
ENDBRANCH  11  16
ENDBRANCH   9  10
ENDBRANCH   8   9
ENDBRANCH   6   8
ENDBRANCH   5   6
ENDBRANCH   4   5
ENDBRANCH   3   4
ENDBRANCH   2   3
ENDBRANCH   1   2
BRANCH   1  30
ATOM     30  C   UNL A   1      33.109  35.322  32.376  1.00  0.00     0.188 C 
BRANCH  30  31
ATOM     31  O   UNL A   1      33.603  33.969  32.547  1.00  0.00    -0.376 OA
BRANCH  31  32
ATOM     32  C   UNL A   1      34.344  33.408  33.630  1.00  0.00     0.202 C 
BRANCH  32  33
ATOM     33  C   UNL A   1      35.269  34.275  34.501  1.00  0.00     0.261 C 
BRANCH  33  34
ATOM     34  O   UNL A   1      36.539  33.693  34.707  1.00  0.00    -0.460 OA
BRANCH  34  35
ATOM     35  C   UNL A   1      37.434  34.183  33.829  1.00  0.00     0.338 C 
ATOM     36  O   UNL A   1      37.225  34.996  32.951  1.00  0.00    -0.246 OA
BRANCH  35  37
ATOM     37  C   UNL A   1      38.654  33.399  34.078  1.00  0.00     0.060 A 
ATOM     38  C   UNL A   1      40.174  33.562  35.245  1.00  0.00     0.016 A 
ATOM     39  C   UNL A   1      38.768  32.223  32.674  1.00  0.00     0.016 A 
ATOM     40  C   UNL A   1      41.748  32.547  34.875  1.00  0.00     0.010 A 
ATOM     41  C   UNL A   1      40.300  31.333  32.294  1.00  0.00     0.010 A 
ATOM     42  C   UNL A   1      41.818  31.504  33.330  1.00  0.00    -0.014 A 
BRANCH  42  43
ATOM     43  C   UNL A   1      43.100  30.965  32.634  1.00  0.00     0.031 A 
ATOM     44  C   UNL A   1      43.884  31.679  31.477  1.00  0.00     0.074 A 
ATOM     45  C   UNL A   1      43.574  29.751  32.971  1.00  0.00     0.049 A 
ATOM     46  N   UNL A   1      44.888  31.229  30.731  1.00  0.00    -0.248 NA
ATOM     47  C   UNL A   1      43.512  33.053  31.112  1.00  0.00     0.031 C 
ATOM     48  C   UNL A   1      42.991  28.892  33.986  1.00  0.00     0.029 A 
ATOM     49  N   UNL A   1      44.636  29.019  32.475  1.00  0.00    -0.354 N 
ATOM     50  C   UNL A   1      45.220  32.237  29.808  1.00  0.00     0.074 A 
ATOM     51  C   UNL A   1      44.289  33.314  30.066  1.00  0.00     0.031 C 
ATOM     52  C   UNL A   1      43.712  27.767  34.072  1.00  0.00     0.029 A 
ATOM     53  C   UNL A   1      44.757  27.778  33.049  1.00  0.00     0.049 A 
ATOM     54  H   UNL A   1      45.246  29.356  31.780  1.00  0.00     0.167 HD
ATOM     55  C   UNL A   1      46.199  32.299  28.852  1.00  0.00     0.037 A 
ATOM     56  C   UNL A   1      45.563  26.729  32.781  1.00  0.00     0.037 A 
ATOM     57  C   UNL A   1      47.188  31.271  28.588  1.00  0.00     0.049 A 
ATOM     58  C   UNL A   1      46.600  26.784  31.693  1.00  0.00     0.074 A 
ATOM     59  C   UNL A   1      48.253  31.298  27.692  1.00  0.00     0.029 A 
ATOM     60  N   UNL A   1      47.235  30.030  29.199  1.00  0.00    -0.354 N 
ATOM     61  N   UNL A   1      46.899  27.760  30.875  1.00  0.00    -0.248 NA
ATOM     62  C   UNL A   1      47.418  25.575  31.499  1.00  0.00     0.031 C 
ATOM     63  C   UNL A   1      48.884  30.049  27.700  1.00  0.00     0.029 A 
ATOM     64  C   UNL A   1      48.276  29.273  28.670  1.00  0.00     0.049 A 
ATOM     65  H   UNL A   1      46.621  29.726  29.906  1.00  0.00     0.167 HD
ATOM     66  C   UNL A   1      47.953  27.296  30.094  1.00  0.00     0.074 A 
ATOM     67  C   UNL A   1      48.256  25.958  30.547  1.00  0.00     0.031 C 
ATOM     68  C   UNL A   1      48.607  27.936  29.093  1.00  0.00     0.037 A 
BRANCH  55  69
ATOM     69  C   UNL A   1      46.290  33.536  27.964  1.00  0.00     0.064 A 
ATOM     70  C   UNL A   1      47.074  34.649  28.305  1.00  0.00     0.173 A 
ATOM     71  C   UNL A   1      45.678  33.555  26.693  1.00  0.00     0.173 A 
ATOM     72  F   UNL A   1      47.716  34.688  29.482  1.00  0.00    -0.203 F 
ATOM     73  C   UNL A   1      47.197  35.745  27.444  1.00  0.00     0.198 A 
ATOM     74  C   UNL A   1      45.838  34.632  25.819  1.00  0.00     0.198 A 
ATOM     75  F   UNL A   1      44.957  32.504  26.273  1.00  0.00    -0.203 F 
ATOM     76  F   UNL A   1      47.911  36.816  27.822  1.00  0.00    -0.200 F 
ATOM     77  C   UNL A   1      46.583  35.734  26.202  1.00  0.00     0.200 A 
ATOM     78  F   UNL A   1      45.279  34.597  24.600  1.00  0.00    -0.200 F 
ATOM     79  F   UNL A   1      46.712  36.783  25.375  1.00  0.00    -0.200 F 
ENDBRANCH  55  69
BRANCH  56  80
ATOM     80  C   UNL A   1      45.395  25.487  33.582  1.00  0.00     0.064 A 
ATOM     81  C   UNL A   1      46.030  25.334  34.821  1.00  0.00     0.173 A 
ATOM     82  C   UNL A   1      44.565  24.446  33.136  1.00  0.00     0.173 A 
ATOM     83  F   UNL A   1      46.853  26.291  35.275  1.00  0.00    -0.203 F 
ATOM     84  C   UNL A   1      45.848  24.182  35.581  1.00  0.00     0.198 A 
ATOM     85  C   UNL A   1      44.347  23.317  33.918  1.00  0.00     0.198 A 
ATOM     86  F   UNL A   1      43.930  24.550  31.959  1.00  0.00    -0.203 F 
ATOM     87  F   UNL A   1      46.501  24.039  36.742  1.00  0.00    -0.200 F 
ATOM     88  C   UNL A   1      44.995  23.182  35.136  1.00  0.00     0.200 A 
ATOM     89  F   UNL A   1      43.497  22.370  33.499  1.00  0.00    -0.200 F 
ATOM     90  F   UNL A   1      44.797  22.088  35.882  1.00  0.00    -0.200 F 
ENDBRANCH  56  80
BRANCH  68  91
ATOM     91  C   UNL A   1      49.765  27.227  28.438  1.00  0.00     0.064 A 
ATOM     92  C   UNL A   1      51.037  27.165  29.031  1.00  0.00     0.173 A 
ATOM     93  C   UNL A   1      49.600  26.589  27.197  1.00  0.00     0.173 A 
ATOM     94  F   UNL A   1      51.263  27.766  30.210  1.00  0.00    -0.203 F 
ATOM     95  C   UNL A   1      52.103  26.532  28.391  1.00  0.00     0.198 A 
ATOM     96  C   UNL A   1      50.658  25.923  26.578  1.00  0.00     0.198 A 
ATOM     97  F   UNL A   1      48.410  26.606  26.579  1.00  0.00    -0.203 F 
ATOM     98  F   UNL A   1      53.322  26.547  28.948  1.00  0.00    -0.200 F 
ATOM     99  C   UNL A   1      51.911  25.906  27.169  1.00  0.00     0.200 A 
ATOM    100  F   UNL A   1      50.464  25.305  25.405  1.00  0.00    -0.200 F 
ATOM    101  F   UNL A   1      52.936  25.296  26.557  1.00  0.00    -0.200 F 
ENDBRANCH  68  91
ENDBRANCH  42  43
ENDBRANCH  35  37
ENDBRANCH  34  35
ENDBRANCH  33  34
ENDBRANCH  32  33
ENDBRANCH  31  32
ENDBRANCH  30  31
ENDBRANCH   1  30
TORSDOF 22
ENDMDL
MODEL 3
REMARK VINA RESULT:     -11.6      3.092      5.386
REMARK SMILES N#C/C(=C/c1cccc(OCC(=O)OCCOCCOCCOC(=O)c2ccc(-c3c4nc(c(-c5c(F)c(F)c(F)c(F)c5F)c5ccc([nH]5)c(-c5c(F)c(F)c(F)c(F)c5F)c5nc(c(-c6c(F)c(F)c(F)c(F)c6F)c6ccc3[nH]6)C=C5)C=C4)cc2)c1)c1nc2ccccc2[nH]1
REMARK SMILES IDX 18 1 17 2 16 3 15 4 14 5 12 6 13 7 11 8 10 9 9 10 5 11 6 12
REMARK SMILES IDX 89 13 7 14 8 15 4 16 3 17 2 18 1 19 90 20 91 21 98 22 92 23
REMARK SMILES IDX 97 24 93 26 96 27 94 28 95 29 19 30 20 31 21 32 22 33 23 34
REMARK SMILES IDX 24 35 25 36 26 37 27 38 88 39 28 40 87 41 29 42 30 43 31 44
REMARK SMILES IDX 81 45 32 46 86 47 80 48 82 49 33 50 85 51 79 52 78 53 34 55
REMARK SMILES IDX 66 56 46 57 65 58 47 59 50 60 64 61 83 62 48 63 49 64 63 66
REMARK SMILES IDX 84 67 51 68 35 69 36 70 44 71 37 72 38 73 42 74 45 75 39 76
REMARK SMILES IDX 40 77 43 78 41 79 67 80 68 81 76 82 69 83 70 84 74 85 77 86
REMARK SMILES IDX 71 87 72 88 75 89 73 90 52 91 53 92 61 93 54 94 55 95 59 96
REMARK SMILES IDX 62 97 56 98 57 99 60 100 58 101
REMARK H PARENT 98 25 82 54 50 65
REMARK Flexibility Score: inf
ROOT
ATOM      1  C   UNL A   1      33.772  32.611  27.687  1.00  0.00     0.188 C 
ENDROOT
BRANCH   1   2
ATOM      2  O   UNL A   1      33.133  30.938  26.639  1.00  0.00    -0.376 OA
BRANCH   2   3
ATOM      3  C   UNL A   1      32.897  29.451  27.249  1.00  0.00     0.202 C 
BRANCH   3   4
ATOM      4  C   UNL A   1      34.021  28.331  26.512  1.00  0.00     0.261 C 
BRANCH   4   5
ATOM      5  O   UNL A   1      33.237  27.023  25.157  1.00  0.00    -0.461 OA
BRANCH   5   6
ATOM      6  C   UNL A   1      32.906  26.404  23.784  1.00  0.00     0.344 C 
ATOM      7  O   UNL A   1      32.167  26.983  22.971  1.00  0.00    -0.248 OA
BRANCH   6   8
ATOM      8  C   UNL A   1      33.869  25.026  23.060  1.00  0.00     0.351 C 
BRANCH   8   9
ATOM      9  O   UNL A   1      34.044  23.571  23.194  1.00  0.00    -0.482 OA
BRANCH   9  10
ATOM     10  C   UNL A   1      35.109  22.754  23.645  1.00  0.00     0.120 A 
ATOM     11  C   UNL A   1      37.229  22.739  25.040  1.00  0.00    -0.021 A 
ATOM     12  C   UNL A   1      36.782  21.627  25.742  1.00  0.00     0.008 A 
ATOM     13  C   UNL A   1      36.500  23.016  23.743  1.00  0.00     0.054 A 
ATOM     14  C   UNL A   1      35.550  21.050  25.362  1.00  0.00     0.004 A 
ATOM     15  C   UNL A   1      34.696  21.653  24.396  1.00  0.00     0.046 A 
BRANCH  11  16
ATOM     16  C   UNL A   1      38.092  24.075  26.051  1.00  0.00     0.031 C 
ATOM     17  C   UNL A   1      39.550  24.217  27.244  1.00  0.00     0.095 C 
BRANCH  17  18
ATOM     18  C   UNL A   1      39.579  25.447  28.136  1.00  0.00     0.103 C 
ATOM     19  N   UNL A   1      39.603  26.468  28.875  1.00  0.00    -0.192 NA
ENDBRANCH  17  18
BRANCH  17  20
ATOM     20  C   UNL A   1      41.017  23.249  27.460  1.00  0.00     0.149 A 
ATOM     21  N   UNL A   1      42.614  23.617  26.942  1.00  0.00    -0.228 NA
ATOM     22  N   UNL A   1      40.818  21.421  27.300  1.00  0.00    -0.337 N 
ATOM     23  C   UNL A   1      43.532  22.106  26.143  1.00  0.00     0.089 A 
ATOM     24  C   UNL A   1      42.258  20.665  26.435  1.00  0.00     0.066 A 
ATOM     25  H   UNL A   1      40.043  20.915  27.635  1.00  0.00     0.168 HD
ATOM     26  C   UNL A   1      44.950  21.799  25.104  1.00  0.00     0.030 A 
ATOM     27  C   UNL A   1      42.665  19.048  25.822  1.00  0.00     0.028 A 
ATOM     28  C   UNL A   1      45.254  20.164  24.502  1.00  0.00     0.002 A 
ATOM     29  C   UNL A   1      44.183  18.829  24.892  1.00  0.00     0.002 A 
ENDBRANCH  17  20
ENDBRANCH  11  16
ENDBRANCH   9  10
ENDBRANCH   8   9
ENDBRANCH   6   8
ENDBRANCH   5   6
ENDBRANCH   4   5
ENDBRANCH   3   4
ENDBRANCH   2   3
ENDBRANCH   1   2
BRANCH   1  30
ATOM     30  C   UNL A   1      34.404  32.434  29.463  1.00  0.00     0.188 C 
BRANCH  30  31
ATOM     31  O   UNL A   1      34.108  33.107  30.714  1.00  0.00    -0.376 OA
BRANCH  31  32
ATOM     32  C   UNL A   1      34.705  34.275  31.275  1.00  0.00     0.202 C 
BRANCH  32  33
ATOM     33  C   UNL A   1      35.891  34.177  32.249  1.00  0.00     0.261 C 
BRANCH  33  34
ATOM     34  O   UNL A   1      35.977  32.922  32.891  1.00  0.00    -0.460 OA
BRANCH  34  35
ATOM     35  C   UNL A   1      36.215  33.077  34.207  1.00  0.00     0.338 C 
ATOM     36  O   UNL A   1      35.481  33.593  35.025  1.00  0.00    -0.246 OA
BRANCH  35  37
ATOM     37  C   UNL A   1      37.607  32.631  34.380  1.00  0.00     0.060 A 
ATOM     38  C   UNL A   1      39.276  33.484  34.813  1.00  0.00     0.016 A 
ATOM     39  C   UNL A   1      37.661  30.935  33.682  1.00  0.00     0.016 A 
ATOM     40  C   UNL A   1      40.912  32.568  34.455  1.00  0.00     0.010 A 
ATOM     41  C   UNL A   1      39.228  30.119  33.274  1.00  0.00     0.010 A 
ATOM     42  C   UNL A   1      40.862  30.915  33.593  1.00  0.00    -0.014 A 
BRANCH  42  43
ATOM     43  C   UNL A   1      42.037  30.225  32.844  1.00  0.00     0.031 A 
ATOM     44  C   UNL A   1      42.740  28.888  33.274  1.00  0.00     0.074 A 
ATOM     45  C   UNL A   1      42.580  30.827  31.770  1.00  0.00     0.049 A 
ATOM     46  N   UNL A   1      43.834  28.311  32.786  1.00  0.00    -0.248 NA
ATOM     47  C   UNL A   1      42.154  28.101  34.368  1.00  0.00     0.031 C 
ATOM     48  C   UNL A   1      42.122  32.087  31.213  1.00  0.00     0.029 A 
ATOM     49  N   UNL A   1      43.652  30.472  30.973  1.00  0.00    -0.354 N 
ATOM     50  C   UNL A   1      44.071  27.144  33.534  1.00  0.00     0.074 A 
ATOM     51  C   UNL A   1      43.024  27.109  34.532  1.00  0.00     0.031 C 
ATOM     52  C   UNL A   1      42.874  32.392  30.147  1.00  0.00     0.029 A 
ATOM     53  C   UNL A   1      43.934  31.396  29.998  1.00  0.00     0.049 A 
ATOM     54  H   UNL A   1      44.161  29.638  31.092  1.00  0.00     0.167 HD
ATOM     55  C   UNL A   1      45.033  26.177  33.416  1.00  0.00     0.037 A 
ATOM     56  C   UNL A   1      44.942  31.494  29.106  1.00  0.00     0.037 A 
ATOM     57  C   UNL A   1      46.072  26.138  32.404  1.00  0.00     0.049 A 
ATOM     58  C   UNL A   1      46.027  30.455  29.017  1.00  0.00     0.074 A 
ATOM     59  C   UNL A   1      47.029  25.153  32.178  1.00  0.00     0.029 A 
ATOM     60  N   UNL A   1      46.307  27.122  31.460  1.00  0.00    -0.354 N 
ATOM     61  N   UNL A   1      46.192  29.362  29.715  1.00  0.00    -0.248 NA
ATOM     62  C   UNL A   1      47.070  30.675  28.002  1.00  0.00     0.031 C 
ATOM     63  C   UNL A   1      47.889  25.582  31.161  1.00  0.00     0.029 A 
ATOM     64  C   UNL A   1      47.414  26.790  30.685  1.00  0.00     0.049 A 
ATOM     65  H   UNL A   1      45.769  27.939  31.353  1.00  0.00     0.167 HD
ATOM     66  C   UNL A   1      47.334  28.751  29.205  1.00  0.00     0.074 A 
ATOM     67  C   UNL A   1      47.812  29.584  28.127  1.00  0.00     0.031 C 
ATOM     68  C   UNL A   1      47.922  27.596  29.604  1.00  0.00     0.037 A 
BRANCH  55  69
ATOM     69  C   UNL A   1      45.053  25.026  34.417  1.00  0.00     0.064 A 
ATOM     70  C   UNL A   1      44.640  23.728  34.078  1.00  0.00     0.173 A 
ATOM     71  C   UNL A   1      45.610  25.200  35.701  1.00  0.00     0.173 A 
ATOM     72  F   UNL A   1      44.134  23.478  32.861  1.00  0.00    -0.203 F 
ATOM     73  C   UNL A   1      44.730  22.672  34.991  1.00  0.00     0.198 A 
ATOM     74  C   UNL A   1      45.737  24.135  36.595  1.00  0.00     0.198 A 
ATOM     75  F   UNL A   1      46.077  26.399  36.080  1.00  0.00    -0.203 F 
ATOM     76  F   UNL A   1      44.278  21.456  34.653  1.00  0.00    -0.200 F 
ATOM     77  C   UNL A   1      45.281  22.875  36.245  1.00  0.00     0.200 A 
ATOM     78  F   UNL A   1      46.313  24.326  37.791  1.00  0.00    -0.200 F 
ATOM     79  F   UNL A   1      45.376  21.858  37.115  1.00  0.00    -0.200 F 
ENDBRANCH  55  69
BRANCH  56  80
ATOM     80  C   UNL A   1      44.974  32.677  28.204  1.00  0.00     0.064 A 
ATOM     81  C   UNL A   1      45.624  33.858  28.584  1.00  0.00     0.173 A 
ATOM     82  C   UNL A   1      44.385  32.632  26.930  1.00  0.00     0.173 A 
ATOM     83  F   UNL A   1      46.177  33.957  29.802  1.00  0.00    -0.203 F 
ATOM     84  C   UNL A   1      45.675  34.954  27.727  1.00  0.00     0.198 A 
ATOM     85  C   UNL A   1      44.480  33.710  26.057  1.00  0.00     0.198 A 
ATOM     86  F   UNL A   1      43.759  31.519  26.519  1.00  0.00    -0.203 F 
ATOM     87  F   UNL A   1      46.264  36.088  28.129  1.00  0.00    -0.200 F 
ATOM     88  C   UNL A   1      45.118  34.873  26.459  1.00  0.00     0.200 A 
ATOM     89  F   UNL A   1      43.968  33.614  24.823  1.00  0.00    -0.200 F 
ATOM     90  F   UNL A   1      45.195  35.917  25.624  1.00  0.00    -0.200 F 
ENDBRANCH  56  80
BRANCH  68  91
ATOM     91  C   UNL A   1      49.131  27.117  28.840  1.00  0.00     0.064 A 
ATOM     92  C   UNL A   1      49.020  26.412  27.629  1.00  0.00     0.173 A 
ATOM     93  C   UNL A   1      50.425  27.373  29.321  1.00  0.00     0.173 A 
ATOM     94  F   UNL A   1      47.810  26.125  27.124  1.00  0.00    -0.203 F 
ATOM     95  C   UNL A   1      50.150  25.950  26.956  1.00  0.00     0.198 A 
ATOM     96  C   UNL A   1      51.555  26.943  28.625  1.00  0.00     0.198 A 
ATOM     97  F   UNL A   1      50.601  28.045  30.468  1.00  0.00    -0.203 F 
ATOM     98  F   UNL A   1      50.012  25.223  25.839  1.00  0.00    -0.200 F 
ATOM     99  C   UNL A   1      51.416  26.222  27.450  1.00  0.00     0.200 A 
ATOM    100  F   UNL A   1      52.777  27.222  29.098  1.00  0.00    -0.200 F 
ATOM    101  F   UNL A   1      52.502  25.779  26.801  1.00  0.00    -0.200 F 
ENDBRANCH  68  91
ENDBRANCH  42  43
ENDBRANCH  35  37
ENDBRANCH  34  35
ENDBRANCH  33  34
ENDBRANCH  32  33
ENDBRANCH  31  32
ENDBRANCH  30  31
ENDBRANCH   1  30
TORSDOF 22
ENDMDL
