MODEL 1
REMARK VINA RESULT:     -11.7      0.000      0.000
REMARK SMILES C[C@@H](C(=O)OCCOCCOCCOC(=O)c1ccc(-c2c3nc(c(-c4c(F)c(F)c(F)c(F)c4F)c4ccc([nH]4)c(-c4c(F)c(F)c(F)c(F)c4F)c4nc(c(-c5c(F)c(F)c(F)c(F)c5F)c5ccc2[nH]5)C=C4)C=C3)cc1)c1ccc(C[C@H]2CCC[C@H]2O)cc1-c1ccc(O)cc1
REMARK SMILES IDX 9 1 8 2 7 3 6 4 5 5 3 6 4 7 2 8 1 9 80 10 81 11 92 12 82 13
REMARK SMILES IDX 91 14 83 15 93 16 94 17 99 18 95 19 98 20 96 21 97 22 84 24
REMARK SMILES IDX 85 25 86 26 89 27 87 28 88 29 90 30 10 32 11 33 12 34 13 35
REMARK SMILES IDX 14 36 15 37 16 38 17 39 18 40 79 41 19 42 78 43 20 44 21 45
REMARK SMILES IDX 22 46 72 47 23 48 77 49 71 50 73 51 24 52 76 53 70 54 69 55
REMARK SMILES IDX 25 57 57 58 37 59 56 60 38 61 41 62 55 63 74 64 39 65 40 66
REMARK SMILES IDX 54 68 75 69 42 70 26 71 27 72 35 73 28 74 29 75 33 76 36 77
REMARK SMILES IDX 30 78 31 79 34 80 32 81 58 82 59 83 67 84 60 85 61 86 65 87
REMARK SMILES IDX 68 88 62 89 63 90 66 91 64 92 43 93 44 94 52 95 45 96 46 97
REMARK SMILES IDX 50 98 53 99 47 100 48 101 51 102 49 103
REMARK H PARENT 97 23 90 31 73 56 41 67
REMARK Flexibility Score: inf
ROOT
ATOM      1  C   UNL A   1      30.524  27.632  22.388  1.00  0.00     0.188 C 
ENDROOT
BRANCH   1   2
ATOM      2  O   UNL A   1      29.316  27.534  23.128  1.00  0.00    -0.376 OA
BRANCH   2   3
ATOM      3  C   UNL A   1      29.058  26.347  23.874  1.00  0.00     0.202 C 
BRANCH   3   4
ATOM      4  C   UNL A   1      30.167  25.764  24.770  1.00  0.00     0.261 C 
BRANCH   4   5
ATOM      5  O   UNL A   1      31.027  24.782  24.142  1.00  0.00    -0.463 OA
BRANCH   5   6
ATOM      6  C   UNL A   1      32.362  25.055  24.125  1.00  0.00     0.313 C 
ATOM      7  O   UNL A   1      32.915  25.765  24.963  1.00  0.00    -0.252 OA
BRANCH   6   8
ATOM      8  C   UNL A   1      33.131  24.440  22.931  1.00  0.00     0.127 C 
ATOM      9  C   UNL A   1      32.856  24.912  21.502  1.00  0.00     0.025 C 
BRANCH   8  10
ATOM     10  C   UNL A   1      33.112  22.907  23.025  1.00  0.00    -0.026 A 
ATOM     11  C   UNL A   1      32.217  22.175  22.227  1.00  0.00     0.005 A 
ATOM     12  C   UNL A   1      33.908  22.197  23.951  1.00  0.00    -0.014 A 
ATOM     13  C   UNL A   1      32.012  20.816  22.435  1.00  0.00     0.004 A 
ATOM     14  C   UNL A   1      33.633  20.841  24.199  1.00  0.00     0.012 A 
ATOM     15  C   UNL A   1      32.633  20.168  23.499  1.00  0.00    -0.047 A 
BRANCH  12  16
ATOM     16  C   UNL A   1      35.077  22.805  24.586  1.00  0.00    -0.018 A 
ATOM     17  C   UNL A   1      34.981  23.202  25.930  1.00  0.00     0.012 A 
ATOM     18  C   UNL A   1      36.309  22.917  23.928  1.00  0.00     0.012 A 
ATOM     19  C   UNL A   1      36.105  23.641  26.621  1.00  0.00     0.047 A 
ATOM     20  C   UNL A   1      37.443  23.326  24.628  1.00  0.00     0.047 A 
ATOM     21  C   UNL A   1      37.331  23.673  25.972  1.00  0.00     0.115 A 
BRANCH  21  22
ATOM     22  O   UNL A   1      38.420  24.039  26.703  1.00  0.00    -0.508 OA
ATOM     23  H   UNL A   1      38.891  24.819  26.486  1.00  0.00     0.293 HD
ENDBRANCH  21  22
ENDBRANCH  12  16
BRANCH  15  24
ATOM     24  C   UNL A   1      32.157  18.816  23.938  1.00  0.00     0.041 C 
BRANCH  24  25
ATOM     25  C   UNL A   1      33.211  17.958  24.659  1.00  0.00     0.022 C 
ATOM     26  C   UNL A   1      32.731  16.749  25.468  1.00  0.00     0.007 C 
ATOM     27  C   UNL A   1      34.354  17.375  23.825  1.00  0.00     0.117 C 
ATOM     28  C   UNL A   1      33.963  15.829  25.586  1.00  0.00     0.003 C 
ATOM     29  C   UNL A   1      35.098  16.545  24.854  1.00  0.00     0.032 C 
BRANCH  27  30
ATOM     30  O   UNL A   1      34.029  16.510  22.752  1.00  0.00    -0.393 OA
ATOM     31  H   UNL A   1      34.566  15.705  22.812  1.00  0.00     0.210 HD
ENDBRANCH  27  30
ENDBRANCH  24  25
ENDBRANCH  15  24
ENDBRANCH   8  10
ENDBRANCH   6   8
ENDBRANCH   5   6
ENDBRANCH   4   5
ENDBRANCH   3   4
ENDBRANCH   2   3
ENDBRANCH   1   2
BRANCH   1  32
ATOM     32  C   UNL A   1      31.635  28.541  22.934  1.00  0.00     0.188 C 
BRANCH  32  33
ATOM     33  O   UNL A   1      31.212  29.506  23.860  1.00  0.00    -0.376 OA
BRANCH  33  34
ATOM     34  C   UNL A   1      31.951  29.713  25.045  1.00  0.00     0.202 C 
BRANCH  34  35
ATOM     35  C   UNL A   1      31.599  30.821  26.051  1.00  0.00     0.261 C 
BRANCH  35  36
ATOM     36  O   UNL A   1      32.376  30.922  27.255  1.00  0.00    -0.460 OA
BRANCH  36  37
ATOM     37  C   UNL A   1      33.174  32.009  27.400  1.00  0.00     0.338 C 
ATOM     38  O   UNL A   1      32.848  33.172  27.305  1.00  0.00    -0.246 OA
BRANCH  37  39
ATOM     39  C   UNL A   1      34.495  31.535  27.900  1.00  0.00     0.060 A 
ATOM     40  C   UNL A   1      34.701  30.165  28.095  1.00  0.00     0.016 A 
ATOM     41  C   UNL A   1      35.524  32.439  28.178  1.00  0.00     0.016 A 
ATOM     42  C   UNL A   1      35.930  29.704  28.588  1.00  0.00     0.010 A 
ATOM     43  C   UNL A   1      36.744  31.978  28.692  1.00  0.00     0.010 A 
ATOM     44  C   UNL A   1      36.956  30.609  28.916  1.00  0.00    -0.014 A 
BRANCH  44  45
ATOM     45  C   UNL A   1      38.163  30.132  29.650  1.00  0.00     0.031 A 
ATOM     46  C   UNL A   1      38.294  30.456  31.108  1.00  0.00     0.074 A 
ATOM     47  C   UNL A   1      39.187  29.502  29.043  1.00  0.00     0.049 A 
ATOM     48  N   UNL A   1      39.250  30.139  31.943  1.00  0.00    -0.248 NA
ATOM     49  C   UNL A   1      37.254  31.326  31.674  1.00  0.00     0.031 C 
ATOM     50  C   UNL A   1      39.313  29.313  27.608  1.00  0.00     0.029 A 
ATOM     51  N   UNL A   1      40.309  28.886  29.560  1.00  0.00    -0.354 N 
ATOM     52  C   UNL A   1      38.976  30.842  33.106  1.00  0.00     0.074 A 
ATOM     53  C   UNL A   1      37.740  31.563  32.883  1.00  0.00     0.031 C 
ATOM     54  C   UNL A   1      40.388  28.542  27.366  1.00  0.00     0.029 A 
ATOM     55  C   UNL A   1      41.011  28.155  28.624  1.00  0.00     0.049 A 
ATOM     56  H   UNL A   1      40.581  28.960  30.503  1.00  0.00     0.167 HD
ATOM     57  C   UNL A   1      39.722  30.925  34.234  1.00  0.00     0.037 A 
ATOM     58  C   UNL A   1      41.997  27.244  28.783  1.00  0.00     0.037 A 
ATOM     59  C   UNL A   1      40.970  30.234  34.441  1.00  0.00     0.049 A 
ATOM     60  C   UNL A   1      42.673  27.153  30.128  1.00  0.00     0.074 A 
ATOM     61  C   UNL A   1      41.798  30.268  35.550  1.00  0.00     0.029 A 
ATOM     62  N   UNL A   1      41.575  29.393  33.520  1.00  0.00    -0.354 N 
ATOM     63  N   UNL A   1      42.384  27.781  31.239  1.00  0.00    -0.248 NA
ATOM     64  C   UNL A   1      43.867  26.297  30.216  1.00  0.00     0.031 C 
ATOM     65  C   UNL A   1      42.924  29.482  35.282  1.00  0.00     0.029 A 
ATOM     66  C   UNL A   1      42.766  28.903  34.035  1.00  0.00     0.049 A 
ATOM     67  H   UNL A   1      41.212  29.176  32.630  1.00  0.00     0.167 HD
ATOM     68  C   UNL A   1      43.392  27.452  32.133  1.00  0.00     0.074 A 
ATOM     69  C   UNL A   1      44.244  26.487  31.472  1.00  0.00     0.031 C 
ATOM     70  C   UNL A   1      43.624  27.958  33.368  1.00  0.00     0.037 A 
BRANCH  57  71
ATOM     71  C   UNL A   1      39.240  31.866  35.297  1.00  0.00     0.064 A 
ATOM     72  C   UNL A   1      39.542  33.235  35.268  1.00  0.00     0.173 A 
ATOM     73  C   UNL A   1      38.466  31.386  36.365  1.00  0.00     0.173 A 
ATOM     74  F   UNL A   1      40.299  33.739  34.281  1.00  0.00    -0.203 F 
ATOM     75  C   UNL A   1      39.116  34.082  36.287  1.00  0.00     0.198 A 
ATOM     76  C   UNL A   1      38.010  32.243  37.362  1.00  0.00     0.198 A 
ATOM     77  F   UNL A   1      38.152  30.084  36.442  1.00  0.00    -0.203 F 
ATOM     78  F   UNL A   1      39.472  35.374  36.273  1.00  0.00    -0.200 F 
ATOM     79  C   UNL A   1      38.345  33.587  37.328  1.00  0.00     0.200 A 
ATOM     80  F   UNL A   1      37.254  31.765  38.359  1.00  0.00    -0.200 F 
ATOM     81  F   UNL A   1      37.931  34.406  38.306  1.00  0.00    -0.200 F 
ENDBRANCH  57  71
BRANCH  58  82
ATOM     82  C   UNL A   1      42.407  26.312  27.687  1.00  0.00     0.064 A 
ATOM     83  C   UNL A   1      43.391  26.709  26.759  1.00  0.00     0.173 A 
ATOM     84  C   UNL A   1      41.832  25.049  27.498  1.00  0.00     0.173 A 
ATOM     85  F   UNL A   1      43.961  27.919  26.864  1.00  0.00    -0.203 F 
ATOM     86  C   UNL A   1      43.762  25.894  25.689  1.00  0.00     0.198 A 
ATOM     87  C   UNL A   1      42.242  24.212  26.458  1.00  0.00     0.198 A 
ATOM     88  F   UNL A   1      40.874  24.616  28.329  1.00  0.00    -0.203 F 
ATOM     89  F   UNL A   1      44.651  26.335  24.789  1.00  0.00    -0.200 F 
ATOM     90  C   UNL A   1      43.196  24.639  25.547  1.00  0.00     0.200 A 
ATOM     91  F   UNL A   1      41.708  22.989  26.338  1.00  0.00    -0.200 F 
ATOM     92  F   UNL A   1      43.564  23.846  24.531  1.00  0.00    -0.200 F 
ENDBRANCH  58  82
BRANCH  70  93
ATOM     93  C   UNL A   1      44.868  27.502  34.075  1.00  0.00     0.064 A 
ATOM     94  C   UNL A   1      44.861  26.380  34.919  1.00  0.00     0.173 A 
ATOM     95  C   UNL A   1      46.085  28.169  33.884  1.00  0.00     0.173 A 
ATOM     96  F   UNL A   1      43.719  25.711  35.147  1.00  0.00    -0.203 F 
ATOM     97  C   UNL A   1      46.020  25.962  35.568  1.00  0.00     0.198 A 
ATOM     98  C   UNL A   1      47.250  27.730  34.508  1.00  0.00     0.198 A 
ATOM     99  F   UNL A   1      46.149  29.244  33.083  1.00  0.00    -0.203 F 
ATOM    100  F   UNL A   1      45.978  24.920  36.410  1.00  0.00    -0.200 F 
ATOM    101  C   UNL A   1      47.215  26.633  35.356  1.00  0.00     0.200 A 
ATOM    102  F   UNL A   1      48.406  28.372  34.293  1.00  0.00    -0.200 F 
ATOM    103  F   UNL A   1      48.332  26.229  35.977  1.00  0.00    -0.200 F 
ENDBRANCH  70  93
ENDBRANCH  44  45
ENDBRANCH  37  39
ENDBRANCH  36  37
ENDBRANCH  35  36
ENDBRANCH  34  35
ENDBRANCH  33  34
ENDBRANCH  32  33
ENDBRANCH   1  32
TORSDOF 23
ENDMDL
MODEL 2
REMARK VINA RESULT:     -11.6      4.552      8.114
REMARK SMILES C[C@@H](C(=O)OCCOCCOCCOC(=O)c1ccc(-c2c3nc(c(-c4c(F)c(F)c(F)c(F)c4F)c4ccc([nH]4)c(-c4c(F)c(F)c(F)c(F)c4F)c4nc(c(-c5c(F)c(F)c(F)c(F)c5F)c5ccc2[nH]5)C=C4)C=C3)cc1)c1ccc(C[C@H]2CCC[C@H]2O)cc1-c1ccc(O)cc1
REMARK SMILES IDX 9 1 8 2 7 3 6 4 5 5 3 6 4 7 2 8 1 9 80 10 81 11 92 12 82 13
REMARK SMILES IDX 91 14 83 15 93 16 94 17 99 18 95 19 98 20 96 21 97 22 84 24
REMARK SMILES IDX 85 25 86 26 89 27 87 28 88 29 90 30 10 32 11 33 12 34 13 35
REMARK SMILES IDX 14 36 15 37 16 38 17 39 18 40 79 41 19 42 78 43 20 44 21 45
REMARK SMILES IDX 22 46 72 47 23 48 77 49 71 50 73 51 24 52 76 53 70 54 69 55
REMARK SMILES IDX 25 57 57 58 37 59 56 60 38 61 41 62 55 63 74 64 39 65 40 66
REMARK SMILES IDX 54 68 75 69 42 70 26 71 27 72 35 73 28 74 29 75 33 76 36 77
REMARK SMILES IDX 30 78 31 79 34 80 32 81 58 82 59 83 67 84 60 85 61 86 65 87
REMARK SMILES IDX 68 88 62 89 63 90 66 91 64 92 43 93 44 94 52 95 45 96 46 97
REMARK SMILES IDX 50 98 53 99 47 100 48 101 51 102 49 103
REMARK H PARENT 97 23 90 31 73 56 41 67
REMARK Flexibility Score: inf
ROOT
ATOM      1  C   UNL A   1      33.622  33.166  28.146  1.00  0.00     0.188 C 
ENDROOT
BRANCH   1   2
ATOM      2  O   UNL A   1      34.711  32.400  27.652  1.00  0.00    -0.376 OA
BRANCH   2   3
ATOM      3  C   UNL A   1      34.691  30.985  27.820  1.00  0.00     0.202 C 
BRANCH   3   4
ATOM      4  C   UNL A   1      33.596  30.157  27.122  1.00  0.00     0.261 C 
BRANCH   4   5
ATOM      5  O   UNL A   1      33.443  28.796  27.593  1.00  0.00    -0.463 OA
BRANCH   5   6
ATOM      6  C   UNL A   1      32.305  28.142  27.226  1.00  0.00     0.313 C 
ATOM      7  O   UNL A   1      31.242  28.250  27.834  1.00  0.00    -0.252 OA
BRANCH   6   8
ATOM      8  C   UNL A   1      32.463  27.207  26.003  1.00  0.00     0.127 C 
ATOM      9  C   UNL A   1      33.826  27.028  25.333  1.00  0.00     0.025 C 
BRANCH   8  10
ATOM     10  C   UNL A   1      31.368  27.503  24.969  1.00  0.00    -0.026 A 
ATOM     11  C   UNL A   1      31.292  28.779  24.385  1.00  0.00     0.005 A 
ATOM     12  C   UNL A   1      30.371  26.561  24.634  1.00  0.00    -0.014 A 
ATOM     13  C   UNL A   1      30.196  29.156  23.617  1.00  0.00     0.004 A 
ATOM     14  C   UNL A   1      29.236  26.983  23.919  1.00  0.00     0.012 A 
ATOM     15  C   UNL A   1      29.110  28.298  23.478  1.00  0.00    -0.047 A 
BRANCH  12  16
ATOM     16  C   UNL A   1      30.530  25.135  24.921  1.00  0.00    -0.018 A 
ATOM     17  C   UNL A   1      31.113  24.314  23.941  1.00  0.00     0.012 A 
ATOM     18  C   UNL A   1      30.208  24.586  26.169  1.00  0.00     0.012 A 
ATOM     19  C   UNL A   1      31.426  22.988  24.224  1.00  0.00     0.047 A 
ATOM     20  C   UNL A   1      30.550  23.267  26.464  1.00  0.00     0.047 A 
ATOM     21  C   UNL A   1      31.166  22.485  25.491  1.00  0.00     0.115 A 
BRANCH  21  22
ATOM     22  O   UNL A   1      31.554  21.205  25.750  1.00  0.00    -0.508 OA
ATOM     23  H   UNL A   1      32.424  20.927  25.541  1.00  0.00     0.293 HD
ENDBRANCH  21  22
ENDBRANCH  12  16
BRANCH  15  24
ATOM     24  C   UNL A   1      27.802  28.818  22.957  1.00  0.00     0.041 C 
BRANCH  24  25
ATOM     25  C   UNL A   1      27.782  30.321  22.633  1.00  0.00     0.022 C 
ATOM     26  C   UNL A   1      28.519  31.276  23.576  1.00  0.00     0.007 C 
ATOM     27  C   UNL A   1      28.274  30.763  21.253  1.00  0.00     0.117 C 
ATOM     28  C   UNL A   1      28.783  32.544  22.740  1.00  0.00     0.003 C 
ATOM     29  C   UNL A   1      28.184  32.274  21.361  1.00  0.00     0.032 C 
BRANCH  27  30
ATOM     30  O   UNL A   1      29.605  30.453  20.882  1.00  0.00    -0.393 OA
ATOM     31  H   UNL A   1      29.744  30.686  19.951  1.00  0.00     0.210 HD
ENDBRANCH  27  30
ENDBRANCH  24  25
ENDBRANCH  15  24
ENDBRANCH   8  10
ENDBRANCH   6   8
ENDBRANCH   5   6
ENDBRANCH   4   5
ENDBRANCH   3   4
ENDBRANCH   2   3
ENDBRANCH   1   2
BRANCH   1  32
ATOM     32  C   UNL A   1      33.925  34.540  28.762  1.00  0.00     0.188 C 
BRANCH  32  33
ATOM     33  O   UNL A   1      33.515  34.696  30.095  1.00  0.00    -0.376 OA
BRANCH  33  34
ATOM     34  C   UNL A   1      34.416  34.410  31.144  1.00  0.00     0.202 C 
BRANCH  34  35
ATOM     35  C   UNL A   1      34.088  33.402  32.258  1.00  0.00     0.261 C 
BRANCH  35  36
ATOM     36  O   UNL A   1      34.899  32.222  32.372  1.00  0.00    -0.460 OA
BRANCH  36  37
ATOM     37  C   UNL A   1      36.077  32.329  33.033  1.00  0.00     0.338 C 
ATOM     38  O   UNL A   1      36.244  32.713  34.170  1.00  0.00    -0.246 OA
BRANCH  37  39
ATOM     39  C   UNL A   1      37.128  31.698  32.187  1.00  0.00     0.060 A 
ATOM     40  C   UNL A   1      38.126  30.927  32.796  1.00  0.00     0.016 A 
ATOM     41  C   UNL A   1      37.132  31.869  30.800  1.00  0.00     0.016 A 
ATOM     42  C   UNL A   1      39.136  30.347  32.017  1.00  0.00     0.010 A 
ATOM     43  C   UNL A   1      38.157  31.305  30.026  1.00  0.00     0.010 A 
ATOM     44  C   UNL A   1      39.176  30.551  30.626  1.00  0.00    -0.014 A 
BRANCH  44  45
ATOM     45  C   UNL A   1      40.373  30.126  29.845  1.00  0.00     0.031 A 
ATOM     46  C   UNL A   1      41.535  31.067  29.736  1.00  0.00     0.074 A 
ATOM     47  C   UNL A   1      40.423  28.970  29.154  1.00  0.00     0.049 A 
ATOM     48  N   UNL A   1      42.676  30.906  29.118  1.00  0.00    -0.248 NA
ATOM     49  C   UNL A   1      41.347  32.399  30.330  1.00  0.00     0.031 C 
ATOM     50  C   UNL A   1      39.306  28.059  28.977  1.00  0.00     0.029 A 
ATOM     51  N   UNL A   1      41.465  28.354  28.489  1.00  0.00    -0.354 N 
ATOM     52  C   UNL A   1      43.304  32.140  29.168  1.00  0.00     0.074 A 
ATOM     53  C   UNL A   1      42.438  33.025  29.918  1.00  0.00     0.031 C 
ATOM     54  C   UNL A   1      39.744  26.957  28.342  1.00  0.00     0.029 A 
ATOM     55  C   UNL A   1      41.175  27.064  28.095  1.00  0.00     0.049 A 
ATOM     56  H   UNL A   1      42.329  28.792  28.313  1.00  0.00     0.167 HD
ATOM     57  C   UNL A   1      44.469  32.514  28.586  1.00  0.00     0.037 A 
ATOM     58  C   UNL A   1      41.986  26.082  27.645  1.00  0.00     0.037 A 
ATOM     59  C   UNL A   1      45.313  31.642  27.810  1.00  0.00     0.049 A 
ATOM     60  C   UNL A   1      43.387  26.450  27.227  1.00  0.00     0.074 A 
ATOM     61  C   UNL A   1      46.508  31.939  27.176  1.00  0.00     0.029 A 
ATOM     62  N   UNL A   1      45.050  30.305  27.554  1.00  0.00    -0.354 N 
ATOM     63  N   UNL A   1      43.997  27.605  27.318  1.00  0.00    -0.248 NA
ATOM     64  C   UNL A   1      44.180  25.404  26.560  1.00  0.00     0.031 C 
ATOM     65  C   UNL A   1      46.944  30.794  26.501  1.00  0.00     0.029 A 
ATOM     66  C   UNL A   1      46.060  29.765  26.770  1.00  0.00     0.049 A 
ATOM     67  H   UNL A   1      44.263  29.811  27.879  1.00  0.00     0.167 HD
ATOM     68  C   UNL A   1      45.210  27.445  26.664  1.00  0.00     0.074 A 
ATOM     69  C   UNL A   1      45.298  26.055  26.272  1.00  0.00     0.031 C 
ATOM     70  C   UNL A   1      46.136  28.386  26.361  1.00  0.00     0.037 A 
BRANCH  57  71
ATOM     71  C   UNL A   1      44.851  33.960  28.704  1.00  0.00     0.064 A 
ATOM     72  C   UNL A   1      45.666  34.429  29.744  1.00  0.00     0.173 A 
ATOM     73  C   UNL A   1      44.389  34.890  27.759  1.00  0.00     0.173 A 
ATOM     74  F   UNL A   1      46.114  33.584  30.685  1.00  0.00    -0.203 F 
ATOM     75  C   UNL A   1      45.975  35.782  29.854  1.00  0.00     0.198 A 
ATOM     76  C   UNL A   1      44.731  36.236  27.851  1.00  0.00     0.198 A 
ATOM     77  F   UNL A   1      43.603  34.494  26.747  1.00  0.00    -0.203 F 
ATOM     78  F   UNL A   1      46.701  36.218  30.892  1.00  0.00    -0.200 F 
ATOM     79  C   UNL A   1      45.514  36.682  28.904  1.00  0.00     0.200 A 
ATOM     80  F   UNL A   1      44.296  37.100  26.926  1.00  0.00    -0.200 F 
ATOM     81  F   UNL A   1      45.817  37.983  29.010  1.00  0.00    -0.200 F 
ENDBRANCH  57  71
BRANCH  58  82
ATOM     82  C   UNL A   1      41.550  24.652  27.584  1.00  0.00     0.064 A 
ATOM     83  C   UNL A   1      42.156  23.696  28.424  1.00  0.00     0.173 A 
ATOM     84  C   UNL A   1      40.575  24.185  26.693  1.00  0.00     0.173 A 
ATOM     85  F   UNL A   1      43.118  24.072  29.280  1.00  0.00    -0.203 F 
ATOM     86  C   UNL A   1      41.819  22.344  28.359  1.00  0.00     0.198 A 
ATOM     87  C   UNL A   1      40.201  22.839  26.665  1.00  0.00     0.198 A 
ATOM     88  F   UNL A   1      39.974  25.034  25.849  1.00  0.00    -0.203 F 
ATOM     89  F   UNL A   1      42.466  21.455  29.126  1.00  0.00    -0.200 F 
ATOM     90  C   UNL A   1      40.831  21.918  27.488  1.00  0.00     0.200 A 
ATOM     91  F   UNL A   1      39.228  22.436  25.837  1.00  0.00    -0.200 F 
ATOM     92  F   UNL A   1      40.492  20.622  27.437  1.00  0.00    -0.200 F 
ENDBRANCH  58  82
BRANCH  70  93
ATOM     93  C   UNL A   1      47.313  27.950  25.535  1.00  0.00     0.064 A 
ATOM     94  C   UNL A   1      48.530  27.582  26.132  1.00  0.00     0.173 A 
ATOM     95  C   UNL A   1      47.216  27.868  24.140  1.00  0.00     0.173 A 
ATOM     96  F   UNL A   1      48.680  27.653  27.464  1.00  0.00    -0.203 F 
ATOM     97  C   UNL A   1      49.614  27.177  25.358  1.00  0.00     0.198 A 
ATOM     98  C   UNL A   1      48.292  27.432  23.372  1.00  0.00     0.198 A 
ATOM     99  F   UNL A   1      46.075  28.203  23.520  1.00  0.00    -0.203 F 
ATOM    100  F   UNL A   1      50.782  26.879  25.946  1.00  0.00    -0.200 F 
ATOM    101  C   UNL A   1      49.492  27.094  23.980  1.00  0.00     0.200 A 
ATOM    102  F   UNL A   1      48.169  27.341  22.041  1.00  0.00    -0.200 F 
ATOM    103  F   UNL A   1      50.535  26.700  23.235  1.00  0.00    -0.200 F 
ENDBRANCH  70  93
ENDBRANCH  44  45
ENDBRANCH  37  39
ENDBRANCH  36  37
ENDBRANCH  35  36
ENDBRANCH  34  35
ENDBRANCH  33  34
ENDBRANCH  32  33
ENDBRANCH   1  32
TORSDOF 23
ENDMDL
MODEL 3
REMARK VINA RESULT:     -11.0      0.803      2.014
REMARK SMILES C[C@@H](C(=O)OCCOCCOCCOC(=O)c1ccc(-c2c3nc(c(-c4c(F)c(F)c(F)c(F)c4F)c4ccc([nH]4)c(-c4c(F)c(F)c(F)c(F)c4F)c4nc(c(-c5c(F)c(F)c(F)c(F)c5F)c5ccc2[nH]5)C=C4)C=C3)cc1)c1ccc(C[C@H]2CCC[C@H]2O)cc1-c1ccc(O)cc1
REMARK SMILES IDX 9 1 8 2 7 3 6 4 5 5 3 6 4 7 2 8 1 9 80 10 81 11 92 12 82 13
REMARK SMILES IDX 91 14 83 15 93 16 94 17 99 18 95 19 98 20 96 21 97 22 84 24
REMARK SMILES IDX 85 25 86 26 89 27 87 28 88 29 90 30 10 32 11 33 12 34 13 35
REMARK SMILES IDX 14 36 15 37 16 38 17 39 18 40 79 41 19 42 78 43 20 44 21 45
REMARK SMILES IDX 22 46 72 47 23 48 77 49 71 50 73 51 24 52 76 53 70 54 69 55
REMARK SMILES IDX 25 57 57 58 37 59 56 60 38 61 41 62 55 63 74 64 39 65 40 66
REMARK SMILES IDX 54 68 75 69 42 70 26 71 27 72 35 73 28 74 29 75 33 76 36 77
REMARK SMILES IDX 30 78 31 79 34 80 32 81 58 82 59 83 67 84 60 85 61 86 65 87
REMARK SMILES IDX 68 88 62 89 63 90 66 91 64 92 43 93 44 94 52 95 45 96 46 97
REMARK SMILES IDX 50 98 53 99 47 100 48 101 51 102 49 103
REMARK H PARENT 97 23 90 31 73 56 41 67
REMARK Flexibility Score: inf
ROOT
ATOM      1  C   UNL A   1      30.452  27.695  22.760  1.00  0.00     0.188 C 
ENDROOT
BRANCH   1   2
ATOM      2  O   UNL A   1      29.730  26.702  23.473  1.00  0.00    -0.376 OA
BRANCH   2   3
ATOM      3  C   UNL A   1      30.331  25.426  23.680  1.00  0.00     0.202 C 
BRANCH   3   4
ATOM      4  C   UNL A   1      30.804  25.034  25.092  1.00  0.00     0.261 C 
BRANCH   4   5
ATOM      5  O   UNL A   1      32.094  24.381  25.162  1.00  0.00    -0.463 OA
BRANCH   5   6
ATOM      6  C   UNL A   1      33.154  25.054  24.632  1.00  0.00     0.313 C 
ATOM      7  O   UNL A   1      33.498  26.172  25.011  1.00  0.00    -0.252 OA
BRANCH   6   8
ATOM      8  C   UNL A   1      33.871  24.321  23.473  1.00  0.00     0.127 C 
ATOM      9  C   UNL A   1      33.719  24.811  22.032  1.00  0.00     0.025 C 
BRANCH   8  10
ATOM     10  C   UNL A   1      33.627  22.808  23.576  1.00  0.00    -0.026 A 
ATOM     11  C   UNL A   1      32.532  22.235  22.908  1.00  0.00     0.005 A 
ATOM     12  C   UNL A   1      34.420  21.969  24.389  1.00  0.00    -0.014 A 
ATOM     13  C   UNL A   1      32.149  20.921  23.148  1.00  0.00     0.004 A 
ATOM     14  C   UNL A   1      33.975  20.667  24.678  1.00  0.00     0.012 A 
ATOM     15  C   UNL A   1      32.799  20.168  24.121  1.00  0.00    -0.047 A 
BRANCH  12  16
ATOM     16  C   UNL A   1      35.743  22.379  24.859  1.00  0.00    -0.018 A 
ATOM     17  C   UNL A   1      35.863  23.597  25.550  1.00  0.00     0.012 A 
ATOM     18  C   UNL A   1      36.870  21.557  24.725  1.00  0.00     0.012 A 
ATOM     19  C   UNL A   1      37.067  23.956  26.148  1.00  0.00     0.047 A 
ATOM     20  C   UNL A   1      38.068  21.900  25.352  1.00  0.00     0.047 A 
ATOM     21  C   UNL A   1      38.150  23.092  26.067  1.00  0.00     0.115 A 
BRANCH  21  22
ATOM     22  O   UNL A   1      39.287  23.445  26.728  1.00  0.00    -0.508 OA
ATOM     23  H   UNL A   1      39.263  24.125  27.372  1.00  0.00     0.293 HD
ENDBRANCH  21  22
ENDBRANCH  12  16
BRANCH  15  24
ATOM     24  C   UNL A   1      32.182  18.897  24.627  1.00  0.00     0.041 C 
BRANCH  24  25
ATOM     25  C   UNL A   1      33.186  17.803  25.029  1.00  0.00     0.022 C 
ATOM     26  C   UNL A   1      32.635  16.459  25.514  1.00  0.00     0.007 C 
ATOM     27  C   UNL A   1      34.241  17.386  24.003  1.00  0.00     0.117 C 
ATOM     28  C   UNL A   1      33.787  15.455  25.310  1.00  0.00     0.003 C 
ATOM     29  C   UNL A   1      34.950  16.258  24.729  1.00  0.00     0.032 C 
BRANCH  27  30
ATOM     30  O   UNL A   1      33.804  16.869  22.760  1.00  0.00    -0.393 OA
ATOM     31  H   UNL A   1      33.177  17.488  22.354  1.00  0.00     0.210 HD
ENDBRANCH  27  30
ENDBRANCH  24  25
ENDBRANCH  15  24
ENDBRANCH   8  10
ENDBRANCH   6   8
ENDBRANCH   5   6
ENDBRANCH   4   5
ENDBRANCH   3   4
ENDBRANCH   2   3
ENDBRANCH   1   2
BRANCH   1  32
ATOM     32  C   UNL A   1      30.509  29.112  23.350  1.00  0.00     0.188 C 
BRANCH  32  33
ATOM     33  O   UNL A   1      31.109  29.206  24.614  1.00  0.00    -0.376 OA
BRANCH  33  34
ATOM     34  C   UNL A   1      31.181  30.456  25.265  1.00  0.00     0.202 C 
BRANCH  34  35
ATOM     35  C   UNL A   1      31.765  30.614  26.679  1.00  0.00     0.261 C 
BRANCH  35  36
ATOM     36  O   UNL A   1      33.192  30.567  26.838  1.00  0.00    -0.460 OA
BRANCH  36  37
ATOM     37  C   UNL A   1      33.793  31.622  27.441  1.00  0.00     0.338 C 
ATOM     38  O   UNL A   1      33.303  32.704  27.678  1.00  0.00    -0.246 OA
BRANCH  37  39
ATOM     39  C   UNL A   1      35.113  31.158  27.952  1.00  0.00     0.060 A 
ATOM     40  C   UNL A   1      35.323  29.790  28.159  1.00  0.00     0.016 A 
ATOM     41  C   UNL A   1      36.136  32.068  28.230  1.00  0.00     0.016 A 
ATOM     42  C   UNL A   1      36.551  29.338  28.663  1.00  0.00     0.010 A 
ATOM     43  C   UNL A   1      37.355  31.615  28.755  1.00  0.00     0.010 A 
ATOM     44  C   UNL A   1      37.571  30.249  28.990  1.00  0.00    -0.014 A 
BRANCH  44  45
ATOM     45  C   UNL A   1      38.776  29.783  29.735  1.00  0.00     0.031 A 
ATOM     46  C   UNL A   1      38.913  30.146  31.184  1.00  0.00     0.074 A 
ATOM     47  C   UNL A   1      39.793  29.127  29.144  1.00  0.00     0.049 A 
ATOM     48  N   UNL A   1      39.868  29.844  32.025  1.00  0.00    -0.248 NA
ATOM     49  C   UNL A   1      37.881  31.040  31.727  1.00  0.00     0.031 C 
ATOM     50  C   UNL A   1      39.915  28.897  27.715  1.00  0.00     0.029 A 
ATOM     51  N   UNL A   1      40.911  28.516  29.676  1.00  0.00    -0.354 N 
ATOM     52  C   UNL A   1      39.602  30.581  33.169  1.00  0.00     0.074 A 
ATOM     53  C   UNL A   1      38.372  31.306  32.928  1.00  0.00     0.031 C 
ATOM     54  C   UNL A   1      40.983  28.111  27.493  1.00  0.00     0.029 A 
ATOM     55  C   UNL A   1      41.605  27.753  28.760  1.00  0.00     0.049 A 
ATOM     56  H   UNL A   1      41.186  28.614  30.617  1.00  0.00     0.167 HD
ATOM     57  C   UNL A   1      40.351  30.689  34.292  1.00  0.00     0.037 A 
ATOM     58  C   UNL A   1      42.583  26.838  28.942  1.00  0.00     0.037 A 
ATOM     59  C   UNL A   1      41.593  29.994  34.516  1.00  0.00     0.049 A 
ATOM     60  C   UNL A   1      43.261  26.779  30.288  1.00  0.00     0.074 A 
ATOM     61  C   UNL A   1      42.424  30.051  35.623  1.00  0.00     0.029 A 
ATOM     62  N   UNL A   1      42.189  29.122  33.618  1.00  0.00    -0.354 N 
ATOM     63  N   UNL A   1      42.980  27.440  31.382  1.00  0.00    -0.248 NA
ATOM     64  C   UNL A   1      44.449  25.916  30.397  1.00  0.00     0.031 C 
ATOM     65  C   UNL A   1      43.543  29.248  35.375  1.00  0.00     0.029 A 
ATOM     66  C   UNL A   1      43.377  28.637  34.144  1.00  0.00     0.049 A 
ATOM     67  H   UNL A   1      41.823  28.884  32.735  1.00  0.00     0.167 HD
ATOM     68  C   UNL A   1      43.987  27.128  32.282  1.00  0.00     0.074 A 
ATOM     69  C   UNL A   1      44.829  26.137  31.647  1.00  0.00     0.031 C 
ATOM     70  C   UNL A   1      44.226  27.666  33.502  1.00  0.00     0.037 A 
BRANCH  57  71
ATOM     71  C   UNL A   1      39.880  31.663  35.330  1.00  0.00     0.064 A 
ATOM     72  C   UNL A   1      38.890  31.330  36.265  1.00  0.00     0.173 A 
ATOM     73  C   UNL A   1      40.428  32.955  35.385  1.00  0.00     0.173 A 
ATOM     74  F   UNL A   1      38.317  30.116  36.239  1.00  0.00    -0.203 F 
ATOM     75  C   UNL A   1      38.440  32.264  37.193  1.00  0.00     0.198 A 
ATOM     76  C   UNL A   1      40.003  33.874  36.340  1.00  0.00     0.198 A 
ATOM     77  F   UNL A   1      41.375  33.326  34.511  1.00  0.00    -0.203 F 
ATOM     78  F   UNL A   1      37.447  31.944  38.035  1.00  0.00    -0.200 F 
ATOM     79  C   UNL A   1      39.003  33.531  37.235  1.00  0.00     0.200 A 
ATOM     80  F   UNL A   1      40.556  35.093  36.386  1.00  0.00    -0.200 F 
ATOM     81  F   UNL A   1      38.572  34.428  38.134  1.00  0.00    -0.200 F 
ENDBRANCH  57  71
BRANCH  58  82
ATOM     82  C   UNL A   1      42.983  25.873  27.871  1.00  0.00     0.064 A 
ATOM     83  C   UNL A   1      42.419  24.582  27.844  1.00  0.00     0.173 A 
ATOM     84  C   UNL A   1      43.936  26.169  26.889  1.00  0.00     0.173 A 
ATOM     85  F   UNL A   1      41.521  24.223  28.774  1.00  0.00    -0.203 F 
ATOM     86  C   UNL A   1      42.806  23.632  26.897  1.00  0.00     0.198 A 
ATOM     87  C   UNL A   1      44.284  25.236  25.909  1.00  0.00     0.198 A 
ATOM     88  F   UNL A   1      44.531  27.370  26.869  1.00  0.00    -0.203 F 
ATOM     89  F   UNL A   1      42.297  22.393  26.945  1.00  0.00    -0.200 F 
ATOM     90  C   UNL A   1      43.729  23.965  25.921  1.00  0.00     0.200 A 
ATOM     91  F   UNL A   1      45.161  25.570  24.953  1.00  0.00    -0.200 F 
ATOM     92  F   UNL A   1      44.089  23.061  24.999  1.00  0.00    -0.200 F 
ENDBRANCH  58  82
BRANCH  70  93
ATOM     93  C   UNL A   1      45.468  27.219  34.220  1.00  0.00     0.064 A 
ATOM     94  C   UNL A   1      46.689  27.894  34.060  1.00  0.00     0.173 A 
ATOM     95  C   UNL A   1      45.433  26.129  35.099  1.00  0.00     0.173 A 
ATOM     96  F   UNL A   1      46.781  28.938  33.220  1.00  0.00    -0.203 F 
ATOM     97  C   UNL A   1      47.834  27.475  34.732  1.00  0.00     0.198 A 
ATOM     98  C   UNL A   1      46.572  25.732  35.794  1.00  0.00     0.198 A 
ATOM     99  F   UNL A   1      44.291  25.452  35.293  1.00  0.00    -0.203 F 
ATOM    100  F   UNL A   1      49.000  28.102  34.523  1.00  0.00    -0.200 F 
ATOM    101  C   UNL A   1      47.773  26.399  35.604  1.00  0.00     0.200 A 
ATOM    102  F   UNL A   1      46.508  24.700  36.646  1.00  0.00    -0.200 F 
ATOM    103  F   UNL A   1      48.874  25.997  36.254  1.00  0.00    -0.200 F 
ENDBRANCH  70  93
ENDBRANCH  44  45
ENDBRANCH  37  39
ENDBRANCH  36  37
ENDBRANCH  35  36
ENDBRANCH  34  35
ENDBRANCH  33  34
ENDBRANCH  32  33
ENDBRANCH   1  32
TORSDOF 23
ENDMDL
