MODEL 1
REMARK VINA RESULT:     -10.5      0.000      0.000
REMARK SMILES C[NH2+][C@@]1(C(=O)OCCOCCOCCOC(=O)c2ccc(-c3c4nc(c(-c5c(F)c(F)c(F)c(F)c5F)c5ccc([nH]5)c(-c5c(F)c(F)c(F)c(F)c5F)c5nc(c(-c6c(F)c(F)c(F)c(F)c6F)c6ccc3[nH]6)C=C5)C=C4)cc2)CC[C@H]([NH+]2CC[NH+](C)CC2)C1
REMARK SMILES IDX 11 1 10 2 9 3 8 4 7 5 6 6 4 7 5 8 3 9 81 10 91 11 82 12
REMARK SMILES IDX 83 13 2 14 1 15 84 18 85 19 90 20 86 22 89 23 87 24 88 25
REMARK SMILES IDX 12 27 13 28 14 29 15 30 16 31 17 32 18 33 19 34 80 35 20 36
REMARK SMILES IDX 79 37 21 38 22 39 23 40 73 41 24 42 78 43 72 44 74 45 25 46
REMARK SMILES IDX 77 47 71 48 70 49 26 51 58 52 38 53 57 54 39 55 42 56 56 57
REMARK SMILES IDX 75 58 40 59 41 60 55 62 76 63 43 64 27 65 28 66 36 67 29 68
REMARK SMILES IDX 30 69 34 70 37 71 31 72 32 73 35 74 33 75 59 76 60 77 68 78
REMARK SMILES IDX 61 79 62 80 66 81 69 82 63 83 64 84 67 85 65 86 44 87 45 88
REMARK SMILES IDX 53 89 46 90 47 91 51 92 54 93 48 94 49 95 52 96 50 97
REMARK H PARENT 2 16 2 17 84 21 87 26 74 50 42 61
REMARK Flexibility Score: inf
ROOT
ATOM      1  C   UNL A   1      40.071  19.951  25.761  1.00  0.00     0.188 C 
ENDROOT
BRANCH   1   2
ATOM      2  C   UNL A   1      39.611  21.316  26.280  1.00  0.00     0.188 C 
BRANCH   2   3
ATOM      3  O   UNL A   1      38.451  21.904  25.716  1.00  0.00    -0.376 OA
BRANCH   3   4
ATOM      4  C   UNL A   1      38.169  23.268  26.022  1.00  0.00     0.202 C 
BRANCH   4   5
ATOM      5  C   UNL A   1      36.735  23.732  25.752  1.00  0.00     0.261 C 
BRANCH   5   6
ATOM      6  O   UNL A   1      35.917  22.627  25.310  1.00  0.00    -0.459 OA
BRANCH   6   7
ATOM      7  C   UNL A   1      34.631  22.650  25.741  1.00  0.00     0.368 C 
ATOM      8  O   UNL A   1      34.323  22.902  26.904  1.00  0.00    -0.245 OA
BRANCH   7   9
ATOM      9  C   UNL A   1      33.564  22.447  24.612  1.00  0.00     0.200 C 
ATOM     10  C   UNL A   1      34.047  23.219  23.369  1.00  0.00     0.087 C 
ATOM     11  C   UNL A   1      32.148  23.031  24.786  1.00  0.00     0.146 C 
ATOM     12  C   UNL A   1      33.536  24.640  23.580  1.00  0.00     0.072 C 
ATOM     13  C   UNL A   1      32.167  24.482  24.251  1.00  0.00     0.191 C 
BRANCH   9  14
ATOM     14  N   UNL A   1      33.543  20.998  24.263  1.00  0.00    -0.334 N 
ATOM     15  C   UNL A   1      32.685  20.182  25.108  1.00  0.00     0.331 C 
ATOM     16  H   UNL A   1      33.218  20.908  23.300  1.00  0.00     0.347 HD
ATOM     17  H   UNL A   1      34.493  20.655  24.399  1.00  0.00     0.347 HD
ENDBRANCH   9  14
BRANCH  13  18
ATOM     18  N   UNL A   1      31.663  25.512  25.169  1.00  0.00    -0.323 N 
ATOM     19  C   UNL A   1      30.201  25.689  25.166  1.00  0.00     0.324 C 
ATOM     20  C   UNL A   1      32.283  26.843  25.136  1.00  0.00     0.324 C 
ATOM     21  H   UNL A   1      31.968  25.076  26.040  1.00  0.00     0.348 HD
ATOM     22  C   UNL A   1      29.647  26.615  24.055  1.00  0.00     0.324 C 
ATOM     23  C   UNL A   1      31.829  27.742  23.973  1.00  0.00     0.324 C 
ATOM     24  N   UNL A   1      30.369  27.891  23.874  1.00  0.00    -0.328 N 
ATOM     25  C   UNL A   1      30.009  28.504  22.594  1.00  0.00     0.333 C 
ATOM     26  H   UNL A   1      30.081  28.502  24.638  1.00  0.00     0.348 HD
ENDBRANCH  13  18
ENDBRANCH   7   9
ENDBRANCH   6   7
ENDBRANCH   5   6
ENDBRANCH   4   5
ENDBRANCH   3   4
ENDBRANCH   2   3
ENDBRANCH   1   2
BRANCH   1  27
ATOM     27  O   UNL A   1      41.430  19.555  25.796  1.00  0.00    -0.376 OA
BRANCH  27  28
ATOM     28  C   UNL A   1      42.357  20.342  26.525  1.00  0.00     0.202 C 
BRANCH  28  29
ATOM     29  C   UNL A   1      43.419  21.107  25.731  1.00  0.00     0.261 C 
BRANCH  29  30
ATOM     30  O   UNL A   1      43.711  22.396  26.287  1.00  0.00    -0.460 OA
BRANCH  30  31
ATOM     31  C   UNL A   1      43.392  23.452  25.498  1.00  0.00     0.338 C 
ATOM     32  O   UNL A   1      43.422  23.511  24.281  1.00  0.00    -0.246 OA
BRANCH  31  33
ATOM     33  C   UNL A   1      42.777  24.497  26.342  1.00  0.00     0.060 A 
ATOM     34  C   UNL A   1      43.354  25.777  26.331  1.00  0.00     0.016 A 
ATOM     35  C   UNL A   1      41.642  24.235  27.110  1.00  0.00     0.016 A 
ATOM     36  C   UNL A   1      42.809  26.796  27.107  1.00  0.00     0.010 A 
ATOM     37  C   UNL A   1      41.116  25.247  27.914  1.00  0.00     0.010 A 
ATOM     38  C   UNL A   1      41.716  26.519  27.937  1.00  0.00    -0.014 A 
BRANCH  38  39
ATOM     39  C   UNL A   1      41.350  27.473  29.005  1.00  0.00     0.031 A 
ATOM     40  C   UNL A   1      42.140  27.429  30.281  1.00  0.00     0.074 A 
ATOM     41  C   UNL A   1      40.342  28.348  28.854  1.00  0.00     0.049 A 
ATOM     42  N   UNL A   1      41.968  28.095  31.393  1.00  0.00    -0.248 NA
ATOM     43  C   UNL A   1      43.284  26.500  30.305  1.00  0.00     0.031 C 
ATOM     44  C   UNL A   1      39.538  28.518  27.647  1.00  0.00     0.029 A 
ATOM     45  N   UNL A   1      39.815  29.253  29.743  1.00  0.00    -0.354 N 
ATOM     46  C   UNL A   1      42.977  27.667  32.244  1.00  0.00     0.074 A 
ATOM     47  C   UNL A   1      43.745  26.668  31.533  1.00  0.00     0.031 C 
ATOM     48  C   UNL A   1      38.602  29.456  27.878  1.00  0.00     0.029 A 
ATOM     49  C   UNL A   1      38.722  29.925  29.258  1.00  0.00     0.049 A 
ATOM     50  H   UNL A   1      40.187  29.404  30.642  1.00  0.00     0.167 HD
ATOM     51  C   UNL A   1      43.242  28.072  33.507  1.00  0.00     0.037 A 
ATOM     52  C   UNL A   1      37.901  30.797  29.876  1.00  0.00     0.037 A 
ATOM     53  C   UNL A   1      42.463  29.046  34.220  1.00  0.00     0.049 A 
ATOM     54  C   UNL A   1      38.160  31.161  31.317  1.00  0.00     0.074 A 
ATOM     55  C   UNL A   1      42.642  29.521  35.506  1.00  0.00     0.029 A 
ATOM     56  N   UNL A   1      41.344  29.685  33.708  1.00  0.00    -0.354 N 
ATOM     57  N   UNL A   1      39.126  30.769  32.112  1.00  0.00    -0.248 NA
ATOM     58  C   UNL A   1      37.208  32.089  31.947  1.00  0.00     0.031 C 
ATOM     59  C   UNL A   1      41.602  30.412  35.790  1.00  0.00     0.029 A 
ATOM     60  C   UNL A   1      40.806  30.532  34.661  1.00  0.00     0.049 A 
ATOM     61  H   UNL A   1      40.985  29.555  32.800  1.00  0.00     0.167 HD
ATOM     62  C   UNL A   1      38.918  31.424  33.321  1.00  0.00     0.074 A 
ATOM     63  C   UNL A   1      37.738  32.246  33.151  1.00  0.00     0.031 C 
ATOM     64  C   UNL A   1      39.639  31.353  34.468  1.00  0.00     0.037 A 
BRANCH  51  65
ATOM     65  C   UNL A   1      44.402  27.428  34.203  1.00  0.00     0.064 A 
ATOM     66  C   UNL A   1      44.266  26.213  34.889  1.00  0.00     0.173 A 
ATOM     67  C   UNL A   1      45.667  28.033  34.177  1.00  0.00     0.173 A 
ATOM     68  F   UNL A   1      43.070  25.609  34.959  1.00  0.00    -0.203 F 
ATOM     69  C   UNL A   1      45.350  25.637  35.545  1.00  0.00     0.198 A 
ATOM     70  C   UNL A   1      46.756  27.441  34.812  1.00  0.00     0.198 A 
ATOM     71  F   UNL A   1      45.848  29.199  33.540  1.00  0.00    -0.203 F 
ATOM     72  F   UNL A   1      45.187  24.500  36.235  1.00  0.00    -0.200 F 
ATOM     73  C   UNL A   1      46.595  26.248  35.502  1.00  0.00     0.200 A 
ATOM     74  F   UNL A   1      47.958  28.030  34.764  1.00  0.00    -0.200 F 
ATOM     75  F   UNL A   1      47.638  25.692  36.132  1.00  0.00    -0.200 F 
ENDBRANCH  51  65
BRANCH  52  76
ATOM     76  C   UNL A   1      36.738  31.372  29.151  1.00  0.00     0.064 A 
ATOM     77  C   UNL A   1      36.734  32.711  28.738  1.00  0.00     0.173 A 
ATOM     78  C   UNL A   1      35.591  30.606  28.891  1.00  0.00     0.173 A 
ATOM     79  F   UNL A   1      37.794  33.491  28.990  1.00  0.00    -0.203 F 
ATOM     80  C   UNL A   1      35.620  33.269  28.112  1.00  0.00     0.198 A 
ATOM     81  C   UNL A   1      34.489  31.157  28.240  1.00  0.00     0.198 A 
ATOM     82  F   UNL A   1      35.541  29.321  29.270  1.00  0.00    -0.203 F 
ATOM     83  F   UNL A   1      35.623  34.566  27.776  1.00  0.00    -0.200 F 
ATOM     84  C   UNL A   1      34.500  32.490  27.860  1.00  0.00     0.200 A 
ATOM     85  F   UNL A   1      33.413  30.398  27.992  1.00  0.00    -0.200 F 
ATOM     86  F   UNL A   1      33.429  33.027  27.262  1.00  0.00    -0.200 F 
ENDBRANCH  52  76
BRANCH  64  87
ATOM     87  C   UNL A   1      39.203  32.215  35.615  1.00  0.00     0.064 A 
ATOM     88  C   UNL A   1      38.368  31.726  36.631  1.00  0.00     0.173 A 
ATOM     89  C   UNL A   1      39.673  33.533  35.729  1.00  0.00     0.173 A 
ATOM     90  F   UNL A   1      37.882  30.477  36.561  1.00  0.00    -0.203 F 
ATOM     91  C   UNL A   1      38.005  32.531  37.708  1.00  0.00     0.198 A 
ATOM     92  C   UNL A   1      39.332  34.325  36.821  1.00  0.00     0.198 A 
ATOM     93  F   UNL A   1      40.481  34.045  34.789  1.00  0.00    -0.203 F 
ATOM     94  F   UNL A   1      37.174  32.056  38.646  1.00  0.00    -0.200 F 
ATOM     95  C   UNL A   1      38.494  33.825  37.807  1.00  0.00     0.200 A 
ATOM     96  F   UNL A   1      39.817  35.569  36.923  1.00  0.00    -0.200 F 
ATOM     97  F   UNL A   1      38.152  34.594  38.849  1.00  0.00    -0.200 F 
ENDBRANCH  64  87
ENDBRANCH  38  39
ENDBRANCH  31  33
ENDBRANCH  30  31
ENDBRANCH  29  30
ENDBRANCH  28  29
ENDBRANCH  27  28
ENDBRANCH   1  27
TORSDOF 19
ENDMDL
MODEL 2
REMARK VINA RESULT:     -10.4      3.252      8.257
REMARK SMILES C[NH2+][C@@]1(C(=O)OCCOCCOCCOC(=O)c2ccc(-c3c4nc(c(-c5c(F)c(F)c(F)c(F)c5F)c5ccc([nH]5)c(-c5c(F)c(F)c(F)c(F)c5F)c5nc(c(-c6c(F)c(F)c(F)c(F)c6F)c6ccc3[nH]6)C=C5)C=C4)cc2)CC[C@H]([NH+]2CC[NH+](C)CC2)C1
REMARK SMILES IDX 11 1 10 2 9 3 8 4 7 5 6 6 4 7 5 8 3 9 81 10 91 11 82 12
REMARK SMILES IDX 83 13 2 14 1 15 84 18 85 19 90 20 86 22 89 23 87 24 88 25
REMARK SMILES IDX 12 27 13 28 14 29 15 30 16 31 17 32 18 33 19 34 80 35 20 36
REMARK SMILES IDX 79 37 21 38 22 39 23 40 73 41 24 42 78 43 72 44 74 45 25 46
REMARK SMILES IDX 77 47 71 48 70 49 26 51 58 52 38 53 57 54 39 55 42 56 56 57
REMARK SMILES IDX 75 58 40 59 41 60 55 62 76 63 43 64 27 65 28 66 36 67 29 68
REMARK SMILES IDX 30 69 34 70 37 71 31 72 32 73 35 74 33 75 59 76 60 77 68 78
REMARK SMILES IDX 61 79 62 80 66 81 69 82 63 83 64 84 67 85 65 86 44 87 45 88
REMARK SMILES IDX 53 89 46 90 47 91 51 92 54 93 48 94 49 95 52 96 50 97
REMARK H PARENT 2 16 2 17 84 21 87 26 74 50 42 61
REMARK Flexibility Score: inf
ROOT
ATOM      1  C   UNL A   1      32.573  28.858  23.750  1.00  0.00     0.188 C 
ENDROOT
BRANCH   1   2
ATOM      2  C   UNL A   1      32.353  27.972  22.520  1.00  0.00     0.188 C 
BRANCH   2   3
ATOM      3  O   UNL A   1      33.335  27.001  22.196  1.00  0.00    -0.376 OA
BRANCH   3   4
ATOM      4  C   UNL A   1      32.903  25.773  21.615  1.00  0.00     0.202 C 
BRANCH   4   5
ATOM      5  C   UNL A   1      33.184  24.510  22.433  1.00  0.00     0.261 C 
BRANCH   5   6
ATOM      6  O   UNL A   1      32.136  24.286  23.402  1.00  0.00    -0.459 OA
BRANCH   6   7
ATOM      7  C   UNL A   1      32.539  24.264  24.697  1.00  0.00     0.368 C 
ATOM      8  O   UNL A   1      32.898  25.274  25.299  1.00  0.00    -0.245 OA
BRANCH   7   9
ATOM      9  C   UNL A   1      32.396  22.872  25.398  1.00  0.00     0.200 C 
ATOM     10  C   UNL A   1      33.042  22.981  26.793  1.00  0.00     0.087 C 
ATOM     11  C   UNL A   1      33.141  21.649  24.828  1.00  0.00     0.146 C 
ATOM     12  C   UNL A   1      34.521  22.695  26.551  1.00  0.00     0.072 C 
ATOM     13  C   UNL A   1      34.550  21.615  25.463  1.00  0.00     0.191 C 
BRANCH   9  14
ATOM     14  N   UNL A   1      30.942  22.610  25.596  1.00  0.00    -0.334 N 
ATOM     15  C   UNL A   1      30.350  23.298  26.733  1.00  0.00     0.331 C 
ATOM     16  H   UNL A   1      30.448  22.907  24.753  1.00  0.00     0.347 HD
ATOM     17  H   UNL A   1      30.851  21.612  25.782  1.00  0.00     0.347 HD
ENDBRANCH   9  14
BRANCH  13  18
ATOM     18  N   UNL A   1      35.677  21.534  24.524  1.00  0.00    -0.323 N 
ATOM     19  C   UNL A   1      36.879  20.866  25.049  1.00  0.00     0.324 C 
ATOM     20  C   UNL A   1      36.101  22.758  23.832  1.00  0.00     0.324 C 
ATOM     21  H   UNL A   1      35.223  20.951  23.820  1.00  0.00     0.348 HD
ATOM     22  C   UNL A   1      37.828  21.765  25.881  1.00  0.00     0.324 C 
ATOM     23  C   UNL A   1      36.952  23.720  24.677  1.00  0.00     0.324 C 
ATOM     24  N   UNL A   1      38.129  23.086  25.293  1.00  0.00    -0.328 N 
ATOM     25  C   UNL A   1      38.712  23.972  26.301  1.00  0.00     0.333 C 
ATOM     26  H   UNL A   1      38.805  22.927  24.546  1.00  0.00     0.348 HD
ENDBRANCH  13  18
ENDBRANCH   7   9
ENDBRANCH   6   7
ENDBRANCH   5   6
ENDBRANCH   4   5
ENDBRANCH   3   4
ENDBRANCH   2   3
ENDBRANCH   1   2
BRANCH   1  27
ATOM     27  O   UNL A   1      31.510  29.216  24.613  1.00  0.00    -0.376 OA
BRANCH  27  28
ATOM     28  C   UNL A   1      31.691  29.098  26.015  1.00  0.00     0.202 C 
BRANCH  28  29
ATOM     29  C   UNL A   1      31.938  30.383  26.810  1.00  0.00     0.261 C 
BRANCH  29  30
ATOM     30  O   UNL A   1      33.183  31.013  26.479  1.00  0.00    -0.460 OA
BRANCH  30  31
ATOM     31  C   UNL A   1      33.592  31.975  27.344  1.00  0.00     0.338 C 
ATOM     32  O   UNL A   1      32.956  32.931  27.753  1.00  0.00    -0.246 OA
BRANCH  31  33
ATOM     33  C   UNL A   1      34.896  31.572  27.909  1.00  0.00     0.060 A 
ATOM     34  C   UNL A   1      35.069  30.227  28.273  1.00  0.00     0.016 A 
ATOM     35  C   UNL A   1      35.939  32.488  28.054  1.00  0.00     0.016 A 
ATOM     36  C   UNL A   1      36.281  29.798  28.808  1.00  0.00     0.010 A 
ATOM     37  C   UNL A   1      37.142  32.066  28.621  1.00  0.00     0.010 A 
ATOM     38  C   UNL A   1      37.304  30.729  29.026  1.00  0.00    -0.014 A 
BRANCH  38  39
ATOM     39  C   UNL A   1      38.446  30.369  29.894  1.00  0.00     0.031 A 
ATOM     40  C   UNL A   1      39.456  29.398  29.351  1.00  0.00     0.074 A 
ATOM     41  C   UNL A   1      38.581  30.878  31.129  1.00  0.00     0.049 A 
ATOM     42  N   UNL A   1      40.492  28.859  29.937  1.00  0.00    -0.248 NA
ATOM     43  C   UNL A   1      39.265  28.976  27.952  1.00  0.00     0.031 C 
ATOM     44  C   UNL A   1      37.695  31.863  31.743  1.00  0.00     0.029 A 
ATOM     45  N   UNL A   1      39.520  30.616  32.096  1.00  0.00    -0.354 N 
ATOM     46  C   UNL A   1      41.076  28.038  28.981  1.00  0.00     0.074 A 
ATOM     47  C   UNL A   1      40.267  28.129  27.785  1.00  0.00     0.031 C 
ATOM     48  C   UNL A   1      38.120  32.107  32.996  1.00  0.00     0.029 A 
ATOM     49  C   UNL A   1      39.286  31.270  33.279  1.00  0.00     0.049 A 
ATOM     50  H   UNL A   1      40.287  30.016  31.954  1.00  0.00     0.167 HD
ATOM     51  C   UNL A   1      42.188  27.277  29.090  1.00  0.00     0.037 A 
ATOM     52  C   UNL A   1      39.929  31.176  34.460  1.00  0.00     0.037 A 
ATOM     53  C   UNL A   1      42.975  27.168  30.287  1.00  0.00     0.049 A 
ATOM     54  C   UNL A   1      41.110  30.246  34.585  1.00  0.00     0.074 A 
ATOM     55  C   UNL A   1      44.116  26.418  30.504  1.00  0.00     0.029 A 
ATOM     56  N   UNL A   1      42.691  27.822  31.476  1.00  0.00    -0.354 N 
ATOM     57  N   UNL A   1      41.670  29.486  33.674  1.00  0.00    -0.248 NA
ATOM     58  C   UNL A   1      41.748  30.159  35.907  1.00  0.00     0.031 C 
ATOM     59  C   UNL A   1      44.495  26.581  31.841  1.00  0.00     0.029 A 
ATOM     60  C   UNL A   1      43.621  27.474  32.440  1.00  0.00     0.049 A 
ATOM     61  H   UNL A   1      41.939  28.443  31.614  1.00  0.00     0.167 HD
ATOM     62  C   UNL A   1      42.739  28.858  34.302  1.00  0.00     0.074 A 
ATOM     63  C   UNL A   1      42.756  29.332  35.669  1.00  0.00     0.031 C 
ATOM     64  C   UNL A   1      43.629  27.969  33.793  1.00  0.00     0.037 A 
BRANCH  51  65
ATOM     65  C   UNL A   1      42.588  26.475  27.889  1.00  0.00     0.064 A 
ATOM     66  C   UNL A   1      42.071  25.193  27.655  1.00  0.00     0.173 A 
ATOM     67  C   UNL A   1      43.498  26.999  26.959  1.00  0.00     0.173 A 
ATOM     68  F   UNL A   1      41.215  24.641  28.528  1.00  0.00    -0.203 F 
ATOM     69  C   UNL A   1      42.467  24.455  26.543  1.00  0.00     0.198 A 
ATOM     70  C   UNL A   1      43.872  26.269  25.835  1.00  0.00     0.198 A 
ATOM     71  F   UNL A   1      44.026  28.219  27.142  1.00  0.00    -0.203 F 
ATOM     72  F   UNL A   1      41.997  23.213  26.364  1.00  0.00    -0.200 F 
ATOM     73  C   UNL A   1      43.362  24.995  25.632  1.00  0.00     0.200 A 
ATOM     74  F   UNL A   1      44.732  26.795  24.953  1.00  0.00    -0.200 F 
ATOM     75  F   UNL A   1      43.742  24.284  24.561  1.00  0.00    -0.200 F 
ENDBRANCH  51  65
BRANCH  52  76
ATOM     76  C   UNL A   1      39.461  31.962  35.631  1.00  0.00     0.064 A 
ATOM     77  C   UNL A   1      40.015  33.214  35.930  1.00  0.00     0.173 A 
ATOM     78  C   UNL A   1      38.479  31.459  36.499  1.00  0.00     0.173 A 
ATOM     79  F   UNL A   1      40.977  33.722  35.147  1.00  0.00    -0.203 F 
ATOM     80  C   UNL A   1      39.621  33.925  37.062  1.00  0.00     0.198 A 
ATOM     81  C   UNL A   1      38.066  32.183  37.615  1.00  0.00     0.198 A 
ATOM     82  F   UNL A   1      37.921  30.264  36.262  1.00  0.00    -0.203 F 
ATOM     83  F   UNL A   1      40.206  35.095  37.353  1.00  0.00    -0.200 F 
ATOM     84  C   UNL A   1      38.644  33.410  37.902  1.00  0.00     0.200 A 
ATOM     85  F   UNL A   1      37.117  31.686  38.419  1.00  0.00    -0.200 F 
ATOM     86  F   UNL A   1      38.268  34.092  38.993  1.00  0.00    -0.200 F 
ENDBRANCH  52  76
BRANCH  64  87
ATOM     87  C   UNL A   1      44.720  27.483  34.700  1.00  0.00     0.064 A 
ATOM     88  C   UNL A   1      45.934  28.173  34.830  1.00  0.00     0.173 A 
ATOM     89  C   UNL A   1      44.525  26.342  35.494  1.00  0.00     0.173 A 
ATOM     90  F   UNL A   1      46.174  29.262  34.083  1.00  0.00    -0.203 F 
ATOM     91  C   UNL A   1      46.920  27.727  35.706  1.00  0.00     0.198 A 
ATOM     92  C   UNL A   1      45.501  25.916  36.390  1.00  0.00     0.198 A 
ATOM     93  F   UNL A   1      43.377  25.652  35.414  1.00  0.00    -0.203 F 
ATOM     94  F   UNL A   1      48.089  28.378  35.784  1.00  0.00    -0.200 F 
ATOM     95  C   UNL A   1      46.699  26.605  36.492  1.00  0.00     0.200 A 
ATOM     96  F   UNL A   1      45.279  24.841  37.158  1.00  0.00    -0.200 F 
ATOM     97  F   UNL A   1      47.645  26.184  37.342  1.00  0.00    -0.200 F 
ENDBRANCH  64  87
ENDBRANCH  38  39
ENDBRANCH  31  33
ENDBRANCH  30  31
ENDBRANCH  29  30
ENDBRANCH  28  29
ENDBRANCH  27  28
ENDBRANCH   1  27
TORSDOF 19
ENDMDL
MODEL 3
REMARK VINA RESULT:     -10.3      3.301      8.704
REMARK SMILES C[NH2+][C@@]1(C(=O)OCCOCCOCCOC(=O)c2ccc(-c3c4nc(c(-c5c(F)c(F)c(F)c(F)c5F)c5ccc([nH]5)c(-c5c(F)c(F)c(F)c(F)c5F)c5nc(c(-c6c(F)c(F)c(F)c(F)c6F)c6ccc3[nH]6)C=C5)C=C4)cc2)CC[C@H]([NH+]2CC[NH+](C)CC2)C1
REMARK SMILES IDX 11 1 10 2 9 3 8 4 7 5 6 6 4 7 5 8 3 9 81 10 91 11 82 12
REMARK SMILES IDX 83 13 2 14 1 15 84 18 85 19 90 20 86 22 89 23 87 24 88 25
REMARK SMILES IDX 12 27 13 28 14 29 15 30 16 31 17 32 18 33 19 34 80 35 20 36
REMARK SMILES IDX 79 37 21 38 22 39 23 40 73 41 24 42 78 43 72 44 74 45 25 46
REMARK SMILES IDX 77 47 71 48 70 49 26 51 58 52 38 53 57 54 39 55 42 56 56 57
REMARK SMILES IDX 75 58 40 59 41 60 55 62 76 63 43 64 27 65 28 66 36 67 29 68
REMARK SMILES IDX 30 69 34 70 37 71 31 72 32 73 35 74 33 75 59 76 60 77 68 78
REMARK SMILES IDX 61 79 62 80 66 81 69 82 63 83 64 84 67 85 65 86 44 87 45 88
REMARK SMILES IDX 53 89 46 90 47 91 51 92 54 93 48 94 49 95 52 96 50 97
REMARK H PARENT 2 16 2 17 84 21 87 26 74 50 42 61
REMARK Flexibility Score: inf
ROOT
ATOM      1  C   UNL A   1      32.854  30.360  27.402  1.00  0.00     0.188 C 
ENDROOT
BRANCH   1   2
ATOM      2  C   UNL A   1      34.342  30.105  27.140  1.00  0.00     0.188 C 
BRANCH   2   3
ATOM      3  O   UNL A   1      34.742  28.825  26.680  1.00  0.00    -0.376 OA
BRANCH   3   4
ATOM      4  C   UNL A   1      33.780  28.018  26.004  1.00  0.00     0.202 C 
BRANCH   4   5
ATOM      5  C   UNL A   1      33.640  28.262  24.500  1.00  0.00     0.261 C 
BRANCH   5   6
ATOM      6  O   UNL A   1      33.495  27.012  23.792  1.00  0.00    -0.459 OA
BRANCH   6   7
ATOM      7  C   UNL A   1      32.221  26.662  23.486  1.00  0.00     0.368 C 
ATOM      8  O   UNL A   1      31.323  27.488  23.334  1.00  0.00    -0.245 OA
BRANCH   7   9
ATOM      9  C   UNL A   1      32.012  25.133  23.224  1.00  0.00     0.200 C 
ATOM     10  C   UNL A   1      30.790  24.679  24.046  1.00  0.00     0.087 C 
ATOM     11  C   UNL A   1      33.075  24.124  23.701  1.00  0.00     0.146 C 
ATOM     12  C   UNL A   1      31.358  24.353  25.424  1.00  0.00     0.072 C 
ATOM     13  C   UNL A   1      32.733  23.731  25.156  1.00  0.00     0.191 C 
BRANCH   9  14
ATOM     14  N   UNL A   1      31.672  24.962  21.782  1.00  0.00    -0.334 N 
ATOM     15  C   UNL A   1      32.718  25.375  20.858  1.00  0.00     0.331 C 
ATOM     16  H   UNL A   1      31.474  23.975  21.617  1.00  0.00     0.347 HD
ATOM     17  H   UNL A   1      30.871  25.567  21.601  1.00  0.00     0.347 HD
ENDBRANCH   9  14
BRANCH  13  18
ATOM     18  N   UNL A   1      33.821  23.876  26.134  1.00  0.00    -0.323 N 
ATOM     19  C   UNL A   1      35.130  24.230  25.561  1.00  0.00     0.324 C 
ATOM     20  C   UNL A   1      34.027  22.804  27.116  1.00  0.00     0.324 C 
ATOM     21  H   UNL A   1      33.431  24.666  26.649  1.00  0.00     0.348 HD
ATOM     22  C   UNL A   1      35.966  23.039  25.030  1.00  0.00     0.324 C 
ATOM     23  C   UNL A   1      34.757  21.562  26.578  1.00  0.00     0.324 C 
ATOM     24  N   UNL A   1      36.040  21.866  25.924  1.00  0.00    -0.328 N 
ATOM     25  C   UNL A   1      36.523  20.695  25.191  1.00  0.00     0.333 C 
ATOM     26  H   UNL A   1      36.701  22.103  26.663  1.00  0.00     0.348 HD
ENDBRANCH  13  18
ENDBRANCH   7   9
ENDBRANCH   6   7
ENDBRANCH   5   6
ENDBRANCH   4   5
ENDBRANCH   3   4
ENDBRANCH   2   3
ENDBRANCH   1   2
BRANCH   1  27
ATOM     27  O   UNL A   1      32.042  31.064  26.482  1.00  0.00    -0.376 OA
BRANCH  27  28
ATOM     28  C   UNL A   1      31.487  32.311  26.866  1.00  0.00     0.202 C 
BRANCH  28  29
ATOM     29  C   UNL A   1      32.448  33.488  27.053  1.00  0.00     0.261 C 
BRANCH  29  30
ATOM     30  O   UNL A   1      32.437  34.010  28.389  1.00  0.00    -0.460 OA
BRANCH  30  31
ATOM     31  C   UNL A   1      33.526  34.742  28.733  1.00  0.00     0.338 C 
ATOM     32  O   UNL A   1      33.587  35.944  28.923  1.00  0.00    -0.246 OA
BRANCH  31  33
ATOM     33  C   UNL A   1      34.627  33.815  29.064  1.00  0.00     0.060 A 
ATOM     34  C   UNL A   1      34.321  32.674  29.823  1.00  0.00     0.016 A 
ATOM     35  C   UNL A   1      35.929  34.045  28.617  1.00  0.00     0.016 A 
ATOM     36  C   UNL A   1      35.325  31.769  30.158  1.00  0.00     0.010 A 
ATOM     37  C   UNL A   1      36.940  33.156  28.982  1.00  0.00     0.010 A 
ATOM     38  C   UNL A   1      36.646  32.034  29.777  1.00  0.00    -0.014 A 
BRANCH  38  39
ATOM     39  C   UNL A   1      37.752  31.282  30.408  1.00  0.00     0.031 A 
ATOM     40  C   UNL A   1      38.105  31.620  31.828  1.00  0.00     0.074 A 
ATOM     41  C   UNL A   1      38.430  30.334  29.741  1.00  0.00     0.049 A 
ATOM     42  N   UNL A   1      39.080  31.171  32.574  1.00  0.00    -0.248 NA
ATOM     43  C   UNL A   1      37.236  32.605  32.496  1.00  0.00     0.031 C 
ATOM     44  C   UNL A   1      38.147  29.885  28.380  1.00  0.00     0.029 A 
ATOM     45  N   UNL A   1      39.516  29.586  30.126  1.00  0.00    -0.354 N 
ATOM     46  C   UNL A   1      38.941  31.816  33.795  1.00  0.00     0.074 A 
ATOM     47  C   UNL A   1      37.805  32.705  33.686  1.00  0.00     0.031 C 
ATOM     48  C   UNL A   1      39.053  28.953  28.034  1.00  0.00     0.029 A 
ATOM     49  C   UNL A   1      39.996  28.767  29.136  1.00  0.00     0.049 A 
ATOM     50  H   UNL A   1      39.911  29.635  31.026  1.00  0.00     0.167 HD
ATOM     51  C   UNL A   1      39.694  31.680  34.911  1.00  0.00     0.037 A 
ATOM     52  C   UNL A   1      41.092  27.981  29.122  1.00  0.00     0.037 A 
ATOM     53  C   UNL A   1      40.837  30.815  35.009  1.00  0.00     0.049 A 
ATOM     54  C   UNL A   1      41.971  27.918  30.346  1.00  0.00     0.074 A 
ATOM     55  C   UNL A   1      41.673  30.609  36.091  1.00  0.00     0.029 A 
ATOM     56  N   UNL A   1      41.313  30.022  33.976  1.00  0.00    -0.354 N 
ATOM     57  N   UNL A   1      41.827  28.515  31.505  1.00  0.00    -0.248 NA
ATOM     58  C   UNL A   1      43.171  27.072  30.258  1.00  0.00     0.031 C 
ATOM     59  C   UNL A   1      42.684  29.726  35.698  1.00  0.00     0.029 A 
ATOM     60  C   UNL A   1      42.447  29.342  34.387  1.00  0.00     0.049 A 
ATOM     61  H   UNL A   1      40.905  29.952  33.083  1.00  0.00     0.167 HD
ATOM     62  C   UNL A   1      42.893  28.093  32.290  1.00  0.00     0.074 A 
ATOM     63  C   UNL A   1      43.673  27.183  31.478  1.00  0.00     0.031 C 
ATOM     64  C   UNL A   1      43.201  28.429  33.568  1.00  0.00     0.037 A 
BRANCH  51  65
ATOM     65  C   UNL A   1      39.319  32.516  36.096  1.00  0.00     0.064 A 
ATOM     66  C   UNL A   1      38.396  32.066  37.051  1.00  0.00     0.173 A 
ATOM     67  C   UNL A   1      39.895  33.781  36.280  1.00  0.00     0.173 A 
ATOM     68  F   UNL A   1      37.803  30.872  36.905  1.00  0.00    -0.203 F 
ATOM     69  C   UNL A   1      38.046  32.863  38.137  1.00  0.00     0.198 A 
ATOM     70  C   UNL A   1      39.562  34.565  37.381  1.00  0.00     0.198 A 
ATOM     71  F   UNL A   1      40.778  34.259  35.391  1.00  0.00    -0.203 F 
ATOM     72  F   UNL A   1      37.126  32.434  39.012  1.00  0.00    -0.200 F 
ATOM     73  C   UNL A   1      38.632  34.109  38.304  1.00  0.00     0.200 A 
ATOM     74  F   UNL A   1      40.134  35.765  37.544  1.00  0.00    -0.200 F 
ATOM     75  F   UNL A   1      38.295  34.875  39.351  1.00  0.00    -0.200 F 
ENDBRANCH  51  65
BRANCH  52  76
ATOM     76  C   UNL A   1      41.440  27.206  27.903  1.00  0.00     0.064 A 
ATOM     77  C   UNL A   1      41.029  25.876  27.750  1.00  0.00     0.173 A 
ATOM     78  C   UNL A   1      42.226  27.767  26.884  1.00  0.00     0.173 A 
ATOM     79  F   UNL A   1      40.301  25.287  28.709  1.00  0.00    -0.203 F 
ATOM     80  C   UNL A   1      41.406  25.128  26.635  1.00  0.00     0.198 A 
ATOM     81  C   UNL A   1      42.580  27.028  25.757  1.00  0.00     0.198 A 
ATOM     82  F   UNL A   1      42.651  29.035  26.985  1.00  0.00    -0.203 F 
ATOM     83  F   UNL A   1      41.043  23.842  26.540  1.00  0.00    -0.200 F 
ATOM     84  C   UNL A   1      42.178  25.706  25.638  1.00  0.00     0.200 A 
ATOM     85  F   UNL A   1      43.319  27.593  24.794  1.00  0.00    -0.200 F 
ATOM     86  F   UNL A   1      42.544  24.986  24.569  1.00  0.00    -0.200 F 
ENDBRANCH  52  76
BRANCH  64  87
ATOM     87  C   UNL A   1      44.404  27.778  34.185  1.00  0.00     0.064 A 
ATOM     88  C   UNL A   1      44.314  26.555  34.866  1.00  0.00     0.173 A 
ATOM     89  C   UNL A   1      45.673  28.360  34.044  1.00  0.00     0.173 A 
ATOM     90  F   UNL A   1      43.121  25.966  35.040  1.00  0.00    -0.203 F 
ATOM     91  C   UNL A   1      45.449  25.949  35.399  1.00  0.00     0.198 A 
ATOM     92  C   UNL A   1      46.809  27.736  34.552  1.00  0.00     0.198 A 
ATOM     93  F   UNL A   1      45.814  29.525  33.393  1.00  0.00    -0.203 F 
ATOM     94  F   UNL A   1      45.334  24.801  36.081  1.00  0.00    -0.200 F 
ATOM     95  C   UNL A   1      46.695  26.534  35.234  1.00  0.00     0.200 A 
ATOM     96  F   UNL A   1      48.013  28.296  34.379  1.00  0.00    -0.200 F 
ATOM     97  F   UNL A   1      47.787  25.944  35.739  1.00  0.00    -0.200 F 
ENDBRANCH  64  87
ENDBRANCH  38  39
ENDBRANCH  31  33
ENDBRANCH  30  31
ENDBRANCH  29  30
ENDBRANCH  28  29
ENDBRANCH  27  28
ENDBRANCH   1  27
TORSDOF 19
ENDMDL
