MODEL 1
REMARK VINA RESULT:     -11.4      0.000      0.000
REMARK SMILES C[C@H]1CC[C@@](C[C@@H]2CCCc3ccccc32)(C(=O)OCCOCCOCCOC(=O)c2ccc(-c3c4nc(c(-c5c(F)c(F)c(F)c(F)c5F)c5ccc([nH]5)c(-c5c(F)c(F)c(F)c(F)c5F)c5nc(c(-c6c(F)c(F)c(F)c(F)c6F)c6ccc3[nH]6)C=C5)C=C4)cc2)C1
REMARK SMILES IDX 23 1 22 2 21 3 20 4 19 5 17 6 18 7 5 8 1 9 2 10 3 11 94 12
REMARK SMILES IDX 4 13 6 14 7 15 8 16 16 17 9 18 11 19 15 20 10 21 12 22 14 23
REMARK SMILES IDX 13 24 24 25 25 26 26 27 27 28 28 29 29 30 30 31 31 32 32 33
REMARK SMILES IDX 93 34 33 35 92 36 34 37 35 38 36 39 86 40 37 41 91 42 85 43
REMARK SMILES IDX 87 44 38 45 90 46 84 47 83 48 39 50 71 51 51 52 70 53 52 54
REMARK SMILES IDX 55 55 69 56 88 57 53 58 54 59 68 61 89 62 56 63 40 64 41 65
REMARK SMILES IDX 49 66 42 67 43 68 47 69 50 70 44 71 45 72 48 73 46 74 72 75
REMARK SMILES IDX 73 76 81 77 74 78 75 79 79 80 82 81 76 82 77 83 80 84 78 85
REMARK SMILES IDX 57 86 58 87 66 88 59 89 60 90 64 91 67 92 61 93 62 94 65 95
REMARK SMILES IDX 63 96
REMARK H PARENT 87 49 55 60
REMARK Flexibility Score: inf
ROOT
ATOM      1  C   UNL A   1      29.813  29.342  22.314  1.00  0.00     0.188 C 
ENDROOT
BRANCH   1   2
ATOM      2  O   UNL A   1      29.809  27.923  22.393  1.00  0.00    -0.376 OA
BRANCH   2   3
ATOM      3  C   UNL A   1      28.995  27.443  23.469  1.00  0.00     0.202 C 
BRANCH   3   4
ATOM      4  C   UNL A   1      29.280  25.984  23.884  1.00  0.00     0.261 C 
BRANCH   4   5
ATOM      5  O   UNL A   1      30.685  25.650  23.720  1.00  0.00    -0.463 OA
BRANCH   5   6
ATOM      6  C   UNL A   1      31.173  24.558  24.361  1.00  0.00     0.312 C 
ATOM      7  O   UNL A   1      30.715  23.436  24.172  1.00  0.00    -0.252 OA
BRANCH   6   8
ATOM      8  C   UNL A   1      32.364  24.880  25.325  1.00  0.00     0.069 C 
ATOM      9  C   UNL A   1      34.074  28.315  24.846  1.00  0.00     0.007 C 
ATOM     10  C   UNL A   1      33.718  26.986  25.500  1.00  0.00    -0.013 C 
ATOM     11  C   UNL A   1      32.505  27.128  26.400  1.00  0.00     0.004 C 
ATOM     12  C   UNL A   1      33.271  25.899  24.519  1.00  0.00     0.022 C 
ATOM     13  C   UNL A   1      32.081  25.686  26.618  1.00  0.00     0.019 C 
BRANCH   8  14
ATOM     14  C   UNL A   1      33.136  23.554  25.640  1.00  0.00     0.027 C 
BRANCH  14  15
ATOM     15  C   UNL A   1      34.077  22.814  24.604  1.00  0.00     0.020 C 
ATOM     16  C   UNL A   1      33.570  21.501  23.983  1.00  0.00     0.009 C 
ATOM     17  C   UNL A   1      35.544  22.703  25.005  1.00  0.00    -0.042 A 
ATOM     18  C   UNL A   1      33.986  20.252  24.753  1.00  0.00     0.005 C 
ATOM     19  C   UNL A   1      36.172  21.456  25.208  1.00  0.00    -0.045 A 
ATOM     20  C   UNL A   1      36.292  23.876  25.201  1.00  0.00     0.004 A 
ATOM     21  C   UNL A   1      35.493  20.145  24.909  1.00  0.00     0.036 C 
ATOM     22  C   UNL A   1      37.503  21.414  25.657  1.00  0.00     0.004 A 
ATOM     23  C   UNL A   1      37.617  23.819  25.633  1.00  0.00     0.000 A 
ATOM     24  C   UNL A   1      38.218  22.588  25.878  1.00  0.00     0.000 A 
ENDBRANCH  14  15
ENDBRANCH   8  14
ENDBRANCH   6   8
ENDBRANCH   5   6
ENDBRANCH   4   5
ENDBRANCH   3   4
ENDBRANCH   2   3
ENDBRANCH   1   2
BRANCH   1  25
ATOM     25  C   UNL A   1      29.179  30.003  23.503  1.00  0.00     0.188 C 
BRANCH  25  26
ATOM     26  O   UNL A   1      30.087  30.892  24.160  1.00  0.00    -0.376 OA
BRANCH  26  27
ATOM     27  C   UNL A   1      31.053  30.218  24.958  1.00  0.00     0.202 C 
BRANCH  27  28
ATOM     28  C   UNL A   1      31.408  30.960  26.261  1.00  0.00     0.261 C 
BRANCH  28  29
ATOM     29  O   UNL A   1      32.804  30.822  26.605  1.00  0.00    -0.460 OA
BRANCH  29  30
ATOM     30  C   UNL A   1      33.351  31.879  27.262  1.00  0.00     0.338 C 
ATOM     31  O   UNL A   1      32.795  32.931  27.541  1.00  0.00    -0.246 OA
BRANCH  30  32
ATOM     32  C   UNL A   1      34.681  31.504  27.820  1.00  0.00     0.060 A 
ATOM     33  C   UNL A   1      34.890  30.154  28.149  1.00  0.00     0.016 A 
ATOM     34  C   UNL A   1      35.729  32.418  27.960  1.00  0.00     0.016 A 
ATOM     35  C   UNL A   1      36.123  29.720  28.643  1.00  0.00     0.010 A 
ATOM     36  C   UNL A   1      36.956  31.991  28.491  1.00  0.00     0.010 A 
ATOM     37  C   UNL A   1      37.145  30.649  28.869  1.00  0.00    -0.014 A 
BRANCH  37  38
ATOM     38  C   UNL A   1      38.269  30.279  29.771  1.00  0.00     0.031 A 
ATOM     39  C   UNL A   1      39.272  29.285  29.246  1.00  0.00     0.074 A 
ATOM     40  C   UNL A   1      38.439  30.816  30.991  1.00  0.00     0.049 A 
ATOM     41  N   UNL A   1      40.305  28.743  29.837  1.00  0.00    -0.248 NA
ATOM     42  C   UNL A   1      39.076  28.844  27.854  1.00  0.00     0.031 C 
ATOM     43  C   UNL A   1      37.590  31.835  31.599  1.00  0.00     0.029 A 
ATOM     44  N   UNL A   1      39.398  30.561  31.945  1.00  0.00    -0.354 N 
ATOM     45  C   UNL A   1      40.877  27.901  28.893  1.00  0.00     0.074 A 
ATOM     46  C   UNL A   1      40.064  27.979  27.701  1.00  0.00     0.031 C 
ATOM     47  C   UNL A   1      38.055  32.108  32.834  1.00  0.00     0.029 A 
ATOM     48  C   UNL A   1      39.213  31.258  33.114  1.00  0.00     0.049 A 
ATOM     49  H   UNL A   1      40.145  29.937  31.801  1.00  0.00     0.167 HD
ATOM     50  C   UNL A   1      41.985  27.132  29.003  1.00  0.00     0.037 A 
ATOM     51  C   UNL A   1      39.888  31.194  34.281  1.00  0.00     0.037 A 
ATOM     52  C   UNL A   1      42.793  27.038  30.186  1.00  0.00     0.049 A 
ATOM     53  C   UNL A   1      41.067  30.257  34.413  1.00  0.00     0.074 A 
ATOM     54  C   UNL A   1      43.926  26.272  30.399  1.00  0.00     0.029 A 
ATOM     55  N   UNL A   1      42.549  27.729  31.362  1.00  0.00    -0.354 N 
ATOM     56  N   UNL A   1      41.601  29.460  33.518  1.00  0.00    -0.248 NA
ATOM     57  C   UNL A   1      41.737  30.213  35.723  1.00  0.00     0.031 C 
ATOM     58  C   UNL A   1      44.340  26.465  31.720  1.00  0.00     0.029 A 
ATOM     59  C   UNL A   1      43.499  27.393  32.312  1.00  0.00     0.049 A 
ATOM     60  H   UNL A   1      41.810  28.365  31.502  1.00  0.00     0.167 HD
ATOM     61  C   UNL A   1      42.681  28.847  34.144  1.00  0.00     0.074 A 
ATOM     62  C   UNL A   1      42.735  29.371  35.491  1.00  0.00     0.031 C 
ATOM     63  C   UNL A   1      43.550  27.932  33.647  1.00  0.00     0.037 A 
BRANCH  50  64
ATOM     64  C   UNL A   1      42.359  26.301  27.812  1.00  0.00     0.064 A 
ATOM     65  C   UNL A   1      43.327  26.728  26.889  1.00  0.00     0.173 A 
ATOM     66  C   UNL A   1      41.739  25.063  27.590  1.00  0.00     0.173 A 
ATOM     67  F   UNL A   1      43.929  27.917  27.045  1.00  0.00    -0.203 F 
ATOM     68  C   UNL A   1      43.640  25.957  25.774  1.00  0.00     0.198 A 
ATOM     69  C   UNL A   1      42.077  24.281  26.490  1.00  0.00     0.198 A 
ATOM     70  F   UNL A   1      40.805  24.612  28.441  1.00  0.00    -0.203 F 
ATOM     71  F   UNL A   1      44.527  26.409  24.876  1.00  0.00    -0.200 F 
ATOM     72  C   UNL A   1      43.019  24.731  25.579  1.00  0.00     0.200 A 
ATOM     73  F   UNL A   1      41.482  23.093  26.307  1.00  0.00    -0.200 F 
ATOM     74  F   UNL A   1      43.323  23.990  24.505  1.00  0.00    -0.200 F 
ENDBRANCH  50  64
BRANCH  51  75
ATOM     75  C   UNL A   1      39.454  32.016  35.442  1.00  0.00     0.064 A 
ATOM     76  C   UNL A   1      38.571  31.508  36.405  1.00  0.00     0.173 A 
ATOM     77  C   UNL A   1      39.878  33.346  35.585  1.00  0.00     0.173 A 
ATOM     78  F   UNL A   1      38.105  30.256  36.292  1.00  0.00    -0.203 F 
ATOM     79  C   UNL A   1      38.113  32.304  37.454  1.00  0.00     0.198 A 
ATOM     80  C   UNL A   1      39.443  34.132  36.652  1.00  0.00     0.198 A 
ATOM     81  F   UNL A   1      40.711  33.887  34.684  1.00  0.00    -0.203 F 
ATOM     82  F   UNL A   1      37.223  31.811  38.328  1.00  0.00    -0.200 F 
ATOM     83  C   UNL A   1      38.553  33.613  37.581  1.00  0.00     0.200 A 
ATOM     84  F   UNL A   1      39.872  35.395  36.770  1.00  0.00    -0.200 F 
ATOM     85  F   UNL A   1      38.109  34.378  38.587  1.00  0.00    -0.200 F 
ENDBRANCH  51  75
BRANCH  63  86
ATOM     86  C   UNL A   1      44.664  27.468  34.541  1.00  0.00     0.064 A 
ATOM     87  C   UNL A   1      45.883  28.156  34.621  1.00  0.00     0.173 A 
ATOM     88  C   UNL A   1      44.487  26.350  35.373  1.00  0.00     0.173 A 
ATOM     89  F   UNL A   1      46.108  29.224  33.841  1.00  0.00    -0.203 F 
ATOM     90  C   UNL A   1      46.891  27.729  35.482  1.00  0.00     0.198 A 
ATOM     91  C   UNL A   1      45.484  25.945  36.254  1.00  0.00     0.198 A 
ATOM     92  F   UNL A   1      43.336  25.662  35.345  1.00  0.00    -0.203 F 
ATOM     93  F   UNL A   1      48.065  28.377  35.511  1.00  0.00    -0.200 F 
ATOM     94  C   UNL A   1      46.689  26.629  36.304  1.00  0.00     0.200 A 
ATOM     95  F   UNL A   1      45.281  24.892  37.059  1.00  0.00    -0.200 F 
ATOM     96  F   UNL A   1      47.657  26.227  37.138  1.00  0.00    -0.200 F 
ENDBRANCH  63  86
ENDBRANCH  37  38
ENDBRANCH  30  32
ENDBRANCH  29  30
ENDBRANCH  28  29
ENDBRANCH  27  28
ENDBRANCH  26  27
ENDBRANCH  25  26
ENDBRANCH   1  25
TORSDOF 19
ENDMDL
MODEL 2
REMARK VINA RESULT:     -11.4      4.375      7.768
REMARK SMILES C[C@H]1CC[C@@](C[C@@H]2CCCc3ccccc32)(C(=O)OCCOCCOCCOC(=O)c2ccc(-c3c4nc(c(-c5c(F)c(F)c(F)c(F)c5F)c5ccc([nH]5)c(-c5c(F)c(F)c(F)c(F)c5F)c5nc(c(-c6c(F)c(F)c(F)c(F)c6F)c6ccc3[nH]6)C=C5)C=C4)cc2)C1
REMARK SMILES IDX 23 1 22 2 21 3 20 4 19 5 17 6 18 7 5 8 1 9 2 10 3 11 94 12
REMARK SMILES IDX 4 13 6 14 7 15 8 16 16 17 9 18 11 19 15 20 10 21 12 22 14 23
REMARK SMILES IDX 13 24 24 25 25 26 26 27 27 28 28 29 29 30 30 31 31 32 32 33
REMARK SMILES IDX 93 34 33 35 92 36 34 37 35 38 36 39 86 40 37 41 91 42 85 43
REMARK SMILES IDX 87 44 38 45 90 46 84 47 83 48 39 50 71 51 51 52 70 53 52 54
REMARK SMILES IDX 55 55 69 56 88 57 53 58 54 59 68 61 89 62 56 63 40 64 41 65
REMARK SMILES IDX 49 66 42 67 43 68 47 69 50 70 44 71 45 72 48 73 46 74 72 75
REMARK SMILES IDX 73 76 81 77 74 78 75 79 79 80 82 81 76 82 77 83 80 84 78 85
REMARK SMILES IDX 57 86 58 87 66 88 59 89 60 90 64 91 67 92 61 93 62 94 65 95
REMARK SMILES IDX 63 96
REMARK H PARENT 87 49 55 60
REMARK Flexibility Score: inf
ROOT
ATOM      1  C   UNL A   1      36.064  22.945  25.033  1.00  0.00     0.188 C 
ENDROOT
BRANCH   1   2
ATOM      2  O   UNL A   1      34.777  22.538  24.586  1.00  0.00    -0.376 OA
BRANCH   2   3
ATOM      3  C   UNL A   1      34.316  21.363  25.263  1.00  0.00     0.202 C 
BRANCH   3   4
ATOM      4  C   UNL A   1      33.015  21.559  26.069  1.00  0.00     0.261 C 
BRANCH   4   5
ATOM      5  O   UNL A   1      32.995  22.849  26.738  1.00  0.00    -0.463 OA
BRANCH   5   6
ATOM      6  C   UNL A   1      31.844  23.569  26.732  1.00  0.00     0.312 C 
ATOM      7  O   UNL A   1      30.904  23.296  27.470  1.00  0.00    -0.252 OA
BRANCH   6   8
ATOM      8  C   UNL A   1      31.859  24.763  25.718  1.00  0.00     0.069 C 
ATOM      9  C   UNL A   1      31.748  28.311  27.252  1.00  0.00     0.007 C 
ATOM     10  C   UNL A   1      31.914  27.226  26.195  1.00  0.00    -0.013 C 
ATOM     11  C   UNL A   1      33.343  26.723  26.148  1.00  0.00     0.004 C 
ATOM     12  C   UNL A   1      31.126  25.944  26.477  1.00  0.00     0.022 C 
ATOM     13  C   UNL A   1      33.215  25.427  25.368  1.00  0.00     0.019 C 
BRANCH   8  14
ATOM     14  C   UNL A   1      31.082  24.343  24.425  1.00  0.00     0.027 C 
BRANCH  14  15
ATOM     15  C   UNL A   1      31.233  25.074  23.029  1.00  0.00     0.020 C 
ATOM     16  C   UNL A   1      32.482  24.762  22.186  1.00  0.00     0.009 C 
ATOM     17  C   UNL A   1      30.928  26.567  23.029  1.00  0.00    -0.042 A 
ATOM     18  C   UNL A   1      33.650  25.709  22.439  1.00  0.00     0.005 C 
ATOM     19  C   UNL A   1      31.906  27.531  22.707  1.00  0.00    -0.045 A 
ATOM     20  C   UNL A   1      29.639  27.004  23.380  1.00  0.00     0.004 A 
ATOM     21  C   UNL A   1      33.277  27.162  22.203  1.00  0.00     0.036 C 
ATOM     22  C   UNL A   1      31.593  28.898  22.803  1.00  0.00     0.004 A 
ATOM     23  C   UNL A   1      29.338  28.364  23.457  1.00  0.00     0.000 A 
ATOM     24  C   UNL A   1      30.319  29.312  23.185  1.00  0.00     0.000 A 
ENDBRANCH  14  15
ENDBRANCH   8  14
ENDBRANCH   6   8
ENDBRANCH   5   6
ENDBRANCH   4   5
ENDBRANCH   3   4
ENDBRANCH   2   3
ENDBRANCH   1   2
BRANCH   1  25
ATOM     25  C   UNL A   1      36.881  21.815  25.590  1.00  0.00     0.188 C 
BRANCH  25  26
ATOM     26  O   UNL A   1      37.794  21.296  24.620  1.00  0.00    -0.376 OA
BRANCH  26  27
ATOM     27  C   UNL A   1      37.989  19.890  24.729  1.00  0.00     0.202 C 
BRANCH  27  28
ATOM     28  C   UNL A   1      39.075  19.492  25.747  1.00  0.00     0.261 C 
BRANCH  28  29
ATOM     29  O   UNL A   1      40.227  20.360  25.684  1.00  0.00    -0.460 OA
BRANCH  29  30
ATOM     30  C   UNL A   1      40.978  20.420  26.817  1.00  0.00     0.338 C 
ATOM     31  O   UNL A   1      41.608  19.503  27.322  1.00  0.00    -0.246 OA
BRANCH  30  32
ATOM     32  C   UNL A   1      41.130  21.835  27.257  1.00  0.00     0.060 A 
ATOM     33  C   UNL A   1      40.432  22.819  26.536  1.00  0.00     0.016 A 
ATOM     34  C   UNL A   1      41.873  22.202  28.383  1.00  0.00     0.016 A 
ATOM     35  C   UNL A   1      40.497  24.163  26.912  1.00  0.00     0.010 A 
ATOM     36  C   UNL A   1      41.970  23.556  28.739  1.00  0.00     0.010 A 
ATOM     37  C   UNL A   1      41.312  24.545  27.984  1.00  0.00    -0.014 A 
BRANCH  37  38
ATOM     38  C   UNL A   1      41.714  25.971  28.111  1.00  0.00     0.031 A 
ATOM     39  C   UNL A   1      43.063  26.357  27.563  1.00  0.00     0.074 A 
ATOM     40  C   UNL A   1      40.919  26.913  28.649  1.00  0.00     0.049 A 
ATOM     41  N   UNL A   1      43.685  27.507  27.596  1.00  0.00    -0.248 NA
ATOM     42  C   UNL A   1      43.812  25.287  26.881  1.00  0.00     0.031 C 
ATOM     43  C   UNL A   1      39.567  26.700  29.154  1.00  0.00     0.029 A 
ATOM     44  N   UNL A   1      41.153  28.252  28.862  1.00  0.00    -0.354 N 
ATOM     45  C   UNL A   1      44.893  27.297  26.943  1.00  0.00     0.074 A 
ATOM     46  C   UNL A   1      44.932  25.907  26.551  1.00  0.00     0.031 C 
ATOM     47  C   UNL A   1      39.095  27.865  29.638  1.00  0.00     0.029 A 
ATOM     48  C   UNL A   1      40.125  28.897  29.505  1.00  0.00     0.049 A 
ATOM     49  H   UNL A   1      41.980  28.704  28.580  1.00  0.00     0.167 HD
ATOM     50  C   UNL A   1      45.883  28.183  26.688  1.00  0.00     0.037 A 
ATOM     51  C   UNL A   1      40.040  30.166  29.956  1.00  0.00     0.037 A 
ATOM     52  C   UNL A   1      45.860  29.563  27.084  1.00  0.00     0.049 A 
ATOM     53  C   UNL A   1      41.198  31.115  29.743  1.00  0.00     0.074 A 
ATOM     54  C   UNL A   1      46.825  30.535  26.885  1.00  0.00     0.029 A 
ATOM     55  N   UNL A   1      44.818  30.167  27.770  1.00  0.00    -0.354 N 
ATOM     56  N   UNL A   1      42.339  30.910  29.129  1.00  0.00    -0.248 NA
ATOM     57  C   UNL A   1      41.053  32.474  30.288  1.00  0.00     0.031 C 
ATOM     58  C   UNL A   1      46.386  31.715  27.491  1.00  0.00     0.029 A 
ATOM     59  C   UNL A   1      45.124  31.494  28.019  1.00  0.00     0.049 A 
ATOM     60  H   UNL A   1      43.983  29.719  28.039  1.00  0.00     0.167 HD
ATOM     61  C   UNL A   1      43.030  32.116  29.188  1.00  0.00     0.074 A 
ATOM     62  C   UNL A   1      42.177  33.052  29.887  1.00  0.00     0.031 C 
ATOM     63  C   UNL A   1      44.260  32.420  28.706  1.00  0.00     0.037 A 
BRANCH  50  64
ATOM     64  C   UNL A   1      47.095  27.663  25.973  1.00  0.00     0.064 A 
ATOM     65  C   UNL A   1      48.203  27.158  26.670  1.00  0.00     0.173 A 
ATOM     66  C   UNL A   1      47.148  27.673  24.572  1.00  0.00     0.173 A 
ATOM     67  F   UNL A   1      48.209  27.151  28.012  1.00  0.00    -0.203 F 
ATOM     68  C   UNL A   1      49.330  26.706  25.990  1.00  0.00     0.198 A 
ATOM     69  C   UNL A   1      48.264  27.193  23.895  1.00  0.00     0.198 A 
ATOM     70  F   UNL A   1      46.115  28.149  23.859  1.00  0.00    -0.203 F 
ATOM     71  F   UNL A   1      50.398  26.279  26.677  1.00  0.00    -0.200 F 
ATOM     72  C   UNL A   1      49.357  26.718  24.603  1.00  0.00     0.200 A 
ATOM     73  F   UNL A   1      48.286  27.198  22.554  1.00  0.00    -0.200 F 
ATOM     74  F   UNL A   1      50.443  26.282  23.950  1.00  0.00    -0.200 F 
ENDBRANCH  50  64
BRANCH  51  75
ATOM     75  C   UNL A   1      38.828  30.621  30.688  1.00  0.00     0.064 A 
ATOM     76  C   UNL A   1      38.741  30.526  32.084  1.00  0.00     0.173 A 
ATOM     77  C   UNL A   1      37.710  31.116  29.999  1.00  0.00     0.173 A 
ATOM     78  F   UNL A   1      39.767  30.023  32.786  1.00  0.00    -0.203 F 
ATOM     79  C   UNL A   1      37.578  30.889  32.761  1.00  0.00     0.198 A 
ATOM     80  C   UNL A   1      36.558  31.507  30.680  1.00  0.00     0.198 A 
ATOM     81  F   UNL A   1      37.733  31.213  28.662  1.00  0.00    -0.203 F 
ATOM     82  F   UNL A   1      37.501  30.734  34.090  1.00  0.00    -0.200 F 
ATOM     83  C   UNL A   1      36.489  31.385  32.060  1.00  0.00     0.200 A 
ATOM     84  F   UNL A   1      35.509  31.986  29.997  1.00  0.00    -0.200 F 
ATOM     85  F   UNL A   1      35.369  31.730  32.710  1.00  0.00    -0.200 F 
ENDBRANCH  51  75
BRANCH  63  86
ATOM     86  C   UNL A   1      44.747  33.831  28.871  1.00  0.00     0.064 A 
ATOM     87  C   UNL A   1      44.503  34.816  27.904  1.00  0.00     0.173 A 
ATOM     88  C   UNL A   1      45.418  34.216  30.044  1.00  0.00     0.173 A 
ATOM     89  F   UNL A   1      43.876  34.499  26.761  1.00  0.00    -0.203 F 
ATOM     90  C   UNL A   1      44.933  36.128  28.092  1.00  0.00     0.198 A 
ATOM     91  C   UNL A   1      45.819  35.534  30.242  1.00  0.00     0.198 A 
ATOM     92  F   UNL A   1      45.667  33.317  31.007  1.00  0.00    -0.203 F 
ATOM     93  F   UNL A   1      44.726  37.043  27.135  1.00  0.00    -0.200 F 
ATOM     94  C   UNL A   1      45.583  36.487  29.264  1.00  0.00     0.200 A 
ATOM     95  F   UNL A   1      46.432  35.883  31.382  1.00  0.00    -0.200 F 
ATOM     96  F   UNL A   1      45.987  37.752  29.447  1.00  0.00    -0.200 F 
ENDBRANCH  63  86
ENDBRANCH  37  38
ENDBRANCH  30  32
ENDBRANCH  29  30
ENDBRANCH  28  29
ENDBRANCH  27  28
ENDBRANCH  26  27
ENDBRANCH  25  26
ENDBRANCH   1  25
TORSDOF 19
ENDMDL
MODEL 3
REMARK VINA RESULT:     -11.2      0.767      7.235
REMARK SMILES C[C@H]1CC[C@@](C[C@@H]2CCCc3ccccc32)(C(=O)OCCOCCOCCOC(=O)c2ccc(-c3c4nc(c(-c5c(F)c(F)c(F)c(F)c5F)c5ccc([nH]5)c(-c5c(F)c(F)c(F)c(F)c5F)c5nc(c(-c6c(F)c(F)c(F)c(F)c6F)c6ccc3[nH]6)C=C5)C=C4)cc2)C1
REMARK SMILES IDX 23 1 22 2 21 3 20 4 19 5 17 6 18 7 5 8 1 9 2 10 3 11 94 12
REMARK SMILES IDX 4 13 6 14 7 15 8 16 16 17 9 18 11 19 15 20 10 21 12 22 14 23
REMARK SMILES IDX 13 24 24 25 25 26 26 27 27 28 28 29 29 30 30 31 31 32 32 33
REMARK SMILES IDX 93 34 33 35 92 36 34 37 35 38 36 39 86 40 37 41 91 42 85 43
REMARK SMILES IDX 87 44 38 45 90 46 84 47 83 48 39 50 71 51 51 52 70 53 52 54
REMARK SMILES IDX 55 55 69 56 88 57 53 58 54 59 68 61 89 62 56 63 40 64 41 65
REMARK SMILES IDX 49 66 42 67 43 68 47 69 50 70 44 71 45 72 48 73 46 74 72 75
REMARK SMILES IDX 73 76 81 77 74 78 75 79 79 80 82 81 76 82 77 83 80 84 78 85
REMARK SMILES IDX 57 86 58 87 66 88 59 89 60 90 64 91 67 92 61 93 62 94 65 95
REMARK SMILES IDX 63 96
REMARK H PARENT 87 49 55 60
REMARK Flexibility Score: inf
ROOT
ATOM      1  C   UNL A   1      30.332  29.586  22.677  1.00  0.00     0.188 C 
ENDROOT
BRANCH   1   2
ATOM      2  O   UNL A   1      30.327  28.168  22.781  1.00  0.00    -0.376 OA
BRANCH   2   3
ATOM      3  C   UNL A   1      29.066  27.664  23.236  1.00  0.00     0.202 C 
BRANCH   3   4
ATOM      4  C   UNL A   1      29.169  26.547  24.296  1.00  0.00     0.261 C 
BRANCH   4   5
ATOM      5  O   UNL A   1      30.378  26.681  25.092  1.00  0.00    -0.463 OA
BRANCH   5   6
ATOM      6  C   UNL A   1      30.885  25.577  25.697  1.00  0.00     0.312 C 
ATOM      7  O   UNL A   1      30.243  24.936  26.521  1.00  0.00    -0.252 OA
BRANCH   6   8
ATOM      8  C   UNL A   1      32.333  25.215  25.223  1.00  0.00     0.069 C 
ATOM      9  C   UNL A   1      33.666  27.155  22.155  1.00  0.00     0.007 C 
ATOM     10  C   UNL A   1      33.686  26.247  23.378  1.00  0.00    -0.013 C 
ATOM     11  C   UNL A   1      33.932  27.042  24.645  1.00  0.00     0.004 C 
ATOM     12  C   UNL A   1      32.350  25.562  23.677  1.00  0.00     0.022 C 
ATOM     13  C   UNL A   1      33.521  26.069  25.735  1.00  0.00     0.019 C 
BRANCH   8  14
ATOM     14  C   UNL A   1      32.582  23.689  25.470  1.00  0.00     0.027 C 
BRANCH  14  15
ATOM     15  C   UNL A   1      33.190  22.708  24.386  1.00  0.00     0.020 C 
ATOM     16  C   UNL A   1      32.370  21.465  24.001  1.00  0.00     0.009 C 
ATOM     17  C   UNL A   1      34.664  22.362  24.560  1.00  0.00    -0.042 A 
ATOM     18  C   UNL A   1      32.700  20.227  24.828  1.00  0.00     0.005 C 
ATOM     19  C   UNL A   1      35.101  21.042  24.796  1.00  0.00    -0.045 A 
ATOM     20  C   UNL A   1      35.622  23.391  24.505  1.00  0.00     0.004 A 
ATOM     21  C   UNL A   1      34.170  19.858  24.754  1.00  0.00     0.036 C 
ATOM     22  C   UNL A   1      36.464  20.793  25.031  1.00  0.00     0.004 A 
ATOM     23  C   UNL A   1      36.973  23.126  24.725  1.00  0.00     0.000 A 
ATOM     24  C   UNL A   1      37.393  21.830  25.006  1.00  0.00     0.000 A 
ENDBRANCH  14  15
ENDBRANCH   8  14
ENDBRANCH   6   8
ENDBRANCH   5   6
ENDBRANCH   4   5
ENDBRANCH   3   4
ENDBRANCH   2   3
ENDBRANCH   1   2
BRANCH   1  25
ATOM     25  C   UNL A   1      29.461  30.258  23.698  1.00  0.00     0.188 C 
BRANCH  25  26
ATOM     26  O   UNL A   1      30.178  31.261  24.424  1.00  0.00    -0.376 OA
BRANCH  26  27
ATOM     27  C   UNL A   1      31.101  30.721  25.364  1.00  0.00     0.202 C 
BRANCH  27  28
ATOM     28  C   UNL A   1      31.498  31.706  26.479  1.00  0.00     0.261 C 
BRANCH  28  29
ATOM     29  O   UNL A   1      32.714  31.308  27.151  1.00  0.00    -0.460 OA
BRANCH  29  30
ATOM     30  C   UNL A   1      33.520  32.328  27.553  1.00  0.00     0.338 C 
ATOM     31  O   UNL A   1      33.185  33.485  27.752  1.00  0.00    -0.246 OA
BRANCH  30  32
ATOM     32  C   UNL A   1      34.854  31.799  27.954  1.00  0.00     0.060 A 
ATOM     33  C   UNL A   1      35.022  30.404  27.971  1.00  0.00     0.016 A 
ATOM     34  C   UNL A   1      35.942  32.628  28.242  1.00  0.00     0.016 A 
ATOM     35  C   UNL A   1      36.255  29.836  28.301  1.00  0.00     0.010 A 
ATOM     36  C   UNL A   1      37.170  32.059  28.611  1.00  0.00     0.010 A 
ATOM     37  C   UNL A   1      37.321  30.661  28.678  1.00  0.00    -0.014 A 
BRANCH  37  38
ATOM     38  C   UNL A   1      38.463  30.068  29.424  1.00  0.00     0.031 A 
ATOM     39  C   UNL A   1      38.675  30.537  30.840  1.00  0.00     0.074 A 
ATOM     40  C   UNL A   1      39.268  29.124  28.907  1.00  0.00     0.049 A 
ATOM     41  N   UNL A   1      39.621  30.236  31.691  1.00  0.00    -0.248 NA
ATOM     42  C   UNL A   1      37.672  31.479  31.365  1.00  0.00     0.031 C 
ATOM     43  C   UNL A   1      39.140  28.528  27.581  1.00  0.00     0.029 A 
ATOM     44  N   UNL A   1      40.369  28.505  29.452  1.00  0.00    -0.354 N 
ATOM     45  C   UNL A   1      39.328  30.951  32.845  1.00  0.00     0.074 A 
ATOM     46  C   UNL A   1      38.136  31.722  32.579  1.00  0.00     0.031 C 
ATOM     47  C   UNL A   1      40.137  27.640  27.406  1.00  0.00     0.029 A 
ATOM     48  C   UNL A   1      40.991  27.630  28.594  1.00  0.00     0.049 A 
ATOM     49  H   UNL A   1      40.681  28.673  30.369  1.00  0.00     0.167 HD
ATOM     50  C   UNL A   1      39.989  30.963  34.025  1.00  0.00     0.037 A 
ATOM     51  C   UNL A   1      42.133  26.926  28.746  1.00  0.00     0.037 A 
ATOM     52  C   UNL A   1      41.182  30.210  34.296  1.00  0.00     0.049 A 
ATOM     53  C   UNL A   1      42.907  27.027  30.041  1.00  0.00     0.074 A 
ATOM     54  C   UNL A   1      41.933  30.171  35.457  1.00  0.00     0.029 A 
ATOM     55  N   UNL A   1      41.803  29.368  33.388  1.00  0.00    -0.354 N 
ATOM     56  N   UNL A   1      42.628  27.708  31.127  1.00  0.00    -0.248 NA
ATOM     57  C   UNL A   1      44.160  26.259  30.128  1.00  0.00     0.031 C 
ATOM     58  C   UNL A   1      43.035  29.339  35.235  1.00  0.00     0.029 A 
ATOM     59  C   UNL A   1      42.940  28.818  33.955  1.00  0.00     0.049 A 
ATOM     60  H   UNL A   1      41.483  29.186  32.474  1.00  0.00     0.167 HD
ATOM     61  C   UNL A   1      43.647  27.427  32.030  1.00  0.00     0.074 A 
ATOM     62  C   UNL A   1      44.547  26.506  31.372  1.00  0.00     0.031 C 
ATOM     63  C   UNL A   1      43.821  27.891  33.293  1.00  0.00     0.037 A 
BRANCH  50  64
ATOM     64  C   UNL A   1      39.446  31.856  35.101  1.00  0.00     0.064 A 
ATOM     65  C   UNL A   1      38.618  31.363  36.121  1.00  0.00     0.173 A 
ATOM     66  C   UNL A   1      39.757  33.223  35.109  1.00  0.00     0.173 A 
ATOM     67  F   UNL A   1      38.272  30.067  36.141  1.00  0.00    -0.203 F 
ATOM     68  C   UNL A   1      38.100  32.212  37.094  1.00  0.00     0.198 A 
ATOM     69  C   UNL A   1      39.262  34.064  36.100  1.00  0.00     0.198 A 
ATOM     70  F   UNL A   1      40.542  33.744  34.153  1.00  0.00    -0.203 F 
ATOM     71  F   UNL A   1      37.267  31.730  38.027  1.00  0.00    -0.200 F 
ATOM     72  C   UNL A   1      38.427  33.560  37.086  1.00  0.00     0.200 A 
ATOM     73  F   UNL A   1      39.585  35.365  36.097  1.00  0.00    -0.200 F 
ATOM     74  F   UNL A   1      37.929  34.376  38.025  1.00  0.00    -0.200 F 
ENDBRANCH  50  64
BRANCH  51  75
ATOM     75  C   UNL A   1      42.644  26.081  27.635  1.00  0.00     0.064 A 
ATOM     76  C   UNL A   1      43.607  26.562  26.737  1.00  0.00     0.173 A 
ATOM     77  C   UNL A   1      42.143  24.788  27.419  1.00  0.00     0.173 A 
ATOM     78  F   UNL A   1      44.089  27.805  26.875  1.00  0.00    -0.203 F 
ATOM     79  C   UNL A   1      44.033  25.792  25.656  1.00  0.00     0.198 A 
ATOM     80  C   UNL A   1      42.592  24.007  26.355  1.00  0.00     0.198 A 
ATOM     81  F   UNL A   1      41.209  24.284  28.239  1.00  0.00    -0.203 F 
ATOM     82  F   UNL A   1      44.912  26.298  24.779  1.00  0.00    -0.200 F 
ATOM     83  C   UNL A   1      43.531  24.513  25.469  1.00  0.00     0.200 A 
ATOM     84  F   UNL A   1      42.104  22.772  26.180  1.00  0.00    -0.200 F 
ATOM     85  F   UNL A   1      43.938  23.775  24.427  1.00  0.00    -0.200 F 
ENDBRANCH  51  75
BRANCH  63  86
ATOM     86  C   UNL A   1      45.002  27.380  34.069  1.00  0.00     0.064 A 
ATOM     87  C   UNL A   1      46.228  28.059  34.083  1.00  0.00     0.173 A 
ATOM     88  C   UNL A   1      44.885  26.224  34.857  1.00  0.00     0.173 A 
ATOM     89  F   UNL A   1      46.396  29.163  33.339  1.00  0.00    -0.203 F 
ATOM     90  C   UNL A   1      47.300  27.588  34.837  1.00  0.00     0.198 A 
ATOM     91  C   UNL A   1      45.947  25.772  35.634  1.00  0.00     0.198 A 
ATOM     92  F   UNL A   1      43.730  25.542  34.890  1.00  0.00    -0.203 F 
ATOM     93  F   UNL A   1      48.476  28.230  34.801  1.00  0.00    -0.200 F 
ATOM     94  C   UNL A   1      47.157  26.450  35.618  1.00  0.00     0.200 A 
ATOM     95  F   UNL A   1      45.803  24.682  36.400  1.00  0.00    -0.200 F 
ATOM     96  F   UNL A   1      48.187  26.005  36.350  1.00  0.00    -0.200 F 
ENDBRANCH  63  86
ENDBRANCH  37  38
ENDBRANCH  30  32
ENDBRANCH  29  30
ENDBRANCH  28  29
ENDBRANCH  27  28
ENDBRANCH  26  27
ENDBRANCH  25  26
ENDBRANCH   1  25
TORSDOF 19
ENDMDL
