MODEL 1
REMARK VINA RESULT:     -11.5      0.000      0.000
REMARK SMILES C[C@]1(CNC(=O)N2CCC[C@@]2(C)C(=O)OCCOCCOCCOC(=O)c2ccc(-c3c4nc(c(-c5c(F)c(F)c(F)c(F)c5F)c5ccc([nH]5)c(-c5c(F)c(F)c(F)c(F)c5F)c5nc(c(-c6c(F)c(F)c(F)c(F)c6F)c6ccc3[nH]6)C=C5)C=C4)cc2)CCCO1
REMARK SMILES IDX 19 1 18 2 17 3 16 4 15 5 13 6 14 7 11 8 7 9 8 10 9 11 10 12
REMARK SMILES IDX 12 13 5 14 4 15 6 17 3 18 2 19 1 20 90 21 93 22 91 23 92 24
REMARK SMILES IDX 20 25 21 26 22 27 23 28 24 29 25 30 26 31 27 32 28 33 89 34
REMARK SMILES IDX 29 35 88 36 30 37 31 38 32 39 82 40 33 41 87 42 81 43 83 44
REMARK SMILES IDX 34 45 86 46 80 47 79 48 35 50 67 51 47 52 66 53 48 54 51 55
REMARK SMILES IDX 65 56 84 57 49 58 50 59 64 61 85 62 52 63 36 64 37 65 45 66
REMARK SMILES IDX 38 67 39 68 43 69 46 70 40 71 41 72 44 73 42 74 68 75 69 76
REMARK SMILES IDX 77 77 70 78 71 79 75 80 78 81 72 82 73 83 76 84 74 85 53 86
REMARK SMILES IDX 54 87 62 88 55 89 56 90 60 91 63 92 57 93 58 94 61 95 59 96
REMARK H PARENT 4 16 83 49 51 60
REMARK Flexibility Score: inf
ROOT
ATOM      1  C   UNL A   1      33.555  31.830  27.715  1.00  0.00     0.188 C 
ENDROOT
BRANCH   1   2
ATOM      2  O   UNL A   1      32.423  31.566  26.909  1.00  0.00    -0.376 OA
BRANCH   2   3
ATOM      3  C   UNL A   1      32.027  30.206  26.842  1.00  0.00     0.202 C 
BRANCH   3   4
ATOM      4  C   UNL A   1      33.159  29.195  27.011  1.00  0.00     0.261 C 
BRANCH   4   5
ATOM      5  O   UNL A   1      33.082  27.941  26.300  1.00  0.00    -0.461 OA
BRANCH   5   6
ATOM      6  C   UNL A   1      32.049  27.086  26.500  1.00  0.00     0.331 C 
ATOM      7  O   UNL A   1      31.034  27.355  27.131  1.00  0.00    -0.249 OA
BRANCH   6   8
ATOM      8  C   UNL A   1      32.246  25.750  25.761  1.00  0.00     0.139 C 
ATOM      9  N   UNL A   1      31.732  25.924  24.381  1.00  0.00    -0.309 N 
ATOM     10  C   UNL A   1      32.844  26.113  23.460  1.00  0.00     0.123 C 
ATOM     11  C   UNL A   1      34.023  25.414  24.094  1.00  0.00     0.025 C 
ATOM     12  C   UNL A   1      33.790  25.587  25.586  1.00  0.00     0.042 C 
ATOM     13  C   UNL A   1      31.692  24.491  26.443  1.00  0.00     0.048 C 
BRANCH   9  14
ATOM     14  C   UNL A   1      30.474  25.972  23.872  1.00  0.00     0.318 C 
ATOM     15  N   UNL A   1      29.753  27.091  23.705  1.00  0.00    -0.335 N 
ATOM     16  H   UNL A   1      28.801  26.881  23.572  1.00  0.00     0.165 HD
ATOM     17  O   UNL A   1      29.901  24.941  23.502  1.00  0.00    -0.249 OA
BRANCH  15  18
ATOM     18  C   UNL A   1      29.980  28.528  23.666  1.00  0.00     0.152 C 
BRANCH  18  19
ATOM     19  C   UNL A   1      28.835  29.372  23.037  1.00  0.00     0.083 C 
ATOM     20  C   UNL A   1      27.451  28.712  23.126  1.00  0.00     0.044 C 
ATOM     21  C   UNL A   1      28.787  30.802  23.571  1.00  0.00     0.039 C 
ATOM     22  O   UNL A   1      29.144  29.536  21.627  1.00  0.00    -0.373 OA
ATOM     23  C   UNL A   1      28.224  31.574  22.395  1.00  0.00     0.031 C 
ATOM     24  C   UNL A   1      28.853  30.874  21.214  1.00  0.00     0.161 C 
ENDBRANCH  18  19
ENDBRANCH  15  18
ENDBRANCH   9  14
ENDBRANCH   6   8
ENDBRANCH   5   6
ENDBRANCH   4   5
ENDBRANCH   3   4
ENDBRANCH   2   3
ENDBRANCH   1   2
BRANCH   1  25
ATOM     25  C   UNL A   1      33.891  33.325  27.917  1.00  0.00     0.188 C 
BRANCH  25  26
ATOM     26  O   UNL A   1      33.017  34.182  28.634  1.00  0.00    -0.376 OA
BRANCH  26  27
ATOM     27  C   UNL A   1      33.429  34.717  29.881  1.00  0.00     0.202 C 
BRANCH  27  28
ATOM     28  C   UNL A   1      34.614  34.081  30.631  1.00  0.00     0.261 C 
BRANCH  28  29
ATOM     29  O   UNL A   1      34.429  32.728  31.086  1.00  0.00    -0.460 OA
BRANCH  29  30
ATOM     30  C   UNL A   1      35.279  32.293  32.054  1.00  0.00     0.338 C 
ATOM     31  O   UNL A   1      35.138  32.397  33.255  1.00  0.00    -0.246 OA
BRANCH  30  32
ATOM     32  C   UNL A   1      36.340  31.452  31.438  1.00  0.00     0.060 A 
ATOM     33  C   UNL A   1      37.274  30.825  32.281  1.00  0.00     0.016 A 
ATOM     34  C   UNL A   1      36.415  31.268  30.057  1.00  0.00     0.016 A 
ATOM     35  C   UNL A   1      38.293  30.032  31.749  1.00  0.00     0.010 A 
ATOM     36  C   UNL A   1      37.465  30.509  29.521  1.00  0.00     0.010 A 
ATOM     37  C   UNL A   1      38.428  29.916  30.361  1.00  0.00    -0.014 A 
BRANCH  37  38
ATOM     38  C   UNL A   1      39.701  29.415  29.785  1.00  0.00     0.031 A 
ATOM     39  C   UNL A   1      40.844  30.389  29.670  1.00  0.00     0.074 A 
ATOM     40  C   UNL A   1      39.860  28.142  29.379  1.00  0.00     0.049 A 
ATOM     41  N   UNL A   1      42.015  30.242  29.107  1.00  0.00    -0.248 NA
ATOM     42  C   UNL A   1      40.627  31.715  30.272  1.00  0.00     0.031 C 
ATOM     43  C   UNL A   1      38.863  27.083  29.498  1.00  0.00     0.029 A 
ATOM     44  N   UNL A   1      40.930  27.535  28.766  1.00  0.00    -0.354 N 
ATOM     45  C   UNL A   1      42.664  31.460  29.269  1.00  0.00     0.074 A 
ATOM     46  C   UNL A   1      41.752  32.339  29.966  1.00  0.00     0.031 C 
ATOM     47  C   UNL A   1      39.359  25.957  28.952  1.00  0.00     0.029 A 
ATOM     48  C   UNL A   1      40.690  26.230  28.408  1.00  0.00     0.049 A 
ATOM     49  H   UNL A   1      41.786  27.990  28.600  1.00  0.00     0.167 HD
ATOM     50  C   UNL A   1      43.908  31.814  28.874  1.00  0.00     0.037 A 
ATOM     51  C   UNL A   1      41.447  25.372  27.694  1.00  0.00     0.037 A 
ATOM     52  C   UNL A   1      44.815  30.939  28.179  1.00  0.00     0.049 A 
ATOM     53  C   UNL A   1      42.796  25.820  27.179  1.00  0.00     0.074 A 
ATOM     54  C   UNL A   1      46.103  31.200  27.749  1.00  0.00     0.029 A 
ATOM     55  N   UNL A   1      44.521  29.637  27.804  1.00  0.00    -0.354 N 
ATOM     56  N   UNL A   1      43.411  26.967  27.346  1.00  0.00    -0.248 NA
ATOM     57  C   UNL A   1      43.555  24.853  26.372  1.00  0.00     0.031 C 
ATOM     58  C   UNL A   1      46.566  30.077  27.055  1.00  0.00     0.029 A 
ATOM     59  C   UNL A   1      45.594  29.092  27.117  1.00  0.00     0.049 A 
ATOM     60  H   UNL A   1      43.676  29.170  27.996  1.00  0.00     0.167 HD
ATOM     61  C   UNL A   1      44.637  26.844  26.702  1.00  0.00     0.074 A 
ATOM     62  C   UNL A   1      44.684  25.509  26.146  1.00  0.00     0.031 C 
ATOM     63  C   UNL A   1      45.636  27.754  26.585  1.00  0.00     0.037 A 
BRANCH  50  64
ATOM     64  C   UNL A   1      44.347  33.224  29.144  1.00  0.00     0.064 A 
ATOM     65  C   UNL A   1      44.131  34.259  28.223  1.00  0.00     0.173 A 
ATOM     66  C   UNL A   1      44.971  33.547  30.359  1.00  0.00     0.173 A 
ATOM     67  F   UNL A   1      43.554  34.000  27.039  1.00  0.00    -0.203 F 
ATOM     68  C   UNL A   1      44.549  35.559  28.496  1.00  0.00     0.198 A 
ATOM     69  C   UNL A   1      45.357  34.854  30.643  1.00  0.00     0.198 A 
ATOM     70  F   UNL A   1      45.201  32.595  31.276  1.00  0.00    -0.203 F 
ATOM     71  F   UNL A   1      44.379  36.522  27.578  1.00  0.00    -0.200 F 
ATOM     72  C   UNL A   1      45.152  35.857  29.708  1.00  0.00     0.200 A 
ATOM     73  F   UNL A   1      45.927  35.142  31.820  1.00  0.00    -0.200 F 
ATOM     74  F   UNL A   1      45.545  37.111  29.973  1.00  0.00    -0.200 F 
ENDBRANCH  50  64
BRANCH  51  75
ATOM     75  C   UNL A   1      40.947  24.003  27.390  1.00  0.00     0.064 A 
ATOM     76  C   UNL A   1      41.543  22.870  27.963  1.00  0.00     0.173 A 
ATOM     77  C   UNL A   1      39.892  23.795  26.488  1.00  0.00     0.173 A 
ATOM     78  F   UNL A   1      42.576  23.012  28.805  1.00  0.00    -0.203 F 
ATOM     79  C   UNL A   1      41.119  21.584  27.629  1.00  0.00     0.198 A 
ATOM     80  C   UNL A   1      39.447  22.511  26.180  1.00  0.00     0.198 A 
ATOM     81  F   UNL A   1      39.293  24.842  25.902  1.00  0.00    -0.203 F 
ATOM     82  F   UNL A   1      41.746  20.520  28.147  1.00  0.00    -0.200 F 
ATOM     83  C   UNL A   1      40.068  21.406  26.743  1.00  0.00     0.200 A 
ATOM     84  F   UNL A   1      38.426  22.344  25.328  1.00  0.00    -0.200 F 
ATOM     85  F   UNL A   1      39.662  20.171  26.421  1.00  0.00    -0.200 F 
ENDBRANCH  51  75
BRANCH  63  86
ATOM     86  C   UNL A   1      46.893  27.328  25.879  1.00  0.00     0.064 A 
ATOM     87  C   UNL A   1      47.112  27.601  24.520  1.00  0.00     0.173 A 
ATOM     88  C   UNL A   1      47.923  26.694  26.593  1.00  0.00     0.173 A 
ATOM     89  F   UNL A   1      46.157  28.196  23.788  1.00  0.00    -0.203 F 
ATOM     90  C   UNL A   1      48.304  27.234  23.899  1.00  0.00     0.198 A 
ATOM     91  C   UNL A   1      49.126  26.360  25.978  1.00  0.00     0.198 A 
ATOM     92  F   UNL A   1      47.771  26.419  27.897  1.00  0.00    -0.203 F 
ATOM     93  F   UNL A   1      48.473  27.464  22.589  1.00  0.00    -0.200 F 
ATOM     94  C   UNL A   1      49.313  26.623  24.630  1.00  0.00     0.200 A 
ATOM     95  F   UNL A   1      50.106  25.789  26.691  1.00  0.00    -0.200 F 
ATOM     96  F   UNL A   1      50.464  26.285  24.033  1.00  0.00    -0.200 F 
ENDBRANCH  63  86
ENDBRANCH  37  38
ENDBRANCH  30  32
ENDBRANCH  29  30
ENDBRANCH  28  29
ENDBRANCH  27  28
ENDBRANCH  26  27
ENDBRANCH  25  26
ENDBRANCH   1  25
TORSDOF 20
ENDMDL
MODEL 2
REMARK VINA RESULT:     -11.4      1.289      3.271
REMARK SMILES C[C@]1(CNC(=O)N2CCC[C@@]2(C)C(=O)OCCOCCOCCOC(=O)c2ccc(-c3c4nc(c(-c5c(F)c(F)c(F)c(F)c5F)c5ccc([nH]5)c(-c5c(F)c(F)c(F)c(F)c5F)c5nc(c(-c6c(F)c(F)c(F)c(F)c6F)c6ccc3[nH]6)C=C5)C=C4)cc2)CCCO1
REMARK SMILES IDX 19 1 18 2 17 3 16 4 15 5 13 6 14 7 11 8 7 9 8 10 9 11 10 12
REMARK SMILES IDX 12 13 5 14 4 15 6 17 3 18 2 19 1 20 90 21 93 22 91 23 92 24
REMARK SMILES IDX 20 25 21 26 22 27 23 28 24 29 25 30 26 31 27 32 28 33 89 34
REMARK SMILES IDX 29 35 88 36 30 37 31 38 32 39 82 40 33 41 87 42 81 43 83 44
REMARK SMILES IDX 34 45 86 46 80 47 79 48 35 50 67 51 47 52 66 53 48 54 51 55
REMARK SMILES IDX 65 56 84 57 49 58 50 59 64 61 85 62 52 63 36 64 37 65 45 66
REMARK SMILES IDX 38 67 39 68 43 69 46 70 40 71 41 72 44 73 42 74 68 75 69 76
REMARK SMILES IDX 77 77 70 78 71 79 75 80 78 81 72 82 73 83 76 84 74 85 53 86
REMARK SMILES IDX 54 87 62 88 55 89 56 90 60 91 63 92 57 93 58 94 61 95 59 96
REMARK H PARENT 4 16 83 49 51 60
REMARK Flexibility Score: inf
ROOT
ATOM      1  C   UNL A   1      33.987  31.843  27.980  1.00  0.00     0.188 C 
ENDROOT
BRANCH   1   2
ATOM      2  O   UNL A   1      33.028  31.483  27.004  1.00  0.00    -0.376 OA
BRANCH   2   3
ATOM      3  C   UNL A   1      32.697  30.105  26.955  1.00  0.00     0.202 C 
BRANCH   3   4
ATOM      4  C   UNL A   1      33.877  29.167  26.710  1.00  0.00     0.261 C 
BRANCH   4   5
ATOM      5  O   UNL A   1      33.994  28.518  25.425  1.00  0.00    -0.461 OA
BRANCH   5   6
ATOM      6  C   UNL A   1      33.086  27.595  25.023  1.00  0.00     0.331 C 
ATOM      7  O   UNL A   1      32.737  26.626  25.687  1.00  0.00    -0.249 OA
BRANCH   6   8
ATOM      8  C   UNL A   1      32.461  27.945  23.661  1.00  0.00     0.139 C 
ATOM      9  N   UNL A   1      32.187  26.671  22.955  1.00  0.00    -0.309 N 
ATOM     10  C   UNL A   1      30.770  26.349  23.048  1.00  0.00     0.123 C 
ATOM     11  C   UNL A   1      30.060  27.672  23.204  1.00  0.00     0.025 C 
ATOM     12  C   UNL A   1      31.046  28.526  23.983  1.00  0.00     0.042 C 
ATOM     13  C   UNL A   1      33.220  28.954  22.787  1.00  0.00     0.048 C 
BRANCH   9  14
ATOM     14  C   UNL A   1      32.995  25.791  22.309  1.00  0.00     0.318 C 
ATOM     15  N   UNL A   1      33.537  24.695  22.863  1.00  0.00    -0.335 N 
ATOM     16  H   UNL A   1      34.276  24.351  22.312  1.00  0.00     0.165 HD
ATOM     17  O   UNL A   1      33.278  25.947  21.116  1.00  0.00    -0.249 OA
BRANCH  15  18
ATOM     18  C   UNL A   1      33.342  23.871  24.047  1.00  0.00     0.152 C 
BRANCH  18  19
ATOM     19  C   UNL A   1      34.503  22.894  24.384  1.00  0.00     0.083 C 
ATOM     20  C   UNL A   1      35.766  23.107  23.536  1.00  0.00     0.044 C 
ATOM     21  C   UNL A   1      34.850  22.872  25.871  1.00  0.00     0.039 C 
ATOM     22  O   UNL A   1      34.026  21.548  24.116  1.00  0.00    -0.373 OA
ATOM     23  C   UNL A   1      35.354  21.457  26.071  1.00  0.00     0.031 C 
ATOM     24  C   UNL A   1      34.462  20.660  25.150  1.00  0.00     0.161 C 
ENDBRANCH  18  19
ENDBRANCH  15  18
ENDBRANCH   9  14
ENDBRANCH   6   8
ENDBRANCH   5   6
ENDBRANCH   4   5
ENDBRANCH   3   4
ENDBRANCH   2   3
ENDBRANCH   1   2
BRANCH   1  25
ATOM     25  C   UNL A   1      34.304  33.354  28.071  1.00  0.00     0.188 C 
BRANCH  25  26
ATOM     26  O   UNL A   1      33.400  34.255  28.689  1.00  0.00    -0.376 OA
BRANCH  26  27
ATOM     27  C   UNL A   1      33.558  34.578  30.061  1.00  0.00     0.202 C 
BRANCH  27  28
ATOM     28  C   UNL A   1      34.759  34.014  30.843  1.00  0.00     0.261 C 
BRANCH  28  29
ATOM     29  O   UNL A   1      34.616  32.676  31.356  1.00  0.00    -0.460 OA
BRANCH  29  30
ATOM     30  C   UNL A   1      35.528  32.283  32.285  1.00  0.00     0.338 C 
ATOM     31  O   UNL A   1      35.454  32.418  33.488  1.00  0.00    -0.246 OA
BRANCH  30  32
ATOM     32  C   UNL A   1      36.567  31.442  31.631  1.00  0.00     0.060 A 
ATOM     33  C   UNL A   1      37.519  30.800  32.442  1.00  0.00     0.016 A 
ATOM     34  C   UNL A   1      36.603  31.272  30.246  1.00  0.00     0.016 A 
ATOM     35  C   UNL A   1      38.519  30.007  31.875  1.00  0.00     0.010 A 
ATOM     36  C   UNL A   1      37.633  30.513  29.675  1.00  0.00     0.010 A 
ATOM     37  C   UNL A   1      38.614  29.905  30.482  1.00  0.00    -0.014 A 
BRANCH  37  38
ATOM     38  C   UNL A   1      39.869  29.402  29.867  1.00  0.00     0.031 A 
ATOM     39  C   UNL A   1      41.012  30.372  29.725  1.00  0.00     0.074 A 
ATOM     40  C   UNL A   1      40.010  28.132  29.448  1.00  0.00     0.049 A 
ATOM     41  N   UNL A   1      42.166  30.224  29.128  1.00  0.00    -0.248 NA
ATOM     42  C   UNL A   1      40.818  31.695  30.343  1.00  0.00     0.031 C 
ATOM     43  C   UNL A   1      39.012  27.076  29.588  1.00  0.00     0.029 A 
ATOM     44  N   UNL A   1      41.059  27.524  28.800  1.00  0.00    -0.354 N 
ATOM     45  C   UNL A   1      42.825  31.438  29.281  1.00  0.00     0.074 A 
ATOM     46  C   UNL A   1      41.937  32.316  30.009  1.00  0.00     0.031 C 
ATOM     47  C   UNL A   1      39.487  25.952  29.020  1.00  0.00     0.029 A 
ATOM     48  C   UNL A   1      40.804  26.222  28.441  1.00  0.00     0.049 A 
ATOM     49  H   UNL A   1      41.913  27.977  28.613  1.00  0.00     0.167 HD
ATOM     50  C   UNL A   1      44.059  31.789  28.852  1.00  0.00     0.037 A 
ATOM     51  C   UNL A   1      41.536  25.367  27.699  1.00  0.00     0.037 A 
ATOM     52  C   UNL A   1      44.941  30.915  28.125  1.00  0.00     0.049 A 
ATOM     53  C   UNL A   1      42.872  25.812  27.149  1.00  0.00     0.074 A 
ATOM     54  C   UNL A   1      46.218  31.173  27.660  1.00  0.00     0.029 A 
ATOM     55  N   UNL A   1      44.631  29.617  27.750  1.00  0.00    -0.354 N 
ATOM     56  N   UNL A   1      43.496  26.955  27.306  1.00  0.00    -0.248 NA
ATOM     57  C   UNL A   1      43.603  24.847  26.314  1.00  0.00     0.031 C 
ATOM     58  C   UNL A   1      46.656  30.053  26.946  1.00  0.00     0.029 A 
ATOM     59  C   UNL A   1      45.682  29.072  27.029  1.00  0.00     0.049 A 
ATOM     60  H   UNL A   1      43.790  29.153  27.964  1.00  0.00     0.167 HD
ATOM     61  C   UNL A   1      44.703  26.831  26.626  1.00  0.00     0.074 A 
ATOM     62  C   UNL A   1      44.728  25.500  26.060  1.00  0.00     0.031 C 
ATOM     63  C   UNL A   1      45.702  27.737  26.487  1.00  0.00     0.037 A 
BRANCH  50  64
ATOM     64  C   UNL A   1      44.512  33.195  29.119  1.00  0.00     0.064 A 
ATOM     65  C   UNL A   1      45.225  33.539  30.277  1.00  0.00     0.173 A 
ATOM     66  C   UNL A   1      44.248  34.209  28.185  1.00  0.00     0.173 A 
ATOM     67  F   UNL A   1      45.488  32.611  31.209  1.00  0.00    -0.203 F 
ATOM     68  C   UNL A   1      45.633  34.851  30.503  1.00  0.00     0.198 A 
ATOM     69  C   UNL A   1      44.687  35.513  28.398  1.00  0.00     0.198 A 
ATOM     70  F   UNL A   1      43.570  33.935  27.060  1.00  0.00    -0.203 F 
ATOM     71  F   UNL A   1      46.268  35.167  31.640  1.00  0.00    -0.200 F 
ATOM     72  C   UNL A   1      45.373  35.835  29.560  1.00  0.00     0.200 A 
ATOM     73  F   UNL A   1      44.446  36.458  27.480  1.00  0.00    -0.200 F 
ATOM     74  F   UNL A   1      45.774  37.095  29.775  1.00  0.00    -0.200 F 
ENDBRANCH  50  64
BRANCH  51  75
ATOM     75  C   UNL A   1      41.021  24.002  27.400  1.00  0.00     0.064 A 
ATOM     76  C   UNL A   1      41.613  22.864  27.968  1.00  0.00     0.173 A 
ATOM     77  C   UNL A   1      39.956  23.803  26.509  1.00  0.00     0.173 A 
ATOM     78  F   UNL A   1      42.655  22.997  28.800  1.00  0.00    -0.203 F 
ATOM     79  C   UNL A   1      41.174  21.582  27.639  1.00  0.00     0.198 A 
ATOM     80  C   UNL A   1      39.497  22.522  26.206  1.00  0.00     0.198 A 
ATOM     81  F   UNL A   1      39.360  24.855  25.928  1.00  0.00    -0.203 F 
ATOM     82  F   UNL A   1      41.797  20.512  28.151  1.00  0.00    -0.200 F 
ATOM     83  C   UNL A   1      40.113  21.412  26.763  1.00  0.00     0.200 A 
ATOM     84  F   UNL A   1      38.466  22.364  25.364  1.00  0.00    -0.200 F 
ATOM     85  F   UNL A   1      39.693  20.180  26.445  1.00  0.00    -0.200 F 
ENDBRANCH  51  75
BRANCH  63  86
ATOM     86  C   UNL A   1      46.937  27.311  25.743  1.00  0.00     0.064 A 
ATOM     87  C   UNL A   1      47.120  27.595  24.381  1.00  0.00     0.173 A 
ATOM     88  C   UNL A   1      47.982  26.665  26.422  1.00  0.00     0.173 A 
ATOM     89  F   UNL A   1      46.148  28.202  23.681  1.00  0.00    -0.203 F 
ATOM     90  C   UNL A   1      48.291  27.226  23.724  1.00  0.00     0.198 A 
ATOM     91  C   UNL A   1      49.166  26.330  25.771  1.00  0.00     0.198 A 
ATOM     92  F   UNL A   1      47.865  26.379  27.728  1.00  0.00    -0.203 F 
ATOM     93  F   UNL A   1      48.425  27.468  22.412  1.00  0.00    -0.200 F 
ATOM     94  C   UNL A   1      49.317  26.604  24.420  1.00  0.00     0.200 A 
ATOM     95  F   UNL A   1      50.162  25.746  26.451  1.00  0.00    -0.200 F 
ATOM     96  F   UNL A   1      50.449  26.265  23.789  1.00  0.00    -0.200 F 
ENDBRANCH  63  86
ENDBRANCH  37  38
ENDBRANCH  30  32
ENDBRANCH  29  30
ENDBRANCH  28  29
ENDBRANCH  27  28
ENDBRANCH  26  27
ENDBRANCH  25  26
ENDBRANCH   1  25
TORSDOF 20
ENDMDL
MODEL 3
REMARK VINA RESULT:     -11.2      4.207      9.604
REMARK SMILES C[C@]1(CNC(=O)N2CCC[C@@]2(C)C(=O)OCCOCCOCCOC(=O)c2ccc(-c3c4nc(c(-c5c(F)c(F)c(F)c(F)c5F)c5ccc([nH]5)c(-c5c(F)c(F)c(F)c(F)c5F)c5nc(c(-c6c(F)c(F)c(F)c(F)c6F)c6ccc3[nH]6)C=C5)C=C4)cc2)CCCO1
REMARK SMILES IDX 19 1 18 2 17 3 16 4 15 5 13 6 14 7 11 8 7 9 8 10 9 11 10 12
REMARK SMILES IDX 12 13 5 14 4 15 6 17 3 18 2 19 1 20 90 21 93 22 91 23 92 24
REMARK SMILES IDX 20 25 21 26 22 27 23 28 24 29 25 30 26 31 27 32 28 33 89 34
REMARK SMILES IDX 29 35 88 36 30 37 31 38 32 39 82 40 33 41 87 42 81 43 83 44
REMARK SMILES IDX 34 45 86 46 80 47 79 48 35 50 67 51 47 52 66 53 48 54 51 55
REMARK SMILES IDX 65 56 84 57 49 58 50 59 64 61 85 62 52 63 36 64 37 65 45 66
REMARK SMILES IDX 38 67 39 68 43 69 46 70 40 71 41 72 44 73 42 74 68 75 69 76
REMARK SMILES IDX 77 77 70 78 71 79 75 80 78 81 72 82 73 83 76 84 74 85 53 86
REMARK SMILES IDX 54 87 62 88 55 89 56 90 60 91 63 92 57 93 58 94 61 95 59 96
REMARK H PARENT 4 16 83 49 51 60
REMARK Flexibility Score: inf
ROOT
ATOM      1  C   UNL A   1      39.774  22.261  26.771  1.00  0.00     0.188 C 
ENDROOT
BRANCH   1   2
ATOM      2  O   UNL A   1      39.080  21.723  25.663  1.00  0.00    -0.376 OA
BRANCH   2   3
ATOM      3  C   UNL A   1      37.682  21.961  25.646  1.00  0.00     0.202 C 
BRANCH   3   4
ATOM      4  C   UNL A   1      37.272  23.373  25.234  1.00  0.00     0.261 C 
BRANCH   4   5
ATOM      5  O   UNL A   1      35.866  23.689  25.137  1.00  0.00    -0.461 OA
BRANCH   5   6
ATOM      6  C   UNL A   1      35.254  23.791  23.932  1.00  0.00     0.331 C 
ATOM      7  O   UNL A   1      35.622  23.220  22.913  1.00  0.00    -0.249 OA
BRANCH   6   8
ATOM      8  C   UNL A   1      33.971  24.640  23.999  1.00  0.00     0.139 C 
ATOM      9  N   UNL A   1      32.871  23.750  24.440  1.00  0.00    -0.309 N 
ATOM     10  C   UNL A   1      32.589  23.974  25.851  1.00  0.00     0.123 C 
ATOM     11  C   UNL A   1      33.003  25.400  26.128  1.00  0.00     0.025 C 
ATOM     12  C   UNL A   1      34.179  25.626  25.193  1.00  0.00     0.042 C 
ATOM     13  C   UNL A   1      33.610  25.452  22.747  1.00  0.00     0.048 C 
BRANCH   9  14
ATOM     14  C   UNL A   1      32.153  22.794  23.796  1.00  0.00     0.318 C 
ATOM     15  N   UNL A   1      32.475  21.491  23.748  1.00  0.00    -0.335 N 
ATOM     16  H   UNL A   1      31.979  21.032  23.033  1.00  0.00     0.165 HD
ATOM     17  O   UNL A   1      31.107  23.078  23.201  1.00  0.00    -0.249 OA
BRANCH  15  18
ATOM     18  C   UNL A   1      33.348  20.566  24.455  1.00  0.00     0.152 C 
BRANCH  18  19
ATOM     19  C   UNL A   1      33.069  19.057  24.207  1.00  0.00     0.083 C 
ATOM     20  C   UNL A   1      32.351  18.763  22.881  1.00  0.00     0.044 C 
ATOM     21  C   UNL A   1      34.318  18.189  24.346  1.00  0.00     0.039 C 
ATOM     22  O   UNL A   1      32.202  18.596  25.277  1.00  0.00    -0.373 OA
ATOM     23  C   UNL A   1      33.750  16.868  24.822  1.00  0.00     0.031 C 
ATOM     24  C   UNL A   1      32.622  17.304  25.725  1.00  0.00     0.161 C 
ENDBRANCH  18  19
ENDBRANCH  15  18
ENDBRANCH   9  14
ENDBRANCH   6   8
ENDBRANCH   5   6
ENDBRANCH   4   5
ENDBRANCH   3   4
ENDBRANCH   2   3
ENDBRANCH   1   2
BRANCH   1  25
ATOM     25  C   UNL A   1      41.026  21.471  27.215  1.00  0.00     0.188 C 
BRANCH  25  26
ATOM     26  O   UNL A   1      41.012  20.054  27.282  1.00  0.00    -0.376 OA
BRANCH  26  27
ATOM     27  C   UNL A   1      42.238  19.341  27.298  1.00  0.00     0.202 C 
BRANCH  27  28
ATOM     28  C   UNL A   1      42.702  18.592  26.035  1.00  0.00     0.261 C 
BRANCH  28  29
ATOM     29  O   UNL A   1      42.992  19.403  24.881  1.00  0.00    -0.460 OA
BRANCH  29  30
ATOM     30  C   UNL A   1      44.306  19.560  24.566  1.00  0.00     0.338 C 
ATOM     31  O   UNL A   1      45.022  18.766  23.993  1.00  0.00    -0.246 OA
BRANCH  30  32
ATOM     32  C   UNL A   1      44.713  20.966  24.832  1.00  0.00     0.060 A 
ATOM     33  C   UNL A   1      45.258  21.281  26.089  1.00  0.00     0.016 A 
ATOM     34  C   UNL A   1      44.578  21.961  23.864  1.00  0.00     0.016 A 
ATOM     35  C   UNL A   1      45.649  22.587  26.390  1.00  0.00     0.010 A 
ATOM     36  C   UNL A   1      44.927  23.281  24.181  1.00  0.00     0.010 A 
ATOM     37  C   UNL A   1      45.432  23.606  25.455  1.00  0.00    -0.014 A 
BRANCH  37  38
ATOM     38  C   UNL A   1      45.475  25.025  25.891  1.00  0.00     0.031 A 
ATOM     39  C   UNL A   1      46.802  25.734  25.821  1.00  0.00     0.074 A 
ATOM     40  C   UNL A   1      44.386  25.681  26.330  1.00  0.00     0.049 A 
ATOM     41  N   UNL A   1      47.137  26.926  26.241  1.00  0.00    -0.248 NA
ATOM     42  C   UNL A   1      47.903  24.985  25.192  1.00  0.00     0.031 C 
ATOM     43  C   UNL A   1      43.032  25.138  26.382  1.00  0.00     0.029 A 
ATOM     44  N   UNL A   1      44.261  26.954  26.832  1.00  0.00    -0.354 N 
ATOM     45  C   UNL A   1      48.489  27.061  25.946  1.00  0.00     0.074 A 
ATOM     46  C   UNL A   1      48.916  25.825  25.329  1.00  0.00     0.031 C 
ATOM     47  C   UNL A   1      42.213  26.065  26.912  1.00  0.00     0.029 A 
ATOM     48  C   UNL A   1      42.994  27.249  27.274  1.00  0.00     0.049 A 
ATOM     49  H   UNL A   1      45.007  27.595  26.871  1.00  0.00     0.167 HD
ATOM     50  C   UNL A   1      49.300  28.120  26.169  1.00  0.00     0.037 A 
ATOM     51  C   UNL A   1      42.532  28.335  27.926  1.00  0.00     0.037 A 
ATOM     52  C   UNL A   1      48.875  29.349  26.784  1.00  0.00     0.049 A 
ATOM     53  C   UNL A   1      43.479  29.468  28.251  1.00  0.00     0.074 A 
ATOM     54  C   UNL A   1      49.620  30.486  27.040  1.00  0.00     0.029 A 
ATOM     55  N   UNL A   1      47.593  29.594  27.249  1.00  0.00    -0.354 N 
ATOM     56  N   UNL A   1      44.752  29.597  27.958  1.00  0.00    -0.248 NA
ATOM     57  C   UNL A   1      42.925  30.606  28.999  1.00  0.00     0.031 C 
ATOM     58  C   UNL A   1      48.804  31.397  27.719  1.00  0.00     0.029 A 
ATOM     59  C   UNL A   1      47.533  30.855  27.822  1.00  0.00     0.049 A 
ATOM     60  H   UNL A   1      46.838  28.966  27.183  1.00  0.00     0.167 HD
ATOM     61  C   UNL A   1      45.136  30.839  28.451  1.00  0.00     0.074 A 
ATOM     62  C   UNL A   1      43.961  31.430  29.055  1.00  0.00     0.031 C 
ATOM     63  C   UNL A   1      46.351  31.439  28.403  1.00  0.00     0.037 A 
BRANCH  50  64
ATOM     64  C   UNL A   1      50.745  27.979  25.784  1.00  0.00     0.064 A 
ATOM     65  C   UNL A   1      51.187  28.181  24.469  1.00  0.00     0.173 A 
ATOM     66  C   UNL A   1      51.705  27.661  26.757  1.00  0.00     0.173 A 
ATOM     67  F   UNL A   1      50.307  28.470  23.498  1.00  0.00    -0.203 F 
ATOM     68  C   UNL A   1      52.532  28.044  24.137  1.00  0.00     0.198 A 
ATOM     69  C   UNL A   1      53.054  27.558  26.429  1.00  0.00     0.198 A 
ATOM     70  F   UNL A   1      51.336  27.458  28.032  1.00  0.00    -0.203 F 
ATOM     71  F   UNL A   1      52.924  28.191  22.863  1.00  0.00    -0.200 F 
ATOM     72  C   UNL A   1      53.465  27.742  25.118  1.00  0.00     0.200 A 
ATOM     73  F   UNL A   1      53.954  27.280  27.380  1.00  0.00    -0.200 F 
ATOM     74  F   UNL A   1      54.761  27.619  24.798  1.00  0.00    -0.200 F 
ENDBRANCH  50  64
BRANCH  51  75
ATOM     75  C   UNL A   1      41.106  28.407  28.350  1.00  0.00     0.064 A 
ATOM     76  C   UNL A   1      40.124  28.935  27.500  1.00  0.00     0.173 A 
ATOM     77  C   UNL A   1      40.703  27.991  29.628  1.00  0.00     0.173 A 
ATOM     78  F   UNL A   1      40.463  29.378  26.280  1.00  0.00    -0.203 F 
ATOM     79  C   UNL A   1      38.800  29.064  27.918  1.00  0.00     0.198 A 
ATOM     80  C   UNL A   1      39.373  28.090  30.033  1.00  0.00     0.198 A 
ATOM     81  F   UNL A   1      41.602  27.489  30.486  1.00  0.00    -0.203 F 
ATOM     82  F   UNL A   1      37.895  29.626  27.106  1.00  0.00    -0.200 F 
ATOM     83  C   UNL A   1      38.425  28.636  29.182  1.00  0.00     0.200 A 
ATOM     84  F   UNL A   1      39.014  27.668  31.254  1.00  0.00    -0.200 F 
ATOM     85  F   UNL A   1      37.154  28.761  29.584  1.00  0.00    -0.200 F 
ENDBRANCH  51  75
BRANCH  63  86
ATOM     86  C   UNL A   1      46.471  32.828  28.966  1.00  0.00     0.064 A 
ATOM     87  C   UNL A   1      46.225  33.970  28.190  1.00  0.00     0.173 A 
ATOM     88  C   UNL A   1      46.773  33.014  30.325  1.00  0.00     0.173 A 
ATOM     89  F   UNL A   1      45.942  33.850  26.884  1.00  0.00    -0.203 F 
ATOM     90  C   UNL A   1      46.301  35.245  28.747  1.00  0.00     0.198 A 
ATOM     91  C   UNL A   1      46.814  34.287  30.887  1.00  0.00     0.198 A 
ATOM     92  F   UNL A   1      47.007  31.956  31.117  1.00  0.00    -0.203 F 
ATOM     93  F   UNL A   1      46.106  36.323  27.975  1.00  0.00    -0.200 F 
ATOM     94  C   UNL A   1      46.585  35.402  30.095  1.00  0.00     0.200 A 
ATOM     95  F   UNL A   1      47.069  34.434  32.194  1.00  0.00    -0.200 F 
ATOM     96  F   UNL A   1      46.642  36.629  30.631  1.00  0.00    -0.200 F 
ENDBRANCH  63  86
ENDBRANCH  37  38
ENDBRANCH  30  32
ENDBRANCH  29  30
ENDBRANCH  28  29
ENDBRANCH  27  28
ENDBRANCH  26  27
ENDBRANCH  25  26
ENDBRANCH   1  25
TORSDOF 20
ENDMDL
