MODEL 1
REMARK VINA RESULT:     -11.5      0.000      0.000
REMARK SMILES O=C(OCCOCCOCCOC(=O)c1ccc(-c2c3nc(c(-c4c(F)c(F)c(F)c(F)c4F)c4ccc([nH]4)c(-c4c(F)c(F)c(F)c(F)c4F)c4nc(c(-c5c(F)c(F)c(F)c(F)c5F)c5ccc2[nH]5)C=C4)C=C3)cc1)c1ccc(N/C=C\C(=O)c2ccco2)cc1
REMARK SMILES IDX 7 1 6 2 5 3 4 4 3 5 2 6 1 7 78 8 79 9 93 10 80 11 92 12
REMARK SMILES IDX 81 13 82 14 83 16 84 17 85 18 86 19 87 20 88 21 91 22 89 23
REMARK SMILES IDX 90 24 8 25 9 26 10 27 11 28 12 29 13 30 14 31 15 32 16 33
REMARK SMILES IDX 77 34 17 35 76 36 18 37 19 38 20 39 70 40 21 41 75 42 69 43
REMARK SMILES IDX 71 44 22 45 74 46 68 47 67 48 23 50 55 51 35 52 54 53 36 54
REMARK SMILES IDX 39 55 53 56 72 57 37 58 38 59 52 61 73 62 40 63 24 64 25 65
REMARK SMILES IDX 33 66 26 67 27 68 31 69 34 70 28 71 29 72 32 73 30 74 56 75
REMARK SMILES IDX 57 76 65 77 58 78 59 79 63 80 66 81 60 82 61 83 64 84 62 85
REMARK SMILES IDX 41 86 42 87 50 88 43 89 44 90 48 91 51 92 45 93 46 94 49 95
REMARK SMILES IDX 47 96
REMARK H PARENT 82 15 71 49 39 60
REMARK Flexibility Score: inf
ROOT
ATOM      1  C   UNL A   1      42.130  19.808  27.386  1.00  0.00     0.188 C 
ENDROOT
BRANCH   1   2
ATOM      2  O   UNL A   1      40.742  20.110  27.584  1.00  0.00    -0.376 OA
BRANCH   2   3
ATOM      3  C   UNL A   1      40.383  21.443  27.217  1.00  0.00     0.202 C 
BRANCH   3   4
ATOM      4  C   UNL A   1      39.622  21.518  25.891  1.00  0.00     0.261 C 
BRANCH   4   5
ATOM      5  O   UNL A   1      38.269  21.953  26.097  1.00  0.00    -0.460 OA
BRANCH   5   6
ATOM      6  C   UNL A   1      37.760  23.193  25.903  1.00  0.00     0.338 C 
ATOM      7  O   UNL A   1      38.373  24.159  26.358  1.00  0.00    -0.246 OA
BRANCH   6   8
ATOM      8  C   UNL A   1      36.524  23.473  25.107  1.00  0.00     0.060 A 
ATOM      9  C   UNL A   1      36.240  22.975  23.835  1.00  0.00     0.018 A 
ATOM     10  C   UNL A   1      35.533  24.237  25.741  1.00  0.00     0.018 A 
ATOM     11  C   UNL A   1      35.048  23.303  23.172  1.00  0.00     0.027 A 
ATOM     12  C   UNL A   1      34.327  24.528  25.095  1.00  0.00     0.027 A 
ATOM     13  C   UNL A   1      34.074  24.085  23.790  1.00  0.00     0.038 A 
BRANCH  13  14
ATOM     14  N   UNL A   1      32.911  24.531  23.146  1.00  0.00    -0.362 N 
ATOM     15  H   UNL A   1      32.062  24.200  23.520  1.00  0.00     0.166 HD
BRANCH  14  16
ATOM     16  C   UNL A   1      32.800  25.366  22.067  1.00  0.00     0.087 C 
ATOM     17  C   UNL A   1      32.458  26.661  22.025  1.00  0.00     0.074 C 
BRANCH  17  18
ATOM     18  C   UNL A   1      32.182  27.564  23.184  1.00  0.00     0.222 C 
ATOM     19  O   UNL A   1      32.888  27.437  24.184  1.00  0.00    -0.286 OA
BRANCH  18  20
ATOM     20  C   UNL A   1      31.096  28.514  23.089  1.00  0.00     0.173 A 
ATOM     21  C   UNL A   1      30.598  29.452  23.977  1.00  0.00     0.054 A 
ATOM     22  O   UNL A   1      30.308  28.485  21.971  1.00  0.00    -0.461 OA
ATOM     23  C   UNL A   1      29.447  30.014  23.370  1.00  0.00     0.043 A 
ATOM     24  C   UNL A   1      29.318  29.394  22.150  1.00  0.00     0.196 A 
ENDBRANCH  18  20
ENDBRANCH  17  18
ENDBRANCH  14  16
ENDBRANCH  13  14
ENDBRANCH   6   8
ENDBRANCH   5   6
ENDBRANCH   4   5
ENDBRANCH   3   4
ENDBRANCH   2   3
ENDBRANCH   1   2
BRANCH   1  25
ATOM     25  C   UNL A   1      42.348  19.245  25.979  1.00  0.00     0.188 C 
BRANCH  25  26
ATOM     26  O   UNL A   1      43.056  20.121  25.096  1.00  0.00    -0.376 OA
BRANCH  26  27
ATOM     27  C   UNL A   1      43.732  21.226  25.692  1.00  0.00     0.202 C 
BRANCH  27  28
ATOM     28  C   UNL A   1      44.220  22.308  24.723  1.00  0.00     0.261 C 
BRANCH  28  29
ATOM     29  O   UNL A   1      43.355  23.457  24.638  1.00  0.00    -0.460 OA
BRANCH  29  30
ATOM     30  C   UNL A   1      43.960  24.628  24.937  1.00  0.00     0.338 C 
ATOM     31  O   UNL A   1      45.121  24.949  24.710  1.00  0.00    -0.246 OA
BRANCH  30  32
ATOM     32  C   UNL A   1      43.043  25.561  25.606  1.00  0.00     0.060 A 
ATOM     33  C   UNL A   1      43.474  26.874  25.824  1.00  0.00     0.016 A 
ATOM     34  C   UNL A   1      41.913  25.065  26.263  1.00  0.00     0.016 A 
ATOM     35  C   UNL A   1      42.823  27.669  26.769  1.00  0.00     0.010 A 
ATOM     36  C   UNL A   1      41.260  25.866  27.207  1.00  0.00     0.010 A 
ATOM     37  C   UNL A   1      41.753  27.147  27.510  1.00  0.00    -0.014 A 
BRANCH  37  38
ATOM     38  C   UNL A   1      41.292  27.859  28.732  1.00  0.00     0.031 A 
ATOM     39  C   UNL A   1      42.063  27.687  30.017  1.00  0.00     0.074 A 
ATOM     40  C   UNL A   1      40.229  28.680  28.699  1.00  0.00     0.049 A 
ATOM     41  N   UNL A   1      41.851  28.223  31.194  1.00  0.00    -0.248 NA
ATOM     42  C   UNL A   1      43.228  26.788  29.968  1.00  0.00     0.031 C 
ATOM     43  C   UNL A   1      39.411  28.957  27.522  1.00  0.00     0.029 A 
ATOM     44  N   UNL A   1      39.658  29.434  29.694  1.00  0.00    -0.354 N 
ATOM     45  C   UNL A   1      42.847  27.721  32.023  1.00  0.00     0.074 A 
ATOM     46  C   UNL A   1      43.647  26.817  31.226  1.00  0.00     0.031 C 
ATOM     47  C   UNL A   1      38.443  29.825  27.861  1.00  0.00     0.029 A 
ATOM     48  C   UNL A   1      38.561  30.147  29.284  1.00  0.00     0.049 A 
ATOM     49  H   UNL A   1      40.004  29.460  30.617  1.00  0.00     0.167 HD
ATOM     50  C   UNL A   1      43.084  27.996  33.329  1.00  0.00     0.037 A 
ATOM     51  C   UNL A   1      37.745  30.964  29.978  1.00  0.00     0.037 A 
ATOM     52  C   UNL A   1      42.310  28.909  34.127  1.00  0.00     0.049 A 
ATOM     53  C   UNL A   1      38.009  31.225  31.439  1.00  0.00     0.074 A 
ATOM     54  C   UNL A   1      42.501  29.278  35.448  1.00  0.00     0.029 A 
ATOM     55  N   UNL A   1      41.195  29.597  33.677  1.00  0.00    -0.354 N 
ATOM     56  N   UNL A   1      38.978  30.780  32.201  1.00  0.00    -0.248 NA
ATOM     57  C   UNL A   1      37.063  32.112  32.134  1.00  0.00     0.031 C 
ATOM     58  C   UNL A   1      41.480  30.164  35.809  1.00  0.00     0.029 A 
ATOM     59  C   UNL A   1      40.675  30.374  34.700  1.00  0.00     0.049 A 
ATOM     60  H   UNL A   1      40.826  29.542  32.767  1.00  0.00     0.167 HD
ATOM     61  C   UNL A   1      38.780  31.359  33.448  1.00  0.00     0.074 A 
ATOM     62  C   UNL A   1      37.601  32.191  33.343  1.00  0.00     0.031 C 
ATOM     63  C   UNL A   1      39.514  31.216  34.579  1.00  0.00     0.037 A 
BRANCH  50  64
ATOM     64  C   UNL A   1      44.229  27.287  33.986  1.00  0.00     0.064 A 
ATOM     65  C   UNL A   1      45.514  27.849  34.026  1.00  0.00     0.173 A 
ATOM     66  C   UNL A   1      44.030  26.052  34.620  1.00  0.00     0.173 A 
ATOM     67  F   UNL A   1      45.755  29.023  33.426  1.00  0.00    -0.203 F 
ATOM     68  C   UNL A   1      46.563  27.188  34.659  1.00  0.00     0.198 A 
ATOM     69  C   UNL A   1      45.076  25.404  35.271  1.00  0.00     0.198 A 
ATOM     70  F   UNL A   1      42.818  25.477  34.614  1.00  0.00    -0.203 F 
ATOM     71  F   UNL A   1      47.791  27.725  34.657  1.00  0.00    -0.200 F 
ATOM     72  C   UNL A   1      46.342  25.970  35.286  1.00  0.00     0.200 A 
ATOM     73  F   UNL A   1      44.859  24.232  35.884  1.00  0.00    -0.200 F 
ATOM     74  F   UNL A   1      47.352  25.338  35.901  1.00  0.00    -0.200 F 
ENDBRANCH  50  64
BRANCH  51  75
ATOM     75  C   UNL A   1      36.602  31.619  29.295  1.00  0.00     0.064 A 
ATOM     76  C   UNL A   1      36.611  32.996  29.036  1.00  0.00     0.173 A 
ATOM     77  C   UNL A   1      35.473  30.886  28.905  1.00  0.00     0.173 A 
ATOM     78  F   UNL A   1      37.662  33.741  29.413  1.00  0.00    -0.203 F 
ATOM     79  C   UNL A   1      35.526  33.619  28.425  1.00  0.00     0.198 A 
ATOM     80  C   UNL A   1      34.399  31.506  28.272  1.00  0.00     0.198 A 
ATOM     81  F   UNL A   1      35.417  29.565  29.130  1.00  0.00    -0.203 F 
ATOM     82  F   UNL A   1      35.543  34.944  28.223  1.00  0.00    -0.200 F 
ATOM     83  C   UNL A   1      34.422  32.873  28.039  1.00  0.00     0.200 A 
ATOM     84  F   UNL A   1      33.342  30.779  27.881  1.00  0.00    -0.200 F 
ATOM     85  F   UNL A   1      33.381  33.472  27.445  1.00  0.00    -0.200 F 
ENDBRANCH  51  75
BRANCH  63  86
ATOM     86  C   UNL A   1      39.096  32.011  35.780  1.00  0.00     0.064 A 
ATOM     87  C   UNL A   1      38.249  31.475  36.760  1.00  0.00     0.173 A 
ATOM     88  C   UNL A   1      39.578  33.315  35.969  1.00  0.00     0.173 A 
ATOM     89  F   UNL A   1      37.751  30.238  36.618  1.00  0.00    -0.203 F 
ATOM     90  C   UNL A   1      37.881  32.225  37.875  1.00  0.00     0.198 A 
ATOM     91  C   UNL A   1      39.227  34.053  37.096  1.00  0.00     0.198 A 
ATOM     92  F   UNL A   1      40.396  33.872  35.062  1.00  0.00    -0.203 F 
ATOM     93  F   UNL A   1      37.037  31.708  38.779  1.00  0.00    -0.200 F 
ATOM     94  C   UNL A   1      38.374  33.510  38.045  1.00  0.00     0.200 A 
ATOM     95  F   UNL A   1      39.712  35.292  37.263  1.00  0.00    -0.200 F 
ATOM     96  F   UNL A   1      38.020  34.228  39.119  1.00  0.00    -0.200 F 
ENDBRANCH  63  86
ENDBRANCH  37  38
ENDBRANCH  30  32
ENDBRANCH  29  30
ENDBRANCH  28  29
ENDBRANCH  27  28
ENDBRANCH  26  27
ENDBRANCH  25  26
ENDBRANCH   1  25
TORSDOF 21
ENDMDL
MODEL 2
REMARK VINA RESULT:     -11.2      0.668      2.149
REMARK SMILES O=C(OCCOCCOCCOC(=O)c1ccc(-c2c3nc(c(-c4c(F)c(F)c(F)c(F)c4F)c4ccc([nH]4)c(-c4c(F)c(F)c(F)c(F)c4F)c4nc(c(-c5c(F)c(F)c(F)c(F)c5F)c5ccc2[nH]5)C=C4)C=C3)cc1)c1ccc(N/C=C\C(=O)c2ccco2)cc1
REMARK SMILES IDX 7 1 6 2 5 3 4 4 3 5 2 6 1 7 78 8 79 9 93 10 80 11 92 12
REMARK SMILES IDX 81 13 82 14 83 16 84 17 85 18 86 19 87 20 88 21 91 22 89 23
REMARK SMILES IDX 90 24 8 25 9 26 10 27 11 28 12 29 13 30 14 31 15 32 16 33
REMARK SMILES IDX 77 34 17 35 76 36 18 37 19 38 20 39 70 40 21 41 75 42 69 43
REMARK SMILES IDX 71 44 22 45 74 46 68 47 67 48 23 50 55 51 35 52 54 53 36 54
REMARK SMILES IDX 39 55 53 56 72 57 37 58 38 59 52 61 73 62 40 63 24 64 25 65
REMARK SMILES IDX 33 66 26 67 27 68 31 69 34 70 28 71 29 72 32 73 30 74 56 75
REMARK SMILES IDX 57 76 65 77 58 78 59 79 63 80 66 81 60 82 61 83 64 84 62 85
REMARK SMILES IDX 41 86 42 87 50 88 43 89 44 90 48 91 51 92 45 93 46 94 49 95
REMARK SMILES IDX 47 96
REMARK H PARENT 82 15 71 49 39 60
REMARK Flexibility Score: inf
ROOT
ATOM      1  C   UNL A   1      42.346  19.586  27.231  1.00  0.00     0.188 C 
ENDROOT
BRANCH   1   2
ATOM      2  O   UNL A   1      40.970  19.944  27.426  1.00  0.00    -0.376 OA
BRANCH   2   3
ATOM      3  C   UNL A   1      40.742  21.353  27.475  1.00  0.00     0.202 C 
BRANCH   3   4
ATOM      4  C   UNL A   1      40.234  21.928  26.151  1.00  0.00     0.261 C 
BRANCH   4   5
ATOM      5  O   UNL A   1      38.802  22.026  26.147  1.00  0.00    -0.460 OA
BRANCH   5   6
ATOM      6  C   UNL A   1      38.049  23.151  26.090  1.00  0.00     0.338 C 
ATOM      7  O   UNL A   1      38.495  24.184  26.587  1.00  0.00    -0.246 OA
BRANCH   6   8
ATOM      8  C   UNL A   1      36.726  23.235  25.395  1.00  0.00     0.060 A 
ATOM      9  C   UNL A   1      35.520  23.629  25.975  1.00  0.00     0.018 A 
ATOM     10  C   UNL A   1      36.728  22.973  24.017  1.00  0.00     0.018 A 
ATOM     11  C   UNL A   1      34.331  23.671  25.231  1.00  0.00     0.027 A 
ATOM     12  C   UNL A   1      35.549  23.057  23.268  1.00  0.00     0.027 A 
ATOM     13  C   UNL A   1      34.327  23.384  23.868  1.00  0.00     0.038 A 
BRANCH  13  14
ATOM     14  N   UNL A   1      33.161  23.309  23.093  1.00  0.00    -0.362 N 
ATOM     15  H   UNL A   1      32.352  23.007  23.565  1.00  0.00     0.166 HD
BRANCH  14  16
ATOM     16  C   UNL A   1      33.000  23.603  21.765  1.00  0.00     0.087 C 
ATOM     17  C   UNL A   1      32.854  24.795  21.169  1.00  0.00     0.074 C 
BRANCH  17  18
ATOM     18  C   UNL A   1      32.913  26.144  21.812  1.00  0.00     0.222 C 
ATOM     19  O   UNL A   1      33.930  26.813  21.634  1.00  0.00    -0.286 OA
BRANCH  18  20
ATOM     20  C   UNL A   1      31.801  26.581  22.624  1.00  0.00     0.173 A 
ATOM     21  C   UNL A   1      30.818  27.535  22.423  1.00  0.00     0.054 A 
ATOM     22  O   UNL A   1      31.675  26.060  23.883  1.00  0.00    -0.461 OA
ATOM     23  C   UNL A   1      30.064  27.601  23.621  1.00  0.00     0.043 A 
ATOM     24  C   UNL A   1      30.624  26.680  24.475  1.00  0.00     0.196 A 
ENDBRANCH  18  20
ENDBRANCH  17  18
ENDBRANCH  14  16
ENDBRANCH  13  14
ENDBRANCH   6   8
ENDBRANCH   5   6
ENDBRANCH   4   5
ENDBRANCH   3   4
ENDBRANCH   2   3
ENDBRANCH   1   2
BRANCH   1  25
ATOM     25  C   UNL A   1      42.570  19.137  25.785  1.00  0.00     0.188 C 
BRANCH  25  26
ATOM     26  O   UNL A   1      43.301  20.071  24.983  1.00  0.00    -0.376 OA
BRANCH  26  27
ATOM     27  C   UNL A   1      43.946  21.141  25.671  1.00  0.00     0.202 C 
BRANCH  27  28
ATOM     28  C   UNL A   1      44.370  22.329  24.802  1.00  0.00     0.261 C 
BRANCH  28  29
ATOM     29  O   UNL A   1      43.434  23.424  24.803  1.00  0.00    -0.460 OA
BRANCH  29  30
ATOM     30  C   UNL A   1      44.005  24.640  24.959  1.00  0.00     0.338 C 
ATOM     31  O   UNL A   1      45.128  24.989  24.614  1.00  0.00    -0.246 OA
BRANCH  30  32
ATOM     32  C   UNL A   1      43.100  25.585  25.627  1.00  0.00     0.060 A 
ATOM     33  C   UNL A   1      43.557  26.885  25.866  1.00  0.00     0.016 A 
ATOM     34  C   UNL A   1      41.949  25.107  26.262  1.00  0.00     0.016 A 
ATOM     35  C   UNL A   1      42.911  27.684  26.812  1.00  0.00     0.010 A 
ATOM     36  C   UNL A   1      41.301  25.912  27.206  1.00  0.00     0.010 A 
ATOM     37  C   UNL A   1      41.818  27.177  27.532  1.00  0.00    -0.014 A 
BRANCH  37  38
ATOM     38  C   UNL A   1      41.357  27.886  28.755  1.00  0.00     0.031 A 
ATOM     39  C   UNL A   1      42.134  27.719  30.037  1.00  0.00     0.074 A 
ATOM     40  C   UNL A   1      40.287  28.698  28.727  1.00  0.00     0.049 A 
ATOM     41  N   UNL A   1      41.922  28.254  31.215  1.00  0.00    -0.248 NA
ATOM     42  C   UNL A   1      43.305  26.830  29.984  1.00  0.00     0.031 C 
ATOM     43  C   UNL A   1      39.462  28.969  27.552  1.00  0.00     0.029 A 
ATOM     44  N   UNL A   1      39.713  29.447  29.724  1.00  0.00    -0.354 N 
ATOM     45  C   UNL A   1      42.924  27.760  32.041  1.00  0.00     0.074 A 
ATOM     46  C   UNL A   1      43.729  26.862  31.240  1.00  0.00     0.031 C 
ATOM     47  C   UNL A   1      38.489  29.829  27.895  1.00  0.00     0.029 A 
ATOM     48  C   UNL A   1      38.610  30.152  29.317  1.00  0.00     0.049 A 
ATOM     49  H   UNL A   1      40.063  29.476  30.645  1.00  0.00     0.167 HD
ATOM     50  C   UNL A   1      43.164  28.036  33.346  1.00  0.00     0.037 A 
ATOM     51  C   UNL A   1      37.790  30.962  30.015  1.00  0.00     0.037 A 
ATOM     52  C   UNL A   1      42.386  28.942  34.146  1.00  0.00     0.049 A 
ATOM     53  C   UNL A   1      38.057  31.225  31.475  1.00  0.00     0.074 A 
ATOM     54  C   UNL A   1      42.579  29.313  35.467  1.00  0.00     0.029 A 
ATOM     55  N   UNL A   1      41.264  29.622  33.701  1.00  0.00    -0.354 N 
ATOM     56  N   UNL A   1      39.032  30.787  32.233  1.00  0.00    -0.248 NA
ATOM     57  C   UNL A   1      37.106  32.104  32.174  1.00  0.00     0.031 C 
ATOM     58  C   UNL A   1      41.552  30.190  35.832  1.00  0.00     0.029 A 
ATOM     59  C   UNL A   1      40.742  30.395  34.726  1.00  0.00     0.049 A 
ATOM     60  H   UNL A   1      40.892  29.564  32.792  1.00  0.00     0.167 HD
ATOM     61  C   UNL A   1      38.835  31.365  33.481  1.00  0.00     0.074 A 
ATOM     62  C   UNL A   1      37.648  32.187  33.381  1.00  0.00     0.031 C 
ATOM     63  C   UNL A   1      39.574  31.227  34.609  1.00  0.00     0.037 A 
BRANCH  50  64
ATOM     64  C   UNL A   1      44.317  27.336  33.998  1.00  0.00     0.064 A 
ATOM     65  C   UNL A   1      44.185  26.047  34.536  1.00  0.00     0.173 A 
ATOM     66  C   UNL A   1      45.581  27.944  34.049  1.00  0.00     0.173 A 
ATOM     67  F   UNL A   1      42.995  25.430  34.519  1.00  0.00    -0.203 F 
ATOM     68  C   UNL A   1      45.271  25.402  35.120  1.00  0.00     0.198 A 
ATOM     69  C   UNL A   1      46.670  27.287  34.614  1.00  0.00     0.198 A 
ATOM     70  F   UNL A   1      45.760  29.174  33.543  1.00  0.00    -0.203 F 
ATOM     71  F   UNL A   1      45.115  24.184  35.658  1.00  0.00    -0.200 F 
ATOM     72  C   UNL A   1      46.513  26.019  35.153  1.00  0.00     0.200 A 
ATOM     73  F   UNL A   1      47.871  27.880  34.637  1.00  0.00    -0.200 F 
ATOM     74  F   UNL A   1      47.560  25.393  35.710  1.00  0.00    -0.200 F 
ENDBRANCH  50  64
BRANCH  51  75
ATOM     75  C   UNL A   1      36.639  31.608  29.337  1.00  0.00     0.064 A 
ATOM     76  C   UNL A   1      35.522  30.858  28.944  1.00  0.00     0.173 A 
ATOM     77  C   UNL A   1      36.639  32.980  29.053  1.00  0.00     0.173 A 
ATOM     78  F   UNL A   1      35.489  29.536  29.174  1.00  0.00    -0.203 F 
ATOM     79  C   UNL A   1      34.454  31.454  28.277  1.00  0.00     0.198 A 
ATOM     80  C   UNL A   1      35.560  33.580  28.410  1.00  0.00     0.198 A 
ATOM     81  F   UNL A   1      37.684  33.740  29.411  1.00  0.00    -0.203 F 
ATOM     82  F   UNL A   1      33.416  30.708  27.878  1.00  0.00    -0.200 F 
ATOM     83  C   UNL A   1      34.472  32.816  28.015  1.00  0.00     0.200 A 
ATOM     84  F   UNL A   1      35.570  34.900  28.175  1.00  0.00    -0.200 F 
ATOM     85  F   UNL A   1      33.441  33.391  27.380  1.00  0.00    -0.200 F 
ENDBRANCH  51  75
BRANCH  63  86
ATOM     86  C   UNL A   1      39.154  32.019  35.812  1.00  0.00     0.064 A 
ATOM     87  C   UNL A   1      39.583  33.339  36.011  1.00  0.00     0.173 A 
ATOM     88  C   UNL A   1      38.283  31.461  36.760  1.00  0.00     0.173 A 
ATOM     89  F   UNL A   1      40.428  33.913  35.141  1.00  0.00    -0.203 F 
ATOM     90  C   UNL A   1      39.173  34.063  37.128  1.00  0.00     0.198 A 
ATOM     91  C   UNL A   1      37.856  32.196  37.863  1.00  0.00     0.198 A 
ATOM     92  F   UNL A   1      37.839  30.203  36.611  1.00  0.00    -0.203 F 
ATOM     93  F   UNL A   1      39.628  35.310  37.321  1.00  0.00    -0.200 F 
ATOM     94  C   UNL A   1      38.306  33.494  38.049  1.00  0.00     0.200 A 
ATOM     95  F   UNL A   1      37.011  31.646  38.747  1.00  0.00    -0.200 F 
ATOM     96  F   UNL A   1      37.912  34.193  39.121  1.00  0.00    -0.200 F 
ENDBRANCH  63  86
ENDBRANCH  37  38
ENDBRANCH  30  32
ENDBRANCH  29  30
ENDBRANCH  28  29
ENDBRANCH  27  28
ENDBRANCH  26  27
ENDBRANCH  25  26
ENDBRANCH   1  25
TORSDOF 21
ENDMDL
MODEL 3
REMARK VINA RESULT:     -10.3      5.277     11.036
REMARK SMILES O=C(OCCOCCOCCOC(=O)c1ccc(-c2c3nc(c(-c4c(F)c(F)c(F)c(F)c4F)c4ccc([nH]4)c(-c4c(F)c(F)c(F)c(F)c4F)c4nc(c(-c5c(F)c(F)c(F)c(F)c5F)c5ccc2[nH]5)C=C4)C=C3)cc1)c1ccc(N/C=C\C(=O)c2ccco2)cc1
REMARK SMILES IDX 7 1 6 2 5 3 4 4 3 5 2 6 1 7 78 8 79 9 93 10 80 11 92 12
REMARK SMILES IDX 81 13 82 14 83 16 84 17 85 18 86 19 87 20 88 21 91 22 89 23
REMARK SMILES IDX 90 24 8 25 9 26 10 27 11 28 12 29 13 30 14 31 15 32 16 33
REMARK SMILES IDX 77 34 17 35 76 36 18 37 19 38 20 39 70 40 21 41 75 42 69 43
REMARK SMILES IDX 71 44 22 45 74 46 68 47 67 48 23 50 55 51 35 52 54 53 36 54
REMARK SMILES IDX 39 55 53 56 72 57 37 58 38 59 52 61 73 62 40 63 24 64 25 65
REMARK SMILES IDX 33 66 26 67 27 68 31 69 34 70 28 71 29 72 32 73 30 74 56 75
REMARK SMILES IDX 57 76 65 77 58 78 59 79 63 80 66 81 60 82 61 83 64 84 62 85
REMARK SMILES IDX 41 86 42 87 50 88 43 89 44 90 48 91 51 92 45 93 46 94 49 95
REMARK SMILES IDX 47 96
REMARK H PARENT 82 15 71 49 39 60
REMARK Flexibility Score: inf
ROOT
ATOM      1  C   UNL A   1      34.407  33.171  28.938  1.00  0.00     0.188 C 
ENDROOT
BRANCH   1   2
ATOM      2  O   UNL A   1      34.609  32.165  27.935  1.00  0.00    -0.376 OA
BRANCH   2   3
ATOM      3  C   UNL A   1      33.404  31.540  27.493  1.00  0.00     0.202 C 
BRANCH   3   4
ATOM      4  C   UNL A   1      33.596  30.074  27.097  1.00  0.00     0.261 C 
BRANCH   4   5
ATOM      5  O   UNL A   1      33.111  29.832  25.767  1.00  0.00    -0.460 OA
BRANCH   5   6
ATOM      6  C   UNL A   1      31.898  29.351  25.403  1.00  0.00     0.338 C 
ATOM      7  O   UNL A   1      31.046  30.144  25.004  1.00  0.00    -0.246 OA
BRANCH   6   8
ATOM      8  C   UNL A   1      31.547  27.896  25.390  1.00  0.00     0.060 A 
ATOM      9  C   UNL A   1      31.779  26.988  26.423  1.00  0.00     0.018 A 
ATOM     10  C   UNL A   1      30.848  27.434  24.265  1.00  0.00     0.018 A 
ATOM     11  C   UNL A   1      31.411  25.640  26.306  1.00  0.00     0.027 A 
ATOM     12  C   UNL A   1      30.444  26.098  24.168  1.00  0.00     0.027 A 
ATOM     13  C   UNL A   1      30.741  25.173  25.177  1.00  0.00     0.038 A 
BRANCH  13  14
ATOM     14  N   UNL A   1      30.437  23.822  24.956  1.00  0.00    -0.362 N 
ATOM     15  H   UNL A   1      29.888  23.631  24.161  1.00  0.00     0.166 HD
BRANCH  14  16
ATOM     16  C   UNL A   1      30.805  22.733  25.700  1.00  0.00     0.087 C 
ATOM     17  C   UNL A   1      31.677  21.758  25.405  1.00  0.00     0.074 C 
BRANCH  17  18
ATOM     18  C   UNL A   1      32.549  21.655  24.195  1.00  0.00     0.222 C 
ATOM     19  O   UNL A   1      32.003  21.727  23.095  1.00  0.00    -0.286 OA
BRANCH  18  20
ATOM     20  C   UNL A   1      33.969  21.449  24.371  1.00  0.00     0.173 A 
ATOM     21  C   UNL A   1      34.696  20.443  24.983  1.00  0.00     0.054 A 
ATOM     22  O   UNL A   1      34.821  22.434  23.952  1.00  0.00    -0.461 OA
ATOM     23  C   UNL A   1      36.055  20.841  24.942  1.00  0.00     0.043 A 
ATOM     24  C   UNL A   1      36.078  22.057  24.300  1.00  0.00     0.196 A 
ENDBRANCH  18  20
ENDBRANCH  17  18
ENDBRANCH  14  16
ENDBRANCH  13  14
ENDBRANCH   6   8
ENDBRANCH   5   6
ENDBRANCH   4   5
ENDBRANCH   3   4
ENDBRANCH   2   3
ENDBRANCH   1   2
BRANCH   1  25
ATOM     25  C   UNL A   1      34.724  32.600  30.323  1.00  0.00     0.188 C 
BRANCH  25  26
ATOM     26  O   UNL A   1      34.064  33.269  31.403  1.00  0.00    -0.376 OA
BRANCH  26  27
ATOM     27  C   UNL A   1      34.697  34.440  31.914  1.00  0.00     0.202 C 
BRANCH  27  28
ATOM     28  C   UNL A   1      35.546  34.242  33.174  1.00  0.00     0.261 C 
BRANCH  28  29
ATOM     29  O   UNL A   1      36.861  33.711  32.921  1.00  0.00    -0.460 OA
BRANCH  29  30
ATOM     30  C   UNL A   1      37.115  32.541  33.548  1.00  0.00     0.338 C 
ATOM     31  O   UNL A   1      36.881  32.252  34.715  1.00  0.00    -0.246 OA
BRANCH  30  32
ATOM     32  C   UNL A   1      37.744  31.565  32.647  1.00  0.00     0.060 A 
ATOM     33  C   UNL A   1      38.723  30.714  33.170  1.00  0.00     0.016 A 
ATOM     34  C   UNL A   1      37.580  31.697  31.265  1.00  0.00     0.016 A 
ATOM     35  C   UNL A   1      39.602  30.057  32.307  1.00  0.00     0.010 A 
ATOM     36  C   UNL A   1      38.460  31.033  30.402  1.00  0.00     0.010 A 
ATOM     37  C   UNL A   1      39.515  30.263  30.922  1.00  0.00    -0.014 A 
BRANCH  37  38
ATOM     38  C   UNL A   1      40.642  29.845  30.048  1.00  0.00     0.031 A 
ATOM     39  C   UNL A   1      41.748  30.829  29.756  1.00  0.00     0.074 A 
ATOM     40  C   UNL A   1      40.710  28.600  29.547  1.00  0.00     0.049 A 
ATOM     41  N   UNL A   1      42.832  30.674  29.034  1.00  0.00    -0.248 NA
ATOM     42  C   UNL A   1      41.613  32.166  30.355  1.00  0.00     0.031 C 
ATOM     43  C   UNL A   1      39.726  27.545  29.770  1.00  0.00     0.029 A 
ATOM     44  N   UNL A   1      41.659  28.015  28.746  1.00  0.00    -0.354 N 
ATOM     45  C   UNL A   1      43.499  31.891  29.088  1.00  0.00     0.074 A 
ATOM     46  C   UNL A   1      42.688  32.784  29.887  1.00  0.00     0.031 C 
ATOM     47  C   UNL A   1      40.124  26.436  29.123  1.00  0.00     0.029 A 
ATOM     48  C   UNL A   1      41.380  26.712  28.424  1.00  0.00     0.049 A 
ATOM     49  H   UNL A   1      42.465  28.488  28.432  1.00  0.00     0.167 HD
ATOM     50  C   UNL A   1      44.687  32.235  28.533  1.00  0.00     0.037 A 
ATOM     51  C   UNL A   1      42.060  25.843  27.651  1.00  0.00     0.037 A 
ATOM     52  C   UNL A   1      45.513  31.350  27.755  1.00  0.00     0.049 A 
ATOM     53  C   UNL A   1      43.360  26.261  27.014  1.00  0.00     0.074 A 
ATOM     54  C   UNL A   1      46.750  31.602  27.186  1.00  0.00     0.029 A 
ATOM     55  N   UNL A   1      45.184  30.043  27.436  1.00  0.00    -0.354 N 
ATOM     56  N   UNL A   1      44.003  27.399  27.107  1.00  0.00    -0.248 NA
ATOM     57  C   UNL A   1      44.033  25.263  26.168  1.00  0.00     0.031 C 
ATOM     58  C   UNL A   1      47.155  30.456  26.492  1.00  0.00     0.029 A 
ATOM     59  C   UNL A   1      46.186  29.480  26.661  1.00  0.00     0.049 A 
ATOM     60  H   UNL A   1      44.361  29.583  27.717  1.00  0.00     0.167 HD
ATOM     61  C   UNL A   1      45.168  27.242  26.366  1.00  0.00     0.074 A 
ATOM     62  C   UNL A   1      45.147  25.898  25.831  1.00  0.00     0.031 C 
ATOM     63  C   UNL A   1      46.166  28.134  26.152  1.00  0.00     0.037 A 
BRANCH  50  64
ATOM     64  C   UNL A   1      45.164  33.640  28.739  1.00  0.00     0.064 A 
ATOM     65  C   UNL A   1      46.034  33.974  29.787  1.00  0.00     0.173 A 
ATOM     66  C   UNL A   1      44.780  34.657  27.852  1.00  0.00     0.173 A 
ATOM     67  F   UNL A   1      46.421  33.038  30.665  1.00  0.00    -0.203 F 
ATOM     68  C   UNL A   1      46.485  35.281  29.952  1.00  0.00     0.198 A 
ATOM     69  C   UNL A   1      45.251  35.958  28.007  1.00  0.00     0.198 A 
ATOM     70  F   UNL A   1      43.954  34.386  26.830  1.00  0.00    -0.203 F 
ATOM     71  F   UNL A   1      47.289  35.586  30.980  1.00  0.00    -0.200 F 
ATOM     72  C   UNL A   1      46.098  36.270  29.059  1.00  0.00     0.200 A 
ATOM     73  F   UNL A   1      44.883  36.910  27.138  1.00  0.00    -0.200 F 
ATOM     74  F   UNL A   1      46.539  37.526  29.216  1.00  0.00    -0.200 F 
ENDBRANCH  50  64
BRANCH  51  75
ATOM     75  C   UNL A   1      41.533  24.471  27.446  1.00  0.00     0.064 A 
ATOM     76  C   UNL A   1      40.384  24.249  26.675  1.00  0.00     0.173 A 
ATOM     77  C   UNL A   1      42.156  23.359  28.028  1.00  0.00     0.173 A 
ATOM     78  F   UNL A   1      39.741  25.286  26.118  1.00  0.00    -0.203 F 
ATOM     79  C   UNL A   1      39.868  22.965  26.508  1.00  0.00     0.198 A 
ATOM     80  C   UNL A   1      41.654  22.074  27.839  1.00  0.00     0.198 A 
ATOM     81  F   UNL A   1      43.259  23.520  28.773  1.00  0.00    -0.203 F 
ATOM     82  F   UNL A   1      38.746  22.784  25.798  1.00  0.00    -0.200 F 
ATOM     83  C   UNL A   1      40.506  21.879  27.087  1.00  0.00     0.200 A 
ATOM     84  F   UNL A   1      42.284  21.023  28.383  1.00  0.00    -0.200 F 
ATOM     85  F   UNL A   1      40.013  20.644  26.919  1.00  0.00    -0.200 F 
ENDBRANCH  51  75
BRANCH  63  86
ATOM     86  C   UNL A   1      47.344  27.672  25.346  1.00  0.00     0.064 A 
ATOM     87  C   UNL A   1      48.449  27.052  25.946  1.00  0.00     0.173 A 
ATOM     88  C   UNL A   1      47.350  27.822  23.951  1.00  0.00     0.173 A 
ATOM     89  F   UNL A   1      48.497  26.898  27.278  1.00  0.00    -0.203 F 
ATOM     90  C   UNL A   1      49.529  26.618  25.179  1.00  0.00     0.198 A 
ATOM     91  C   UNL A   1      48.421  27.366  23.186  1.00  0.00     0.198 A 
ATOM     92  F   UNL A   1      46.314  28.404  23.329  1.00  0.00    -0.203 F 
ATOM     93  F   UNL A   1      50.593  26.065  25.777  1.00  0.00    -0.200 F 
ATOM     94  C   UNL A   1      49.511  26.771  23.801  1.00  0.00     0.200 A 
ATOM     95  F   UNL A   1      48.398  27.507  21.853  1.00  0.00    -0.200 F 
ATOM     96  F   UNL A   1      50.550  26.351  23.066  1.00  0.00    -0.200 F 
ENDBRANCH  63  86
ENDBRANCH  37  38
ENDBRANCH  30  32
ENDBRANCH  29  30
ENDBRANCH  28  29
ENDBRANCH  27  28
ENDBRANCH  26  27
ENDBRANCH  25  26
ENDBRANCH   1  25
TORSDOF 21
ENDMDL
