MODEL 1
REMARK VINA RESULT:     -11.3      0.000      0.000
REMARK SMILES O=C(Nc1ccccc1C(=O)OCCOCCOCCOC(=O)c1ccc(-c2c3nc(c(-c4c(F)c(F)c(F)c(F)c4F)c4ccc([nH]4)c(-c4c(F)c(F)c(F)c(F)c4F)c4nc(c(-c5c(F)c(F)c(F)c(F)c5F)c5ccc2[nH]5)C=C4)C=C3)cc1)c1ccncc1
REMARK SMILES IDX 16 1 15 2 14 3 13 4 12 5 10 6 11 7 9 8 4 9 5 10 6 11 8 12
REMARK SMILES IDX 7 13 3 14 1 15 2 16 87 18 88 19 92 20 89 21 91 22 90 23
REMARK SMILES IDX 17 24 18 25 19 26 20 27 21 28 22 29 23 30 24 31 25 32 86 33
REMARK SMILES IDX 26 34 85 35 27 36 28 37 29 38 79 39 30 40 84 41 78 42 80 43
REMARK SMILES IDX 31 44 83 45 77 46 76 47 32 49 64 50 44 51 63 52 45 53 48 54
REMARK SMILES IDX 62 55 81 56 46 57 47 58 61 60 82 61 49 62 33 63 34 64 42 65
REMARK SMILES IDX 35 66 36 67 40 68 43 69 37 70 38 71 41 72 39 73 65 74 66 75
REMARK SMILES IDX 74 76 67 77 68 78 72 79 75 80 69 81 70 82 73 83 71 84 50 85
REMARK SMILES IDX 51 86 59 87 52 88 53 89 57 90 60 91 54 92 55 93 58 94 56 95
REMARK H PARENT 3 17 80 48 48 59
REMARK Flexibility Score: inf
ROOT
ATOM      1  C   UNL A   1      32.518  28.276  24.369  1.00  0.00     0.188 C 
ENDROOT
BRANCH   1   2
ATOM      2  O   UNL A   1      32.373  27.941  22.994  1.00  0.00    -0.376 OA
BRANCH   2   3
ATOM      3  C   UNL A   1      33.202  26.915  22.458  1.00  0.00     0.202 C 
BRANCH   3   4
ATOM      4  C   UNL A   1      33.468  25.687  23.329  1.00  0.00     0.261 C 
BRANCH   4   5
ATOM      5  O   UNL A   1      34.400  24.759  22.738  1.00  0.00    -0.460 OA
BRANCH   5   6
ATOM      6  C   UNL A   1      34.033  23.454  22.761  1.00  0.00     0.340 C 
ATOM      7  O   UNL A   1      33.204  22.925  22.032  1.00  0.00    -0.246 OA
BRANCH   6   8
ATOM      8  C   UNL A   1      34.902  22.652  23.660  1.00  0.00     0.083 A 
ATOM      9  C   UNL A   1      34.520  22.011  24.852  1.00  0.00     0.056 A 
ATOM     10  C   UNL A   1      35.533  21.471  25.671  1.00  0.00     0.027 A 
ATOM     11  C   UNL A   1      36.875  21.480  25.281  1.00  0.00     0.002 A 
ATOM     12  C   UNL A   1      36.262  22.647  23.276  1.00  0.00     0.018 A 
ATOM     13  C   UNL A   1      37.239  22.056  24.073  1.00  0.00     0.001 A 
BRANCH   9  14
ATOM     14  N   UNL A   1      33.216  21.817  25.355  1.00  0.00    -0.321 N 
ATOM     15  O   UNL A   1      31.094  21.078  25.511  1.00  0.00    -0.269 OA
ATOM     16  C   UNL A   1      32.234  20.891  25.087  1.00  0.00     0.255 C 
ATOM     17  H   UNL A   1      32.955  22.478  26.036  1.00  0.00     0.170 HD
BRANCH  16  18
ATOM     18  C   UNL A   1      32.523  19.628  24.380  1.00  0.00     0.043 A 
ATOM     19  C   UNL A   1      32.145  19.531  23.042  1.00  0.00     0.034 A 
ATOM     20  C   UNL A   1      33.166  18.560  25.003  1.00  0.00     0.034 A 
ATOM     21  C   UNL A   1      32.528  18.402  22.346  1.00  0.00     0.112 A 
ATOM     22  C   UNL A   1      33.500  17.472  24.218  1.00  0.00     0.112 A 
ATOM     23  N   UNL A   1      33.203  17.374  22.904  1.00  0.00    -0.265 NA
ENDBRANCH  16  18
ENDBRANCH   9  14
ENDBRANCH   6   8
ENDBRANCH   5   6
ENDBRANCH   4   5
ENDBRANCH   3   4
ENDBRANCH   2   3
ENDBRANCH   1   2
BRANCH   1  24
ATOM     24  C   UNL A   1      31.680  29.437  24.945  1.00  0.00     0.188 C 
BRANCH  24  25
ATOM     25  O   UNL A   1      32.414  30.396  25.666  1.00  0.00    -0.376 OA
BRANCH  25  26
ATOM     26  C   UNL A   1      31.791  31.224  26.630  1.00  0.00     0.202 C 
BRANCH  26  27
ATOM     27  C   UNL A   1      32.191  32.677  26.958  1.00  0.00     0.261 C 
BRANCH  27  28
ATOM     28  O   UNL A   1      33.009  32.905  28.104  1.00  0.00    -0.460 OA
BRANCH  28  29
ATOM     29  C   UNL A   1      34.095  33.693  27.929  1.00  0.00     0.338 C 
ATOM     30  O   UNL A   1      34.115  34.878  27.651  1.00  0.00    -0.246 OA
BRANCH  29  31
ATOM     31  C   UNL A   1      35.281  32.919  28.353  1.00  0.00     0.060 A 
ATOM     32  C   UNL A   1      35.131  31.544  28.578  1.00  0.00     0.016 A 
ATOM     33  C   UNL A   1      36.534  33.528  28.478  1.00  0.00     0.016 A 
ATOM     34  C   UNL A   1      36.231  30.778  28.962  1.00  0.00     0.010 A 
ATOM     35  C   UNL A   1      37.629  32.764  28.888  1.00  0.00     0.010 A 
ATOM     36  C   UNL A   1      37.473  31.395  29.164  1.00  0.00    -0.014 A 
BRANCH  36  37
ATOM     37  C   UNL A   1      38.538  30.669  29.895  1.00  0.00     0.031 A 
ATOM     38  C   UNL A   1      38.758  31.023  31.339  1.00  0.00     0.074 A 
ATOM     39  C   UNL A   1      39.286  29.720  29.308  1.00  0.00     0.049 A 
ATOM     40  N   UNL A   1      39.641  30.563  32.187  1.00  0.00    -0.248 NA
ATOM     41  C   UNL A   1      37.853  32.039  31.903  1.00  0.00     0.031 C 
ATOM     42  C   UNL A   1      39.151  29.267  27.927  1.00  0.00     0.029 A 
ATOM     43  N   UNL A   1      40.324  28.975  29.811  1.00  0.00    -0.354 N 
ATOM     44  C   UNL A   1      39.394  31.227  33.380  1.00  0.00     0.074 A 
ATOM     45  C   UNL A   1      38.303  32.145  33.143  1.00  0.00     0.031 C 
ATOM     46  C   UNL A   1      40.089  28.333  27.684  1.00  0.00     0.029 A 
ATOM     47  C   UNL A   1      40.902  28.142  28.885  1.00  0.00     0.049 A 
ATOM     48  H   UNL A   1      40.626  29.033  30.746  1.00  0.00     0.167 HD
ATOM     49  C   UNL A   1      40.017  31.081  34.573  1.00  0.00     0.037 A 
ATOM     50  C   UNL A   1      41.977  27.338  28.997  1.00  0.00     0.037 A 
ATOM     51  C   UNL A   1      41.121  30.191  34.806  1.00  0.00     0.049 A 
ATOM     52  C   UNL A   1      42.707  27.251  30.315  1.00  0.00     0.074 A 
ATOM     53  C   UNL A   1      41.821  29.973  35.978  1.00  0.00     0.029 A 
ATOM     54  N   UNL A   1      41.694  29.381  33.837  1.00  0.00    -0.354 N 
ATOM     55  N   UNL A   1      42.450  27.856  31.448  1.00  0.00    -0.248 NA
ATOM     56  C   UNL A   1      43.881  26.364  30.365  1.00  0.00     0.031 C 
ATOM     57  C   UNL A   1      42.848  29.061  35.707  1.00  0.00     0.029 A 
ATOM     58  C   UNL A   1      42.755  28.677  34.380  1.00  0.00     0.049 A 
ATOM     59  H   UNL A   1      41.391  29.317  32.903  1.00  0.00     0.167 HD
ATOM     60  C   UNL A   1      43.407  27.407  32.350  1.00  0.00     0.074 A 
ATOM     61  C   UNL A   1      44.247  26.469  31.635  1.00  0.00     0.031 C 
ATOM     62  C   UNL A   1      43.574  27.741  33.654  1.00  0.00     0.037 A 
BRANCH  49  63
ATOM     63  C   UNL A   1      39.526  31.932  35.705  1.00  0.00     0.064 A 
ATOM     64  C   UNL A   1      38.517  31.486  36.572  1.00  0.00     0.173 A 
ATOM     65  C   UNL A   1      40.067  33.207  35.923  1.00  0.00     0.173 A 
ATOM     66  F   UNL A   1      37.952  30.283  36.389  1.00  0.00    -0.203 F 
ATOM     67  C   UNL A   1      38.048  32.299  37.600  1.00  0.00     0.198 A 
ATOM     68  C   UNL A   1      39.614  34.006  36.969  1.00  0.00     0.198 A 
ATOM     69  F   UNL A   1      41.031  33.679  35.118  1.00  0.00    -0.203 F 
ATOM     70  F   UNL A   1      37.048  31.874  38.384  1.00  0.00    -0.200 F 
ATOM     71  C   UNL A   1      38.601  33.555  37.801  1.00  0.00     0.200 A 
ATOM     72  F   UNL A   1      40.153  35.217  37.165  1.00  0.00    -0.200 F 
ATOM     73  F   UNL A   1      38.148  34.337  38.791  1.00  0.00    -0.200 F 
ENDBRANCH  49  63
BRANCH  50  74
ATOM     74  C   UNL A   1      42.444  26.557  27.822  1.00  0.00     0.064 A 
ATOM     75  C   UNL A   1      43.376  27.093  26.922  1.00  0.00     0.173 A 
ATOM     76  C   UNL A   1      41.949  25.272  27.562  1.00  0.00     0.173 A 
ATOM     77  F   UNL A   1      43.855  28.330  27.112  1.00  0.00    -0.203 F 
ATOM     78  C   UNL A   1      43.783  26.376  25.798  1.00  0.00     0.198 A 
ATOM     79  C   UNL A   1      42.376  24.546  26.452  1.00  0.00     0.198 A 
ATOM     80  F   UNL A   1      41.049  24.719  28.388  1.00  0.00    -0.203 F 
ATOM     81  F   UNL A   1      44.640  26.929  24.929  1.00  0.00    -0.200 F 
ATOM     82  C   UNL A   1      43.287  25.102  25.567  1.00  0.00     0.200 A 
ATOM     83  F   UNL A   1      41.897  23.314  26.233  1.00  0.00    -0.200 F 
ATOM     84  F   UNL A   1      43.679  24.414  24.484  1.00  0.00    -0.200 F 
ENDBRANCH  50  74
BRANCH  62  85
ATOM     85  C   UNL A   1      44.685  27.066  34.405  1.00  0.00     0.064 A 
ATOM     86  C   UNL A   1      45.956  27.647  34.520  1.00  0.00     0.173 A 
ATOM     87  C   UNL A   1      44.455  25.851  35.069  1.00  0.00     0.173 A 
ATOM     88  F   UNL A   1      46.229  28.801  33.893  1.00  0.00    -0.203 F 
ATOM     89  C   UNL A   1      46.963  27.026  35.254  1.00  0.00     0.198 A 
ATOM     90  C   UNL A   1      45.455  25.247  35.825  1.00  0.00     0.198 A 
ATOM     91  F   UNL A   1      43.254  25.259  34.999  1.00  0.00    -0.203 F 
ATOM     92  F   UNL A   1      48.182  27.579  35.319  1.00  0.00    -0.200 F 
ATOM     93  C   UNL A   1      46.709  25.832  35.913  1.00  0.00     0.200 A 
ATOM     94  F   UNL A   1      45.205  24.101  36.472  1.00  0.00    -0.200 F 
ATOM     95  F   UNL A   1      47.677  25.241  36.629  1.00  0.00    -0.200 F 
ENDBRANCH  62  85
ENDBRANCH  36  37
ENDBRANCH  29  31
ENDBRANCH  28  29
ENDBRANCH  27  28
ENDBRANCH  26  27
ENDBRANCH  25  26
ENDBRANCH  24  25
ENDBRANCH   1  24
TORSDOF 19
ENDMDL
MODEL 2
REMARK VINA RESULT:     -11.3      4.549     10.526
REMARK SMILES O=C(Nc1ccccc1C(=O)OCCOCCOCCOC(=O)c1ccc(-c2c3nc(c(-c4c(F)c(F)c(F)c(F)c4F)c4ccc([nH]4)c(-c4c(F)c(F)c(F)c(F)c4F)c4nc(c(-c5c(F)c(F)c(F)c(F)c5F)c5ccc2[nH]5)C=C4)C=C3)cc1)c1ccncc1
REMARK SMILES IDX 16 1 15 2 14 3 13 4 12 5 10 6 11 7 9 8 4 9 5 10 6 11 8 12
REMARK SMILES IDX 7 13 3 14 1 15 2 16 87 18 88 19 92 20 89 21 91 22 90 23
REMARK SMILES IDX 17 24 18 25 19 26 20 27 21 28 22 29 23 30 24 31 25 32 86 33
REMARK SMILES IDX 26 34 85 35 27 36 28 37 29 38 79 39 30 40 84 41 78 42 80 43
REMARK SMILES IDX 31 44 83 45 77 46 76 47 32 49 64 50 44 51 63 52 45 53 48 54
REMARK SMILES IDX 62 55 81 56 46 57 47 58 61 60 82 61 49 62 33 63 34 64 42 65
REMARK SMILES IDX 35 66 36 67 40 68 43 69 37 70 38 71 41 72 39 73 65 74 66 75
REMARK SMILES IDX 74 76 67 77 68 78 72 79 75 80 69 81 70 82 73 83 71 84 50 85
REMARK SMILES IDX 51 86 59 87 52 88 53 89 57 90 60 91 54 92 55 93 58 94 56 95
REMARK H PARENT 3 17 80 48 48 59
REMARK Flexibility Score: inf
ROOT
ATOM      1  C   UNL A   1      34.851  22.297  24.345  1.00  0.00     0.188 C 
ENDROOT
BRANCH   1   2
ATOM      2  O   UNL A   1      33.573  22.830  24.669  1.00  0.00    -0.376 OA
BRANCH   2   3
ATOM      3  C   UNL A   1      33.447  23.607  25.855  1.00  0.00     0.202 C 
BRANCH   3   4
ATOM      4  C   UNL A   1      32.054  24.110  26.233  1.00  0.00     0.261 C 
BRANCH   4   5
ATOM      5  O   UNL A   1      31.590  25.191  25.399  1.00  0.00    -0.460 OA
BRANCH   5   6
ATOM      6  C   UNL A   1      30.767  26.089  25.993  1.00  0.00     0.340 C 
ATOM      7  O   UNL A   1      29.766  25.827  26.649  1.00  0.00    -0.246 OA
BRANCH   6   8
ATOM      8  C   UNL A   1      31.320  27.467  25.934  1.00  0.00     0.083 A 
ATOM      9  C   UNL A   1      31.849  28.116  24.804  1.00  0.00     0.056 A 
ATOM     10  C   UNL A   1      32.511  29.346  24.993  1.00  0.00     0.027 A 
ATOM     11  C   UNL A   1      32.567  29.965  26.245  1.00  0.00     0.002 A 
ATOM     12  C   UNL A   1      31.378  28.108  27.192  1.00  0.00     0.018 A 
ATOM     13  C   UNL A   1      31.986  29.352  27.344  1.00  0.00     0.001 A 
BRANCH   9  14
ATOM     14  N   UNL A   1      31.799  27.696  23.457  1.00  0.00    -0.321 N 
ATOM     15  O   UNL A   1      30.960  27.039  21.473  1.00  0.00    -0.269 OA
ATOM     16  C   UNL A   1      30.792  27.662  22.521  1.00  0.00     0.255 C 
ATOM     17  H   UNL A   1      32.659  27.358  23.119  1.00  0.00     0.170 HD
BRANCH  16  18
ATOM     18  C   UNL A   1      29.541  28.428  22.690  1.00  0.00     0.043 A 
ATOM     19  C   UNL A   1      28.427  27.753  23.185  1.00  0.00     0.034 A 
ATOM     20  C   UNL A   1      29.457  29.786  22.388  1.00  0.00     0.034 A 
ATOM     21  C   UNL A   1      27.297  28.495  23.464  1.00  0.00     0.112 A 
ATOM     22  C   UNL A   1      28.277  30.436  22.702  1.00  0.00     0.112 A 
ATOM     23  N   UNL A   1      27.201  29.822  23.239  1.00  0.00    -0.265 NA
ENDBRANCH  16  18
ENDBRANCH   9  14
ENDBRANCH   6   8
ENDBRANCH   5   6
ENDBRANCH   4   5
ENDBRANCH   3   4
ENDBRANCH   2   3
ENDBRANCH   1   2
BRANCH   1  24
ATOM     24  C   UNL A   1      35.955  22.301  25.423  1.00  0.00     0.188 C 
BRANCH  24  25
ATOM     25  O   UNL A   1      36.646  21.085  25.568  1.00  0.00    -0.376 OA
BRANCH  25  26
ATOM     26  C   UNL A   1      37.939  20.906  25.022  1.00  0.00     0.202 C 
BRANCH  26  27
ATOM     27  C   UNL A   1      39.050  20.017  25.617  1.00  0.00     0.261 C 
BRANCH  27  28
ATOM     28  O   UNL A   1      40.320  20.612  25.874  1.00  0.00    -0.460 OA
BRANCH  28  29
ATOM     29  C   UNL A   1      40.739  20.622  27.161  1.00  0.00     0.338 C 
ATOM     30  O   UNL A   1      41.045  19.666  27.849  1.00  0.00    -0.246 OA
BRANCH  29  31
ATOM     31  C   UNL A   1      40.980  22.030  27.541  1.00  0.00     0.060 A 
ATOM     32  C   UNL A   1      40.163  23.019  26.977  1.00  0.00     0.016 A 
ATOM     33  C   UNL A   1      41.963  22.367  28.477  1.00  0.00     0.016 A 
ATOM     34  C   UNL A   1      40.350  24.357  27.325  1.00  0.00     0.010 A 
ATOM     35  C   UNL A   1      42.165  23.710  28.805  1.00  0.00     0.010 A 
ATOM     36  C   UNL A   1      41.382  24.711  28.204  1.00  0.00    -0.014 A 
BRANCH  36  37
ATOM     37  C   UNL A   1      41.803  26.128  28.303  1.00  0.00     0.031 A 
ATOM     38  C   UNL A   1      43.148  26.497  27.744  1.00  0.00     0.074 A 
ATOM     39  C   UNL A   1      41.020  27.066  28.862  1.00  0.00     0.049 A 
ATOM     40  N   UNL A   1      43.761  27.652  27.734  1.00  0.00    -0.248 NA
ATOM     41  C   UNL A   1      43.907  25.407  27.107  1.00  0.00     0.031 C 
ATOM     42  C   UNL A   1      39.687  26.842  29.412  1.00  0.00     0.029 A 
ATOM     43  N   UNL A   1      41.252  28.404  29.068  1.00  0.00    -0.354 N 
ATOM     44  C   UNL A   1      44.968  27.429  27.088  1.00  0.00     0.074 A 
ATOM     45  C   UNL A   1      45.020  26.024  26.748  1.00  0.00     0.031 C 
ATOM     46  C   UNL A   1      39.225  28.002  29.913  1.00  0.00     0.029 A 
ATOM     47  C   UNL A   1      40.240  29.041  29.740  1.00  0.00     0.049 A 
ATOM     48  H   UNL A   1      42.068  28.862  28.762  1.00  0.00     0.167 HD
ATOM     49  C   UNL A   1      45.948  28.316  26.796  1.00  0.00     0.037 A 
ATOM     50  C   UNL A   1      40.158  30.311  30.181  1.00  0.00     0.037 A 
ATOM     51  C   UNL A   1      45.913  29.707  27.157  1.00  0.00     0.049 A 
ATOM     52  C   UNL A   1      41.298  31.265  29.915  1.00  0.00     0.074 A 
ATOM     53  C   UNL A   1      46.856  30.687  26.909  1.00  0.00     0.029 A 
ATOM     54  N   UNL A   1      44.880  30.310  27.860  1.00  0.00    -0.354 N 
ATOM     55  N   UNL A   1      42.422  31.057  29.276  1.00  0.00    -0.248 NA
ATOM     56  C   UNL A   1      41.152  32.634  30.435  1.00  0.00     0.031 C 
ATOM     57  C   UNL A   1      46.414  31.876  27.500  1.00  0.00     0.029 A 
ATOM     58  C   UNL A   1      45.174  31.646  28.073  1.00  0.00     0.049 A 
ATOM     59  H   UNL A   1      44.061  29.855  28.161  1.00  0.00     0.167 HD
ATOM     60  C   UNL A   1      43.105  32.268  29.293  1.00  0.00     0.074 A 
ATOM     61  C   UNL A   1      42.262  33.211  29.998  1.00  0.00     0.031 C 
ATOM     62  C   UNL A   1      44.318  32.572  28.771  1.00  0.00     0.037 A 
BRANCH  49  63
ATOM     63  C   UNL A   1      47.149  27.789  26.073  1.00  0.00     0.064 A 
ATOM     64  C   UNL A   1      47.207  27.761  24.671  1.00  0.00     0.173 A 
ATOM     65  C   UNL A   1      48.254  27.305  26.787  1.00  0.00     0.173 A 
ATOM     66  F   UNL A   1      46.164  28.191  23.944  1.00  0.00    -0.203 F 
ATOM     67  C   UNL A   1      48.316  27.240  24.012  1.00  0.00     0.198 A 
ATOM     68  C   UNL A   1      49.373  26.810  26.124  1.00  0.00     0.198 A 
ATOM     69  F   UNL A   1      48.246  27.308  28.129  1.00  0.00    -0.203 F 
ATOM     70  F   UNL A   1      48.328  27.174  22.673  1.00  0.00    -0.200 F 
ATOM     71  C   UNL A   1      49.400  26.770  24.738  1.00  0.00     0.200 A 
ATOM     72  F   UNL A   1      50.422  26.362  26.827  1.00  0.00    -0.200 F 
ATOM     73  F   UNL A   1      50.467  26.268  24.102  1.00  0.00    -0.200 F 
ENDBRANCH  49  63
BRANCH  50  74
ATOM     74  C   UNL A   1      38.960  30.759  30.937  1.00  0.00     0.064 A 
ATOM     75  C   UNL A   1      38.909  30.663  32.334  1.00  0.00     0.173 A 
ATOM     76  C   UNL A   1      37.834  31.268  30.275  1.00  0.00     0.173 A 
ATOM     77  F   UNL A   1      39.950  30.154  33.009  1.00  0.00    -0.203 F 
ATOM     78  C   UNL A   1      37.769  31.045  33.040  1.00  0.00     0.198 A 
ATOM     79  C   UNL A   1      36.704  31.673  30.983  1.00  0.00     0.198 A 
ATOM     80  F   UNL A   1      37.831  31.372  28.938  1.00  0.00    -0.203 F 
ATOM     81  F   UNL A   1      37.728  30.899  34.371  1.00  0.00    -0.200 F 
ATOM     82  C   UNL A   1      36.670  31.554  32.364  1.00  0.00     0.200 A 
ATOM     83  F   UNL A   1      35.645  32.168  30.327  1.00  0.00    -0.200 F 
ATOM     84  F   UNL A   1      35.573  31.920  33.044  1.00  0.00    -0.200 F 
ENDBRANCH  50  74
BRANCH  62  85
ATOM     85  C   UNL A   1      44.799  33.987  28.909  1.00  0.00     0.064 A 
ATOM     86  C   UNL A   1      45.606  34.390  29.983  1.00  0.00     0.173 A 
ATOM     87  C   UNL A   1      44.495  34.938  27.921  1.00  0.00     0.173 A 
ATOM     88  F   UNL A   1      45.912  33.522  30.958  1.00  0.00    -0.203 F 
ATOM     89  C   UNL A   1      46.075  35.698  30.073  1.00  0.00     0.198 A 
ATOM     90  C   UNL A   1      44.989  36.236  28.001  1.00  0.00     0.198 A 
ATOM     91  F   UNL A   1      43.735  34.601  26.869  1.00  0.00    -0.203 F 
ATOM     92  F   UNL A   1      46.813  36.071  31.128  1.00  0.00    -0.200 F 
ATOM     93  C   UNL A   1      45.774  36.617  29.079  1.00  0.00     0.200 A 
ATOM     94  F   UNL A   1      44.709  37.119  27.033  1.00  0.00    -0.200 F 
ATOM     95  F   UNL A   1      46.235  37.873  29.163  1.00  0.00    -0.200 F 
ENDBRANCH  62  85
ENDBRANCH  36  37
ENDBRANCH  29  31
ENDBRANCH  28  29
ENDBRANCH  27  28
ENDBRANCH  26  27
ENDBRANCH  25  26
ENDBRANCH  24  25
ENDBRANCH   1  24
TORSDOF 19
ENDMDL
MODEL 3
REMARK VINA RESULT:     -11.2      4.399      9.999
REMARK SMILES O=C(Nc1ccccc1C(=O)OCCOCCOCCOC(=O)c1ccc(-c2c3nc(c(-c4c(F)c(F)c(F)c(F)c4F)c4ccc([nH]4)c(-c4c(F)c(F)c(F)c(F)c4F)c4nc(c(-c5c(F)c(F)c(F)c(F)c5F)c5ccc2[nH]5)C=C4)C=C3)cc1)c1ccncc1
REMARK SMILES IDX 16 1 15 2 14 3 13 4 12 5 10 6 11 7 9 8 4 9 5 10 6 11 8 12
REMARK SMILES IDX 7 13 3 14 1 15 2 16 87 18 88 19 92 20 89 21 91 22 90 23
REMARK SMILES IDX 17 24 18 25 19 26 20 27 21 28 22 29 23 30 24 31 25 32 86 33
REMARK SMILES IDX 26 34 85 35 27 36 28 37 29 38 79 39 30 40 84 41 78 42 80 43
REMARK SMILES IDX 31 44 83 45 77 46 76 47 32 49 64 50 44 51 63 52 45 53 48 54
REMARK SMILES IDX 62 55 81 56 46 57 47 58 61 60 82 61 49 62 33 63 34 64 42 65
REMARK SMILES IDX 35 66 36 67 40 68 43 69 37 70 38 71 41 72 39 73 65 74 66 75
REMARK SMILES IDX 74 76 67 77 68 78 72 79 75 80 69 81 70 82 73 83 71 84 50 85
REMARK SMILES IDX 51 86 59 87 52 88 53 89 57 90 60 91 54 92 55 93 58 94 56 95
REMARK H PARENT 3 17 80 48 48 59
REMARK Flexibility Score: inf
ROOT
ATOM      1  C   UNL A   1      36.936  22.397  23.399  1.00  0.00     0.188 C 
ENDROOT
BRANCH   1   2
ATOM      2  O   UNL A   1      35.980  23.329  22.906  1.00  0.00    -0.376 OA
BRANCH   2   3
ATOM      3  C   UNL A   1      34.749  23.467  23.608  1.00  0.00     0.202 C 
BRANCH   3   4
ATOM      4  C   UNL A   1      33.455  23.380  22.799  1.00  0.00     0.261 C 
BRANCH   4   5
ATOM      5  O   UNL A   1      32.779  24.646  22.663  1.00  0.00    -0.460 OA
BRANCH   5   6
ATOM      6  C   UNL A   1      31.760  24.871  23.528  1.00  0.00     0.340 C 
ATOM      7  O   UNL A   1      30.663  24.327  23.506  1.00  0.00    -0.246 OA
BRANCH   6   8
ATOM      8  C   UNL A   1      32.178  25.734  24.662  1.00  0.00     0.083 A 
ATOM      9  C   UNL A   1      31.598  25.785  25.942  1.00  0.00     0.056 A 
ATOM     10  C   UNL A   1      32.006  26.813  26.816  1.00  0.00     0.027 A 
ATOM     11  C   UNL A   1      33.024  27.708  26.474  1.00  0.00     0.002 A 
ATOM     12  C   UNL A   1      33.211  26.640  24.332  1.00  0.00     0.018 A 
ATOM     13  C   UNL A   1      33.638  27.611  25.234  1.00  0.00     0.001 A 
BRANCH   9  14
ATOM     14  N   UNL A   1      30.637  24.912  26.496  1.00  0.00    -0.321 N 
ATOM     15  O   UNL A   1      29.542  23.008  26.994  1.00  0.00    -0.269 OA
ATOM     16  C   UNL A   1      30.603  23.550  26.682  1.00  0.00     0.255 C 
ATOM     17  H   UNL A   1      29.827  25.371  26.815  1.00  0.00     0.170 HD
BRANCH  16  18
ATOM     18  C   UNL A   1      31.821  22.719  26.608  1.00  0.00     0.043 A 
ATOM     19  C   UNL A   1      32.804  22.919  27.576  1.00  0.00     0.034 A 
ATOM     20  C   UNL A   1      31.999  21.750  25.624  1.00  0.00     0.034 A 
ATOM     21  C   UNL A   1      33.883  22.058  27.584  1.00  0.00     0.112 A 
ATOM     22  C   UNL A   1      33.117  20.942  25.719  1.00  0.00     0.112 A 
ATOM     23  N   UNL A   1      34.057  21.071  26.681  1.00  0.00    -0.265 NA
ENDBRANCH  16  18
ENDBRANCH   9  14
ENDBRANCH   6   8
ENDBRANCH   5   6
ENDBRANCH   4   5
ENDBRANCH   3   4
ENDBRANCH   2   3
ENDBRANCH   1   2
BRANCH   1  24
ATOM     24  C   UNL A   1      37.153  22.288  24.923  1.00  0.00     0.188 C 
BRANCH  24  25
ATOM     25  O   UNL A   1      37.081  20.982  25.439  1.00  0.00    -0.376 OA
BRANCH  25  26
ATOM     26  C   UNL A   1      37.960  19.967  24.992  1.00  0.00     0.202 C 
BRANCH  26  27
ATOM     27  C   UNL A   1      39.212  19.469  25.743  1.00  0.00     0.261 C 
BRANCH  27  28
ATOM     28  O   UNL A   1      40.334  20.345  25.831  1.00  0.00    -0.460 OA
BRANCH  28  29
ATOM     29  C   UNL A   1      40.988  20.378  27.016  1.00  0.00     0.338 C 
ATOM     30  O   UNL A   1      41.506  19.448  27.604  1.00  0.00    -0.246 OA
BRANCH  29  31
ATOM     31  C   UNL A   1      41.166  21.799  27.387  1.00  0.00     0.060 A 
ATOM     32  C   UNL A   1      40.448  22.767  26.672  1.00  0.00     0.016 A 
ATOM     33  C   UNL A   1      41.987  22.168  28.457  1.00  0.00     0.016 A 
ATOM     34  C   UNL A   1      40.578  24.115  27.004  1.00  0.00     0.010 A 
ATOM     35  C   UNL A   1      42.135  23.520  28.772  1.00  0.00     0.010 A 
ATOM     36  C   UNL A   1      41.458  24.499  28.025  1.00  0.00    -0.014 A 
BRANCH  36  37
ATOM     37  C   UNL A   1      41.858  25.921  28.146  1.00  0.00     0.031 A 
ATOM     38  C   UNL A   1      43.200  26.317  27.598  1.00  0.00     0.074 A 
ATOM     39  C   UNL A   1      41.060  26.839  28.718  1.00  0.00     0.049 A 
ATOM     40  N   UNL A   1      43.796  27.481  27.608  1.00  0.00    -0.248 NA
ATOM     41  C   UNL A   1      43.976  25.248  26.947  1.00  0.00     0.031 C 
ATOM     42  C   UNL A   1      39.728  26.587  29.259  1.00  0.00     0.029 A 
ATOM     43  N   UNL A   1      41.272  28.177  28.944  1.00  0.00    -0.354 N 
ATOM     44  C   UNL A   1      45.008  27.285  26.963  1.00  0.00     0.074 A 
ATOM     45  C   UNL A   1      45.081  25.887  26.602  1.00  0.00     0.031 C 
ATOM     46  C   UNL A   1      39.248  27.733  29.777  1.00  0.00     0.029 A 
ATOM     47  C   UNL A   1      40.248  28.789  29.623  1.00  0.00     0.049 A 
ATOM     48  H   UNL A   1      42.083  28.651  28.649  1.00  0.00     0.167 HD
ATOM     49  C   UNL A   1      45.975  28.191  26.687  1.00  0.00     0.037 A 
ATOM     50  C   UNL A   1      40.147  30.051  30.082  1.00  0.00     0.037 A 
ATOM     51  C   UNL A   1      45.920  29.575  27.069  1.00  0.00     0.049 A 
ATOM     52  C   UNL A   1      41.274  31.025  29.835  1.00  0.00     0.074 A 
ATOM     53  C   UNL A   1      46.850  30.572  26.839  1.00  0.00     0.029 A 
ATOM     54  N   UNL A   1      44.876  30.152  27.777  1.00  0.00    -0.354 N 
ATOM     55  N   UNL A   1      42.403  30.843  29.197  1.00  0.00    -0.248 NA
ATOM     56  C   UNL A   1      41.107  32.384  30.375  1.00  0.00     0.031 C 
ATOM     57  C   UNL A   1      46.388  31.745  27.447  1.00  0.00     0.029 A 
ATOM     58  C   UNL A   1      45.150  31.489  28.012  1.00  0.00     0.049 A 
ATOM     59  H   UNL A   1      44.063  29.681  28.069  1.00  0.00     0.167 HD
ATOM     60  C   UNL A   1      43.068  32.063  29.234  1.00  0.00     0.074 A 
ATOM     61  C   UNL A   1      42.210  32.983  29.950  1.00  0.00     0.031 C 
ATOM     62  C   UNL A   1      44.279  32.392  28.720  1.00  0.00     0.037 A 
BRANCH  49  63
ATOM     63  C   UNL A   1      47.187  27.692  25.960  1.00  0.00     0.064 A 
ATOM     64  C   UNL A   1      48.306  27.203  26.650  1.00  0.00     0.173 A 
ATOM     65  C   UNL A   1      47.231  27.706  24.559  1.00  0.00     0.173 A 
ATOM     66  F   UNL A   1      48.320  27.192  27.991  1.00  0.00    -0.203 F 
ATOM     67  C   UNL A   1      49.437  26.772  25.963  1.00  0.00     0.198 A 
ATOM     68  C   UNL A   1      48.354  27.250  23.874  1.00  0.00     0.198 A 
ATOM     69  F   UNL A   1      46.187  28.169  23.854  1.00  0.00    -0.203 F 
ATOM     70  F   UNL A   1      50.515  26.358  26.643  1.00  0.00    -0.200 F 
ATOM     71  C   UNL A   1      49.457  26.791  24.576  1.00  0.00     0.200 A 
ATOM     72  F   UNL A   1      48.370  27.263  22.534  1.00  0.00    -0.200 F 
ATOM     73  F   UNL A   1      50.548  26.376  23.916  1.00  0.00    -0.200 F 
ENDBRANCH  49  63
BRANCH  50  74
ATOM     74  C   UNL A   1      38.941  30.470  30.841  1.00  0.00     0.064 A 
ATOM     75  C   UNL A   1      37.817  30.990  30.183  1.00  0.00     0.173 A 
ATOM     76  C   UNL A   1      38.897  30.385  32.239  1.00  0.00     0.173 A 
ATOM     77  F   UNL A   1      37.823  31.119  28.848  1.00  0.00    -0.203 F 
ATOM     78  C   UNL A   1      36.701  31.422  30.897  1.00  0.00     0.198 A 
ATOM     79  C   UNL A   1      37.771  30.793  32.951  1.00  0.00     0.198 A 
ATOM     80  F   UNL A   1      39.950  29.904  32.915  1.00  0.00    -0.203 F 
ATOM     81  F   UNL A   1      35.659  31.957  30.248  1.00  0.00    -0.200 F 
ATOM     82  C   UNL A   1      36.677  31.318  32.280  1.00  0.00     0.200 A 
ATOM     83  F   UNL A   1      37.750  30.689  34.287  1.00  0.00    -0.200 F 
ATOM     84  F   UNL A   1      35.604  31.735  32.967  1.00  0.00    -0.200 F 
ENDBRANCH  50  74
BRANCH  62  85
ATOM     85  C   UNL A   1      44.739  33.812  28.882  1.00  0.00     0.064 A 
ATOM     86  C   UNL A   1      44.409  34.804  27.947  1.00  0.00     0.173 A 
ATOM     87  C   UNL A   1      45.468  34.195  30.019  1.00  0.00     0.173 A 
ATOM     88  F   UNL A   1      43.725  34.484  26.838  1.00  0.00    -0.203 F 
ATOM     89  C   UNL A   1      44.811  36.123  28.133  1.00  0.00     0.198 A 
ATOM     90  C   UNL A   1      45.844  35.521  30.215  1.00  0.00     0.198 A 
ATOM     91  F   UNL A   1      45.800  33.286  30.947  1.00  0.00    -0.203 F 
ATOM     92  F   UNL A   1      44.519  37.048  27.208  1.00  0.00    -0.200 F 
ATOM     93  C   UNL A   1      45.520  36.483  29.271  1.00  0.00     0.200 A 
ATOM     94  F   UNL A   1      46.516  35.868  31.320  1.00  0.00    -0.200 F 
ATOM     95  F   UNL A   1      45.896  37.756  29.453  1.00  0.00    -0.200 F 
ENDBRANCH  62  85
ENDBRANCH  36  37
ENDBRANCH  29  31
ENDBRANCH  28  29
ENDBRANCH  27  28
ENDBRANCH  26  27
ENDBRANCH  25  26
ENDBRANCH  24  25
ENDBRANCH   1  24
TORSDOF 19
ENDMDL
