MODEL 1
REMARK VINA RESULT:     -11.8      0.000      0.000
REMARK SMILES O=C(OCCOCCOCCOC(=O)c1cc(F)ccc1N1CCCc2ccccc21)c1ccc(-c2c3nc(c(-c4c(F)c(F)c(F)c(F)c4F)c4ccc([nH]4)c(-c4c(F)c(F)c(F)c(F)c4F)c4nc(c(-c5c(F)c(F)c(F)c(F)c5F)c5ccc2[nH]5)C=C4)C=C3)cc1
REMARK SMILES IDX 7 1 6 2 5 3 4 4 3 5 2 6 1 7 32 8 33 9 94 10 34 11 93 12
REMARK SMILES IDX 35 13 36 14 37 15 87 16 38 17 92 18 86 19 88 20 39 21 91 22
REMARK SMILES IDX 85 23 84 24 40 26 72 27 52 28 71 29 53 30 56 31 70 32 89 33
REMARK SMILES IDX 54 34 55 35 69 37 90 38 57 39 41 40 42 41 50 42 43 43 44 44
REMARK SMILES IDX 48 45 51 46 45 47 46 48 49 49 47 50 73 51 74 52 82 53 75 54
REMARK SMILES IDX 76 55 80 56 83 57 77 58 78 59 81 60 79 61 58 62 59 63 67 64
REMARK SMILES IDX 60 65 61 66 65 67 68 68 62 69 63 70 66 71 64 72 8 73 9 74
REMARK SMILES IDX 10 75 11 76 12 77 13 78 14 79 15 80 16 81 21 82 17 83 20 84
REMARK SMILES IDX 18 85 19 86 22 87 23 88 31 89 24 90 26 91 30 92 25 93 27 94
REMARK SMILES IDX 29 95 28 96
REMARK H PARENT 88 25 56 36
REMARK Flexibility Score: inf
ROOT
ATOM      1  C   UNL A   1      40.716  19.720  26.095  1.00  0.00     0.188 C 
ENDROOT
BRANCH   1   2
ATOM      2  O   UNL A   1      41.980  19.629  25.445  1.00  0.00    -0.376 OA
BRANCH   2   3
ATOM      3  C   UNL A   1      43.037  20.356  26.054  1.00  0.00     0.202 C 
BRANCH   3   4
ATOM      4  C   UNL A   1      43.810  21.189  25.026  1.00  0.00     0.261 C 
BRANCH   4   5
ATOM      5  O   UNL A   1      43.190  22.479  24.847  1.00  0.00    -0.460 OA
BRANCH   5   6
ATOM      6  C   UNL A   1      43.666  23.734  24.987  1.00  0.00     0.338 C 
ATOM      7  O   UNL A   1      44.610  24.065  24.267  1.00  0.00    -0.246 OA
BRANCH   6   8
ATOM      8  C   UNL A   1      43.190  24.752  25.985  1.00  0.00     0.060 A 
ATOM      9  C   UNL A   1      43.582  26.088  26.071  1.00  0.00     0.016 A 
ATOM     10  C   UNL A   1      42.186  24.319  26.876  1.00  0.00     0.016 A 
ATOM     11  C   UNL A   1      43.039  26.948  27.034  1.00  0.00     0.010 A 
ATOM     12  C   UNL A   1      41.599  25.186  27.808  1.00  0.00     0.010 A 
ATOM     13  C   UNL A   1      42.051  26.503  27.917  1.00  0.00    -0.014 A 
BRANCH  13  14
ATOM     14  C   UNL A   1      41.601  27.371  29.028  1.00  0.00     0.031 A 
ATOM     15  C   UNL A   1      42.349  27.327  30.328  1.00  0.00     0.074 A 
ATOM     16  C   UNL A   1      40.593  28.248  28.867  1.00  0.00     0.049 A 
ATOM     17  N   UNL A   1      42.133  28.000  31.430  1.00  0.00    -0.248 NA
ATOM     18  C   UNL A   1      43.512  26.426  30.392  1.00  0.00     0.031 C 
ATOM     19  C   UNL A   1      39.846  28.461  27.629  1.00  0.00     0.029 A 
ATOM     20  N   UNL A   1      40.028  29.131  29.756  1.00  0.00    -0.354 N 
ATOM     21  C   UNL A   1      43.148  27.629  32.298  1.00  0.00     0.074 A 
ATOM     22  C   UNL A   1      43.946  26.628  31.627  1.00  0.00     0.031 C 
ATOM     23  C   UNL A   1      38.917  29.407  27.845  1.00  0.00     0.029 A 
ATOM     24  C   UNL A   1      38.955  29.814  29.242  1.00  0.00     0.049 A 
ATOM     25  H   UNL A   1      40.362  29.261  30.673  1.00  0.00     0.167 HD
ATOM     26  C   UNL A   1      43.413  28.109  33.534  1.00  0.00     0.037 A 
ATOM     27  C   UNL A   1      38.075  30.645  29.832  1.00  0.00     0.037 A 
ATOM     28  C   UNL A   1      42.629  29.108  34.204  1.00  0.00     0.049 A 
ATOM     29  C   UNL A   1      38.279  31.025  31.268  1.00  0.00     0.074 A 
ATOM     30  C   UNL A   1      42.841  29.678  35.446  1.00  0.00     0.029 A 
ATOM     31  N   UNL A   1      41.477  29.677  33.688  1.00  0.00    -0.354 N 
ATOM     32  N   UNL A   1      39.250  30.680  32.076  1.00  0.00    -0.248 NA
ATOM     33  C   UNL A   1      37.282  31.920  31.872  1.00  0.00     0.031 C 
ATOM     34  C   UNL A   1      41.790  30.563  35.701  1.00  0.00     0.029 A 
ATOM     35  C   UNL A   1      40.942  30.565  34.605  1.00  0.00     0.049 A 
ATOM     36  H   UNL A   1      41.094  29.481  32.802  1.00  0.00     0.167 HD
ATOM     37  C   UNL A   1      38.997  31.330  33.273  1.00  0.00     0.074 A 
ATOM     38  C   UNL A   1      37.777  32.090  33.090  1.00  0.00     0.031 C 
ATOM     39  C   UNL A   1      39.723  31.306  34.416  1.00  0.00     0.037 A 
BRANCH  26  40
ATOM     40  C   UNL A   1      44.613  27.563  34.236  1.00  0.00     0.064 A 
ATOM     41  C   UNL A   1      44.501  26.443  35.071  1.00  0.00     0.173 A 
ATOM     42  C   UNL A   1      45.869  28.174  34.109  1.00  0.00     0.173 A 
ATOM     43  F   UNL A   1      43.321  25.824  35.217  1.00  0.00    -0.203 F 
ATOM     44  C   UNL A   1      45.607  25.959  35.764  1.00  0.00     0.198 A 
ATOM     45  C   UNL A   1      46.975  27.677  34.790  1.00  0.00     0.198 A 
ATOM     46  F   UNL A   1      46.024  29.235  33.303  1.00  0.00    -0.203 F 
ATOM     47  F   UNL A   1      45.478  24.894  36.567  1.00  0.00    -0.200 F 
ATOM     48  C   UNL A   1      46.842  26.575  35.622  1.00  0.00     0.200 A 
ATOM     49  F   UNL A   1      48.173  28.258  34.635  1.00  0.00    -0.200 F 
ATOM     50  F   UNL A   1      47.907  26.100  36.282  1.00  0.00    -0.200 F 
ENDBRANCH  26  40
BRANCH  27  51
ATOM     51  C   UNL A   1      36.881  31.116  29.086  1.00  0.00     0.064 A 
ATOM     52  C   UNL A   1      35.823  30.235  28.811  1.00  0.00     0.173 A 
ATOM     53  C   UNL A   1      36.755  32.443  28.661  1.00  0.00     0.173 A 
ATOM     54  F   UNL A   1      35.899  28.953  29.202  1.00  0.00    -0.203 F 
ATOM     55  C   UNL A   1      34.683  30.666  28.137  1.00  0.00     0.198 A 
ATOM     56  C   UNL A   1      35.608  32.875  27.994  1.00  0.00     0.198 A 
ATOM     57  F   UNL A   1      37.727  33.326  28.929  1.00  0.00    -0.203 F 
ATOM     58  F   UNL A   1      33.690  29.801  27.885  1.00  0.00    -0.200 F 
ATOM     59  C   UNL A   1      34.576  31.986  27.730  1.00  0.00     0.200 A 
ATOM     60  F   UNL A   1      35.495  34.159  27.627  1.00  0.00    -0.200 F 
ATOM     61  F   UNL A   1      33.472  32.408  27.098  1.00  0.00    -0.200 F 
ENDBRANCH  27  51
BRANCH  39  62
ATOM     62  C   UNL A   1      39.229  32.123  35.565  1.00  0.00     0.064 A 
ATOM     63  C   UNL A   1      39.646  33.453  35.723  1.00  0.00     0.173 A 
ATOM     64  C   UNL A   1      38.416  31.561  36.557  1.00  0.00     0.173 A 
ATOM     65  F   UNL A   1      40.427  34.030  34.799  1.00  0.00    -0.203 F 
ATOM     66  C   UNL A   1      39.287  34.183  36.851  1.00  0.00     0.198 A 
ATOM     67  C   UNL A   1      38.041  32.301  37.674  1.00  0.00     0.198 A 
ATOM     68  F   UNL A   1      37.980  30.297  36.436  1.00  0.00    -0.203 F 
ATOM     69  F   UNL A   1      39.726  35.441  37.001  1.00  0.00    -0.200 F 
ATOM     70  C   UNL A   1      38.486  33.606  37.825  1.00  0.00     0.200 A 
ATOM     71  F   UNL A   1      37.251  31.749  38.606  1.00  0.00    -0.200 F 
ATOM     72  F   UNL A   1      38.142  34.309  38.913  1.00  0.00    -0.200 F 
ENDBRANCH  39  62
ENDBRANCH  13  14
ENDBRANCH   6   8
ENDBRANCH   5   6
ENDBRANCH   4   5
ENDBRANCH   3   4
ENDBRANCH   2   3
ENDBRANCH   1   2
BRANCH   1  73
ATOM     73  C   UNL A   1      40.411  21.041  26.811  1.00  0.00     0.188 C 
BRANCH  73  74
ATOM     74  O   UNL A   1      39.718  22.052  26.095  1.00  0.00    -0.376 OA
BRANCH  74  75
ATOM     75  C   UNL A   1      38.346  21.852  25.782  1.00  0.00     0.202 C 
BRANCH  75  76
ATOM     76  C   UNL A   1      37.449  23.087  25.775  1.00  0.00     0.261 C 
BRANCH  76  77
ATOM     77  O   UNL A   1      36.250  22.944  24.990  1.00  0.00    -0.460 OA
BRANCH  77  78
ATOM     78  C   UNL A   1      35.131  22.608  25.687  1.00  0.00     0.340 C 
ATOM     79  O   UNL A   1      34.945  22.722  26.884  1.00  0.00    -0.246 OA
BRANCH  78  80
ATOM     80  C   UNL A   1      34.263  21.810  24.806  1.00  0.00     0.086 A 
ATOM     81  C   UNL A   1      34.326  20.424  25.006  1.00  0.00     0.057 A 
ATOM     82  C   UNL A   1      33.304  22.368  23.941  1.00  0.00     0.056 A 
ATOM     83  C   UNL A   1      33.435  19.598  24.341  1.00  0.00     0.124 A 
ATOM     84  C   UNL A   1      32.456  21.489  23.237  1.00  0.00     0.030 A 
ATOM     85  F   UNL A   1      33.492  18.276  24.553  1.00  0.00    -0.207 F 
ATOM     86  C   UNL A   1      32.514  20.111  23.441  1.00  0.00     0.041 A 
BRANCH  82  87
ATOM     87  N   UNL A   1      33.058  23.752  23.827  1.00  0.00    -0.341 N 
ATOM     88  C   UNL A   1      33.624  24.399  22.636  1.00  0.00     0.123 C 
ATOM     89  C   UNL A   1      31.984  24.407  24.479  1.00  0.00     0.044 A 
ATOM     90  C   UNL A   1      32.557  25.100  21.809  1.00  0.00     0.027 C 
ATOM     91  C   UNL A   1      31.389  25.568  23.943  1.00  0.00    -0.024 A 
ATOM     92  C   UNL A   1      31.439  23.876  25.660  1.00  0.00     0.026 A 
ATOM     93  C   UNL A   1      31.902  26.173  22.664  1.00  0.00     0.039 C 
ATOM     94  C   UNL A   1      30.297  26.169  24.589  1.00  0.00     0.006 A 
ATOM     95  C   UNL A   1      30.335  24.461  26.284  1.00  0.00     0.002 A 
ATOM     96  C   UNL A   1      29.764  25.608  25.747  1.00  0.00     0.000 A 
ENDBRANCH  82  87
ENDBRANCH  78  80
ENDBRANCH  77  78
ENDBRANCH  76  77
ENDBRANCH  75  76
ENDBRANCH  74  75
ENDBRANCH  73  74
ENDBRANCH   1  73
TORSDOF 18
ENDMDL
MODEL 2
REMARK VINA RESULT:     -11.6      0.684      2.076
REMARK SMILES O=C(OCCOCCOCCOC(=O)c1cc(F)ccc1N1CCCc2ccccc21)c1ccc(-c2c3nc(c(-c4c(F)c(F)c(F)c(F)c4F)c4ccc([nH]4)c(-c4c(F)c(F)c(F)c(F)c4F)c4nc(c(-c5c(F)c(F)c(F)c(F)c5F)c5ccc2[nH]5)C=C4)C=C3)cc1
REMARK SMILES IDX 7 1 6 2 5 3 4 4 3 5 2 6 1 7 32 8 33 9 94 10 34 11 93 12
REMARK SMILES IDX 35 13 36 14 37 15 87 16 38 17 92 18 86 19 88 20 39 21 91 22
REMARK SMILES IDX 85 23 84 24 40 26 72 27 52 28 71 29 53 30 56 31 70 32 89 33
REMARK SMILES IDX 54 34 55 35 69 37 90 38 57 39 41 40 42 41 50 42 43 43 44 44
REMARK SMILES IDX 48 45 51 46 45 47 46 48 49 49 47 50 73 51 74 52 82 53 75 54
REMARK SMILES IDX 76 55 80 56 83 57 77 58 78 59 81 60 79 61 58 62 59 63 67 64
REMARK SMILES IDX 60 65 61 66 65 67 68 68 62 69 63 70 66 71 64 72 8 73 9 74
REMARK SMILES IDX 10 75 11 76 12 77 13 78 14 79 15 80 16 81 21 82 17 83 20 84
REMARK SMILES IDX 18 85 19 86 22 87 23 88 31 89 24 90 26 91 30 92 25 93 27 94
REMARK SMILES IDX 29 95 28 96
REMARK H PARENT 88 25 56 36
REMARK Flexibility Score: inf
ROOT
ATOM      1  C   UNL A   1      40.471  19.856  25.975  1.00  0.00     0.188 C 
ENDROOT
BRANCH   1   2
ATOM      2  O   UNL A   1      41.801  19.658  25.505  1.00  0.00    -0.376 OA
BRANCH   2   3
ATOM      3  C   UNL A   1      42.816  20.339  26.228  1.00  0.00     0.202 C 
BRANCH   3   4
ATOM      4  C   UNL A   1      43.659  21.229  25.309  1.00  0.00     0.261 C 
BRANCH   4   5
ATOM      5  O   UNL A   1      42.974  22.467  25.031  1.00  0.00    -0.460 OA
BRANCH   5   6
ATOM      6  C   UNL A   1      43.384  23.752  25.073  1.00  0.00     0.338 C 
ATOM      7  O   UNL A   1      44.236  24.101  24.255  1.00  0.00    -0.246 OA
BRANCH   6   8
ATOM      8  C   UNL A   1      42.941  24.787  26.069  1.00  0.00     0.060 A 
ATOM      9  C   UNL A   1      43.391  26.104  26.166  1.00  0.00     0.016 A 
ATOM     10  C   UNL A   1      41.904  24.397  26.944  1.00  0.00     0.016 A 
ATOM     11  C   UNL A   1      42.873  26.984  27.125  1.00  0.00     0.010 A 
ATOM     12  C   UNL A   1      41.345  25.286  27.871  1.00  0.00     0.010 A 
ATOM     13  C   UNL A   1      41.855  26.581  27.991  1.00  0.00    -0.014 A 
BRANCH  13  14
ATOM     14  C   UNL A   1      41.428  27.465  29.100  1.00  0.00     0.031 A 
ATOM     15  C   UNL A   1      42.199  27.432  30.388  1.00  0.00     0.074 A 
ATOM     16  C   UNL A   1      40.422  28.345  28.945  1.00  0.00     0.049 A 
ATOM     17  N   UNL A   1      42.005  28.119  31.484  1.00  0.00    -0.248 NA
ATOM     18  C   UNL A   1      43.358  26.525  30.442  1.00  0.00     0.031 C 
ATOM     19  C   UNL A   1      39.655  28.548  27.719  1.00  0.00     0.029 A 
ATOM     20  N   UNL A   1      39.878  29.242  29.834  1.00  0.00    -0.354 N 
ATOM     21  C   UNL A   1      43.033  27.753  32.340  1.00  0.00     0.074 A 
ATOM     22  C   UNL A   1      43.814  26.740  31.667  1.00  0.00     0.031 C 
ATOM     23  C   UNL A   1      38.734  29.501  27.939  1.00  0.00     0.029 A 
ATOM     24  C   UNL A   1      38.799  29.924  29.330  1.00  0.00     0.049 A 
ATOM     25  H   UNL A   1      40.227  29.381  30.743  1.00  0.00     0.167 HD
ATOM     26  C   UNL A   1      43.322  28.247  33.565  1.00  0.00     0.037 A 
ATOM     27  C   UNL A   1      37.934  30.767  29.925  1.00  0.00     0.037 A 
ATOM     28  C   UNL A   1      42.555  29.257  34.236  1.00  0.00     0.049 A 
ATOM     29  C   UNL A   1      38.165  31.164  31.353  1.00  0.00     0.074 A 
ATOM     30  C   UNL A   1      42.792  29.841  35.467  1.00  0.00     0.029 A 
ATOM     31  N   UNL A   1      41.397  29.827  33.733  1.00  0.00    -0.354 N 
ATOM     32  N   UNL A   1      39.148  30.822  32.148  1.00  0.00    -0.248 NA
ATOM     33  C   UNL A   1      37.183  32.071  31.963  1.00  0.00     0.031 C 
ATOM     34  C   UNL A   1      41.749  30.735  35.730  1.00  0.00     0.029 A 
ATOM     35  C   UNL A   1      40.883  30.729  34.649  1.00  0.00     0.049 A 
ATOM     36  H   UNL A   1      40.998  29.622  32.856  1.00  0.00     0.167 HD
ATOM     37  C   UNL A   1      38.919  31.488  33.342  1.00  0.00     0.074 A 
ATOM     38  C   UNL A   1      37.701  32.253  33.171  1.00  0.00     0.031 C 
ATOM     39  C   UNL A   1      39.664  31.474  34.471  1.00  0.00     0.037 A 
BRANCH  26  40
ATOM     40  C   UNL A   1      44.531  27.702  34.253  1.00  0.00     0.064 A 
ATOM     41  C   UNL A   1      45.794  28.264  34.025  1.00  0.00     0.173 A 
ATOM     42  C   UNL A   1      44.441  26.597  35.111  1.00  0.00     0.173 A 
ATOM     43  F   UNL A   1      45.925  29.326  33.217  1.00  0.00    -0.203 F 
ATOM     44  C   UNL A   1      46.929  27.731  34.628  1.00  0.00     0.198 A 
ATOM     45  C   UNL A   1      45.576  26.076  35.725  1.00  0.00     0.198 A 
ATOM     46  F   UNL A   1      43.248  26.041  35.373  1.00  0.00    -0.203 F 
ATOM     47  F   UNL A   1      48.130  28.275  34.389  1.00  0.00    -0.200 F 
ATOM     48  C   UNL A   1      46.819  26.640  35.477  1.00  0.00     0.200 A 
ATOM     49  F   UNL A   1      45.466  25.036  36.562  1.00  0.00    -0.200 F 
ATOM     50  F   UNL A   1      47.913  26.135  36.065  1.00  0.00    -0.200 F 
ENDBRANCH  26  40
BRANCH  27  51
ATOM     51  C   UNL A   1      36.730  31.236  29.195  1.00  0.00     0.064 A 
ATOM     52  C   UNL A   1      36.644  32.563  28.746  1.00  0.00     0.173 A 
ATOM     53  C   UNL A   1      35.663  30.377  28.906  1.00  0.00     0.173 A 
ATOM     54  F   UNL A   1      37.643  33.422  28.997  1.00  0.00    -0.203 F 
ATOM     55  C   UNL A   1      35.534  33.014  28.035  1.00  0.00     0.198 A 
ATOM     56  C   UNL A   1      34.556  30.828  28.187  1.00  0.00     0.198 A 
ATOM     57  F   UNL A   1      35.716  29.094  29.289  1.00  0.00    -0.203 F 
ATOM     58  F   UNL A   1      35.478  34.287  27.622  1.00  0.00    -0.200 F 
ATOM     59  C   UNL A   1      34.491  32.145  27.755  1.00  0.00     0.200 A 
ATOM     60  F   UNL A   1      33.562  29.978  27.892  1.00  0.00    -0.200 F 
ATOM     61  F   UNL A   1      33.430  32.571  27.055  1.00  0.00    -0.200 F 
ENDBRANCH  27  51
BRANCH  39  62
ATOM     62  C   UNL A   1      39.195  32.308  35.620  1.00  0.00     0.064 A 
ATOM     63  C   UNL A   1      39.692  33.605  35.806  1.00  0.00     0.173 A 
ATOM     64  C   UNL A   1      38.323  31.787  36.584  1.00  0.00     0.173 A 
ATOM     65  F   UNL A   1      40.532  34.142  34.909  1.00  0.00    -0.203 F 
ATOM     66  C   UNL A   1      39.352  34.344  36.934  1.00  0.00     0.198 A 
ATOM     67  C   UNL A   1      37.968  32.536  37.701  1.00  0.00     0.198 A 
ATOM     68  F   UNL A   1      37.810  30.556  36.435  1.00  0.00    -0.203 F 
ATOM     69  F   UNL A   1      39.867  35.569  37.112  1.00  0.00    -0.200 F 
ATOM     70  C   UNL A   1      38.491  33.808  37.881  1.00  0.00     0.200 A 
ATOM     71  F   UNL A   1      37.121  32.025  38.606  1.00  0.00    -0.200 F 
ATOM     72  F   UNL A   1      38.165  34.519  38.969  1.00  0.00    -0.200 F 
ENDBRANCH  39  62
ENDBRANCH  13  14
ENDBRANCH   6   8
ENDBRANCH   5   6
ENDBRANCH   4   5
ENDBRANCH   3   4
ENDBRANCH   2   3
ENDBRANCH   1   2
BRANCH   1  73
ATOM     73  C   UNL A   1      40.206  21.154  26.745  1.00  0.00     0.188 C 
BRANCH  73  74
ATOM     74  O   UNL A   1      38.994  21.851  26.496  1.00  0.00    -0.376 OA
BRANCH  74  75
ATOM     75  C   UNL A   1      38.191  21.454  25.392  1.00  0.00     0.202 C 
BRANCH  75  76
ATOM     76  C   UNL A   1      37.130  22.442  24.915  1.00  0.00     0.261 C 
BRANCH  76  77
ATOM     77  O   UNL A   1      35.949  21.825  24.369  1.00  0.00    -0.460 OA
BRANCH  77  78
ATOM     78  C   UNL A   1      35.040  21.391  25.283  1.00  0.00     0.340 C 
ATOM     79  O   UNL A   1      35.014  21.641  26.474  1.00  0.00    -0.246 OA
BRANCH  78  80
ATOM     80  C   UNL A   1      34.236  20.326  24.662  1.00  0.00     0.086 A 
ATOM     81  C   UNL A   1      34.841  19.062  24.637  1.00  0.00     0.057 A 
ATOM     82  C   UNL A   1      32.894  20.488  24.272  1.00  0.00     0.056 A 
ATOM     83  C   UNL A   1      34.108  17.963  24.220  1.00  0.00     0.124 A 
ATOM     84  C   UNL A   1      32.201  19.355  23.796  1.00  0.00     0.030 A 
ATOM     85  F   UNL A   1      34.690  16.757  24.217  1.00  0.00    -0.207 F 
ATOM     86  C   UNL A   1      32.801  18.097  23.778  1.00  0.00     0.041 A 
BRANCH  82  87
ATOM     87  N   UNL A   1      32.164  21.683  24.440  1.00  0.00    -0.341 N 
ATOM     88  C   UNL A   1      31.504  21.843  25.743  1.00  0.00     0.123 C 
ATOM     89  C   UNL A   1      32.406  22.855  23.682  1.00  0.00     0.044 A 
ATOM     90  C   UNL A   1      31.939  23.119  26.448  1.00  0.00     0.027 C 
ATOM     91  C   UNL A   1      32.145  24.140  24.201  1.00  0.00    -0.024 A 
ATOM     92  C   UNL A   1      32.975  22.768  22.400  1.00  0.00     0.026 A 
ATOM     93  C   UNL A   1      31.566  24.308  25.579  1.00  0.00     0.039 C 
ATOM     94  C   UNL A   1      32.437  25.285  23.441  1.00  0.00     0.006 A 
ATOM     95  C   UNL A   1      33.290  23.909  21.661  1.00  0.00     0.002 A 
ATOM     96  C   UNL A   1      33.020  25.168  22.182  1.00  0.00     0.000 A 
ENDBRANCH  82  87
ENDBRANCH  78  80
ENDBRANCH  77  78
ENDBRANCH  76  77
ENDBRANCH  75  76
ENDBRANCH  74  75
ENDBRANCH  73  74
ENDBRANCH   1  73
TORSDOF 18
ENDMDL
MODEL 3
REMARK VINA RESULT:     -11.2      4.856      7.050
REMARK SMILES O=C(OCCOCCOCCOC(=O)c1cc(F)ccc1N1CCCc2ccccc21)c1ccc(-c2c3nc(c(-c4c(F)c(F)c(F)c(F)c4F)c4ccc([nH]4)c(-c4c(F)c(F)c(F)c(F)c4F)c4nc(c(-c5c(F)c(F)c(F)c(F)c5F)c5ccc2[nH]5)C=C4)C=C3)cc1
REMARK SMILES IDX 7 1 6 2 5 3 4 4 3 5 2 6 1 7 32 8 33 9 94 10 34 11 93 12
REMARK SMILES IDX 35 13 36 14 37 15 87 16 38 17 92 18 86 19 88 20 39 21 91 22
REMARK SMILES IDX 85 23 84 24 40 26 72 27 52 28 71 29 53 30 56 31 70 32 89 33
REMARK SMILES IDX 54 34 55 35 69 37 90 38 57 39 41 40 42 41 50 42 43 43 44 44
REMARK SMILES IDX 48 45 51 46 45 47 46 48 49 49 47 50 73 51 74 52 82 53 75 54
REMARK SMILES IDX 76 55 80 56 83 57 77 58 78 59 81 60 79 61 58 62 59 63 67 64
REMARK SMILES IDX 60 65 61 66 65 67 68 68 62 69 63 70 66 71 64 72 8 73 9 74
REMARK SMILES IDX 10 75 11 76 12 77 13 78 14 79 15 80 16 81 21 82 17 83 20 84
REMARK SMILES IDX 18 85 19 86 22 87 23 88 31 89 24 90 26 91 30 92 25 93 27 94
REMARK SMILES IDX 29 95 28 96
REMARK H PARENT 88 25 56 36
REMARK Flexibility Score: inf
ROOT
ATOM      1  C   UNL A   1      40.029  19.884  25.931  1.00  0.00     0.188 C 
ENDROOT
BRANCH   1   2
ATOM      2  O   UNL A   1      41.043  18.906  25.726  1.00  0.00    -0.376 OA
BRANCH   2   3
ATOM      3  C   UNL A   1      42.316  19.216  26.273  1.00  0.00     0.202 C 
BRANCH   3   4
ATOM      4  C   UNL A   1      43.366  18.172  25.879  1.00  0.00     0.261 C 
BRANCH   4   5
ATOM      5  O   UNL A   1      43.984  18.519  24.623  1.00  0.00    -0.460 OA
BRANCH   5   6
ATOM      6  C   UNL A   1      44.926  19.431  24.305  1.00  0.00     0.338 C 
ATOM      7  O   UNL A   1      45.907  19.033  23.674  1.00  0.00    -0.246 OA
BRANCH   6   8
ATOM      8  C   UNL A   1      44.922  20.880  24.701  1.00  0.00     0.060 A 
ATOM      9  C   UNL A   1      44.553  21.966  23.907  1.00  0.00     0.016 A 
ATOM     10  C   UNL A   1      45.256  21.153  26.045  1.00  0.00     0.016 A 
ATOM     11  C   UNL A   1      44.564  23.274  24.407  1.00  0.00     0.010 A 
ATOM     12  C   UNL A   1      45.219  22.452  26.568  1.00  0.00     0.010 A 
ATOM     13  C   UNL A   1      44.906  23.530  25.737  1.00  0.00    -0.014 A 
BRANCH  13  14
ATOM     14  C   UNL A   1      45.067  24.924  26.208  1.00  0.00     0.031 A 
ATOM     15  C   UNL A   1      46.432  25.548  26.168  1.00  0.00     0.074 A 
ATOM     16  C   UNL A   1      44.008  25.659  26.592  1.00  0.00     0.049 A 
ATOM     17  N   UNL A   1      46.802  26.751  26.527  1.00  0.00    -0.248 NA
ATOM     18  C   UNL A   1      47.522  24.718  25.629  1.00  0.00     0.031 C 
ATOM     19  C   UNL A   1      42.617  25.210  26.587  1.00  0.00     0.029 A 
ATOM     20  N   UNL A   1      43.940  26.951  27.056  1.00  0.00    -0.354 N 
ATOM     21  C   UNL A   1      48.152  26.830  26.226  1.00  0.00     0.074 A 
ATOM     22  C   UNL A   1      48.557  25.541  25.714  1.00  0.00     0.031 C 
ATOM     23  C   UNL A   1      41.840  26.208  27.037  1.00  0.00     0.029 A 
ATOM     24  C   UNL A   1      42.675  27.335  27.425  1.00  0.00     0.049 A 
ATOM     25  H   UNL A   1      44.723  27.545  27.119  1.00  0.00     0.167 HD
ATOM     26  C   UNL A   1      48.975  27.898  26.332  1.00  0.00     0.037 A 
ATOM     27  C   UNL A   1      42.237  28.450  28.040  1.00  0.00     0.037 A 
ATOM     28  C   UNL A   1      48.579  29.183  26.834  1.00  0.00     0.049 A 
ATOM     29  C   UNL A   1      43.206  29.559  28.320  1.00  0.00     0.074 A 
ATOM     30  C   UNL A   1      49.338  30.333  26.949  1.00  0.00     0.029 A 
ATOM     31  N   UNL A   1      47.314  29.483  27.312  1.00  0.00    -0.354 N 
ATOM     32  N   UNL A   1      44.479  29.630  28.019  1.00  0.00    -0.248 NA
ATOM     33  C   UNL A   1      42.683  30.747  29.010  1.00  0.00     0.031 C 
ATOM     34  C   UNL A   1      48.543  31.320  27.539  1.00  0.00     0.029 A 
ATOM     35  C   UNL A   1      47.282  30.792  27.762  1.00  0.00     0.049 A 
ATOM     36  H   UNL A   1      46.552  28.860  27.330  1.00  0.00     0.167 HD
ATOM     37  C   UNL A   1      44.904  30.873  28.458  1.00  0.00     0.074 A 
ATOM     38  C   UNL A   1      43.755  31.527  29.051  1.00  0.00     0.031 C 
ATOM     39  C   UNL A   1      46.136  31.425  28.361  1.00  0.00     0.037 A 
BRANCH  26  40
ATOM     40  C   UNL A   1      50.389  27.718  25.884  1.00  0.00     0.064 A 
ATOM     41  C   UNL A   1      50.719  27.786  24.525  1.00  0.00     0.173 A 
ATOM     42  C   UNL A   1      51.411  27.442  26.803  1.00  0.00     0.173 A 
ATOM     43  F   UNL A   1      49.774  28.055  23.612  1.00  0.00    -0.203 F 
ATOM     44  C   UNL A   1      52.027  27.574  24.099  1.00  0.00     0.198 A 
ATOM     45  C   UNL A   1      52.721  27.246  26.375  1.00  0.00     0.198 A 
ATOM     46  F   UNL A   1      51.142  27.389  28.117  1.00  0.00    -0.203 F 
ATOM     47  F   UNL A   1      52.321  27.631  22.793  1.00  0.00    -0.200 F 
ATOM     48  C   UNL A   1      53.026  27.305  25.024  1.00  0.00     0.200 A 
ATOM     49  F   UNL A   1      53.689  27.009  27.271  1.00  0.00    -0.200 F 
ATOM     50  F   UNL A   1      54.286  27.111  24.611  1.00  0.00    -0.200 F 
ENDBRANCH  26  40
BRANCH  27  51
ATOM     51  C   UNL A   1      40.827  28.543  28.496  1.00  0.00     0.064 A 
ATOM     52  C   UNL A   1      40.483  28.194  29.811  1.00  0.00     0.173 A 
ATOM     53  C   UNL A   1      39.809  29.003  27.653  1.00  0.00     0.173 A 
ATOM     54  F   UNL A   1      41.426  27.750  30.656  1.00  0.00    -0.203 F 
ATOM     55  C   UNL A   1      39.170  28.301  30.266  1.00  0.00     0.198 A 
ATOM     56  C   UNL A   1      38.497  29.118  28.112  1.00  0.00     0.198 A 
ATOM     57  F   UNL A   1      40.097  29.376  26.399  1.00  0.00    -0.203 F 
ATOM     58  F   UNL A   1      38.870  27.957  31.526  1.00  0.00    -0.200 F 
ATOM     59  C   UNL A   1      38.178  28.764  29.416  1.00  0.00     0.200 A 
ATOM     60  F   UNL A   1      37.544  29.593  27.297  1.00  0.00    -0.200 F 
ATOM     61  F   UNL A   1      36.918  28.885  29.856  1.00  0.00    -0.200 F 
ENDBRANCH  27  51
BRANCH  39  62
ATOM     62  C   UNL A   1      46.320  32.805  28.905  1.00  0.00     0.064 A 
ATOM     63  C   UNL A   1      46.100  33.925  28.090  1.00  0.00     0.173 A 
ATOM     64  C   UNL A   1      46.801  33.013  30.204  1.00  0.00     0.173 A 
ATOM     65  F   UNL A   1      45.643  33.771  26.839  1.00  0.00    -0.203 F 
ATOM     66  C   UNL A   1      46.382  35.207  28.550  1.00  0.00     0.198 A 
ATOM     67  C   UNL A   1      47.062  34.299  30.668  1.00  0.00     0.198 A 
ATOM     68  F   UNL A   1      47.007  31.970  31.021  1.00  0.00    -0.203 F 
ATOM     69  F   UNL A   1      46.200  36.262  27.743  1.00  0.00    -0.200 F 
ATOM     70  C   UNL A   1      46.863  35.392  29.838  1.00  0.00     0.200 A 
ATOM     71  F   UNL A   1      47.508  34.479  31.919  1.00  0.00    -0.200 F 
ATOM     72  F   UNL A   1      47.136  36.627  30.280  1.00  0.00    -0.200 F 
ENDBRANCH  39  62
ENDBRANCH  13  14
ENDBRANCH   6   8
ENDBRANCH   5   6
ENDBRANCH   4   5
ENDBRANCH   3   4
ENDBRANCH   2   3
ENDBRANCH   1   2
BRANCH   1  73
ATOM     73  C   UNL A   1      40.504  21.280  26.351  1.00  0.00     0.188 C 
BRANCH  73  74
ATOM     74  O   UNL A   1      39.534  22.308  26.491  1.00  0.00    -0.376 OA
BRANCH  74  75
ATOM     75  C   UNL A   1      38.285  22.166  25.827  1.00  0.00     0.202 C 
BRANCH  75  76
ATOM     76  C   UNL A   1      37.418  23.416  25.707  1.00  0.00     0.261 C 
BRANCH  76  77
ATOM     77  O   UNL A   1      36.212  23.230  24.941  1.00  0.00    -0.460 OA
BRANCH  77  78
ATOM     78  C   UNL A   1      35.107  22.897  25.662  1.00  0.00     0.340 C 
ATOM     79  O   UNL A   1      34.931  23.053  26.856  1.00  0.00    -0.246 OA
BRANCH  78  80
ATOM     80  C   UNL A   1      34.247  22.049  24.821  1.00  0.00     0.086 A 
ATOM     81  C   UNL A   1      34.324  20.675  25.089  1.00  0.00     0.057 A 
ATOM     82  C   UNL A   1      33.283  22.555  23.930  1.00  0.00     0.056 A 
ATOM     83  C   UNL A   1      33.442  19.809  24.464  1.00  0.00     0.124 A 
ATOM     84  C   UNL A   1      32.444  21.634  23.269  1.00  0.00     0.030 A 
ATOM     85  F   UNL A   1      33.511  18.500  24.740  1.00  0.00    -0.207 F 
ATOM     86  C   UNL A   1      32.516  20.268  23.540  1.00  0.00     0.041 A 
BRANCH  82  87
ATOM     87  N   UNL A   1      33.024  23.929  23.749  1.00  0.00    -0.341 N 
ATOM     88  C   UNL A   1      33.565  24.518  22.517  1.00  0.00     0.123 C 
ATOM     89  C   UNL A   1      31.955  24.609  24.383  1.00  0.00     0.044 A 
ATOM     90  C   UNL A   1      32.479  25.167  21.672  1.00  0.00     0.027 C 
ATOM     91  C   UNL A   1      31.341  25.735  23.797  1.00  0.00    -0.024 A 
ATOM     92  C   UNL A   1      31.433  24.136  25.599  1.00  0.00     0.026 A 
ATOM     93  C   UNL A   1      31.829  26.277  22.481  1.00  0.00     0.039 C 
ATOM     94  C   UNL A   1      30.255  26.361  24.429  1.00  0.00     0.006 A 
ATOM     95  C   UNL A   1      30.335  24.744  26.209  1.00  0.00     0.002 A 
ATOM     96  C   UNL A   1      29.745  25.857  25.624  1.00  0.00     0.000 A 
ENDBRANCH  82  87
ENDBRANCH  78  80
ENDBRANCH  77  78
ENDBRANCH  76  77
ENDBRANCH  75  76
ENDBRANCH  74  75
ENDBRANCH  73  74
ENDBRANCH   1  73
TORSDOF 18
ENDMDL
