MODEL 1
REMARK VINA RESULT:     -10.6      0.000      0.000
REMARK SMILES CN(Cc1ccncc1)C(=O)c1cccn1CC(=O)OCCOCCOCCOC(=O)c1ccc(-c2c3nc(c(-c4c(F)c(F)c(F)c(F)c4F)c4ccc([nH]4)c(-c4c(F)c(F)c(F)c(F)c4F)c4nc(c(-c5c(F)c(F)c(F)c(F)c5F)c5ccc2[nH]5)C=C4)C=C3)cc1
REMARK SMILES IDX 23 1 22 2 21 3 20 4 18 5 19 6 17 7 16 8 12 9 13 10 14 11
REMARK SMILES IDX 15 12 10 13 11 14 2 15 1 16 3 17 4 18 5 19 9 20 6 21 8 22
REMARK SMILES IDX 7 23 24 24 25 25 26 26 27 27 28 28 29 29 30 30 31 31 32 32
REMARK SMILES IDX 33 33 94 34 34 35 93 36 35 37 36 38 37 39 87 40 38 41 92 42
REMARK SMILES IDX 86 43 88 44 39 45 91 46 85 47 84 48 40 50 72 51 52 52 71 53
REMARK SMILES IDX 53 54 56 55 70 56 89 57 54 58 55 59 69 61 90 62 57 63 41 64
REMARK SMILES IDX 42 65 50 66 43 67 44 68 48 69 51 70 45 71 46 72 49 73 47 74
REMARK SMILES IDX 73 75 74 76 82 77 75 78 76 79 80 80 83 81 77 82 78 83 81 84
REMARK SMILES IDX 79 85 58 86 59 87 67 88 60 89 61 90 65 91 68 92 62 93 63 94
REMARK SMILES IDX 66 95 64 96
REMARK H PARENT 88 49 56 60
REMARK Flexibility Score: inf
ROOT
ATOM      1  O   UNL A   1      35.493  30.796  27.399  1.00  0.00    -0.376 OA
ENDROOT
BRANCH   1   2
ATOM      2  C   UNL A   1      34.237  30.183  27.619  1.00  0.00     0.202 C 
BRANCH   2   3
ATOM      3  C   UNL A   1      34.089  28.768  27.033  1.00  0.00     0.261 C 
BRANCH   3   4
ATOM      4  O   UNL A   1      32.940  28.563  26.176  1.00  0.00    -0.462 OA
BRANCH   4   5
ATOM      5  C   UNL A   1      32.028  27.654  26.599  1.00  0.00     0.326 C 
ATOM      6  O   UNL A   1      31.252  27.862  27.531  1.00  0.00    -0.250 OA
BRANCH   5   7
ATOM      7  C   UNL A   1      32.016  26.324  25.881  1.00  0.00     0.244 C 
BRANCH   7   8
ATOM      8  N   UNL A   1      32.220  26.252  24.427  1.00  0.00    -0.332 N 
ATOM      9  C   UNL A   1      31.329  26.656  23.436  1.00  0.00     0.107 A 
ATOM     10  C   UNL A   1      32.084  26.803  22.278  1.00  0.00     0.033 A 
ATOM     11  C   UNL A   1      33.404  26.381  22.525  1.00  0.00     0.020 A 
ATOM     12  C   UNL A   1      33.473  26.088  23.863  1.00  0.00     0.087 A 
BRANCH   9  13
ATOM     13  C   UNL A   1      29.945  27.054  23.642  1.00  0.00     0.270 C 
ATOM     14  O   UNL A   1      29.117  26.245  24.058  1.00  0.00    -0.267 OA
BRANCH  13  15
ATOM     15  N   UNL A   1      29.558  28.377  23.377  1.00  0.00    -0.336 N 
ATOM     16  C   UNL A   1      30.450  29.415  23.868  1.00  0.00     0.147 C 
BRANCH  15  17
ATOM     17  C   UNL A   1      28.213  28.790  22.966  1.00  0.00     0.155 C 
BRANCH  17  18
ATOM     18  C   UNL A   1      28.097  30.234  22.537  1.00  0.00    -0.026 A 
ATOM     19  C   UNL A   1      28.197  30.560  21.177  1.00  0.00     0.025 A 
ATOM     20  C   UNL A   1      27.914  31.277  23.450  1.00  0.00     0.025 A 
ATOM     21  C   UNL A   1      28.185  31.895  20.803  1.00  0.00     0.111 A 
ATOM     22  C   UNL A   1      27.906  32.582  22.977  1.00  0.00     0.111 A 
ATOM     23  N   UNL A   1      28.047  32.913  21.676  1.00  0.00    -0.265 NA
ENDBRANCH  17  18
ENDBRANCH  15  17
ENDBRANCH  13  15
ENDBRANCH   9  13
ENDBRANCH   7   8
ENDBRANCH   5   7
ENDBRANCH   4   5
ENDBRANCH   3   4
ENDBRANCH   2   3
ENDBRANCH   1   2
BRANCH   1  24
ATOM     24  C   UNL A   1      35.679  32.152  27.799  1.00  0.00     0.188 C 
BRANCH  24  25
ATOM     25  C   UNL A   1      34.489  33.075  28.145  1.00  0.00     0.188 C 
BRANCH  25  26
ATOM     26  O   UNL A   1      34.855  34.237  28.878  1.00  0.00    -0.376 OA
BRANCH  26  27
ATOM     27  C   UNL A   1      34.118  35.413  28.595  1.00  0.00     0.202 C 
BRANCH  27  28
ATOM     28  C   UNL A   1      33.115  35.696  29.708  1.00  0.00     0.261 C 
BRANCH  28  29
ATOM     29  O   UNL A   1      33.172  34.748  30.771  1.00  0.00    -0.460 OA
BRANCH  29  30
ATOM     30  C   UNL A   1      32.974  35.267  31.985  1.00  0.00     0.338 C 
ATOM     31  O   UNL A   1      32.075  36.040  32.350  1.00  0.00    -0.246 OA
BRANCH  30  32
ATOM     32  C   UNL A   1      34.073  34.922  32.856  1.00  0.00     0.060 A 
ATOM     33  C   UNL A   1      35.293  35.558  32.610  1.00  0.00     0.016 A 
ATOM     34  C   UNL A   1      33.962  33.682  33.493  1.00  0.00     0.016 A 
ATOM     35  C   UNL A   1      36.443  34.838  32.816  1.00  0.00     0.010 A 
ATOM     36  C   UNL A   1      35.103  32.942  33.641  1.00  0.00     0.010 A 
ATOM     37  C   UNL A   1      36.322  33.514  33.251  1.00  0.00    -0.014 A 
BRANCH  37  38
ATOM     38  C   UNL A   1      37.537  32.728  33.424  1.00  0.00     0.031 A 
ATOM     39  C   UNL A   1      37.528  31.529  32.475  1.00  0.00     0.074 A 
ATOM     40  C   UNL A   1      38.414  33.223  34.349  1.00  0.00     0.049 A 
ATOM     41  N   UNL A   1      38.262  30.465  32.480  1.00  0.00    -0.248 NA
ATOM     42  C   UNL A   1      36.532  31.484  31.361  1.00  0.00     0.031 C 
ATOM     43  C   UNL A   1      38.200  34.450  35.154  1.00  0.00     0.029 A 
ATOM     44  N   UNL A   1      39.646  32.815  34.809  1.00  0.00    -0.354 N 
ATOM     45  C   UNL A   1      37.999  29.775  31.280  1.00  0.00     0.074 A 
ATOM     46  C   UNL A   1      36.851  30.381  30.689  1.00  0.00     0.031 C 
ATOM     47  C   UNL A   1      39.203  34.630  36.041  1.00  0.00     0.029 A 
ATOM     48  C   UNL A   1      40.183  33.575  35.882  1.00  0.00     0.049 A 
ATOM     49  H   UNL A   1      40.123  32.045  34.420  1.00  0.00     0.167 HD
ATOM     50  C   UNL A   1      38.851  28.841  30.775  1.00  0.00     0.037 A 
ATOM     51  C   UNL A   1      41.323  33.342  36.606  1.00  0.00     0.037 A 
ATOM     52  C   UNL A   1      39.903  28.592  31.700  1.00  0.00     0.049 A 
ATOM     53  C   UNL A   1      42.007  32.263  35.879  1.00  0.00     0.074 A 
ATOM     54  C   UNL A   1      39.912  27.977  32.924  1.00  0.00     0.029 A 
ATOM     55  N   UNL A   1      41.043  29.346  31.567  1.00  0.00    -0.354 N 
ATOM     56  N   UNL A   1      42.613  32.412  34.739  1.00  0.00    -0.248 NA
ATOM     57  C   UNL A   1      41.926  30.896  36.408  1.00  0.00     0.031 C 
ATOM     58  C   UNL A   1      40.836  28.735  33.671  1.00  0.00     0.029 A 
ATOM     59  C   UNL A   1      41.486  29.647  32.831  1.00  0.00     0.049 A 
ATOM     60  H   UNL A   1      41.464  29.621  30.720  1.00  0.00     0.167 HD
ATOM     61  C   UNL A   1      42.680  31.121  34.276  1.00  0.00     0.074 A 
ATOM     62  C   UNL A   1      42.565  30.258  35.432  1.00  0.00     0.031 C 
ATOM     63  C   UNL A   1      42.276  30.842  33.011  1.00  0.00     0.037 A 
BRANCH  50  64
ATOM     64  C   UNL A   1      38.983  28.277  29.395  1.00  0.00     0.064 A 
ATOM     65  C   UNL A   1      39.103  26.873  29.270  1.00  0.00     0.173 A 
ATOM     66  C   UNL A   1      39.367  29.039  28.283  1.00  0.00     0.173 A 
ATOM     67  F   UNL A   1      38.716  26.060  30.265  1.00  0.00    -0.203 F 
ATOM     68  C   UNL A   1      39.714  26.284  28.167  1.00  0.00     0.198 A 
ATOM     69  C   UNL A   1      39.929  28.437  27.154  1.00  0.00     0.198 A 
ATOM     70  F   UNL A   1      39.310  30.376  28.300  1.00  0.00    -0.203 F 
ATOM     71  F   UNL A   1      39.950  24.964  28.163  1.00  0.00    -0.200 F 
ATOM     72  C   UNL A   1      40.145  27.070  27.117  1.00  0.00     0.200 A 
ATOM     73  F   UNL A   1      40.340  29.202  26.133  1.00  0.00    -0.200 F 
ATOM     74  F   UNL A   1      40.804  26.517  26.089  1.00  0.00    -0.200 F 
ENDBRANCH  50  64
BRANCH  51  75
ATOM     75  C   UNL A   1      41.982  33.817  37.885  1.00  0.00     0.064 A 
ATOM     76  C   UNL A   1      41.610  33.473  39.191  1.00  0.00     0.173 A 
ATOM     77  C   UNL A   1      43.160  34.619  37.816  1.00  0.00     0.173 A 
ATOM     78  F   UNL A   1      40.466  32.828  39.437  1.00  0.00    -0.203 F 
ATOM     79  C   UNL A   1      42.408  33.797  40.306  1.00  0.00     0.198 A 
ATOM     80  C   UNL A   1      43.977  34.896  38.911  1.00  0.00     0.198 A 
ATOM     81  F   UNL A   1      43.575  35.167  36.667  1.00  0.00    -0.203 F 
ATOM     82  F   UNL A   1      42.010  33.435  41.535  1.00  0.00    -0.200 F 
ATOM     83  C   UNL A   1      43.610  34.467  40.161  1.00  0.00     0.200 A 
ATOM     84  F   UNL A   1      45.129  35.558  38.729  1.00  0.00    -0.200 F 
ATOM     85  F   UNL A   1      44.399  34.711  41.216  1.00  0.00    -0.200 F 
ENDBRANCH  51  75
BRANCH  63  86
ATOM     86  C   UNL A   1      42.354  32.019  32.060  1.00  0.00     0.064 A 
ATOM     87  C   UNL A   1      43.604  32.553  31.708  1.00  0.00     0.173 A 
ATOM     88  C   UNL A   1      41.233  32.709  31.569  1.00  0.00     0.173 A 
ATOM     89  F   UNL A   1      44.727  31.944  32.115  1.00  0.00    -0.203 F 
ATOM     90  C   UNL A   1      43.717  33.709  30.929  1.00  0.00     0.198 A 
ATOM     91  C   UNL A   1      41.340  33.863  30.792  1.00  0.00     0.198 A 
ATOM     92  F   UNL A   1      40.004  32.273  31.827  1.00  0.00    -0.203 F 
ATOM     93  F   UNL A   1      44.929  34.182  30.611  1.00  0.00    -0.200 F 
ATOM     94  C   UNL A   1      42.586  34.366  30.474  1.00  0.00     0.200 A 
ATOM     95  F   UNL A   1      40.233  34.477  30.345  1.00  0.00    -0.200 F 
ATOM     96  F   UNL A   1      42.695  35.467  29.717  1.00  0.00    -0.200 F 
ENDBRANCH  63  86
ENDBRANCH  37  38
ENDBRANCH  30  32
ENDBRANCH  29  30
ENDBRANCH  28  29
ENDBRANCH  27  28
ENDBRANCH  26  27
ENDBRANCH  25  26
ENDBRANCH  24  25
ENDBRANCH   1  24
TORSDOF 22
ENDMDL
MODEL 2
REMARK VINA RESULT:     -10.4      1.370      3.489
REMARK SMILES CN(Cc1ccncc1)C(=O)c1cccn1CC(=O)OCCOCCOCCOC(=O)c1ccc(-c2c3nc(c(-c4c(F)c(F)c(F)c(F)c4F)c4ccc([nH]4)c(-c4c(F)c(F)c(F)c(F)c4F)c4nc(c(-c5c(F)c(F)c(F)c(F)c5F)c5ccc2[nH]5)C=C4)C=C3)cc1
REMARK SMILES IDX 23 1 22 2 21 3 20 4 18 5 19 6 17 7 16 8 12 9 13 10 14 11
REMARK SMILES IDX 15 12 10 13 11 14 2 15 1 16 3 17 4 18 5 19 9 20 6 21 8 22
REMARK SMILES IDX 7 23 24 24 25 25 26 26 27 27 28 28 29 29 30 30 31 31 32 32
REMARK SMILES IDX 33 33 94 34 34 35 93 36 35 37 36 38 37 39 87 40 38 41 92 42
REMARK SMILES IDX 86 43 88 44 39 45 91 46 85 47 84 48 40 50 72 51 52 52 71 53
REMARK SMILES IDX 53 54 56 55 70 56 89 57 54 58 55 59 69 61 90 62 57 63 41 64
REMARK SMILES IDX 42 65 50 66 43 67 44 68 48 69 51 70 45 71 46 72 49 73 47 74
REMARK SMILES IDX 73 75 74 76 82 77 75 78 76 79 80 80 83 81 77 82 78 83 81 84
REMARK SMILES IDX 79 85 58 86 59 87 67 88 60 89 61 90 65 91 68 92 62 93 63 94
REMARK SMILES IDX 66 95 64 96
REMARK H PARENT 88 49 56 60
REMARK Flexibility Score: inf
ROOT
ATOM      1  O   UNL A   1      35.695  30.244  27.242  1.00  0.00    -0.376 OA
ENDROOT
BRANCH   1   2
ATOM      2  C   UNL A   1      34.735  29.305  27.689  1.00  0.00     0.202 C 
BRANCH   2   3
ATOM      3  C   UNL A   1      33.990  28.552  26.573  1.00  0.00     0.261 C 
BRANCH   3   4
ATOM      4  O   UNL A   1      32.594  28.898  26.408  1.00  0.00    -0.462 OA
BRANCH   4   5
ATOM      5  C   UNL A   1      31.692  28.001  26.877  1.00  0.00     0.326 C 
ATOM      6  O   UNL A   1      31.415  27.885  28.070  1.00  0.00    -0.250 OA
BRANCH   5   7
ATOM      7  C   UNL A   1      31.039  27.102  25.853  1.00  0.00     0.244 C 
BRANCH   7   8
ATOM      8  N   UNL A   1      31.123  27.410  24.418  1.00  0.00    -0.332 N 
ATOM      9  C   UNL A   1      31.297  26.502  23.376  1.00  0.00     0.107 A 
ATOM     10  C   UNL A   1      30.893  27.162  22.221  1.00  0.00     0.033 A 
ATOM     11  C   UNL A   1      30.584  28.499  22.531  1.00  0.00     0.020 A 
ATOM     12  C   UNL A   1      30.691  28.616  23.894  1.00  0.00     0.087 A 
BRANCH   9  13
ATOM     13  C   UNL A   1      31.620  25.090  23.518  1.00  0.00     0.270 C 
ATOM     14  O   UNL A   1      30.735  24.266  23.744  1.00  0.00    -0.267 OA
BRANCH  13  15
ATOM     15  N   UNL A   1      32.951  24.668  23.380  1.00  0.00    -0.336 N 
ATOM     16  C   UNL A   1      33.215  23.729  22.301  1.00  0.00     0.147 C 
BRANCH  15  17
ATOM     17  C   UNL A   1      33.989  24.821  24.403  1.00  0.00     0.155 C 
BRANCH  17  18
ATOM     18  C   UNL A   1      34.113  23.659  25.360  1.00  0.00    -0.026 A 
ATOM     19  C   UNL A   1      33.126  23.463  26.338  1.00  0.00     0.025 A 
ATOM     20  C   UNL A   1      35.193  22.772  25.331  1.00  0.00     0.025 A 
ATOM     21  C   UNL A   1      33.298  22.453  27.271  1.00  0.00     0.111 A 
ATOM     22  C   UNL A   1      35.270  21.785  26.304  1.00  0.00     0.111 A 
ATOM     23  N   UNL A   1      34.352  21.613  27.278  1.00  0.00    -0.265 NA
ENDBRANCH  17  18
ENDBRANCH  15  17
ENDBRANCH  13  15
ENDBRANCH   9  13
ENDBRANCH   7   8
ENDBRANCH   5   7
ENDBRANCH   4   5
ENDBRANCH   3   4
ENDBRANCH   2   3
ENDBRANCH   1   2
BRANCH   1  24
ATOM     24  C   UNL A   1      35.571  31.606  27.649  1.00  0.00     0.188 C 
BRANCH  24  25
ATOM     25  C   UNL A   1      34.230  32.193  28.145  1.00  0.00     0.188 C 
BRANCH  25  26
ATOM     26  O   UNL A   1      34.377  33.296  29.030  1.00  0.00    -0.376 OA
BRANCH  26  27
ATOM     27  C   UNL A   1      34.001  34.563  28.519  1.00  0.00     0.202 C 
BRANCH  27  28
ATOM     28  C   UNL A   1      33.215  35.348  29.564  1.00  0.00     0.261 C 
BRANCH  28  29
ATOM     29  O   UNL A   1      32.996  34.618  30.769  1.00  0.00    -0.460 OA
BRANCH  29  30
ATOM     30  C   UNL A   1      32.953  35.371  31.871  1.00  0.00     0.338 C 
ATOM     31  O   UNL A   1      32.218  36.343  32.106  1.00  0.00    -0.246 OA
BRANCH  30  32
ATOM     32  C   UNL A   1      34.021  34.997  32.768  1.00  0.00     0.060 A 
ATOM     33  C   UNL A   1      35.249  35.642  32.585  1.00  0.00     0.016 A 
ATOM     34  C   UNL A   1      33.889  33.738  33.360  1.00  0.00     0.016 A 
ATOM     35  C   UNL A   1      36.392  34.915  32.807  1.00  0.00     0.010 A 
ATOM     36  C   UNL A   1      35.026  32.993  33.523  1.00  0.00     0.010 A 
ATOM     37  C   UNL A   1      36.257  33.577  33.195  1.00  0.00    -0.014 A 
BRANCH  37  38
ATOM     38  C   UNL A   1      37.466  32.786  33.385  1.00  0.00     0.031 A 
ATOM     39  C   UNL A   1      37.462  31.584  32.439  1.00  0.00     0.074 A 
ATOM     40  C   UNL A   1      38.335  33.280  34.318  1.00  0.00     0.049 A 
ATOM     41  N   UNL A   1      38.191  30.517  32.456  1.00  0.00    -0.248 NA
ATOM     42  C   UNL A   1      36.479  31.541  31.313  1.00  0.00     0.031 C 
ATOM     43  C   UNL A   1      38.117  34.511  35.117  1.00  0.00     0.029 A 
ATOM     44  N   UNL A   1      39.559  32.867  34.794  1.00  0.00    -0.354 N 
ATOM     45  C   UNL A   1      37.939  29.824  31.255  1.00  0.00     0.074 A 
ATOM     46  C   UNL A   1      36.801  30.434  30.648  1.00  0.00     0.031 C 
ATOM     47  C   UNL A   1      39.110  34.688  36.015  1.00  0.00     0.029 A 
ATOM     48  C   UNL A   1      40.088  33.629  35.871  1.00  0.00     0.049 A 
ATOM     49  H   UNL A   1      40.037  32.094  34.412  1.00  0.00     0.167 HD
ATOM     50  C   UNL A   1      38.792  28.885  30.763  1.00  0.00     0.037 A 
ATOM     51  C   UNL A   1      41.217  33.392  36.608  1.00  0.00     0.037 A 
ATOM     52  C   UNL A   1      39.832  28.634  31.701  1.00  0.00     0.049 A 
ATOM     53  C   UNL A   1      41.904  32.307  35.893  1.00  0.00     0.074 A 
ATOM     54  C   UNL A   1      39.824  28.022  32.927  1.00  0.00     0.029 A 
ATOM     55  N   UNL A   1      40.977  29.382  31.579  1.00  0.00    -0.354 N 
ATOM     56  N   UNL A   1      42.525  32.450  34.759  1.00  0.00    -0.248 NA
ATOM     57  C   UNL A   1      41.812  30.943  36.425  1.00  0.00     0.031 C 
ATOM     58  C   UNL A   1      40.742  28.779  33.682  1.00  0.00     0.029 A 
ATOM     59  C   UNL A   1      41.406  29.684  32.847  1.00  0.00     0.049 A 
ATOM     60  H   UNL A   1      41.410  29.652  30.736  1.00  0.00     0.167 HD
ATOM     61  C   UNL A   1      42.591  31.157  34.302  1.00  0.00     0.074 A 
ATOM     62  C   UNL A   1      42.459  30.298  35.458  1.00  0.00     0.031 C 
ATOM     63  C   UNL A   1      42.200  30.876  33.033  1.00  0.00     0.037 A 
BRANCH  50  64
ATOM     64  C   UNL A   1      38.938  28.316  29.386  1.00  0.00     0.064 A 
ATOM     65  C   UNL A   1      39.071  26.912  29.268  1.00  0.00     0.173 A 
ATOM     66  C   UNL A   1      39.321  29.076  28.273  1.00  0.00     0.173 A 
ATOM     67  F   UNL A   1      38.685  26.100  30.265  1.00  0.00    -0.203 F 
ATOM     68  C   UNL A   1      39.693  26.325  28.172  1.00  0.00     0.198 A 
ATOM     69  C   UNL A   1      39.896  28.475  27.150  1.00  0.00     0.198 A 
ATOM     70  F   UNL A   1      39.253  30.413  28.284  1.00  0.00    -0.203 F 
ATOM     71  F   UNL A   1      39.941  25.006  28.174  1.00  0.00    -0.200 F 
ATOM     72  C   UNL A   1      40.124  27.109  27.121  1.00  0.00     0.200 A 
ATOM     73  F   UNL A   1      40.307  29.238  26.128  1.00  0.00    -0.200 F 
ATOM     74  F   UNL A   1      40.794  26.558  26.099  1.00  0.00    -0.200 F 
ENDBRANCH  50  64
BRANCH  51  75
ATOM     75  C   UNL A   1      41.864  33.868  37.894  1.00  0.00     0.064 A 
ATOM     76  C   UNL A   1      43.098  34.519  38.013  1.00  0.00     0.173 A 
ATOM     77  C   UNL A   1      41.153  33.753  39.126  1.00  0.00     0.173 A 
ATOM     78  F   UNL A   1      43.940  34.602  36.978  1.00  0.00    -0.203 F 
ATOM     79  C   UNL A   1      43.520  35.106  39.222  1.00  0.00     0.198 A 
ATOM     80  C   UNL A   1      41.544  34.377  40.309  1.00  0.00     0.198 A 
ATOM     81  F   UNL A   1      40.032  33.028  39.229  1.00  0.00    -0.203 F 
ATOM     82  F   UNL A   1      44.707  35.728  39.280  1.00  0.00    -0.200 F 
ATOM     83  C   UNL A   1      42.725  35.074  40.355  1.00  0.00     0.200 A 
ATOM     84  F   UNL A   1      40.750  34.312  41.388  1.00  0.00    -0.200 F 
ATOM     85  F   UNL A   1      43.098  35.694  41.482  1.00  0.00    -0.200 F 
ENDBRANCH  51  75
BRANCH  63  86
ATOM     86  C   UNL A   1      42.295  32.050  32.079  1.00  0.00     0.064 A 
ATOM     87  C   UNL A   1      43.552  32.564  31.723  1.00  0.00     0.173 A 
ATOM     88  C   UNL A   1      41.184  32.757  31.589  1.00  0.00     0.173 A 
ATOM     89  F   UNL A   1      44.667  31.938  32.130  1.00  0.00    -0.203 F 
ATOM     90  C   UNL A   1      43.682  33.716  30.942  1.00  0.00     0.198 A 
ATOM     91  C   UNL A   1      41.308  33.907  30.808  1.00  0.00     0.198 A 
ATOM     92  F   UNL A   1      39.949  32.340  31.849  1.00  0.00    -0.203 F 
ATOM     93  F   UNL A   1      44.901  34.170  30.621  1.00  0.00    -0.200 F 
ATOM     94  C   UNL A   1      42.561  34.390  30.488  1.00  0.00     0.200 A 
ATOM     95  F   UNL A   1      40.210  34.537  30.362  1.00  0.00    -0.200 F 
ATOM     96  F   UNL A   1      42.686  35.488  29.728  1.00  0.00    -0.200 F 
ENDBRANCH  63  86
ENDBRANCH  37  38
ENDBRANCH  30  32
ENDBRANCH  29  30
ENDBRANCH  28  29
ENDBRANCH  27  28
ENDBRANCH  26  27
ENDBRANCH  25  26
ENDBRANCH  24  25
ENDBRANCH   1  24
TORSDOF 22
ENDMDL
MODEL 3
REMARK VINA RESULT:     -10.3      4.154      9.355
REMARK SMILES CN(Cc1ccncc1)C(=O)c1cccn1CC(=O)OCCOCCOCCOC(=O)c1ccc(-c2c3nc(c(-c4c(F)c(F)c(F)c(F)c4F)c4ccc([nH]4)c(-c4c(F)c(F)c(F)c(F)c4F)c4nc(c(-c5c(F)c(F)c(F)c(F)c5F)c5ccc2[nH]5)C=C4)C=C3)cc1
REMARK SMILES IDX 23 1 22 2 21 3 20 4 18 5 19 6 17 7 16 8 12 9 13 10 14 11
REMARK SMILES IDX 15 12 10 13 11 14 2 15 1 16 3 17 4 18 5 19 9 20 6 21 8 22
REMARK SMILES IDX 7 23 24 24 25 25 26 26 27 27 28 28 29 29 30 30 31 31 32 32
REMARK SMILES IDX 33 33 94 34 34 35 93 36 35 37 36 38 37 39 87 40 38 41 92 42
REMARK SMILES IDX 86 43 88 44 39 45 91 46 85 47 84 48 40 50 72 51 52 52 71 53
REMARK SMILES IDX 53 54 56 55 70 56 89 57 54 58 55 59 69 61 90 62 57 63 41 64
REMARK SMILES IDX 42 65 50 66 43 67 44 68 48 69 51 70 45 71 46 72 49 73 47 74
REMARK SMILES IDX 73 75 74 76 82 77 75 78 76 79 80 80 83 81 77 82 78 83 81 84
REMARK SMILES IDX 79 85 58 86 59 87 67 88 60 89 61 90 65 91 68 92 62 93 63 94
REMARK SMILES IDX 66 95 64 96
REMARK H PARENT 88 49 56 60
REMARK Flexibility Score: inf
ROOT
ATOM      1  O   UNL A   1      39.020  21.935  26.104  1.00  0.00    -0.376 OA
ENDROOT
BRANCH   1   2
ATOM      2  C   UNL A   1      38.722  23.317  26.166  1.00  0.00     0.202 C 
BRANCH   2   3
ATOM      3  C   UNL A   1      37.225  23.666  26.104  1.00  0.00     0.261 C 
BRANCH   3   4
ATOM      4  O   UNL A   1      36.470  23.003  25.061  1.00  0.00    -0.462 OA
BRANCH   4   5
ATOM      5  C   UNL A   1      35.763  21.908  25.431  1.00  0.00     0.326 C 
ATOM      6  O   UNL A   1      36.183  20.759  25.303  1.00  0.00    -0.250 OA
BRANCH   5   7
ATOM      7  C   UNL A   1      34.384  22.155  26.000  1.00  0.00     0.244 C 
BRANCH   7   8
ATOM      8  N   UNL A   1      33.224  22.326  25.115  1.00  0.00    -0.332 N 
ATOM      9  C   UNL A   1      32.286  23.355  25.153  1.00  0.00     0.107 A 
ATOM     10  C   UNL A   1      31.658  23.347  23.913  1.00  0.00     0.033 A 
ATOM     11  C   UNL A   1      32.121  22.252  23.161  1.00  0.00     0.020 A 
ATOM     12  C   UNL A   1      33.114  21.664  23.904  1.00  0.00     0.087 A 
BRANCH   9  13
ATOM     13  C   UNL A   1      32.163  24.360  26.198  1.00  0.00     0.270 C 
ATOM     14  O   UNL A   1      31.627  24.084  27.271  1.00  0.00    -0.267 OA
BRANCH  13  15
ATOM     15  N   UNL A   1      32.675  25.649  25.982  1.00  0.00    -0.336 N 
ATOM     16  C   UNL A   1      34.123  25.756  25.894  1.00  0.00     0.147 C 
BRANCH  15  17
ATOM     17  C   UNL A   1      31.923  26.892  26.175  1.00  0.00     0.155 C 
BRANCH  17  18
ATOM     18  C   UNL A   1      31.199  27.392  24.947  1.00  0.00    -0.026 A 
ATOM     19  C   UNL A   1      29.939  26.865  24.627  1.00  0.00     0.025 A 
ATOM     20  C   UNL A   1      31.745  28.352  24.091  1.00  0.00     0.025 A 
ATOM     21  C   UNL A   1      29.326  27.259  23.448  1.00  0.00     0.111 A 
ATOM     22  C   UNL A   1      31.049  28.689  22.938  1.00  0.00     0.111 A 
ATOM     23  N   UNL A   1      29.858  28.157  22.594  1.00  0.00    -0.265 NA
ENDBRANCH  17  18
ENDBRANCH  15  17
ENDBRANCH  13  15
ENDBRANCH   9  13
ENDBRANCH   7   8
ENDBRANCH   5   7
ENDBRANCH   4   5
ENDBRANCH   3   4
ENDBRANCH   2   3
ENDBRANCH   1   2
BRANCH   1  24
ATOM     24  C   UNL A   1      40.132  21.435  26.845  1.00  0.00     0.188 C 
BRANCH  24  25
ATOM     25  C   UNL A   1      40.874  20.144  26.436  1.00  0.00     0.188 C 
BRANCH  25  26
ATOM     26  O   UNL A   1      42.096  20.374  25.747  1.00  0.00    -0.376 OA
BRANCH  26  27
ATOM     27  C   UNL A   1      42.894  21.441  26.229  1.00  0.00     0.202 C 
BRANCH  27  28
ATOM     28  C   UNL A   1      43.055  22.514  25.157  1.00  0.00     0.261 C 
BRANCH  28  29
ATOM     29  O   UNL A   1      42.339  23.712  25.448  1.00  0.00    -0.460 OA
BRANCH  29  30
ATOM     30  C   UNL A   1      43.105  24.800  25.557  1.00  0.00     0.338 C 
ATOM     31  O   UNL A   1      43.868  25.289  24.708  1.00  0.00    -0.246 OA
BRANCH  30  32
ATOM     32  C   UNL A   1      43.057  25.305  26.909  1.00  0.00     0.060 A 
ATOM     33  C   UNL A   1      42.006  24.852  27.712  1.00  0.00     0.016 A 
ATOM     34  C   UNL A   1      43.721  26.518  27.116  1.00  0.00     0.016 A 
ATOM     35  C   UNL A   1      41.465  25.733  28.615  1.00  0.00     0.010 A 
ATOM     36  C   UNL A   1      43.144  27.417  27.971  1.00  0.00     0.010 A 
ATOM     37  C   UNL A   1      41.993  27.027  28.670  1.00  0.00    -0.014 A 
BRANCH  37  38
ATOM     38  C   UNL A   1      41.390  27.982  29.591  1.00  0.00     0.031 A 
ATOM     39  C   UNL A   1      42.114  27.942  30.938  1.00  0.00     0.074 A 
ATOM     40  C   UNL A   1      40.355  28.708  29.070  1.00  0.00     0.049 A 
ATOM     41  N   UNL A   1      41.754  28.420  32.084  1.00  0.00    -0.248 NA
ATOM     42  C   UNL A   1      43.430  27.239  31.042  1.00  0.00     0.031 C 
ATOM     43  C   UNL A   1      39.832  28.574  27.689  1.00  0.00     0.029 A 
ATOM     44  N   UNL A   1      39.531  29.691  29.573  1.00  0.00    -0.354 N 
ATOM     45  C   UNL A   1      42.861  28.301  32.948  1.00  0.00     0.074 A 
ATOM     46  C   UNL A   1      43.818  27.469  32.294  1.00  0.00     0.031 C 
ATOM     47  C   UNL A   1      38.751  29.362  27.501  1.00  0.00     0.029 A 
ATOM     48  C   UNL A   1      38.485  30.114  28.710  1.00  0.00     0.049 A 
ATOM     49  H   UNL A   1      39.660  30.074  30.471  1.00  0.00     0.167 HD
ATOM     50  C   UNL A   1      42.976  29.034  34.089  1.00  0.00     0.037 A 
ATOM     51  C   UNL A   1      37.461  30.984  28.976  1.00  0.00     0.037 A 
ATOM     52  C   UNL A   1      41.782  29.772  34.316  1.00  0.00     0.049 A 
ATOM     53  C   UNL A   1      37.810  31.578  30.275  1.00  0.00     0.074 A 
ATOM     54  C   UNL A   1      40.519  29.374  34.668  1.00  0.00     0.029 A 
ATOM     55  N   UNL A   1      41.726  31.042  33.798  1.00  0.00    -0.354 N 
ATOM     56  N   UNL A   1      38.761  32.446  30.457  1.00  0.00    -0.248 NA
ATOM     57  C   UNL A   1      37.118  31.099  31.477  1.00  0.00     0.031 C 
ATOM     58  C   UNL A   1      39.681  30.239  33.935  1.00  0.00     0.029 A 
ATOM     59  C   UNL A   1      40.451  31.238  33.327  1.00  0.00     0.049 A 
ATOM     60  H   UNL A   1      42.464  31.694  33.770  1.00  0.00     0.167 HD
ATOM     61  C   UNL A   1      38.986  32.349  31.808  1.00  0.00     0.074 A 
ATOM     62  C   UNL A   1      37.784  31.798  32.393  1.00  0.00     0.031 C 
ATOM     63  C   UNL A   1      40.255  32.195  32.264  1.00  0.00     0.037 A 
BRANCH  50  64
ATOM     64  C   UNL A   1      44.171  29.358  34.931  1.00  0.00     0.064 A 
ATOM     65  C   UNL A   1      45.295  29.925  34.284  1.00  0.00     0.173 A 
ATOM     66  C   UNL A   1      44.393  28.808  36.201  1.00  0.00     0.173 A 
ATOM     67  F   UNL A   1      45.170  30.517  33.085  1.00  0.00    -0.203 F 
ATOM     68  C   UNL A   1      46.579  29.806  34.806  1.00  0.00     0.198 A 
ATOM     69  C   UNL A   1      45.678  28.740  36.745  1.00  0.00     0.198 A 
ATOM     70  F   UNL A   1      43.403  28.230  36.893  1.00  0.00    -0.203 F 
ATOM     71  F   UNL A   1      47.631  30.217  34.083  1.00  0.00    -0.200 F 
ATOM     72  C   UNL A   1      46.772  29.195  36.028  1.00  0.00     0.200 A 
ATOM     73  F   UNL A   1      45.862  28.153  37.936  1.00  0.00    -0.200 F 
ATOM     74  F   UNL A   1      48.013  29.008  36.499  1.00  0.00    -0.200 F 
ENDBRANCH  50  64
BRANCH  51  75
ATOM     75  C   UNL A   1      36.142  31.418  28.369  1.00  0.00     0.064 A 
ATOM     76  C   UNL A   1      35.090  30.580  27.979  1.00  0.00     0.173 A 
ATOM     77  C   UNL A   1      35.846  32.808  28.245  1.00  0.00     0.173 A 
ATOM     78  F   UNL A   1      35.247  29.254  27.920  1.00  0.00    -0.203 F 
ATOM     79  C   UNL A   1      33.826  31.086  27.618  1.00  0.00     0.198 A 
ATOM     80  C   UNL A   1      34.582  33.309  27.938  1.00  0.00     0.198 A 
ATOM     81  F   UNL A   1      36.782  33.749  28.426  1.00  0.00    -0.203 F 
ATOM     82  F   UNL A   1      32.849  30.239  27.262  1.00  0.00    -0.200 F 
ATOM     83  C   UNL A   1      33.560  32.444  27.641  1.00  0.00     0.200 A 
ATOM     84  F   UNL A   1      34.368  34.633  27.961  1.00  0.00    -0.200 F 
ATOM     85  F   UNL A   1      32.336  32.916  27.365  1.00  0.00    -0.200 F 
ENDBRANCH  51  75
BRANCH  63  86
ATOM     86  C   UNL A   1      41.321  32.730  31.329  1.00  0.00     0.064 A 
ATOM     87  C   UNL A   1      41.433  34.112  31.112  1.00  0.00     0.173 A 
ATOM     88  C   UNL A   1      42.166  31.918  30.554  1.00  0.00     0.173 A 
ATOM     89  F   UNL A   1      40.679  34.962  31.826  1.00  0.00    -0.203 F 
ATOM     90  C   UNL A   1      42.322  34.640  30.170  1.00  0.00     0.198 A 
ATOM     91  C   UNL A   1      43.055  32.439  29.612  1.00  0.00     0.198 A 
ATOM     92  F   UNL A   1      42.154  30.596  30.698  1.00  0.00    -0.203 F 
ATOM     93  F   UNL A   1      42.402  35.966  29.999  1.00  0.00    -0.200 F 
ATOM     94  C   UNL A   1      43.130  33.803  29.418  1.00  0.00     0.200 A 
ATOM     95  F   UNL A   1      43.843  31.614  28.904  1.00  0.00    -0.200 F 
ATOM     96  F   UNL A   1      43.991  34.311  28.524  1.00  0.00    -0.200 F 
ENDBRANCH  63  86
ENDBRANCH  37  38
ENDBRANCH  30  32
ENDBRANCH  29  30
ENDBRANCH  28  29
ENDBRANCH  27  28
ENDBRANCH  26  27
ENDBRANCH  25  26
ENDBRANCH  24  25
ENDBRANCH   1  24
TORSDOF 22
ENDMDL
