MODEL 1
REMARK VINA RESULT:     -10.8      0.000      0.000
REMARK SMILES CCC(=O)Nc1ccc(I)cc1C(=O)OCCOCCOCCOC(=O)c1ccc(-c2c3nc(c(-c4c(F)c(F)c(F)c(F)c4F)c4ccc([nH]4)c(-c4c(F)c(F)c(F)c(F)c4F)c4nc(c(-c5c(F)c(F)c(F)c(F)c5F)c5ccc2[nH]5)C=C4)C=C3)cc1
REMARK SMILES IDX 19 1 18 2 17 3 16 4 15 5 13 6 14 7 12 8 6 9 7 10 8 11 11 12
REMARK SMILES IDX 9 13 10 14 5 15 3 16 4 17 2 19 1 20 20 21 21 22 22 23 23 24
REMARK SMILES IDX 24 25 25 26 26 27 27 28 28 29 89 30 29 31 88 32 30 33 31 34
REMARK SMILES IDX 32 35 82 36 33 37 87 38 81 39 83 40 34 41 86 42 80 43 79 44
REMARK SMILES IDX 35 46 67 47 47 48 66 49 48 50 51 51 65 52 84 53 49 54 50 55
REMARK SMILES IDX 64 57 85 58 52 59 36 60 37 61 45 62 38 63 39 64 43 65 46 66
REMARK SMILES IDX 40 67 41 68 44 69 42 70 68 71 69 72 77 73 70 74 71 75 75 76
REMARK SMILES IDX 78 77 72 78 73 79 76 80 74 81 53 82 54 83 62 84 55 85 56 86
REMARK SMILES IDX 60 87 63 88 57 89 58 90 61 91 59 92
REMARK H PARENT 5 18 83 45 51 56
REMARK Flexibility Score: inf
ROOT
ATOM      1  C   UNL A   1      39.159  21.211  25.834  1.00  0.00     0.188 C 
ENDROOT
BRANCH   1   2
ATOM      2  O   UNL A   1      38.652  22.423  26.387  1.00  0.00    -0.376 OA
BRANCH   2   3
ATOM      3  C   UNL A   1      37.772  23.238  25.618  1.00  0.00     0.202 C 
BRANCH   3   4
ATOM      4  C   UNL A   1      36.801  22.545  24.657  1.00  0.00     0.261 C 
BRANCH   4   5
ATOM      5  O   UNL A   1      35.415  22.790  24.962  1.00  0.00    -0.460 OA
BRANCH   5   6
ATOM      6  C   UNL A   1      34.792  21.808  25.654  1.00  0.00     0.340 C 
ATOM      7  O   UNL A   1      34.809  21.652  26.868  1.00  0.00    -0.246 OA
BRANCH   6   8
ATOM      8  C   UNL A   1      33.899  21.007  24.784  1.00  0.00     0.084 A 
ATOM      9  C   UNL A   1      32.877  21.522  23.967  1.00  0.00     0.055 A 
ATOM     10  C   UNL A   1      32.224  20.633  23.104  1.00  0.00     0.028 A 
ATOM     11  C   UNL A   1      32.450  19.254  23.157  1.00  0.00     0.017 A 
ATOM     12  C   UNL A   1      34.117  19.614  24.848  1.00  0.00     0.032 A 
ATOM     13  C   UNL A   1      33.368  18.745  24.063  1.00  0.00     0.014 A 
ATOM     14  I   UNL A   1      33.624  16.695  24.244  1.00  0.00    -0.044 I 
BRANCH   9  15
ATOM     15  N   UNL A   1      32.550  22.893  23.965  1.00  0.00    -0.325 N 
ATOM     16  C   UNL A   1      31.541  23.578  24.594  1.00  0.00     0.224 C 
ATOM     17  O   UNL A   1      31.327  24.747  24.261  1.00  0.00    -0.275 OA
ATOM     18  H   UNL A   1      33.148  23.454  23.420  1.00  0.00     0.169 HD
BRANCH  16  19
ATOM     19  C   UNL A   1      30.775  22.963  25.756  1.00  0.00     0.097 C 
ATOM     20  C   UNL A   1      31.543  22.969  27.068  1.00  0.00     0.014 C 
ENDBRANCH  16  19
ENDBRANCH   9  15
ENDBRANCH   6   8
ENDBRANCH   5   6
ENDBRANCH   4   5
ENDBRANCH   3   4
ENDBRANCH   2   3
ENDBRANCH   1   2
BRANCH   1  21
ATOM     21  C   UNL A   1      40.356  20.505  26.505  1.00  0.00     0.188 C 
BRANCH  21  22
ATOM     22  O   UNL A   1      41.496  21.325  26.619  1.00  0.00    -0.376 OA
BRANCH  22  23
ATOM     23  C   UNL A   1      42.722  20.874  26.071  1.00  0.00     0.202 C 
BRANCH  23  24
ATOM     24  C   UNL A   1      43.634  21.830  25.281  1.00  0.00     0.261 C 
BRANCH  24  25
ATOM     25  O   UNL A   1      43.081  23.092  24.889  1.00  0.00    -0.460 OA
BRANCH  25  26
ATOM     26  C   UNL A   1      43.872  24.181  25.005  1.00  0.00     0.338 C 
ATOM     27  O   UNL A   1      44.864  24.445  24.354  1.00  0.00    -0.246 OA
BRANCH  26  28
ATOM     28  C   UNL A   1      43.228  25.103  25.966  1.00  0.00     0.060 A 
ATOM     29  C   UNL A   1      43.721  26.408  26.086  1.00  0.00     0.016 A 
ATOM     30  C   UNL A   1      42.150  24.679  26.747  1.00  0.00     0.016 A 
ATOM     31  C   UNL A   1      43.152  27.286  27.012  1.00  0.00     0.010 A 
ATOM     32  C   UNL A   1      41.593  25.554  27.687  1.00  0.00     0.010 A 
ATOM     33  C   UNL A   1      42.110  26.852  27.842  1.00  0.00    -0.014 A 
BRANCH  33  34
ATOM     34  C   UNL A   1      41.667  27.693  28.982  1.00  0.00     0.031 A 
ATOM     35  C   UNL A   1      42.397  27.574  30.292  1.00  0.00     0.074 A 
ATOM     36  C   UNL A   1      40.631  28.543  28.862  1.00  0.00     0.049 A 
ATOM     37  N   UNL A   1      42.157  28.164  31.435  1.00  0.00    -0.248 NA
ATOM     38  C   UNL A   1      43.554  26.665  30.314  1.00  0.00     0.031 C 
ATOM     39  C   UNL A   1      39.856  28.766  27.644  1.00  0.00     0.029 A 
ATOM     40  N   UNL A   1      40.044  29.366  29.792  1.00  0.00    -0.354 N 
ATOM     41  C   UNL A   1      43.128  27.695  32.310  1.00  0.00     0.074 A 
ATOM     42  C   UNL A   1      43.947  26.755  31.576  1.00  0.00     0.031 C 
ATOM     43  C   UNL A   1      38.879  29.652  27.907  1.00  0.00     0.029 A 
ATOM     44  C   UNL A   1      38.943  30.035  29.317  1.00  0.00     0.049 A 
ATOM     45  H   UNL A   1      40.380  29.466  30.712  1.00  0.00     0.167 HD
ATOM     46  C   UNL A   1      43.322  28.022  33.610  1.00  0.00     0.037 A 
ATOM     47  C   UNL A   1      38.075  30.843  29.956  1.00  0.00     0.037 A 
ATOM     48  C   UNL A   1      42.511  28.956  34.343  1.00  0.00     0.049 A 
ATOM     49  C   UNL A   1      38.281  31.148  31.419  1.00  0.00     0.074 A 
ATOM     50  C   UNL A   1      42.651  29.376  35.654  1.00  0.00     0.029 A 
ATOM     51  N   UNL A   1      41.400  29.607  33.829  1.00  0.00    -0.354 N 
ATOM     52  N   UNL A   1      39.228  30.736  32.226  1.00  0.00    -0.248 NA
ATOM     53  C   UNL A   1      37.296  32.033  32.059  1.00  0.00     0.031 C 
ATOM     54  C   UNL A   1      41.597  30.247  35.949  1.00  0.00     0.029 A 
ATOM     55  C   UNL A   1      40.829  30.406  34.806  1.00  0.00     0.049 A 
ATOM     56  H   UNL A   1      41.066  29.515  32.908  1.00  0.00     0.167 HD
ATOM     57  C   UNL A   1      38.972  31.334  33.455  1.00  0.00     0.074 A 
ATOM     58  C   UNL A   1      37.786  32.145  33.285  1.00  0.00     0.031 C 
ATOM     59  C   UNL A   1      39.656  31.220  34.618  1.00  0.00     0.037 A 
BRANCH  46  60
ATOM     60  C   UNL A   1      44.449  27.350  34.334  1.00  0.00     0.064 A 
ATOM     61  C   UNL A   1      45.701  27.965  34.478  1.00  0.00     0.173 A 
ATOM     62  C   UNL A   1      44.257  26.097  34.935  1.00  0.00     0.173 A 
ATOM     63  F   UNL A   1      45.937  29.156  33.908  1.00  0.00    -0.203 F 
ATOM     64  C   UNL A   1      46.725  27.344  35.187  1.00  0.00     0.198 A 
ATOM     65  C   UNL A   1      45.275  25.489  35.664  1.00  0.00     0.198 A 
ATOM     66  F   UNL A   1      43.077  25.469  34.827  1.00  0.00    -0.203 F 
ATOM     67  F   UNL A   1      47.924  27.935  35.286  1.00  0.00    -0.200 F 
ATOM     68  C   UNL A   1      46.510  26.111  35.786  1.00  0.00     0.200 A 
ATOM     69  F   UNL A   1      45.063  24.303  36.249  1.00  0.00    -0.200 F 
ATOM     70  F   UNL A   1      47.492  25.519  36.477  1.00  0.00    -0.200 F 
ENDBRANCH  46  60
BRANCH  47  71
ATOM     71  C   UNL A   1      36.909  31.411  29.229  1.00  0.00     0.064 A 
ATOM     72  C   UNL A   1      36.849  32.773  28.903  1.00  0.00     0.173 A 
ATOM     73  C   UNL A   1      35.809  30.609  28.887  1.00  0.00     0.173 A 
ATOM     74  F   UNL A   1      37.861  33.586  29.237  1.00  0.00    -0.203 F 
ATOM     75  C   UNL A   1      35.724  33.316  28.286  1.00  0.00     0.198 A 
ATOM     76  C   UNL A   1      34.697  31.148  28.245  1.00  0.00     0.198 A 
ATOM     77  F   UNL A   1      35.815  29.301  29.184  1.00  0.00    -0.203 F 
ATOM     78  F   UNL A   1      35.669  34.632  28.037  1.00  0.00    -0.200 F 
ATOM     79  C   UNL A   1      34.651  32.503  27.953  1.00  0.00     0.200 A 
ATOM     80  F   UNL A   1      33.665  30.358  27.921  1.00  0.00    -0.200 F 
ATOM     81  F   UNL A   1      33.567  33.028  27.366  1.00  0.00    -0.200 F 
ENDBRANCH  47  71
BRANCH  59  82
ATOM     82  C   UNL A   1      39.170  32.020  35.791  1.00  0.00     0.064 A 
ATOM     83  C   UNL A   1      39.541  33.361  35.973  1.00  0.00     0.173 A 
ATOM     84  C   UNL A   1      38.280  31.453  36.717  1.00  0.00     0.173 A 
ATOM     85  F   UNL A   1      40.400  33.944  35.124  1.00  0.00    -0.203 F 
ATOM     86  C   UNL A   1      39.056  34.097  37.051  1.00  0.00     0.198 A 
ATOM     87  C   UNL A   1      37.775  32.200  37.777  1.00  0.00     0.198 A 
ATOM     88  F   UNL A   1      37.888  30.177  36.582  1.00  0.00    -0.203 F 
ATOM     89  F   UNL A   1      39.456  35.363  37.229  1.00  0.00    -0.200 F 
ATOM     90  C   UNL A   1      38.168  33.519  37.947  1.00  0.00     0.200 A 
ATOM     91  F   UNL A   1      36.907  31.644  38.633  1.00  0.00    -0.200 F 
ATOM     92  F   UNL A   1      37.695  34.232  38.978  1.00  0.00    -0.200 F 
ENDBRANCH  59  82
ENDBRANCH  33  34
ENDBRANCH  26  28
ENDBRANCH  25  26
ENDBRANCH  24  25
ENDBRANCH  23  24
ENDBRANCH  22  23
ENDBRANCH  21  22
ENDBRANCH   1  21
TORSDOF 19
ENDMDL
MODEL 2
REMARK VINA RESULT:     -10.7      1.534      2.504
REMARK SMILES CCC(=O)Nc1ccc(I)cc1C(=O)OCCOCCOCCOC(=O)c1ccc(-c2c3nc(c(-c4c(F)c(F)c(F)c(F)c4F)c4ccc([nH]4)c(-c4c(F)c(F)c(F)c(F)c4F)c4nc(c(-c5c(F)c(F)c(F)c(F)c5F)c5ccc2[nH]5)C=C4)C=C3)cc1
REMARK SMILES IDX 19 1 18 2 17 3 16 4 15 5 13 6 14 7 12 8 6 9 7 10 8 11 11 12
REMARK SMILES IDX 9 13 10 14 5 15 3 16 4 17 2 19 1 20 20 21 21 22 22 23 23 24
REMARK SMILES IDX 24 25 25 26 26 27 27 28 28 29 89 30 29 31 88 32 30 33 31 34
REMARK SMILES IDX 32 35 82 36 33 37 87 38 81 39 83 40 34 41 86 42 80 43 79 44
REMARK SMILES IDX 35 46 67 47 47 48 66 49 48 50 51 51 65 52 84 53 49 54 50 55
REMARK SMILES IDX 64 57 85 58 52 59 36 60 37 61 45 62 38 63 39 64 43 65 46 66
REMARK SMILES IDX 40 67 41 68 44 69 42 70 68 71 69 72 77 73 70 74 71 75 75 76
REMARK SMILES IDX 78 77 72 78 73 79 76 80 74 81 53 82 54 83 62 84 55 85 56 86
REMARK SMILES IDX 60 87 63 88 57 89 58 90 61 91 59 92
REMARK H PARENT 5 18 83 45 51 56
REMARK Flexibility Score: inf
ROOT
ATOM      1  C   UNL A   1      39.952  21.663  26.125  1.00  0.00     0.188 C 
ENDROOT
BRANCH   1   2
ATOM      2  O   UNL A   1      38.780  20.983  25.682  1.00  0.00    -0.376 OA
BRANCH   2   3
ATOM      3  C   UNL A   1      37.583  21.718  25.441  1.00  0.00     0.202 C 
BRANCH   3   4
ATOM      4  C   UNL A   1      37.557  23.201  25.826  1.00  0.00     0.261 C 
BRANCH   4   5
ATOM      5  O   UNL A   1      36.249  23.678  26.195  1.00  0.00    -0.460 OA
BRANCH   5   6
ATOM      6  C   UNL A   1      35.464  24.070  25.165  1.00  0.00     0.340 C 
ATOM      7  O   UNL A   1      35.748  24.019  23.975  1.00  0.00    -0.246 OA
BRANCH   6   8
ATOM      8  C   UNL A   1      34.097  24.417  25.620  1.00  0.00     0.084 A 
ATOM      9  C   UNL A   1      33.161  23.515  26.155  1.00  0.00     0.055 A 
ATOM     10  C   UNL A   1      31.967  24.042  26.663  1.00  0.00     0.028 A 
ATOM     11  C   UNL A   1      31.628  25.389  26.501  1.00  0.00     0.017 A 
ATOM     12  C   UNL A   1      33.749  25.773  25.444  1.00  0.00     0.032 A 
ATOM     13  C   UNL A   1      32.506  26.242  25.851  1.00  0.00     0.014 A 
ATOM     14  I   UNL A   1      31.967  28.212  25.490  1.00  0.00    -0.044 I 
BRANCH   9  15
ATOM     15  N   UNL A   1      33.427  22.133  26.238  1.00  0.00    -0.325 N 
ATOM     16  C   UNL A   1      33.173  21.114  25.355  1.00  0.00     0.224 C 
ATOM     17  O   UNL A   1      33.299  19.950  25.746  1.00  0.00    -0.275 OA
ATOM     18  H   UNL A   1      33.870  21.852  27.070  1.00  0.00     0.169 HD
BRANCH  16  19
ATOM     19  C   UNL A   1      32.859  21.397  23.893  1.00  0.00     0.097 C 
ATOM     20  C   UNL A   1      32.190  20.238  23.173  1.00  0.00     0.014 C 
ENDBRANCH  16  19
ENDBRANCH   9  15
ENDBRANCH   6   8
ENDBRANCH   5   6
ENDBRANCH   4   5
ENDBRANCH   3   4
ENDBRANCH   2   3
ENDBRANCH   1   2
BRANCH   1  21
ATOM     21  C   UNL A   1      40.887  20.989  27.150  1.00  0.00     0.188 C 
BRANCH  21  22
ATOM     22  O   UNL A   1      42.043  20.430  26.569  1.00  0.00    -0.376 OA
BRANCH  22  23
ATOM     23  C   UNL A   1      43.181  21.251  26.381  1.00  0.00     0.202 C 
BRANCH  23  24
ATOM     24  C   UNL A   1      43.461  21.913  25.019  1.00  0.00     0.261 C 
BRANCH  24  25
ATOM     25  O   UNL A   1      42.932  23.228  24.806  1.00  0.00    -0.460 OA
BRANCH  25  26
ATOM     26  C   UNL A   1      43.764  24.273  25.006  1.00  0.00     0.338 C 
ATOM     27  O   UNL A   1      44.798  24.516  24.416  1.00  0.00    -0.246 OA
BRANCH  26  28
ATOM     28  C   UNL A   1      43.114  25.185  25.973  1.00  0.00     0.060 A 
ATOM     29  C   UNL A   1      43.600  26.492  26.104  1.00  0.00     0.016 A 
ATOM     30  C   UNL A   1      42.036  24.751  26.749  1.00  0.00     0.016 A 
ATOM     31  C   UNL A   1      43.026  27.360  27.034  1.00  0.00     0.010 A 
ATOM     32  C   UNL A   1      41.474  25.616  27.694  1.00  0.00     0.010 A 
ATOM     33  C   UNL A   1      41.985  26.916  27.860  1.00  0.00    -0.014 A 
BRANCH  33  34
ATOM     34  C   UNL A   1      41.535  27.746  29.005  1.00  0.00     0.031 A 
ATOM     35  C   UNL A   1      42.261  27.619  30.316  1.00  0.00     0.074 A 
ATOM     36  C   UNL A   1      40.498  28.594  28.889  1.00  0.00     0.049 A 
ATOM     37  N   UNL A   1      42.017  28.198  31.463  1.00  0.00    -0.248 NA
ATOM     38  C   UNL A   1      43.421  26.712  30.334  1.00  0.00     0.031 C 
ATOM     39  C   UNL A   1      39.727  28.825  27.669  1.00  0.00     0.029 A 
ATOM     40  N   UNL A   1      39.906  29.409  29.823  1.00  0.00    -0.354 N 
ATOM     41  C   UNL A   1      42.986  27.725  32.338  1.00  0.00     0.074 A 
ATOM     42  C   UNL A   1      43.809  26.793  31.598  1.00  0.00     0.031 C 
ATOM     43  C   UNL A   1      38.746  29.706  27.936  1.00  0.00     0.029 A 
ATOM     44  C   UNL A   1      38.805  30.079  29.349  1.00  0.00     0.049 A 
ATOM     45  H   UNL A   1      40.239  29.502  30.745  1.00  0.00     0.167 HD
ATOM     46  C   UNL A   1      43.175  28.042  33.641  1.00  0.00     0.037 A 
ATOM     47  C   UNL A   1      37.933  30.879  29.992  1.00  0.00     0.037 A 
ATOM     48  C   UNL A   1      42.360  28.968  34.378  1.00  0.00     0.049 A 
ATOM     49  C   UNL A   1      38.133  31.173  31.459  1.00  0.00     0.074 A 
ATOM     50  C   UNL A   1      42.494  29.377  35.693  1.00  0.00     0.029 A 
ATOM     51  N   UNL A   1      41.248  29.620  33.867  1.00  0.00    -0.354 N 
ATOM     52  N   UNL A   1      39.078  30.757  32.266  1.00  0.00    -0.248 NA
ATOM     53  C   UNL A   1      37.144  32.050  32.103  1.00  0.00     0.031 C 
ATOM     54  C   UNL A   1      41.436  30.243  35.992  1.00  0.00     0.029 A 
ATOM     55  C   UNL A   1      40.672  30.410  34.848  1.00  0.00     0.049 A 
ATOM     56  H   UNL A   1      40.918  29.535  32.943  1.00  0.00     0.167 HD
ATOM     57  C   UNL A   1      38.816  31.344  33.498  1.00  0.00     0.074 A 
ATOM     58  C   UNL A   1      37.629  32.153  33.331  1.00  0.00     0.031 C 
ATOM     59  C   UNL A   1      39.498  31.222  34.663  1.00  0.00     0.037 A 
BRANCH  46  60
ATOM     60  C   UNL A   1      44.301  27.367  34.363  1.00  0.00     0.064 A 
ATOM     61  C   UNL A   1      45.578  27.943  34.435  1.00  0.00     0.173 A 
ATOM     62  C   UNL A   1      44.086  26.154  35.035  1.00  0.00     0.173 A 
ATOM     63  F   UNL A   1      45.837  29.094  33.797  1.00  0.00    -0.203 F 
ATOM     64  C   UNL A   1      46.603  27.321  35.143  1.00  0.00     0.198 A 
ATOM     65  C   UNL A   1      45.106  25.548  35.761  1.00  0.00     0.198 A 
ATOM     66  F   UNL A   1      42.881  25.565  34.996  1.00  0.00    -0.203 F 
ATOM     67  F   UNL A   1      47.825  27.872  35.173  1.00  0.00    -0.200 F 
ATOM     68  C   UNL A   1      46.365  26.130  35.812  1.00  0.00     0.200 A 
ATOM     69  F   UNL A   1      44.872  24.402  36.414  1.00  0.00    -0.200 F 
ATOM     70  F   UNL A   1      47.349  25.538  36.502  1.00  0.00    -0.200 F 
ENDBRANCH  46  60
BRANCH  47  71
ATOM     71  C   UNL A   1      36.767  31.450  29.267  1.00  0.00     0.064 A 
ATOM     72  C   UNL A   1      36.707  32.813  28.946  1.00  0.00     0.173 A 
ATOM     73  C   UNL A   1      35.668  30.649  28.920  1.00  0.00     0.173 A 
ATOM     74  F   UNL A   1      37.719  33.625  29.285  1.00  0.00    -0.203 F 
ATOM     75  C   UNL A   1      35.583  33.359  28.330  1.00  0.00     0.198 A 
ATOM     76  C   UNL A   1      34.557  31.190  28.278  1.00  0.00     0.198 A 
ATOM     77  F   UNL A   1      35.673  29.340  29.211  1.00  0.00    -0.203 F 
ATOM     78  F   UNL A   1      35.528  34.676  28.087  1.00  0.00    -0.200 F 
ATOM     79  C   UNL A   1      34.511  32.546  27.992  1.00  0.00     0.200 A 
ATOM     80  F   UNL A   1      33.525  30.402  27.949  1.00  0.00    -0.200 F 
ATOM     81  F   UNL A   1      33.427  33.074  27.406  1.00  0.00    -0.200 F 
ENDBRANCH  47  71
BRANCH  59  82
ATOM     82  C   UNL A   1      39.006  32.011  35.841  1.00  0.00     0.064 A 
ATOM     83  C   UNL A   1      38.190  31.434  36.826  1.00  0.00     0.173 A 
ATOM     84  C   UNL A   1      39.398  33.348  36.013  1.00  0.00     0.173 A 
ATOM     85  F   UNL A   1      37.778  30.164  36.700  1.00  0.00    -0.203 F 
ATOM     86  C   UNL A   1      37.768  32.172  37.928  1.00  0.00     0.198 A 
ATOM     87  C   UNL A   1      38.997  34.075  37.130  1.00  0.00     0.198 A 
ATOM     88  F   UNL A   1      40.184  33.944  35.104  1.00  0.00    -0.203 F 
ATOM     89  F   UNL A   1      36.955  31.613  38.835  1.00  0.00    -0.200 F 
ATOM     90  C   UNL A   1      38.177  33.489  38.083  1.00  0.00     0.200 A 
ATOM     91  F   UNL A   1      39.404  35.342  37.286  1.00  0.00    -0.200 F 
ATOM     92  F   UNL A   1      37.777  34.194  39.150  1.00  0.00    -0.200 F 
ENDBRANCH  59  82
ENDBRANCH  33  34
ENDBRANCH  26  28
ENDBRANCH  25  26
ENDBRANCH  24  25
ENDBRANCH  23  24
ENDBRANCH  22  23
ENDBRANCH  21  22
ENDBRANCH   1  21
TORSDOF 19
ENDMDL
MODEL 3
REMARK VINA RESULT:     -10.6      1.551      2.229
REMARK SMILES CCC(=O)Nc1ccc(I)cc1C(=O)OCCOCCOCCOC(=O)c1ccc(-c2c3nc(c(-c4c(F)c(F)c(F)c(F)c4F)c4ccc([nH]4)c(-c4c(F)c(F)c(F)c(F)c4F)c4nc(c(-c5c(F)c(F)c(F)c(F)c5F)c5ccc2[nH]5)C=C4)C=C3)cc1
REMARK SMILES IDX 19 1 18 2 17 3 16 4 15 5 13 6 14 7 12 8 6 9 7 10 8 11 11 12
REMARK SMILES IDX 9 13 10 14 5 15 3 16 4 17 2 19 1 20 20 21 21 22 22 23 23 24
REMARK SMILES IDX 24 25 25 26 26 27 27 28 28 29 89 30 29 31 88 32 30 33 31 34
REMARK SMILES IDX 32 35 82 36 33 37 87 38 81 39 83 40 34 41 86 42 80 43 79 44
REMARK SMILES IDX 35 46 67 47 47 48 66 49 48 50 51 51 65 52 84 53 49 54 50 55
REMARK SMILES IDX 64 57 85 58 52 59 36 60 37 61 45 62 38 63 39 64 43 65 46 66
REMARK SMILES IDX 40 67 41 68 44 69 42 70 68 71 69 72 77 73 70 74 71 75 75 76
REMARK SMILES IDX 78 77 72 78 73 79 76 80 74 81 53 82 54 83 62 84 55 85 56 86
REMARK SMILES IDX 60 87 63 88 57 89 58 90 61 91 59 92
REMARK H PARENT 5 18 83 45 51 56
REMARK Flexibility Score: inf
ROOT
ATOM      1  C   UNL A   1      41.124  20.379  26.890  1.00  0.00     0.188 C 
ENDROOT
BRANCH   1   2
ATOM      2  O   UNL A   1      40.682  21.497  26.125  1.00  0.00    -0.376 OA
BRANCH   2   3
ATOM      3  C   UNL A   1      39.287  21.707  25.919  1.00  0.00     0.202 C 
BRANCH   3   4
ATOM      4  C   UNL A   1      38.402  20.482  25.666  1.00  0.00     0.261 C 
BRANCH   4   5
ATOM      5  O   UNL A   1      37.081  20.812  25.196  1.00  0.00    -0.460 OA
BRANCH   5   6
ATOM      6  C   UNL A   1      36.271  19.755  24.957  1.00  0.00     0.340 C 
ATOM      7  O   UNL A   1      36.607  18.580  24.906  1.00  0.00    -0.246 OA
BRANCH   6   8
ATOM      8  C   UNL A   1      34.843  20.153  24.940  1.00  0.00     0.084 A 
ATOM      9  C   UNL A   1      33.781  19.364  24.463  1.00  0.00     0.055 A 
ATOM     10  C   UNL A   1      32.480  19.843  24.653  1.00  0.00     0.028 A 
ATOM     11  C   UNL A   1      32.231  21.129  25.143  1.00  0.00     0.017 A 
ATOM     12  C   UNL A   1      34.594  21.455  25.421  1.00  0.00     0.032 A 
ATOM     13  C   UNL A   1      33.296  21.948  25.485  1.00  0.00     0.014 A 
ATOM     14  I   UNL A   1      32.952  23.901  26.094  1.00  0.00    -0.044 I 
BRANCH   9  15
ATOM     15  N   UNL A   1      34.002  18.106  23.867  1.00  0.00    -0.325 N 
ATOM     16  C   UNL A   1      33.934  16.839  24.389  1.00  0.00     0.224 C 
ATOM     17  O   UNL A   1      34.388  15.903  23.725  1.00  0.00    -0.275 OA
ATOM     18  H   UNL A   1      34.246  18.143  22.914  1.00  0.00     0.169 HD
BRANCH  16  19
ATOM     19  C   UNL A   1      33.214  16.565  25.701  1.00  0.00     0.097 C 
ATOM     20  C   UNL A   1      32.391  15.286  25.694  1.00  0.00     0.014 C 
ENDBRANCH  16  19
ENDBRANCH   9  15
ENDBRANCH   6   8
ENDBRANCH   5   6
ENDBRANCH   4   5
ENDBRANCH   3   4
ENDBRANCH   2   3
ENDBRANCH   1   2
BRANCH   1  21
ATOM     21  C   UNL A   1      41.968  19.276  26.217  1.00  0.00     0.188 C 
BRANCH  21  22
ATOM     22  O   UNL A   1      42.727  19.742  25.125  1.00  0.00    -0.376 OA
BRANCH  22  23
ATOM     23  C   UNL A   1      44.108  19.996  25.310  1.00  0.00     0.202 C 
BRANCH  23  24
ATOM     24  C   UNL A   1      44.674  21.422  25.179  1.00  0.00     0.261 C 
BRANCH  24  25
ATOM     25  O   UNL A   1      43.868  22.497  25.679  1.00  0.00    -0.460 OA
BRANCH  25  26
ATOM     26  C   UNL A   1      44.146  23.741  25.232  1.00  0.00     0.338 C 
ATOM     27  O   UNL A   1      44.709  24.045  24.198  1.00  0.00    -0.246 OA
BRANCH  26  28
ATOM     28  C   UNL A   1      43.495  24.702  26.148  1.00  0.00     0.060 A 
ATOM     29  C   UNL A   1      43.969  26.019  26.198  1.00  0.00     0.016 A 
ATOM     30  C   UNL A   1      42.425  24.305  26.956  1.00  0.00     0.016 A 
ATOM     31  C   UNL A   1      43.393  26.935  27.080  1.00  0.00     0.010 A 
ATOM     32  C   UNL A   1      41.861  25.219  27.852  1.00  0.00     0.010 A 
ATOM     33  C   UNL A   1      42.361  26.531  27.938  1.00  0.00    -0.014 A 
BRANCH  33  34
ATOM     34  C   UNL A   1      41.911  27.423  29.035  1.00  0.00     0.031 A 
ATOM     35  C   UNL A   1      42.650  27.383  30.345  1.00  0.00     0.074 A 
ATOM     36  C   UNL A   1      40.863  28.251  28.878  1.00  0.00     0.049 A 
ATOM     37  N   UNL A   1      42.408  28.027  31.458  1.00  0.00    -0.248 NA
ATOM     38  C   UNL A   1      43.821  26.492  30.407  1.00  0.00     0.031 C 
ATOM     39  C   UNL A   1      40.079  28.399  27.654  1.00  0.00     0.029 A 
ATOM     40  N   UNL A   1      40.269  29.113  29.767  1.00  0.00    -0.354 N 
ATOM     41  C   UNL A   1      43.390  27.618  32.350  1.00  0.00     0.074 A 
ATOM     42  C   UNL A   1      44.218  26.653  31.660  1.00  0.00     0.031 C 
ATOM     43  C   UNL A   1      39.090  29.283  27.877  1.00  0.00     0.029 A 
ATOM     44  C   UNL A   1      39.156  29.741  29.265  1.00  0.00     0.049 A 
ATOM     45  H   UNL A   1      40.608  29.265  30.679  1.00  0.00     0.167 HD
ATOM     46  C   UNL A   1      43.586  28.015  33.630  1.00  0.00     0.037 A 
ATOM     47  C   UNL A   1      38.280  30.568  29.866  1.00  0.00     0.037 A 
ATOM     48  C   UNL A   1      42.766  28.974  34.318  1.00  0.00     0.049 A 
ATOM     49  C   UNL A   1      38.488  30.951  31.311  1.00  0.00     0.074 A 
ATOM     50  C   UNL A   1      42.906  29.463  35.605  1.00  0.00     0.029 A 
ATOM     51  N   UNL A   1      41.642  29.582  33.779  1.00  0.00    -0.354 N 
ATOM     52  N   UNL A   1      39.446  30.595  32.132  1.00  0.00    -0.248 NA
ATOM     53  C   UNL A   1      37.494  31.854  31.910  1.00  0.00     0.031 C 
ATOM     54  C   UNL A   1      41.841  30.333  35.861  1.00  0.00     0.029 A 
ATOM     55  C   UNL A   1      41.065  30.422  34.716  1.00  0.00     0.049 A 
ATOM     56  H   UNL A   1      41.305  29.437  32.865  1.00  0.00     0.167 HD
ATOM     57  C   UNL A   1      39.187  31.252  33.330  1.00  0.00     0.074 A 
ATOM     58  C   UNL A   1      37.989  32.036  33.126  1.00  0.00     0.031 C 
ATOM     59  C   UNL A   1      39.880  31.208  34.494  1.00  0.00     0.037 A 
BRANCH  46  60
ATOM     60  C   UNL A   1      44.726  27.398  34.381  1.00  0.00     0.064 A 
ATOM     61  C   UNL A   1      45.996  27.991  34.407  1.00  0.00     0.173 A 
ATOM     62  C   UNL A   1      44.532  26.225  35.126  1.00  0.00     0.173 A 
ATOM     63  F   UNL A   1      46.236  29.105  33.699  1.00  0.00    -0.203 F 
ATOM     64  C   UNL A   1      47.035  27.425  35.142  1.00  0.00     0.198 A 
ATOM     65  C   UNL A   1      45.565  25.674  35.878  1.00  0.00     0.198 A 
ATOM     66  F   UNL A   1      43.334  25.620  35.133  1.00  0.00    -0.203 F 
ATOM     67  F   UNL A   1      48.250  27.991  35.128  1.00  0.00    -0.200 F 
ATOM     68  C   UNL A   1      46.817  26.273  35.883  1.00  0.00     0.200 A 
ATOM     69  F   UNL A   1      45.350  24.566  36.600  1.00  0.00    -0.200 F 
ATOM     70  F   UNL A   1      47.814  25.735  36.598  1.00  0.00    -0.200 F 
ENDBRANCH  46  60
BRANCH  47  71
ATOM     71  C   UNL A   1      37.101  31.081  29.119  1.00  0.00     0.064 A 
ATOM     72  C   UNL A   1      37.038  32.413  28.687  1.00  0.00     0.173 A 
ATOM     73  C   UNL A   1      35.994  30.258  28.861  1.00  0.00     0.173 A 
ATOM     74  F   UNL A   1      38.058  33.246  28.938  1.00  0.00    -0.203 F 
ATOM     75  C   UNL A   1      35.903  32.910  28.049  1.00  0.00     0.198 A 
ATOM     76  C   UNL A   1      34.871  30.748  28.198  1.00  0.00     0.198 A 
ATOM     77  F   UNL A   1      36.002  28.978  29.259  1.00  0.00    -0.203 F 
ATOM     78  F   UNL A   1      35.846  34.202  27.699  1.00  0.00    -0.200 F 
ATOM     79  C   UNL A   1      34.823  32.076  27.801  1.00  0.00     0.200 A 
ATOM     80  F   UNL A   1      33.832  29.939  27.956  1.00  0.00    -0.200 F 
ATOM     81  F   UNL A   1      33.729  32.557  27.194  1.00  0.00    -0.200 F 
ENDBRANCH  47  71
BRANCH  59  82
ATOM     82  C   UNL A   1      39.388  32.061  35.627  1.00  0.00     0.064 A 
ATOM     83  C   UNL A   1      39.780  33.401  35.764  1.00  0.00     0.173 A 
ATOM     84  C   UNL A   1      38.472  31.545  36.557  1.00  0.00     0.173 A 
ATOM     85  F   UNL A   1      40.664  33.936  34.909  1.00  0.00    -0.203 F 
ATOM     86  C   UNL A   1      39.290  34.186  36.805  1.00  0.00     0.198 A 
ATOM     87  C   UNL A   1      37.962  32.341  37.579  1.00  0.00     0.198 A 
ATOM     88  F   UNL A   1      38.059  30.272  36.464  1.00  0.00    -0.203 F 
ATOM     89  F   UNL A   1      39.710  35.451  36.942  1.00  0.00    -0.200 F 
ATOM     90  C   UNL A   1      38.377  33.658  37.706  1.00  0.00     0.200 A 
ATOM     91  F   UNL A   1      37.070  31.834  38.440  1.00  0.00    -0.200 F 
ATOM     92  F   UNL A   1      37.899  34.419  38.700  1.00  0.00    -0.200 F 
ENDBRANCH  59  82
ENDBRANCH  33  34
ENDBRANCH  26  28
ENDBRANCH  25  26
ENDBRANCH  24  25
ENDBRANCH  23  24
ENDBRANCH  22  23
ENDBRANCH  21  22
ENDBRANCH   1  21
TORSDOF 19
ENDMDL
