MODEL 1
REMARK VINA RESULT:      -9.1      0.000      0.000
REMARK SMILES C#CCN(CC(=O)OCCOCCOCCOC(=O)c1ccc(-c2c3nc(c(-c4c(F)c(F)c(F)c(F)c4F)c4ccc([nH]4)c(-c4c(F)c(F)c(F)c(F)c4F)c4nc(c(-c5c(F)c(F)c(F)c(F)c5F)c5ccc2[nH]5)C=C4)C=C3)cc1)C(=O)c1cccnc1C
REMARK SMILES IDX 12 1 11 2 10 3 9 4 8 5 6 6 7 7 5 8 4 9 3 10 2 11 1 12 83 13
REMARK SMILES IDX 84 14 85 15 86 16 90 17 87 18 89 19 91 20 88 21 13 22 14 23
REMARK SMILES IDX 15 24 16 25 17 26 18 27 19 28 20 29 21 30 82 31 22 32 81 33
REMARK SMILES IDX 23 34 24 35 25 36 75 37 26 38 80 39 74 40 76 41 27 42 79 43
REMARK SMILES IDX 73 44 72 45 28 47 60 48 40 49 59 50 41 51 44 52 58 53 77 54
REMARK SMILES IDX 42 55 43 56 57 58 78 59 45 60 29 61 30 62 38 63 31 64 32 65
REMARK SMILES IDX 36 66 39 67 33 68 34 69 37 70 35 71 61 72 62 73 70 74 63 75
REMARK SMILES IDX 64 76 68 77 71 78 65 79 66 80 69 81 67 82 46 83 47 84 55 85
REMARK SMILES IDX 48 86 49 87 53 88 56 89 50 90 51 91 54 92 52 93
REMARK H PARENT 76 46 44 57
REMARK Flexibility Score: inf
ROOT
ATOM      1  C   UNL A   1      36.385  23.708  25.088  1.00  0.00     0.188 C 
ENDROOT
BRANCH   1   2
ATOM      2  O   UNL A   1      36.196  23.358  23.720  1.00  0.00    -0.376 OA
BRANCH   2   3
ATOM      3  C   UNL A   1      34.883  23.056  23.218  1.00  0.00     0.202 C 
BRANCH   3   4
ATOM      4  C   UNL A   1      33.725  24.138  23.251  1.00  0.00     0.261 C 
BRANCH   4   5
ATOM      5  O   UNL A   1      32.832  24.263  22.070  1.00  0.00    -0.462 OA
BRANCH   5   6
ATOM      6  C   UNL A   1      32.595  25.499  21.492  1.00  0.00     0.325 C 
ATOM      7  O   UNL A   1      33.201  25.876  20.490  1.00  0.00    -0.250 OA
BRANCH   6   8
ATOM      8  C   UNL A   1      31.277  26.360  22.064  1.00  0.00     0.243 C 
BRANCH   8   9
ATOM      9  N   UNL A   1      31.204  27.433  23.194  1.00  0.00    -0.316 N 
BRANCH   9  10
ATOM     10  C   UNL A   1      30.983  28.694  22.659  1.00  0.00     0.210 C 
BRANCH  10  11
ATOM     11  C   UNL A   1      29.483  28.929  22.720  1.00  0.00    -0.085 C 
ATOM     12  C   UNL A   1      28.197  29.131  22.771  1.00  0.00     0.006 C 
ENDBRANCH  10  11
ENDBRANCH   9  10
BRANCH   9  13
ATOM     13  C   UNL A   1      31.262  27.605  24.634  1.00  0.00     0.257 C 
ATOM     14  O   UNL A   1      30.627  26.944  25.460  1.00  0.00    -0.269 OA
BRANCH  13  15
ATOM     15  C   UNL A   1      32.034  28.607  25.303  1.00  0.00     0.061 A 
ATOM     16  C   UNL A   1      31.475  30.243  25.711  1.00  0.00     0.017 A 
ATOM     17  C   UNL A   1      33.548  27.996  25.871  1.00  0.00     0.050 A 
ATOM     18  C   UNL A   1      32.513  31.179  26.857  1.00  0.00     0.021 A 
ATOM     19  N   UNL A   1      34.606  28.717  26.967  1.00  0.00    -0.261 NA
ATOM     20  C   UNL A   1      33.930  26.702  25.385  1.00  0.00     0.067 C 
ATOM     21  C   UNL A   1      34.178  30.267  27.524  1.00  0.00     0.111 A 
ENDBRANCH  13  15
ENDBRANCH   9  13
ENDBRANCH   8   9
ENDBRANCH   6   8
ENDBRANCH   5   6
ENDBRANCH   4   5
ENDBRANCH   3   4
ENDBRANCH   2   3
ENDBRANCH   1   2
BRANCH   1  22
ATOM     22  C   UNL A   1      37.326  22.833  25.985  1.00  0.00     0.188 C 
BRANCH  22  23
ATOM     23  O   UNL A   1      37.947  21.710  25.349  1.00  0.00    -0.376 OA
BRANCH  23  24
ATOM     24  C   UNL A   1      39.174  21.231  25.882  1.00  0.00     0.202 C 
BRANCH  24  25
ATOM     25  C   UNL A   1      40.170  22.266  26.430  1.00  0.00     0.261 C 
BRANCH  25  26
ATOM     26  O   UNL A   1      41.540  21.822  26.505  1.00  0.00    -0.460 OA
BRANCH  26  27
ATOM     27  C   UNL A   1      42.455  22.524  25.789  1.00  0.00     0.338 C 
ATOM     28  O   UNL A   1      43.225  21.995  25.009  1.00  0.00    -0.246 OA
BRANCH  27  29
ATOM     29  C   UNL A   1      42.340  24.073  26.213  1.00  0.00     0.060 A 
ATOM     30  C   UNL A   1      41.989  25.885  25.363  1.00  0.00     0.016 A 
ATOM     31  C   UNL A   1      42.961  24.093  27.915  1.00  0.00     0.016 A 
ATOM     32  C   UNL A   1      42.354  27.364  26.234  1.00  0.00     0.010 A 
ATOM     33  C   UNL A   1      43.217  25.654  28.690  1.00  0.00     0.010 A 
ATOM     34  C   UNL A   1      42.914  27.206  27.868  1.00  0.00    -0.014 A 
BRANCH  34  35
ATOM     35  C   UNL A   1      43.055  28.495  28.529  1.00  0.00     0.031 A 
ATOM     36  C   UNL A   1      44.393  29.118  28.486  1.00  0.00     0.074 A 
ATOM     37  C   UNL A   1      41.933  29.121  28.939  1.00  0.00     0.049 A 
ATOM     38  N   UNL A   1      44.754  30.299  28.886  1.00  0.00    -0.248 NA
ATOM     39  C   UNL A   1      45.476  28.319  27.891  1.00  0.00     0.031 C 
ATOM     40  C   UNL A   1      40.567  28.570  28.897  1.00  0.00     0.029 A 
ATOM     41  N   UNL A   1      41.747  30.388  29.417  1.00  0.00    -0.354 N 
ATOM     42  C   UNL A   1      46.104  30.376  28.599  1.00  0.00     0.074 A 
ATOM     43  C   UNL A   1      46.510  29.126  28.012  1.00  0.00     0.031 C 
ATOM     44  C   UNL A   1      39.690  29.513  29.269  1.00  0.00     0.029 A 
ATOM     45  C   UNL A   1      40.432  30.687  29.686  1.00  0.00     0.049 A 
ATOM     46  H   UNL A   1      42.484  31.025  29.554  1.00  0.00     0.167 HD
ATOM     47  C   UNL A   1      46.926  31.416  28.830  1.00  0.00     0.037 A 
ATOM     48  C   UNL A   1      39.907  31.783  30.262  1.00  0.00     0.037 A 
ATOM     49  C   UNL A   1      46.469  32.620  29.459  1.00  0.00     0.049 A 
ATOM     50  C   UNL A   1      40.876  32.867  30.638  1.00  0.00     0.074 A 
ATOM     51  C   UNL A   1      47.199  33.730  29.819  1.00  0.00     0.029 A 
ATOM     52  N   UNL A   1      45.150  32.850  29.840  1.00  0.00    -0.354 N 
ATOM     53  N   UNL A   1      42.169  32.928  30.411  1.00  0.00    -0.248 NA
ATOM     54  C   UNL A   1      40.332  34.020  31.358  1.00  0.00     0.031 C 
ATOM     55  C   UNL A   1      46.340  34.595  30.500  1.00  0.00     0.029 A 
ATOM     56  C   UNL A   1      45.053  34.073  30.473  1.00  0.00     0.049 A 
ATOM     57  H   UNL A   1      44.400  32.232  29.683  1.00  0.00     0.167 HD
ATOM     58  C   UNL A   1      42.593  34.135  30.940  1.00  0.00     0.074 A 
ATOM     59  C   UNL A   1      41.408  34.782  31.476  1.00  0.00     0.031 C 
ATOM     60  C   UNL A   1      43.841  34.665  30.983  1.00  0.00     0.037 A 
BRANCH  47  61
ATOM     61  C   UNL A   1      48.373  31.223  28.509  1.00  0.00     0.064 A 
ATOM     62  C   UNL A   1      49.263  30.599  29.396  1.00  0.00     0.173 A 
ATOM     63  C   UNL A   1      48.886  31.727  27.305  1.00  0.00     0.173 A 
ATOM     64  F   UNL A   1      48.833  30.151  30.584  1.00  0.00    -0.203 F 
ATOM     65  C   UNL A   1      50.620  30.507  29.098  1.00  0.00     0.198 A 
ATOM     66  C   UNL A   1      50.234  31.595  26.992  1.00  0.00     0.198 A 
ATOM     67  F   UNL A   1      48.084  32.366  26.442  1.00  0.00    -0.203 F 
ATOM     68  F   UNL A   1      51.466  29.977  29.991  1.00  0.00    -0.200 F 
ATOM     69  C   UNL A   1      51.101  30.992  27.890  1.00  0.00     0.200 A 
ATOM     70  F   UNL A   1      50.696  32.065  25.825  1.00  0.00    -0.200 F 
ATOM     71  F   UNL A   1      52.406  30.897  27.601  1.00  0.00    -0.200 F 
ENDBRANCH  47  61
BRANCH  48  72
ATOM     72  C   UNL A   1      38.455  31.860  30.576  1.00  0.00     0.064 A 
ATOM     73  C   UNL A   1      37.530  32.367  29.654  1.00  0.00     0.173 A 
ATOM     74  C   UNL A   1      37.959  31.442  31.823  1.00  0.00     0.173 A 
ATOM     75  F   UNL A   1      37.945  32.790  28.452  1.00  0.00    -0.203 F 
ATOM     76  C   UNL A   1      36.176  32.479  29.977  1.00  0.00     0.198 A 
ATOM     77  C   UNL A   1      36.601  31.515  32.129  1.00  0.00     0.198 A 
ATOM     78  F   UNL A   1      38.794  30.947  32.749  1.00  0.00    -0.203 F 
ATOM     79  F   UNL A   1      35.325  33.024  29.097  1.00  0.00    -0.200 F 
ATOM     80  C   UNL A   1      35.713  32.048  31.210  1.00  0.00     0.200 A 
ATOM     81  F   UNL A   1      36.159  31.075  33.315  1.00  0.00    -0.200 F 
ATOM     82  F   UNL A   1      34.413  32.157  31.518  1.00  0.00    -0.200 F 
ENDBRANCH  48  72
BRANCH  60  83
ATOM     83  C   UNL A   1      43.968  36.028  31.586  1.00  0.00     0.064 A 
ATOM     84  C   UNL A   1      44.215  36.213  32.953  1.00  0.00     0.173 A 
ATOM     85  C   UNL A   1      43.899  37.162  30.763  1.00  0.00     0.173 A 
ATOM     86  F   UNL A   1      44.280  35.156  33.778  1.00  0.00    -0.203 F 
ATOM     87  C   UNL A   1      44.353  37.491  33.481  1.00  0.00     0.198 A 
ATOM     88  C   UNL A   1      44.092  38.434  31.286  1.00  0.00     0.198 A 
ATOM     89  F   UNL A   1      43.679  37.032  29.445  1.00  0.00    -0.203 F 
ATOM     90  F   UNL A   1      44.522  37.651  34.800  1.00  0.00    -0.200 F 
ATOM     91  C   UNL A   1      44.304  38.597  32.646  1.00  0.00     0.200 A 
ATOM     92  F   UNL A   1      44.076  39.498  30.472  1.00  0.00    -0.200 F 
ATOM     93  F   UNL A   1      44.456  39.827  33.155  1.00  0.00    -0.200 F 
ENDBRANCH  60  83
ENDBRANCH  34  35
ENDBRANCH  27  29
ENDBRANCH  26  27
ENDBRANCH  25  26
ENDBRANCH  24  25
ENDBRANCH  23  24
ENDBRANCH  22  23
ENDBRANCH   1  22
TORSDOF 22
ENDMDL
MODEL 2
REMARK VINA RESULT:      -9.1      4.634      8.989
REMARK SMILES C#CCN(CC(=O)OCCOCCOCCOC(=O)c1ccc(-c2c3nc(c(-c4c(F)c(F)c(F)c(F)c4F)c4ccc([nH]4)c(-c4c(F)c(F)c(F)c(F)c4F)c4nc(c(-c5c(F)c(F)c(F)c(F)c5F)c5ccc2[nH]5)C=C4)C=C3)cc1)C(=O)c1cccnc1C
REMARK SMILES IDX 12 1 11 2 10 3 9 4 8 5 6 6 7 7 5 8 4 9 3 10 2 11 1 12 83 13
REMARK SMILES IDX 84 14 85 15 86 16 90 17 87 18 89 19 91 20 88 21 13 22 14 23
REMARK SMILES IDX 15 24 16 25 17 26 18 27 19 28 20 29 21 30 82 31 22 32 81 33
REMARK SMILES IDX 23 34 24 35 25 36 75 37 26 38 80 39 74 40 76 41 27 42 79 43
REMARK SMILES IDX 73 44 72 45 28 47 60 48 40 49 59 50 41 51 44 52 58 53 77 54
REMARK SMILES IDX 42 55 43 56 57 58 78 59 45 60 29 61 30 62 38 63 31 64 32 65
REMARK SMILES IDX 36 66 39 67 33 68 34 69 37 70 35 71 61 72 62 73 70 74 63 75
REMARK SMILES IDX 64 76 68 77 71 78 65 79 66 80 69 81 67 82 46 83 47 84 55 85
REMARK SMILES IDX 48 86 49 87 53 88 56 89 50 90 51 91 54 92 52 93
REMARK H PARENT 76 46 44 57
REMARK Flexibility Score: inf
ROOT
ATOM      1  C   UNL A   1      32.170  28.637  26.331  1.00  0.00     0.188 C 
ENDROOT
BRANCH   1   2
ATOM      2  O   UNL A   1      32.288  28.874  24.932  1.00  0.00    -0.376 OA
BRANCH   2   3
ATOM      3  C   UNL A   1      33.488  28.511  24.227  1.00  0.00     0.202 C 
BRANCH   3   4
ATOM      4  C   UNL A   1      33.569  28.612  22.647  1.00  0.00     0.261 C 
BRANCH   4   5
ATOM      5  O   UNL A   1      33.970  27.408  21.875  1.00  0.00    -0.462 OA
BRANCH   5   6
ATOM      6  C   UNL A   1      33.055  26.404  21.607  1.00  0.00     0.325 C 
ATOM      7  O   UNL A   1      33.220  25.601  20.690  1.00  0.00    -0.250 OA
BRANCH   6   8
ATOM      8  C   UNL A   1      31.836  26.173  22.733  1.00  0.00     0.243 C 
BRANCH   8   9
ATOM      9  N   UNL A   1      31.663  25.044  23.794  1.00  0.00    -0.316 N 
BRANCH   9  10
ATOM     10  C   UNL A   1      30.420  24.442  23.672  1.00  0.00     0.210 C 
BRANCH  10  11
ATOM     11  C   UNL A   1      29.389  25.548  23.829  1.00  0.00    -0.085 C 
ATOM     12  C   UNL A   1      28.506  26.496  23.964  1.00  0.00     0.006 C 
ENDBRANCH  10  11
ENDBRANCH   9  10
BRANCH   9  13
ATOM     13  C   UNL A   1      32.344  24.357  24.877  1.00  0.00     0.257 C 
ATOM     14  O   UNL A   1      31.878  24.157  26.002  1.00  0.00    -0.269 OA
BRANCH  13  15
ATOM     15  C   UNL A   1      33.681  23.853  24.808  1.00  0.00     0.061 A 
ATOM     16  C   UNL A   1      35.149  24.749  25.252  1.00  0.00     0.017 A 
ATOM     17  C   UNL A   1      33.727  22.170  24.422  1.00  0.00     0.050 A 
ATOM     18  C   UNL A   1      36.664  23.776  25.406  1.00  0.00     0.021 A 
ATOM     19  N   UNL A   1      35.036  21.115  24.553  1.00  0.00    -0.261 NA
ATOM     20  C   UNL A   1      32.493  21.589  23.978  1.00  0.00     0.067 C 
ATOM     21  C   UNL A   1      36.513  21.802  25.047  1.00  0.00     0.111 A 
ENDBRANCH  13  15
ENDBRANCH   9  13
ENDBRANCH   8   9
ENDBRANCH   6   8
ENDBRANCH   5   6
ENDBRANCH   4   5
ENDBRANCH   3   4
ENDBRANCH   2   3
ENDBRANCH   1   2
BRANCH   1  22
ATOM     22  C   UNL A   1      33.045  29.468  27.331  1.00  0.00     0.188 C 
BRANCH  22  23
ATOM     23  O   UNL A   1      33.461  30.764  26.887  1.00  0.00    -0.376 OA
BRANCH  23  24
ATOM     24  C   UNL A   1      32.615  31.872  27.162  1.00  0.00     0.202 C 
BRANCH  24  25
ATOM     25  C   UNL A   1      33.279  33.188  27.601  1.00  0.00     0.261 C 
BRANCH  25  26
ATOM     26  O   UNL A   1      32.398  34.141  28.228  1.00  0.00    -0.460 OA
BRANCH  26  27
ATOM     27  C   UNL A   1      32.978  35.143  28.938  1.00  0.00     0.338 C 
ATOM     28  O   UNL A   1      32.435  36.215  29.124  1.00  0.00    -0.246 OA
BRANCH  27  29
ATOM     29  C   UNL A   1      34.444  34.652  29.388  1.00  0.00     0.060 A 
ATOM     30  C   UNL A   1      36.332  34.543  28.645  1.00  0.00     0.016 A 
ATOM     31  C   UNL A   1      34.132  33.739  30.921  1.00  0.00     0.016 A 
ATOM     32  C   UNL A   1      37.543  33.545  29.431  1.00  0.00     0.010 A 
ATOM     33  C   UNL A   1      35.462  32.833  31.637  1.00  0.00     0.010 A 
ATOM     34  C   UNL A   1      37.087  32.760  30.909  1.00  0.00    -0.014 A 
BRANCH  34  35
ATOM     35  C   UNL A   1      38.208  32.072  31.535  1.00  0.00     0.031 A 
ATOM     36  C   UNL A   1      38.752  30.903  30.817  1.00  0.00     0.074 A 
ATOM     37  C   UNL A   1      38.799  32.662  32.593  1.00  0.00     0.049 A 
ATOM     38  N   UNL A   1      39.806  30.197  31.091  1.00  0.00    -0.248 NA
ATOM     39  C   UNL A   1      38.030  30.475  29.608  1.00  0.00     0.031 C 
ATOM     40  C   UNL A   1      38.343  33.890  33.269  1.00  0.00     0.029 A 
ATOM     41  N   UNL A   1      39.952  32.348  33.256  1.00  0.00    -0.354 N 
ATOM     42  C   UNL A   1      39.865  29.240  30.096  1.00  0.00     0.074 A 
ATOM     43  C   UNL A   1      38.739  29.433  29.221  1.00  0.00     0.031 C 
ATOM     44  C   UNL A   1      39.240  34.251  34.199  1.00  0.00     0.029 A 
ATOM     45  C   UNL A   1      40.263  33.225  34.268  1.00  0.00     0.049 A 
ATOM     46  H   UNL A   1      40.507  31.567  33.029  1.00  0.00     0.167 HD
ATOM     47  C   UNL A   1      40.791  28.274  29.951  1.00  0.00     0.037 A 
ATOM     48  C   UNL A   1      41.247  33.161  35.181  1.00  0.00     0.037 A 
ATOM     49  C   UNL A   1      41.866  28.108  30.882  1.00  0.00     0.049 A 
ATOM     50  C   UNL A   1      42.179  31.988  35.075  1.00  0.00     0.074 A 
ATOM     51  C   UNL A   1      42.840  27.134  30.904  1.00  0.00     0.029 A 
ATOM     52  N   UNL A   1      42.087  28.938  31.977  1.00  0.00    -0.354 N 
ATOM     53  N   UNL A   1      42.213  31.047  34.159  1.00  0.00    -0.248 NA
ATOM     54  C   UNL A   1      43.191  31.850  36.123  1.00  0.00     0.031 C 
ATOM     55  C   UNL A   1      43.596  27.321  32.062  1.00  0.00     0.029 A 
ATOM     56  C   UNL A   1      43.162  28.472  32.708  1.00  0.00     0.049 A 
ATOM     57  H   UNL A   1      41.556  29.737  32.198  1.00  0.00     0.167 HD
ATOM     58  C   UNL A   1      43.263  30.215  34.504  1.00  0.00     0.074 A 
ATOM     59  C   UNL A   1      43.854  30.783  35.704  1.00  0.00     0.031 C 
ATOM     60  C   UNL A   1      43.704  29.086  33.895  1.00  0.00     0.037 A 
BRANCH  47  61
ATOM     61  C   UNL A   1      40.586  27.300  28.836  1.00  0.00     0.064 A 
ATOM     62  C   UNL A   1      41.232  27.429  27.596  1.00  0.00     0.173 A 
ATOM     63  C   UNL A   1      39.678  26.245  28.998  1.00  0.00     0.173 A 
ATOM     64  F   UNL A   1      42.068  28.453  27.371  1.00  0.00    -0.203 F 
ATOM     65  C   UNL A   1      40.958  26.548  26.554  1.00  0.00     0.198 A 
ATOM     66  C   UNL A   1      39.438  25.342  27.969  1.00  0.00     0.198 A 
ATOM     67  F   UNL A   1      39.005  26.102  30.150  1.00  0.00    -0.203 F 
ATOM     68  F   UNL A   1      41.526  26.734  25.355  1.00  0.00    -0.200 F 
ATOM     69  C   UNL A   1      40.071  25.498  26.746  1.00  0.00     0.200 A 
ATOM     70  F   UNL A   1      38.582  24.329  28.157  1.00  0.00    -0.200 F 
ATOM     71  F   UNL A   1      39.813  24.647  25.745  1.00  0.00    -0.200 F 
ENDBRANCH  47  61
BRANCH  48  72
ATOM     72  C   UNL A   1      41.340  34.162  36.278  1.00  0.00     0.064 A 
ATOM     73  C   UNL A   1      40.576  34.045  37.446  1.00  0.00     0.173 A 
ATOM     74  C   UNL A   1      42.187  35.279  36.172  1.00  0.00     0.173 A 
ATOM     75  F   UNL A   1      39.742  33.007  37.600  1.00  0.00    -0.203 F 
ATOM     76  C   UNL A   1      40.635  35.015  38.448  1.00  0.00     0.198 A 
ATOM     77  C   UNL A   1      42.276  36.225  37.191  1.00  0.00     0.198 A 
ATOM     78  F   UNL A   1      42.944  35.448  35.077  1.00  0.00    -0.203 F 
ATOM     79  F   UNL A   1      39.847  34.906  39.527  1.00  0.00    -0.200 F 
ATOM     80  C   UNL A   1      41.488  36.100  38.322  1.00  0.00     0.200 A 
ATOM     81  F   UNL A   1      43.121  37.259  37.070  1.00  0.00    -0.200 F 
ATOM     82  F   UNL A   1      41.543  37.031  39.285  1.00  0.00    -0.200 F 
ENDBRANCH  48  72
BRANCH  60  83
ATOM     83  C   UNL A   1      44.909  28.431  34.493  1.00  0.00     0.064 A 
ATOM     84  C   UNL A   1      46.211  28.806  34.133  1.00  0.00     0.173 A 
ATOM     85  C   UNL A   1      44.749  27.454  35.487  1.00  0.00     0.173 A 
ATOM     86  F   UNL A   1      46.410  29.730  33.181  1.00  0.00    -0.203 F 
ATOM     87  C   UNL A   1      47.312  28.198  34.723  1.00  0.00     0.198 A 
ATOM     88  C   UNL A   1      45.852  26.887  36.112  1.00  0.00     0.198 A 
ATOM     89  F   UNL A   1      43.521  27.074  35.873  1.00  0.00    -0.203 F 
ATOM     90  F   UNL A   1      48.547  28.521  34.319  1.00  0.00    -0.200 F 
ATOM     91  C   UNL A   1      47.131  27.250  35.720  1.00  0.00     0.200 A 
ATOM     92  F   UNL A   1      45.675  25.996  37.097  1.00  0.00    -0.200 F 
ATOM     93  F   UNL A   1      48.195  26.679  36.301  1.00  0.00    -0.200 F 
ENDBRANCH  60  83
ENDBRANCH  34  35
ENDBRANCH  27  29
ENDBRANCH  26  27
ENDBRANCH  25  26
ENDBRANCH  24  25
ENDBRANCH  23  24
ENDBRANCH  22  23
ENDBRANCH   1  22
TORSDOF 22
ENDMDL
MODEL 3
REMARK VINA RESULT:      -9.1      3.907      8.023
REMARK SMILES C#CCN(CC(=O)OCCOCCOCCOC(=O)c1ccc(-c2c3nc(c(-c4c(F)c(F)c(F)c(F)c4F)c4ccc([nH]4)c(-c4c(F)c(F)c(F)c(F)c4F)c4nc(c(-c5c(F)c(F)c(F)c(F)c5F)c5ccc2[nH]5)C=C4)C=C3)cc1)C(=O)c1cccnc1C
REMARK SMILES IDX 12 1 11 2 10 3 9 4 8 5 6 6 7 7 5 8 4 9 3 10 2 11 1 12 83 13
REMARK SMILES IDX 84 14 85 15 86 16 90 17 87 18 89 19 91 20 88 21 13 22 14 23
REMARK SMILES IDX 15 24 16 25 17 26 18 27 19 28 20 29 21 30 82 31 22 32 81 33
REMARK SMILES IDX 23 34 24 35 25 36 75 37 26 38 80 39 74 40 76 41 27 42 79 43
REMARK SMILES IDX 73 44 72 45 28 47 60 48 40 49 59 50 41 51 44 52 58 53 77 54
REMARK SMILES IDX 42 55 43 56 57 58 78 59 45 60 29 61 30 62 38 63 31 64 32 65
REMARK SMILES IDX 36 66 39 67 33 68 34 69 37 70 35 71 61 72 62 73 70 74 63 75
REMARK SMILES IDX 64 76 68 77 71 78 65 79 66 80 69 81 67 82 46 83 47 84 55 85
REMARK SMILES IDX 48 86 49 87 53 88 56 89 50 90 51 91 54 92 52 93
REMARK H PARENT 76 46 44 57
REMARK Flexibility Score: inf
ROOT
ATOM      1  C   UNL A   1      38.054  22.606  25.847  1.00  0.00     0.188 C 
ENDROOT
BRANCH   1   2
ATOM      2  O   UNL A   1      37.939  21.697  24.757  1.00  0.00    -0.376 OA
BRANCH   2   3
ATOM      3  C   UNL A   1      36.647  21.290  24.275  1.00  0.00     0.202 C 
BRANCH   3   4
ATOM      4  C   UNL A   1      35.355  22.163  24.564  1.00  0.00     0.261 C 
BRANCH   4   5
ATOM      5  O   UNL A   1      34.036  21.658  24.101  1.00  0.00    -0.462 OA
BRANCH   5   6
ATOM      6  C   UNL A   1      33.103  22.522  23.552  1.00  0.00     0.325 C 
ATOM      7  O   UNL A   1      33.081  22.777  22.350  1.00  0.00    -0.250 OA
BRANCH   6   8
ATOM      8  C   UNL A   1      31.851  23.014  24.551  1.00  0.00     0.243 C 
BRANCH   8   9
ATOM      9  N   UNL A   1      31.755  24.257  25.488  1.00  0.00    -0.316 N 
BRANCH   9  10
ATOM     10  C   UNL A   1      33.020  24.713  25.828  1.00  0.00     0.210 C 
BRANCH  10  11
ATOM     11  C   UNL A   1      33.484  25.591  24.678  1.00  0.00    -0.085 C 
ATOM     12  C   UNL A   1      33.882  26.344  23.692  1.00  0.00     0.006 C 
ENDBRANCH  10  11
ENDBRANCH   9  10
BRANCH   9  13
ATOM     13  C   UNL A   1      30.812  25.150  26.136  1.00  0.00     0.257 C 
ATOM     14  O   UNL A   1      29.841  24.797  26.812  1.00  0.00    -0.269 OA
BRANCH  13  15
ATOM     15  C   UNL A   1      30.847  26.577  26.043  1.00  0.00     0.061 A 
ATOM     16  C   UNL A   1      31.640  27.670  27.197  1.00  0.00     0.017 A 
ATOM     17  C   UNL A   1      30.191  27.152  24.551  1.00  0.00     0.050 A 
ATOM     18  C   UNL A   1      31.838  29.386  26.666  1.00  0.00     0.021 A 
ATOM     19  N   UNL A   1      30.324  28.698  23.892  1.00  0.00    -0.261 NA
ATOM     20  C   UNL A   1      29.486  26.188  23.757  1.00  0.00     0.067 C 
ATOM     21  C   UNL A   1      31.131  29.857  24.841  1.00  0.00     0.111 A 
ENDBRANCH  13  15
ENDBRANCH   9  13
ENDBRANCH   8   9
ENDBRANCH   6   8
ENDBRANCH   5   6
ENDBRANCH   4   5
ENDBRANCH   3   4
ENDBRANCH   2   3
ENDBRANCH   1   2
BRANCH   1  22
ATOM     22  C   UNL A   1      39.442  22.797  26.549  1.00  0.00     0.188 C 
BRANCH  22  23
ATOM     23  O   UNL A   1      40.441  21.811  26.263  1.00  0.00    -0.376 OA
BRANCH  23  24
ATOM     24  C   UNL A   1      41.806  22.182  26.392  1.00  0.00     0.202 C 
BRANCH  24  25
ATOM     25  C   UNL A   1      42.269  23.467  25.686  1.00  0.00     0.261 C 
BRANCH  25  26
ATOM     26  O   UNL A   1      43.431  23.321  24.844  1.00  0.00    -0.460 OA
BRANCH  26  27
ATOM     27  C   UNL A   1      44.511  24.084  25.147  1.00  0.00     0.338 C 
ATOM     28  O   UNL A   1      45.517  24.100  24.462  1.00  0.00    -0.246 OA
BRANCH  27  29
ATOM     29  C   UNL A   1      44.208  24.854  26.528  1.00  0.00     0.060 A 
ATOM     30  C   UNL A   1      43.590  24.447  28.420  1.00  0.00     0.016 A 
ATOM     31  C   UNL A   1      44.233  26.602  26.052  1.00  0.00     0.016 A 
ATOM     32  C   UNL A   1      43.043  25.737  29.477  1.00  0.00     0.010 A 
ATOM     33  C   UNL A   1      43.721  27.797  27.240  1.00  0.00     0.010 A 
ATOM     34  C   UNL A   1      43.161  27.359  28.875  1.00  0.00    -0.014 A 
BRANCH  34  35
ATOM     35  C   UNL A   1      42.806  28.348  29.884  1.00  0.00     0.031 A 
ATOM     36  C   UNL A   1      41.469  28.964  29.764  1.00  0.00     0.074 A 
ATOM     37  C   UNL A   1      43.613  28.473  30.956  1.00  0.00     0.049 A 
ATOM     38  N   UNL A   1      40.869  29.771  30.585  1.00  0.00    -0.248 NA
ATOM     39  C   UNL A   1      40.683  28.612  28.571  1.00  0.00     0.031 C 
ATOM     40  C   UNL A   1      44.903  27.790  31.157  1.00  0.00     0.029 A 
ATOM     41  N   UNL A   1      43.443  29.173  32.118  1.00  0.00    -0.354 N 
ATOM     42  C   UNL A   1      39.642  30.027  30.001  1.00  0.00     0.074 A 
ATOM     43  C   UNL A   1      39.582  29.315  28.752  1.00  0.00     0.031 C 
ATOM     44  C   UNL A   1      45.366  28.056  32.387  1.00  0.00     0.029 A 
ATOM     45  C   UNL A   1      44.475  29.015  33.012  1.00  0.00     0.049 A 
ATOM     46  H   UNL A   1      42.655  29.735  32.297  1.00  0.00     0.167 HD
ATOM     47  C   UNL A   1      38.662  30.812  30.482  1.00  0.00     0.037 A 
ATOM     48  C   UNL A   1      44.689  29.633  34.187  1.00  0.00     0.037 A 
ATOM     49  C   UNL A   1      38.799  31.531  31.714  1.00  0.00     0.049 A 
ATOM     50  C   UNL A   1      43.638  30.613  34.625  1.00  0.00     0.074 A 
ATOM     51  C   UNL A   1      37.920  32.418  32.294  1.00  0.00     0.029 A 
ATOM     52  N   UNL A   1      39.915  31.453  32.543  1.00  0.00    -0.354 N 
ATOM     53  N   UNL A   1      42.491  30.898  34.052  1.00  0.00    -0.248 NA
ATOM     54  C   UNL A   1      43.907  31.367  35.850  1.00  0.00     0.031 C 
ATOM     55  C   UNL A   1      38.540  32.945  33.428  1.00  0.00     0.029 A 
ATOM     56  C   UNL A   1      39.763  32.311  33.613  1.00  0.00     0.049 A 
ATOM     57  H   UNL A   1      40.696  30.873  32.388  1.00  0.00     0.167 HD
ATOM     58  C   UNL A   1      41.888  31.848  34.856  1.00  0.00     0.074 A 
ATOM     59  C   UNL A   1      42.792  32.070  35.971  1.00  0.00     0.031 C 
ATOM     60  C   UNL A   1      40.700  32.484  34.695  1.00  0.00     0.037 A 
BRANCH  47  61
ATOM     61  C   UNL A   1      37.457  31.001  29.618  1.00  0.00     0.064 A 
ATOM     62  C   UNL A   1      36.516  29.982  29.407  1.00  0.00     0.173 A 
ATOM     63  C   UNL A   1      37.275  32.216  28.942  1.00  0.00     0.173 A 
ATOM     64  F   UNL A   1      36.675  28.782  29.985  1.00  0.00    -0.203 F 
ATOM     65  C   UNL A   1      35.448  30.166  28.532  1.00  0.00     0.198 A 
ATOM     66  C   UNL A   1      36.184  32.411  28.103  1.00  0.00     0.198 A 
ATOM     67  F   UNL A   1      38.168  33.207  29.080  1.00  0.00    -0.203 F 
ATOM     68  F   UNL A   1      34.604  29.155  28.285  1.00  0.00    -0.200 F 
ATOM     69  C   UNL A   1      35.276  31.385  27.892  1.00  0.00     0.200 A 
ATOM     70  F   UNL A   1      36.020  33.589  27.486  1.00  0.00    -0.200 F 
ATOM     71  F   UNL A   1      34.245  31.564  27.057  1.00  0.00    -0.200 F 
ENDBRANCH  47  61
BRANCH  48  72
ATOM     72  C   UNL A   1      45.943  29.405  34.954  1.00  0.00     0.064 A 
ATOM     73  C   UNL A   1      46.052  28.374  35.896  1.00  0.00     0.173 A 
ATOM     74  C   UNL A   1      47.065  30.232  34.772  1.00  0.00     0.173 A 
ATOM     75  F   UNL A   1      45.011  27.559  36.119  1.00  0.00    -0.203 F 
ATOM     76  C   UNL A   1      47.217  28.198  36.644  1.00  0.00     0.198 A 
ATOM     77  C   UNL A   1      48.243  30.030  35.490  1.00  0.00     0.198 A 
ATOM     78  F   UNL A   1      47.025  31.237  33.884  1.00  0.00    -0.203 F 
ATOM     79  F   UNL A   1      47.269  27.241  37.581  1.00  0.00    -0.200 F 
ATOM     80  C   UNL A   1      48.312  29.022  36.436  1.00  0.00     0.200 A 
ATOM     81  F   UNL A   1      49.304  30.817  35.266  1.00  0.00    -0.200 F 
ATOM     82  F   UNL A   1      49.431  28.853  37.155  1.00  0.00    -0.200 F 
ENDBRANCH  48  72
BRANCH  60  83
ATOM     83  C   UNL A   1      40.300  33.436  35.779  1.00  0.00     0.064 A 
ATOM     84  C   UNL A   1      40.712  34.775  35.778  1.00  0.00     0.173 A 
ATOM     85  C   UNL A   1      39.438  33.005  36.798  1.00  0.00     0.173 A 
ATOM     86  F   UNL A   1      41.543  35.226  34.826  1.00  0.00    -0.203 F 
ATOM     87  C   UNL A   1      40.304  35.642  36.784  1.00  0.00     0.198 A 
ATOM     88  C   UNL A   1      38.989  33.889  37.771  1.00  0.00     0.198 A 
ATOM     89  F   UNL A   1      39.005  31.735  36.831  1.00  0.00    -0.203 F 
ATOM     90  F   UNL A   1      40.761  36.901  36.804  1.00  0.00    -0.200 F 
ATOM     91  C   UNL A   1      39.433  35.202  37.770  1.00  0.00     0.200 A 
ATOM     92  F   UNL A   1      38.123  33.470  38.704  1.00  0.00    -0.200 F 
ATOM     93  F   UNL A   1      39.026  36.045  38.728  1.00  0.00    -0.200 F 
ENDBRANCH  60  83
ENDBRANCH  34  35
ENDBRANCH  27  29
ENDBRANCH  26  27
ENDBRANCH  25  26
ENDBRANCH  24  25
ENDBRANCH  23  24
ENDBRANCH  22  23
ENDBRANCH   1  22
TORSDOF 22
ENDMDL
