MODEL 1
REMARK VINA RESULT:     -10.9      0.000      0.000
REMARK SMILES O=C(OCCOCCOCCOC(=O)[C@@H]1C=C[C@H](Nc2cc(F)c(Cl)cc2[N+](=O)[O-])C1)c1ccc(-c2c3nc(c(-c4c(F)c(F)c(F)c(F)c4F)c4ccc([nH]4)c(-c4c(F)c(F)c(F)c(F)c4F)c4nc(c(-c5c(F)c(F)c(F)c(F)c5F)c5ccc2[nH]5)C=C4)C=C3)cc1
REMARK SMILES IDX 8 1 7 2 6 3 5 4 4 5 3 6 2 7 1 8 32 9 33 10 94 11 34 12 93 13
REMARK SMILES IDX 35 14 36 15 37 16 87 17 38 18 92 19 86 20 88 21 39 22 91 23
REMARK SMILES IDX 85 24 84 25 40 27 72 28 52 29 71 30 53 31 56 32 70 33 89 34
REMARK SMILES IDX 54 35 55 36 69 38 90 39 57 40 41 41 42 42 50 43 43 44 44 45
REMARK SMILES IDX 48 46 51 47 45 48 46 49 49 50 47 51 73 52 74 53 82 54 75 55
REMARK SMILES IDX 76 56 80 57 83 58 77 59 78 60 81 61 79 62 58 63 59 64 67 65
REMARK SMILES IDX 60 66 61 67 65 68 68 69 62 70 63 71 66 72 64 73 9 74 10 75
REMARK SMILES IDX 11 76 12 77 13 78 14 79 15 80 16 81 31 82 17 83 18 84 19 85
REMARK SMILES IDX 20 87 21 88 27 89 22 90 26 91 23 92 24 93 25 94 28 95 29 96
REMARK SMILES IDX 30 97
REMARK H PARENT 88 26 56 37 19 86
REMARK Flexibility Score: inf
ROOT
ATOM      1  C   UNL A   1      34.637  24.630  25.848  1.00  0.00     0.188 C 
ENDROOT
BRANCH   1   2
ATOM      2  C   UNL A   1      35.157  23.558  24.890  1.00  0.00     0.188 C 
BRANCH   2   3
ATOM      3  O   UNL A   1      35.320  22.275  25.508  1.00  0.00    -0.376 OA
BRANCH   3   4
ATOM      4  C   UNL A   1      35.908  21.298  24.639  1.00  0.00     0.202 C 
BRANCH   4   5
ATOM      5  C   UNL A   1      37.445  21.323  24.557  1.00  0.00     0.261 C 
BRANCH   5   6
ATOM      6  O   UNL A   1      38.096  21.017  25.803  1.00  0.00    -0.460 OA
BRANCH   6   7
ATOM      7  C   UNL A   1      39.359  21.313  26.197  1.00  0.00     0.338 C 
ATOM      8  O   UNL A   1      40.214  20.432  26.130  1.00  0.00    -0.246 OA
BRANCH   7   9
ATOM      9  C   UNL A   1      39.783  22.647  26.727  1.00  0.00     0.060 A 
ATOM     10  C   UNL A   1      39.225  23.873  26.365  1.00  0.00     0.016 A 
ATOM     11  C   UNL A   1      40.790  22.658  27.711  1.00  0.00     0.016 A 
ATOM     12  C   UNL A   1      39.694  25.070  26.878  1.00  0.00     0.010 A 
ATOM     13  C   UNL A   1      41.247  23.858  28.267  1.00  0.00     0.010 A 
ATOM     14  C   UNL A   1      40.719  25.071  27.817  1.00  0.00    -0.014 A 
BRANCH  14  15
ATOM     15  C   UNL A   1      41.309  26.374  28.164  1.00  0.00     0.031 A 
ATOM     16  C   UNL A   1      42.699  26.658  27.686  1.00  0.00     0.074 A 
ATOM     17  C   UNL A   1      40.540  27.322  28.726  1.00  0.00     0.049 A 
ATOM     18  N   UNL A   1      43.426  27.731  27.842  1.00  0.00    -0.248 NA
ATOM     19  C   UNL A   1      43.353  25.594  26.904  1.00  0.00     0.031 C 
ATOM     20  C   UNL A   1      39.132  27.154  29.087  1.00  0.00     0.029 A 
ATOM     21  N   UNL A   1      40.817  28.621  29.054  1.00  0.00    -0.354 N 
ATOM     22  C   UNL A   1      44.627  27.461  27.202  1.00  0.00     0.074 A 
ATOM     23  C   UNL A   1      44.540  26.125  26.661  1.00  0.00     0.031 C 
ATOM     24  C   UNL A   1      38.660  28.315  29.568  1.00  0.00     0.029 A 
ATOM     25  C   UNL A   1      39.752  29.282  29.615  1.00  0.00     0.049 A 
ATOM     26  H   UNL A   1      41.694  29.041  28.902  1.00  0.00     0.167 HD
ATOM     27  C   UNL A   1      45.707  28.267  27.089  1.00  0.00     0.037 A 
ATOM     28  C   UNL A   1      39.693  30.520  30.140  1.00  0.00     0.037 A 
ATOM     29  C   UNL A   1      45.757  29.589  27.649  1.00  0.00     0.049 A 
ATOM     30  C   UNL A   1      40.948  31.353  30.103  1.00  0.00     0.074 A 
ATOM     31  C   UNL A   1      46.809  30.484  27.669  1.00  0.00     0.029 A 
ATOM     32  N   UNL A   1      44.691  30.202  28.298  1.00  0.00    -0.354 N 
ATOM     33  N   UNL A   1      42.109  31.075  29.558  1.00  0.00    -0.248 NA
ATOM     34  C   UNL A   1      40.893  32.662  30.764  1.00  0.00     0.031 C 
ATOM     35  C   UNL A   1      46.398  31.616  28.379  1.00  0.00     0.029 A 
ATOM     36  C   UNL A   1      45.068  31.456  28.745  1.00  0.00     0.049 A 
ATOM     37  H   UNL A   1      43.800  29.802  28.421  1.00  0.00     0.167 HD
ATOM     38  C   UNL A   1      42.918  32.178  29.789  1.00  0.00     0.074 A 
ATOM     39  C   UNL A   1      42.103  33.139  30.508  1.00  0.00     0.031 C 
ATOM     40  C   UNL A   1      44.214  32.384  29.447  1.00  0.00     0.037 A 
BRANCH  27  41
ATOM     41  C   UNL A   1      46.920  27.696  26.416  1.00  0.00     0.064 A 
ATOM     42  C   UNL A   1      47.077  27.704  25.022  1.00  0.00     0.173 A 
ATOM     43  C   UNL A   1      47.928  27.091  27.183  1.00  0.00     0.173 A 
ATOM     44  F   UNL A   1      46.128  28.241  24.238  1.00  0.00    -0.203 F 
ATOM     45  C   UNL A   1      48.179  27.099  24.420  1.00  0.00     0.198 A 
ATOM     46  C   UNL A   1      49.041  26.513  26.581  1.00  0.00     0.198 A 
ATOM     47  F   UNL A   1      47.824  27.046  28.520  1.00  0.00    -0.203 F 
ATOM     48  F   UNL A   1      48.272  27.059  23.083  1.00  0.00    -0.200 F 
ATOM     49  C   UNL A   1      49.162  26.508  25.200  1.00  0.00     0.200 A 
ATOM     50  F   UNL A   1      49.991  25.945  27.337  1.00  0.00    -0.200 F 
ATOM     51  F   UNL A   1      50.215  25.917  24.620  1.00  0.00    -0.200 F 
ENDBRANCH  27  41
BRANCH  28  52
ATOM     52  C   UNL A   1      38.444  31.011  30.785  1.00  0.00     0.064 A 
ATOM     53  C   UNL A   1      37.392  31.548  30.033  1.00  0.00     0.173 A 
ATOM     54  C   UNL A   1      38.286  30.972  32.181  1.00  0.00     0.173 A 
ATOM     55  F   UNL A   1      37.494  31.626  28.698  1.00  0.00    -0.203 F 
ATOM     56  C   UNL A   1      36.242  32.046  30.649  1.00  0.00     0.198 A 
ATOM     57  C   UNL A   1      37.123  31.437  32.793  1.00  0.00     0.198 A 
ATOM     58  F   UNL A   1      39.258  30.467  32.954  1.00  0.00    -0.203 F 
ATOM     59  F   UNL A   1      35.275  32.600  29.906  1.00  0.00    -0.200 F 
ATOM     60  C   UNL A   1      36.107  31.985  32.027  1.00  0.00     0.200 A 
ATOM     61  F   UNL A   1      36.992  31.356  34.123  1.00  0.00    -0.200 F 
ATOM     62  F   UNL A   1      35.003  32.460  32.618  1.00  0.00    -0.200 F 
ENDBRANCH  28  52
BRANCH  40  63
ATOM     63  C   UNL A   1      44.808  33.712  29.809  1.00  0.00     0.064 A 
ATOM     64  C   UNL A   1      44.706  34.821  28.959  1.00  0.00     0.173 A 
ATOM     65  C   UNL A   1      45.437  33.884  31.051  1.00  0.00     0.173 A 
ATOM     66  F   UNL A   1      44.127  34.700  27.755  1.00  0.00    -0.203 F 
ATOM     67  C   UNL A   1      45.237  36.053  29.330  1.00  0.00     0.198 A 
ATOM     68  C   UNL A   1      45.935  35.126  31.433  1.00  0.00     0.198 A 
ATOM     69  F   UNL A   1      45.551  32.853  31.903  1.00  0.00    -0.203 F 
ATOM     70  F   UNL A   1      45.174  37.089  28.482  1.00  0.00    -0.200 F 
ATOM     71  C   UNL A   1      45.841  36.206  30.569  1.00  0.00     0.200 A 
ATOM     72  F   UNL A   1      46.501  35.276  32.638  1.00  0.00    -0.200 F 
ATOM     73  F   UNL A   1      46.338  37.396  30.931  1.00  0.00    -0.200 F 
ENDBRANCH  40  63
ENDBRANCH  14  15
ENDBRANCH   7   9
ENDBRANCH   6   7
ENDBRANCH   5   6
ENDBRANCH   4   5
ENDBRANCH   3   4
ENDBRANCH   2   3
ENDBRANCH   1   2
BRANCH   1  74
ATOM     74  O   UNL A   1      33.990  25.751  25.255  1.00  0.00    -0.376 OA
BRANCH  74  75
ATOM     75  C   UNL A   1      33.840  26.916  26.053  1.00  0.00     0.202 C 
BRANCH  75  76
ATOM     76  C   UNL A   1      32.639  27.829  25.774  1.00  0.00     0.261 C 
BRANCH  76  77
ATOM     77  O   UNL A   1      32.188  27.870  24.407  1.00  0.00    -0.463 OA
BRANCH  77  78
ATOM     78  C   UNL A   1      31.158  28.732  24.154  1.00  0.00     0.312 C 
ATOM     79  O   UNL A   1      30.977  29.801  24.728  1.00  0.00    -0.252 OA
BRANCH  78  80
ATOM     80  C   UNL A   1      30.213  28.165  23.098  1.00  0.00     0.124 C 
ATOM     81  C   UNL A   1      28.885  27.724  23.635  1.00  0.00    -0.014 C 
ATOM     82  C   UNL A   1      30.764  26.857  22.490  1.00  0.00     0.048 C 
ATOM     83  C   UNL A   1      28.777  26.390  23.664  1.00  0.00    -0.006 C 
ATOM     84  C   UNL A   1      30.023  25.708  23.192  1.00  0.00     0.103 C 
BRANCH  84  85
ATOM     85  N   UNL A   1      30.744  25.230  24.361  1.00  0.00    -0.373 N 
ATOM     86  H   UNL A   1      30.869  25.830  25.131  1.00  0.00     0.161 HD
BRANCH  85  87
ATOM     87  C   UNL A   1      31.264  23.935  24.411  1.00  0.00     0.117 A 
ATOM     88  C   UNL A   1      31.694  23.310  23.230  1.00  0.00     0.073 A 
ATOM     89  C   UNL A   1      31.290  23.154  25.591  1.00  0.00     0.294 A 
ATOM     90  C   UNL A   1      32.123  21.982  23.224  1.00  0.00     0.144 A 
ATOM     91  C   UNL A   1      31.711  21.810  25.585  1.00  0.00     0.111 A 
ATOM     92  F   UNL A   1      32.525  21.442  22.064  1.00  0.00    -0.205 F 
ATOM     93  C   UNL A   1      32.123  21.229  24.393  1.00  0.00     0.083 A 
ATOM     94  Cl  UNL A   1      32.620  19.581  24.379  1.00  0.00    -0.081 Cl
BRANCH  89  95
ATOM     95  N   UNL A   1      30.833  23.701  26.869  1.00  0.00     0.065 N 
ATOM     96  O   UNL A   1      29.924  23.092  27.452  1.00  0.00    -0.258 OA
ATOM     97  O   UNL A   1      31.383  24.724  27.296  1.00  0.00    -0.258 OA
ENDBRANCH  89  95
ENDBRANCH  85  87
ENDBRANCH  84  85
ENDBRANCH  78  80
ENDBRANCH  77  78
ENDBRANCH  76  77
ENDBRANCH  75  76
ENDBRANCH  74  75
ENDBRANCH   1  74
TORSDOF 20
ENDMDL
MODEL 2
REMARK VINA RESULT:     -10.7      3.897      9.101
REMARK SMILES O=C(OCCOCCOCCOC(=O)[C@@H]1C=C[C@H](Nc2cc(F)c(Cl)cc2[N+](=O)[O-])C1)c1ccc(-c2c3nc(c(-c4c(F)c(F)c(F)c(F)c4F)c4ccc([nH]4)c(-c4c(F)c(F)c(F)c(F)c4F)c4nc(c(-c5c(F)c(F)c(F)c(F)c5F)c5ccc2[nH]5)C=C4)C=C3)cc1
REMARK SMILES IDX 8 1 7 2 6 3 5 4 4 5 3 6 2 7 1 8 32 9 33 10 94 11 34 12 93 13
REMARK SMILES IDX 35 14 36 15 37 16 87 17 38 18 92 19 86 20 88 21 39 22 91 23
REMARK SMILES IDX 85 24 84 25 40 27 72 28 52 29 71 30 53 31 56 32 70 33 89 34
REMARK SMILES IDX 54 35 55 36 69 38 90 39 57 40 41 41 42 42 50 43 43 44 44 45
REMARK SMILES IDX 48 46 51 47 45 48 46 49 49 50 47 51 73 52 74 53 82 54 75 55
REMARK SMILES IDX 76 56 80 57 83 58 77 59 78 60 81 61 79 62 58 63 59 64 67 65
REMARK SMILES IDX 60 66 61 67 65 68 68 69 62 70 63 71 66 72 64 73 9 74 10 75
REMARK SMILES IDX 11 76 12 77 13 78 14 79 15 80 16 81 31 82 17 83 18 84 19 85
REMARK SMILES IDX 20 87 21 88 27 89 22 90 26 91 23 92 24 93 25 94 28 95 29 96
REMARK SMILES IDX 30 97
REMARK H PARENT 88 26 56 37 19 86
REMARK Flexibility Score: inf
ROOT
ATOM      1  C   UNL A   1      33.614  27.451  23.684  1.00  0.00     0.188 C 
ENDROOT
BRANCH   1   2
ATOM      2  C   UNL A   1      33.831  28.443  24.827  1.00  0.00     0.188 C 
BRANCH   2   3
ATOM      3  O   UNL A   1      32.876  29.512  24.839  1.00  0.00    -0.376 OA
BRANCH   3   4
ATOM      4  C   UNL A   1      31.899  29.389  25.881  1.00  0.00     0.202 C 
BRANCH   4   5
ATOM      5  C   UNL A   1      31.772  30.603  26.819  1.00  0.00     0.261 C 
BRANCH   5   6
ATOM      6  O   UNL A   1      32.774  31.611  26.598  1.00  0.00    -0.460 OA
BRANCH   6   7
ATOM      7  C   UNL A   1      33.569  32.231  27.504  1.00  0.00     0.338 C 
ATOM      8  O   UNL A   1      33.223  33.333  27.928  1.00  0.00    -0.246 OA
BRANCH   7   9
ATOM      9  C   UNL A   1      34.859  31.669  28.015  1.00  0.00     0.060 A 
ATOM     10  C   UNL A   1      35.077  30.335  28.357  1.00  0.00     0.016 A 
ATOM     11  C   UNL A   1      35.954  32.549  28.103  1.00  0.00     0.016 A 
ATOM     12  C   UNL A   1      36.293  29.896  28.853  1.00  0.00     0.010 A 
ATOM     13  C   UNL A   1      37.200  32.111  28.566  1.00  0.00     0.010 A 
ATOM     14  C   UNL A   1      37.355  30.784  28.977  1.00  0.00    -0.014 A 
BRANCH  14  15
ATOM     15  C   UNL A   1      38.545  30.309  29.701  1.00  0.00     0.031 A 
ATOM     16  C   UNL A   1      38.707  30.729  31.128  1.00  0.00     0.074 A 
ATOM     17  C   UNL A   1      39.339  29.384  29.134  1.00  0.00     0.049 A 
ATOM     18  N   UNL A   1      39.651  30.428  31.978  1.00  0.00    -0.248 NA
ATOM     19  C   UNL A   1      37.647  31.589  31.682  1.00  0.00     0.031 C 
ATOM     20  C   UNL A   1      39.153  28.825  27.794  1.00  0.00     0.029 A 
ATOM     21  N   UNL A   1      40.433  28.723  29.623  1.00  0.00    -0.354 N 
ATOM     22  C   UNL A   1      39.311  31.081  33.155  1.00  0.00     0.074 A 
ATOM     23  C   UNL A   1      38.082  31.799  32.913  1.00  0.00     0.031 C 
ATOM     24  C   UNL A   1      40.089  27.888  27.575  1.00  0.00     0.029 A 
ATOM     25  C   UNL A   1      40.979  27.835  28.729  1.00  0.00     0.049 A 
ATOM     26  H   UNL A   1      40.792  28.869  30.528  1.00  0.00     0.167 HD
ATOM     27  C   UNL A   1      39.982  31.078  34.329  1.00  0.00     0.037 A 
ATOM     28  C   UNL A   1      42.100  27.097  28.832  1.00  0.00     0.037 A 
ATOM     29  C   UNL A   1      41.208  30.355  34.527  1.00  0.00     0.049 A 
ATOM     30  C   UNL A   1      42.890  27.204  30.111  1.00  0.00     0.074 A 
ATOM     31  C   UNL A   1      42.025  30.322  35.640  1.00  0.00     0.029 A 
ATOM     32  N   UNL A   1      41.792  29.535  33.569  1.00  0.00    -0.354 N 
ATOM     33  N   UNL A   1      42.608  27.876  31.203  1.00  0.00    -0.248 NA
ATOM     34  C   UNL A   1      44.158  26.467  30.169  1.00  0.00     0.031 C 
ATOM     35  C   UNL A   1      43.134  29.525  35.335  1.00  0.00     0.029 A 
ATOM     36  C   UNL A   1      42.975  29.008  34.056  1.00  0.00     0.049 A 
ATOM     37  H   UNL A   1      41.420  29.355  32.676  1.00  0.00     0.167 HD
ATOM     38  C   UNL A   1      43.648  27.628  32.087  1.00  0.00     0.074 A 
ATOM     39  C   UNL A   1      44.558  26.725  31.406  1.00  0.00     0.031 C 
ATOM     40  C   UNL A   1      43.843  28.101  33.343  1.00  0.00     0.037 A 
BRANCH  27  41
ATOM     41  C   UNL A   1      39.442  31.945  35.428  1.00  0.00     0.064 A 
ATOM     42  C   UNL A   1      39.840  33.280  35.593  1.00  0.00     0.173 A 
ATOM     43  C   UNL A   1      38.536  31.413  36.359  1.00  0.00     0.173 A 
ATOM     44  F   UNL A   1      40.729  33.829  34.750  1.00  0.00    -0.203 F 
ATOM     45  C   UNL A   1      39.379  34.038  36.668  1.00  0.00     0.198 A 
ATOM     46  C   UNL A   1      38.056  32.182  37.415  1.00  0.00     0.198 A 
ATOM     47  F   UNL A   1      38.130  30.139  36.254  1.00  0.00    -0.203 F 
ATOM     48  F   UNL A   1      39.827  35.290  36.844  1.00  0.00    -0.200 F 
ATOM     49  C   UNL A   1      38.485  33.491  37.575  1.00  0.00     0.200 A 
ATOM     50  F   UNL A   1      37.189  31.651  38.288  1.00  0.00    -0.200 F 
ATOM     51  F   UNL A   1      38.050  34.217  38.614  1.00  0.00    -0.200 F 
ENDBRANCH  27  41
BRANCH  28  52
ATOM     52  C   UNL A   1      42.563  26.258  27.693  1.00  0.00     0.064 A 
ATOM     53  C   UNL A   1      42.085  24.955  27.499  1.00  0.00     0.173 A 
ATOM     54  C   UNL A   1      43.516  26.738  26.779  1.00  0.00     0.173 A 
ATOM     55  F   UNL A   1      41.187  24.438  28.350  1.00  0.00    -0.203 F 
ATOM     56  C   UNL A   1      42.556  24.159  26.453  1.00  0.00     0.198 A 
ATOM     57  C   UNL A   1      43.960  25.956  25.714  1.00  0.00     0.198 A 
ATOM     58  F   UNL A   1      44.009  27.978  26.910  1.00  0.00    -0.203 F 
ATOM     59  F   UNL A   1      42.117  22.900  26.325  1.00  0.00    -0.200 F 
ATOM     60  C   UNL A   1      43.488  24.663  25.560  1.00  0.00     0.200 A 
ATOM     61  F   UNL A   1      44.845  26.457  24.843  1.00  0.00    -0.200 F 
ATOM     62  F   UNL A   1      43.938  23.899  24.554  1.00  0.00    -0.200 F 
ENDBRANCH  28  52
BRANCH  40  63
ATOM     63  C   UNL A   1      45.061  27.615  34.069  1.00  0.00     0.064 A 
ATOM     64  C   UNL A   1      46.275  28.313  34.022  1.00  0.00     0.173 A 
ATOM     65  C   UNL A   1      44.988  26.464  34.869  1.00  0.00     0.173 A 
ATOM     66  F   UNL A   1      46.395  29.410  33.258  1.00  0.00    -0.203 F 
ATOM     67  C   UNL A   1      47.384  27.860  34.731  1.00  0.00     0.198 A 
ATOM     68  C   UNL A   1      46.088  26.036  35.604  1.00  0.00     0.198 A 
ATOM     69  F   UNL A   1      43.844  25.768  34.953  1.00  0.00    -0.203 F 
ATOM     70  F   UNL A   1      48.550  28.513  34.632  1.00  0.00    -0.200 F 
ATOM     71  C   UNL A   1      47.287  26.729  35.528  1.00  0.00     0.200 A 
ATOM     72  F   UNL A   1      45.987  24.954  36.388  1.00  0.00    -0.200 F 
ATOM     73  F   UNL A   1      48.351  26.304  36.221  1.00  0.00    -0.200 F 
ENDBRANCH  40  63
ENDBRANCH  14  15
ENDBRANCH   7   9
ENDBRANCH   6   7
ENDBRANCH   5   6
ENDBRANCH   4   5
ENDBRANCH   3   4
ENDBRANCH   2   3
ENDBRANCH   1   2
BRANCH   1  74
ATOM     74  O   UNL A   1      32.762  27.878  22.627  1.00  0.00    -0.376 OA
BRANCH  74  75
ATOM     75  C   UNL A   1      31.677  27.030  22.280  1.00  0.00     0.202 C 
BRANCH  75  76
ATOM     76  C   UNL A   1      30.299  27.342  22.881  1.00  0.00     0.261 C 
BRANCH  76  77
ATOM     77  O   UNL A   1      30.077  26.859  24.218  1.00  0.00    -0.463 OA
BRANCH  77  78
ATOM     78  C   UNL A   1      30.282  25.520  24.401  1.00  0.00     0.312 C 
ATOM     79  O   UNL A   1      30.209  24.670  23.520  1.00  0.00    -0.252 OA
BRANCH  78  80
ATOM     80  C   UNL A   1      30.555  25.202  25.869  1.00  0.00     0.124 C 
ATOM     81  C   UNL A   1      31.938  25.559  26.327  1.00  0.00    -0.014 C 
ATOM     82  C   UNL A   1      30.512  23.681  26.136  1.00  0.00     0.048 C 
ATOM     83  C   UNL A   1      32.697  24.473  26.515  1.00  0.00    -0.006 C 
ATOM     84  C   UNL A   1      31.974  23.207  26.176  1.00  0.00     0.103 C 
BRANCH  84  85
ATOM     85  N   UNL A   1      32.436  22.760  24.871  1.00  0.00    -0.373 N 
ATOM     86  H   UNL A   1      32.324  23.348  24.091  1.00  0.00     0.161 HD
BRANCH  85  87
ATOM     87  C   UNL A   1      33.034  21.510  24.706  1.00  0.00     0.117 A 
ATOM     88  C   UNL A   1      32.233  20.368  24.551  1.00  0.00     0.073 A 
ATOM     89  C   UNL A   1      34.432  21.301  24.789  1.00  0.00     0.294 A 
ATOM     90  C   UNL A   1      32.792  19.090  24.486  1.00  0.00     0.144 A 
ATOM     91  C   UNL A   1      34.997  20.012  24.737  1.00  0.00     0.111 A 
ATOM     92  F   UNL A   1      31.974  18.038  24.334  1.00  0.00    -0.205 F 
ATOM     93  C   UNL A   1      34.167  18.908  24.588  1.00  0.00     0.083 A 
ATOM     94  Cl  UNL A   1      34.853  17.331  24.542  1.00  0.00    -0.081 Cl
BRANCH  89  95
ATOM     95  N   UNL A   1      35.353  22.422  24.983  1.00  0.00     0.065 N 
ATOM     96  O   UNL A   1      35.492  23.210  24.036  1.00  0.00    -0.258 OA
ATOM     97  O   UNL A   1      35.926  22.523  26.075  1.00  0.00    -0.258 OA
ENDBRANCH  89  95
ENDBRANCH  85  87
ENDBRANCH  84  85
ENDBRANCH  78  80
ENDBRANCH  77  78
ENDBRANCH  76  77
ENDBRANCH  75  76
ENDBRANCH  74  75
ENDBRANCH   1  74
TORSDOF 20
ENDMDL
MODEL 3
REMARK VINA RESULT:     -10.6      4.333      6.917
REMARK SMILES O=C(OCCOCCOCCOC(=O)[C@@H]1C=C[C@H](Nc2cc(F)c(Cl)cc2[N+](=O)[O-])C1)c1ccc(-c2c3nc(c(-c4c(F)c(F)c(F)c(F)c4F)c4ccc([nH]4)c(-c4c(F)c(F)c(F)c(F)c4F)c4nc(c(-c5c(F)c(F)c(F)c(F)c5F)c5ccc2[nH]5)C=C4)C=C3)cc1
REMARK SMILES IDX 8 1 7 2 6 3 5 4 4 5 3 6 2 7 1 8 32 9 33 10 94 11 34 12 93 13
REMARK SMILES IDX 35 14 36 15 37 16 87 17 38 18 92 19 86 20 88 21 39 22 91 23
REMARK SMILES IDX 85 24 84 25 40 27 72 28 52 29 71 30 53 31 56 32 70 33 89 34
REMARK SMILES IDX 54 35 55 36 69 38 90 39 57 40 41 41 42 42 50 43 43 44 44 45
REMARK SMILES IDX 48 46 51 47 45 48 46 49 49 50 47 51 73 52 74 53 82 54 75 55
REMARK SMILES IDX 76 56 80 57 83 58 77 59 78 60 81 61 79 62 58 63 59 64 67 65
REMARK SMILES IDX 60 66 61 67 65 68 68 69 62 70 63 71 66 72 64 73 9 74 10 75
REMARK SMILES IDX 11 76 12 77 13 78 14 79 15 80 16 81 31 82 17 83 18 84 19 85
REMARK SMILES IDX 20 87 21 88 27 89 22 90 26 91 23 92 24 93 25 94 28 95 29 96
REMARK SMILES IDX 30 97
REMARK H PARENT 88 26 56 37 19 86
REMARK Flexibility Score: inf
ROOT
ATOM      1  C   UNL A   1      40.167  21.828  26.825  1.00  0.00     0.188 C 
ENDROOT
BRANCH   1   2
ATOM      2  C   UNL A   1      41.180  21.114  27.720  1.00  0.00     0.188 C 
BRANCH   2   3
ATOM      3  O   UNL A   1      42.506  21.102  27.178  1.00  0.00    -0.376 OA
BRANCH   3   4
ATOM      4  C   UNL A   1      42.537  21.225  25.750  1.00  0.00     0.202 C 
BRANCH   4   5
ATOM      5  C   UNL A   1      43.719  22.031  25.179  1.00  0.00     0.261 C 
BRANCH   5   6
ATOM      6  O   UNL A   1      43.350  23.337  24.702  1.00  0.00    -0.460 OA
BRANCH   6   7
ATOM      7  C   UNL A   1      43.833  24.546  25.080  1.00  0.00     0.338 C 
ATOM      8  O   UNL A   1      44.872  24.950  24.559  1.00  0.00    -0.246 OA
BRANCH   7   9
ATOM      9  C   UNL A   1      43.191  25.424  26.109  1.00  0.00     0.060 A 
ATOM     10  C   UNL A   1      43.475  26.774  26.307  1.00  0.00     0.016 A 
ATOM     11  C   UNL A   1      42.179  24.850  26.902  1.00  0.00     0.016 A 
ATOM     12  C   UNL A   1      42.859  27.513  27.303  1.00  0.00     0.010 A 
ATOM     13  C   UNL A   1      41.520  25.595  27.886  1.00  0.00     0.010 A 
ATOM     14  C   UNL A   1      41.892  26.923  28.109  1.00  0.00    -0.014 A 
BRANCH  14  15
ATOM     15  C   UNL A   1      41.431  27.695  29.275  1.00  0.00     0.031 A 
ATOM     16  C   UNL A   1      42.268  27.653  30.514  1.00  0.00     0.074 A 
ATOM     17  C   UNL A   1      40.396  28.542  29.141  1.00  0.00     0.049 A 
ATOM     18  N   UNL A   1      42.088  28.257  31.657  1.00  0.00    -0.248 NA
ATOM     19  C   UNL A   1      43.491  26.834  30.451  1.00  0.00     0.031 C 
ATOM     20  C   UNL A   1      39.624  28.736  27.913  1.00  0.00     0.029 A 
ATOM     21  N   UNL A   1      39.841  29.424  30.028  1.00  0.00    -0.354 N 
ATOM     22  C   UNL A   1      43.158  27.872  32.453  1.00  0.00     0.074 A 
ATOM     23  C   UNL A   1      43.980  26.978  31.671  1.00  0.00     0.031 C 
ATOM     24  C   UNL A   1      38.707  29.695  28.117  1.00  0.00     0.029 A 
ATOM     25  C   UNL A   1      38.782  30.128  29.508  1.00  0.00     0.049 A 
ATOM     26  H   UNL A   1      40.169  29.543  30.948  1.00  0.00     0.167 HD
ATOM     27  C   UNL A   1      43.416  28.235  33.730  1.00  0.00     0.037 A 
ATOM     28  C   UNL A   1      37.951  30.995  30.115  1.00  0.00     0.037 A 
ATOM     29  C   UNL A   1      42.568  29.123  34.476  1.00  0.00     0.049 A 
ATOM     30  C   UNL A   1      38.194  31.292  31.572  1.00  0.00     0.074 A 
ATOM     31  C   UNL A   1      42.673  29.518  35.795  1.00  0.00     0.029 A 
ATOM     32  N   UNL A   1      41.443  29.751  33.953  1.00  0.00    -0.354 N 
ATOM     33  N   UNL A   1      39.167  30.874  32.349  1.00  0.00    -0.248 NA
ATOM     34  C   UNL A   1      37.223  32.163  32.242  1.00  0.00     0.031 C 
ATOM     35  C   UNL A   1      41.580  30.342  36.086  1.00  0.00     0.029 A 
ATOM     36  C   UNL A   1      40.830  30.513  34.930  1.00  0.00     0.049 A 
ATOM     37  H   UNL A   1      41.130  29.665  33.024  1.00  0.00     0.167 HD
ATOM     38  C   UNL A   1      38.940  31.447  33.592  1.00  0.00     0.074 A 
ATOM     39  C   UNL A   1      37.745  32.259  33.456  1.00  0.00     0.031 C 
ATOM     40  C   UNL A   1      39.645  31.316  34.743  1.00  0.00     0.037 A 
BRANCH  27  41
ATOM     41  C   UNL A   1      44.602  27.602  34.395  1.00  0.00     0.064 A 
ATOM     42  C   UNL A   1      44.518  26.368  35.059  1.00  0.00     0.173 A 
ATOM     43  C   UNL A   1      45.839  28.265  34.402  1.00  0.00     0.173 A 
ATOM     44  F   UNL A   1      43.352  25.707  35.110  1.00  0.00    -0.203 F 
ATOM     45  C   UNL A   1      45.618  25.840  35.733  1.00  0.00     0.198 A 
ATOM     46  C   UNL A   1      46.943  27.721  35.052  1.00  0.00     0.198 A 
ATOM     47  F   UNL A   1      45.972  29.453  33.792  1.00  0.00    -0.203 F 
ATOM     48  F   UNL A   1      45.495  24.694  36.417  1.00  0.00    -0.200 F 
ATOM     49  C   UNL A   1      46.830  26.515  35.725  1.00  0.00     0.200 A 
ATOM     50  F   UNL A   1      48.113  28.374  35.041  1.00  0.00    -0.200 F 
ATOM     51  F   UNL A   1      47.884  26.011  36.382  1.00  0.00    -0.200 F 
ENDBRANCH  27  41
BRANCH  28  52
ATOM     52  C   UNL A   1      36.798  31.583  29.378  1.00  0.00     0.064 A 
ATOM     53  C   UNL A   1      36.731  32.953  29.094  1.00  0.00     0.173 A 
ATOM     54  C   UNL A   1      35.723  30.783  28.955  1.00  0.00     0.173 A 
ATOM     55  F   UNL A   1      37.721  33.768  29.488  1.00  0.00    -0.203 F 
ATOM     56  C   UNL A   1      35.627  33.504  28.440  1.00  0.00     0.198 A 
ATOM     57  C   UNL A   1      34.638  31.327  28.271  1.00  0.00     0.198 A 
ATOM     58  F   UNL A   1      35.731  29.464  29.195  1.00  0.00    -0.203 F 
ATOM     59  F   UNL A   1      35.569  34.826  28.229  1.00  0.00    -0.200 F 
ATOM     60  C   UNL A   1      34.586  32.690  28.025  1.00  0.00     0.200 A 
ATOM     61  F   UNL A   1      33.644  30.531  27.855  1.00  0.00    -0.200 F 
ATOM     62  F   UNL A   1      33.527  33.218  27.395  1.00  0.00    -0.200 F 
ENDBRANCH  28  52
BRANCH  40  63
ATOM     63  C   UNL A   1      39.164  32.101  35.926  1.00  0.00     0.064 A 
ATOM     64  C   UNL A   1      39.529  33.441  36.120  1.00  0.00     0.173 A 
ATOM     65  C   UNL A   1      38.279  31.516  36.844  1.00  0.00     0.173 A 
ATOM     66  F   UNL A   1      40.385  34.037  35.276  1.00  0.00    -0.203 F 
ATOM     67  C   UNL A   1      39.044  34.160  37.208  1.00  0.00     0.198 A 
ATOM     68  C   UNL A   1      37.768  32.249  37.910  1.00  0.00     0.198 A 
ATOM     69  F   UNL A   1      37.894  30.240  36.695  1.00  0.00    -0.203 F 
ATOM     70  F   UNL A   1      39.444  35.424  37.404  1.00  0.00    -0.200 F 
ATOM     71  C   UNL A   1      38.157  33.567  38.095  1.00  0.00     0.200 A 
ATOM     72  F   UNL A   1      36.898  31.681  38.755  1.00  0.00    -0.200 F 
ATOM     73  F   UNL A   1      37.680  34.266  39.133  1.00  0.00    -0.200 F 
ENDBRANCH  40  63
ENDBRANCH  14  15
ENDBRANCH   7   9
ENDBRANCH   6   7
ENDBRANCH   5   6
ENDBRANCH   4   5
ENDBRANCH   3   4
ENDBRANCH   2   3
ENDBRANCH   1   2
BRANCH   1  74
ATOM     74  O   UNL A   1      38.999  21.093  26.476  1.00  0.00    -0.376 OA
BRANCH  74  75
ATOM     75  C   UNL A   1      38.236  21.562  25.374  1.00  0.00     0.202 C 
BRANCH  75  76
ATOM     76  C   UNL A   1      36.707  21.558  25.504  1.00  0.00     0.261 C 
BRANCH  76  77
ATOM     77  O   UNL A   1      36.134  22.688  26.187  1.00  0.00    -0.463 OA
BRANCH  77  78
ATOM     78  C   UNL A   1      34.801  22.896  25.962  1.00  0.00     0.312 C 
ATOM     79  O   UNL A   1      34.015  23.366  26.777  1.00  0.00    -0.252 OA
BRANCH  78  80
ATOM     80  C   UNL A   1      34.396  22.407  24.574  1.00  0.00     0.124 C 
ATOM     81  C   UNL A   1      34.956  23.223  23.448  1.00  0.00    -0.014 C 
ATOM     82  C   UNL A   1      32.875  22.548  24.347  1.00  0.00     0.048 C 
ATOM     83  C   UNL A   1      34.016  23.974  22.861  1.00  0.00    -0.006 C 
ATOM     84  C   UNL A   1      32.678  23.826  23.515  1.00  0.00     0.103 C 
BRANCH  84  85
ATOM     85  N   UNL A   1      32.455  24.992  24.355  1.00  0.00    -0.373 N 
ATOM     86  H   UNL A   1      32.961  25.088  25.194  1.00  0.00     0.161 HD
BRANCH  85  87
ATOM     87  C   UNL A   1      31.537  25.979  23.993  1.00  0.00     0.117 A 
ATOM     88  C   UNL A   1      30.174  25.801  24.279  1.00  0.00     0.073 A 
ATOM     89  C   UNL A   1      31.887  27.130  23.247  1.00  0.00     0.294 A 
ATOM     90  C   UNL A   1      29.214  26.716  23.843  1.00  0.00     0.144 A 
ATOM     91  C   UNL A   1      30.919  28.047  22.795  1.00  0.00     0.111 A 
ATOM     92  F   UNL A   1      27.927  26.493  24.149  1.00  0.00    -0.205 F 
ATOM     93  C   UNL A   1      29.580  27.831  23.095  1.00  0.00     0.083 A 
ATOM     94  Cl  UNL A   1      28.393  28.940  22.529  1.00  0.00    -0.081 Cl
BRANCH  89  95
ATOM     95  N   UNL A   1      33.276  27.392  22.870  1.00  0.00     0.065 N 
ATOM     96  O   UNL A   1      33.583  27.217  21.682  1.00  0.00    -0.258 OA
ATOM     97  O   UNL A   1      34.056  27.779  23.750  1.00  0.00    -0.258 OA
ENDBRANCH  89  95
ENDBRANCH  85  87
ENDBRANCH  84  85
ENDBRANCH  78  80
ENDBRANCH  77  78
ENDBRANCH  76  77
ENDBRANCH  75  76
ENDBRANCH  74  75
ENDBRANCH   1  74
TORSDOF 20
ENDMDL
