MODEL 1
REMARK VINA RESULT:      -8.1      0.000      0.000
REMARK SMILES CC[C@@H]1CCC[C@@](Cc2ccccn2)(C(=O)OCCOCCOCCOC(=O)c2ccc(-c3c4nc(c(-c5c(F)c(F)c(F)c(F)c5F)c5ccc([nH]5)c(-c5c(F)c(F)c(F)c(F)c5F)c5nc(c(-c6c(F)c(F)c(F)c(F)c6F)c6ccc3[nH]6)C=C5)C=C4)cc2)C1
REMARK SMILES IDX 21 1 20 2 19 3 18 4 17 5 15 6 16 7 7 8 3 9 4 10 92 11 5 12
REMARK SMILES IDX 6 13 2 14 1 15 8 16 9 17 10 18 14 19 11 20 13 21 12 22 22 23
REMARK SMILES IDX 23 24 24 25 25 26 26 27 27 28 28 29 29 30 30 31 91 32 31 33
REMARK SMILES IDX 90 34 32 35 33 36 34 37 84 38 35 39 89 40 83 41 85 42 36 43
REMARK SMILES IDX 88 44 82 45 81 46 37 48 69 49 49 50 68 51 50 52 53 53 67 54
REMARK SMILES IDX 86 55 51 56 52 57 66 59 87 60 54 61 38 62 39 63 47 64 40 65
REMARK SMILES IDX 41 66 45 67 48 68 42 69 43 70 46 71 44 72 70 73 71 74 79 75
REMARK SMILES IDX 72 76 73 77 77 78 80 79 74 80 75 81 78 82 76 83 55 84 56 85
REMARK SMILES IDX 64 86 57 87 58 88 62 89 65 90 59 91 60 92 63 93 61 94
REMARK H PARENT 85 47 53 58
REMARK Flexibility Score: inf
ROOT
ATOM      1  C   UNL A   1      39.603  33.128  39.077  1.00  0.00     0.188 C 
ENDROOT
BRANCH   1   2
ATOM      2  O   UNL A   1      39.158  32.376  37.958  1.00  0.00    -0.376 OA
BRANCH   2   3
ATOM      3  C   UNL A   1      37.771  32.351  37.643  1.00  0.00     0.202 C 
BRANCH   3   4
ATOM      4  C   UNL A   1      37.156  33.538  36.885  1.00  0.00     0.261 C 
BRANCH   4   5
ATOM      5  O   UNL A   1      36.343  33.232  35.722  1.00  0.00    -0.463 OA
BRANCH   5   6
ATOM      6  C   UNL A   1      36.743  33.779  34.543  1.00  0.00     0.312 C 
ATOM      7  O   UNL A   1      37.063  34.962  34.437  1.00  0.00    -0.252 OA
BRANCH   6   8
ATOM      8  C   UNL A   1      36.647  32.846  33.304  1.00  0.00     0.074 C 
ATOM      9  C   UNL A   1      38.821  33.564  32.125  1.00  0.00    -0.010 C 
ATOM     10  C   UNL A   1      39.279  32.121  31.918  1.00  0.00     0.003 C 
ATOM     11  C   UNL A   1      37.286  33.606  32.114  1.00  0.00     0.022 C 
ATOM     12  C   UNL A   1      38.703  31.162  32.947  1.00  0.00     0.001 C 
ATOM     13  C   UNL A   1      37.248  31.411  33.378  1.00  0.00     0.019 C 
BRANCH   9  14
ATOM     14  C   UNL A   1      39.349  34.509  31.030  1.00  0.00     0.000 C 
ATOM     15  C   UNL A   1      39.892  33.783  29.818  1.00  0.00     0.004 C 
ENDBRANCH   9  14
BRANCH   8  16
ATOM     16  C   UNL A   1      35.104  32.749  33.024  1.00  0.00     0.075 C 
BRANCH  16  17
ATOM     17  C   UNL A   1      34.611  33.751  32.005  1.00  0.00     0.041 A 
ATOM     18  C   UNL A   1      34.147  35.003  32.397  1.00  0.00     0.024 A 
ATOM     19  N   UNL A   1      34.515  33.313  30.726  1.00  0.00    -0.261 NA
ATOM     20  C   UNL A   1      33.468  35.787  31.471  1.00  0.00     0.003 A 
ATOM     21  C   UNL A   1      33.881  34.110  29.839  1.00  0.00     0.111 A 
ATOM     22  C   UNL A   1      33.322  35.331  30.169  1.00  0.00     0.020 A 
ENDBRANCH  16  17
ENDBRANCH   8  16
ENDBRANCH   6   8
ENDBRANCH   5   6
ENDBRANCH   4   5
ENDBRANCH   3   4
ENDBRANCH   2   3
ENDBRANCH   1   2
BRANCH   1  23
ATOM     23  C   UNL A   1      41.045  32.952  39.566  1.00  0.00     0.188 C 
BRANCH  23  24
ATOM     24  O   UNL A   1      41.527  33.984  40.398  1.00  0.00    -0.376 OA
BRANCH  24  25
ATOM     25  C   UNL A   1      40.603  34.953  40.857  1.00  0.00     0.202 C 
BRANCH  25  26
ATOM     26  C   UNL A   1      41.067  36.416  40.795  1.00  0.00     0.261 C 
BRANCH  26  27
ATOM     27  O   UNL A   1      41.370  36.909  39.474  1.00  0.00    -0.460 OA
BRANCH  27  28
ATOM     28  C   UNL A   1      40.387  36.795  38.554  1.00  0.00     0.338 C 
ATOM     29  O   UNL A   1      39.288  37.329  38.593  1.00  0.00    -0.246 OA
BRANCH  28  30
ATOM     30  C   UNL A   1      40.927  36.116  37.350  1.00  0.00     0.060 A 
ATOM     31  C   UNL A   1      40.031  35.814  36.320  1.00  0.00     0.016 A 
ATOM     32  C   UNL A   1      42.279  35.772  37.220  1.00  0.00     0.016 A 
ATOM     33  C   UNL A   1      40.473  35.134  35.186  1.00  0.00     0.010 A 
ATOM     34  C   UNL A   1      42.719  35.076  36.080  1.00  0.00     0.010 A 
ATOM     35  C   UNL A   1      41.813  34.734  35.062  1.00  0.00    -0.014 A 
BRANCH  35  36
ATOM     36  C   UNL A   1      42.150  33.763  33.982  1.00  0.00     0.031 A 
ATOM     37  C   UNL A   1      42.576  34.324  32.653  1.00  0.00     0.074 A 
ATOM     38  C   UNL A   1      42.211  32.433  34.187  1.00  0.00     0.049 A 
ATOM     39  N   UNL A   1      43.024  33.709  31.588  1.00  0.00    -0.248 NA
ATOM     40  C   UNL A   1      42.487  35.786  32.512  1.00  0.00     0.031 C 
ATOM     41  C   UNL A   1      41.871  31.754  35.432  1.00  0.00     0.029 A 
ATOM     42  N   UNL A   1      42.634  31.418  33.359  1.00  0.00    -0.354 N 
ATOM     43  C   UNL A   1      43.264  34.706  30.653  1.00  0.00     0.074 A 
ATOM     44  C   UNL A   1      42.915  35.966  31.274  1.00  0.00     0.031 C 
ATOM     45  C   UNL A   1      42.172  30.447  35.314  1.00  0.00     0.029 A 
ATOM     46  C   UNL A   1      42.660  30.180  33.961  1.00  0.00     0.049 A 
ATOM     47  H   UNL A   1      42.895  31.564  32.420  1.00  0.00     0.167 HD
ATOM     48  C   UNL A   1      43.716  34.588  29.382  1.00  0.00     0.037 A 
ATOM     49  C   UNL A   1      43.025  28.975  33.472  1.00  0.00     0.037 A 
ATOM     50  C   UNL A   1      44.025  33.338  28.741  1.00  0.00     0.049 A 
ATOM     51  C   UNL A   1      43.458  28.864  32.025  1.00  0.00     0.074 A 
ATOM     52  C   UNL A   1      44.429  33.116  27.436  1.00  0.00     0.029 A 
ATOM     53  N   UNL A   1      43.950  32.096  29.353  1.00  0.00    -0.354 N 
ATOM     54  N   UNL A   1      43.662  29.810  31.140  1.00  0.00    -0.248 NA
ATOM     55  C   UNL A   1      43.683  27.506  31.504  1.00  0.00     0.031 C 
ATOM     56  C   UNL A   1      44.540  31.736  27.242  1.00  0.00     0.029 A 
ATOM     57  C   UNL A   1      44.275  31.101  28.445  1.00  0.00     0.049 A 
ATOM     58  H   UNL A   1      43.703  31.944  30.294  1.00  0.00     0.167 HD
ATOM     59  C   UNL A   1      44.043  29.164  29.968  1.00  0.00     0.074 A 
ATOM     60  C   UNL A   1      44.087  27.750  30.266  1.00  0.00     0.031 C 
ATOM     61  C   UNL A   1      44.316  29.693  28.749  1.00  0.00     0.037 A 
BRANCH  48  62
ATOM     62  C   UNL A   1      43.814  35.850  28.579  1.00  0.00     0.064 A 
ATOM     63  C   UNL A   1      42.716  36.377  27.883  1.00  0.00     0.173 A 
ATOM     64  C   UNL A   1      45.038  36.531  28.491  1.00  0.00     0.173 A 
ATOM     65  F   UNL A   1      41.532  35.748  27.913  1.00  0.00    -0.203 F 
ATOM     66  C   UNL A   1      42.850  37.521  27.100  1.00  0.00     0.198 A 
ATOM     67  C   UNL A   1      45.159  37.693  27.734  1.00  0.00     0.198 A 
ATOM     68  F   UNL A   1      46.119  36.066  29.134  1.00  0.00    -0.203 F 
ATOM     69  F   UNL A   1      41.806  37.970  26.390  1.00  0.00    -0.200 F 
ATOM     70  C   UNL A   1      44.069  38.180  27.031  1.00  0.00     0.200 A 
ATOM     71  F   UNL A   1      46.336  38.332  27.675  1.00  0.00    -0.200 F 
ATOM     72  F   UNL A   1      44.197  39.279  26.273  1.00  0.00    -0.200 F 
ENDBRANCH  48  62
BRANCH  49  73
ATOM     73  C   UNL A   1      42.960  27.747  34.320  1.00  0.00     0.064 A 
ATOM     74  C   UNL A   1      41.763  27.029  34.476  1.00  0.00     0.173 A 
ATOM     75  C   UNL A   1      44.069  27.315  35.064  1.00  0.00     0.173 A 
ATOM     76  F   UNL A   1      40.657  27.420  33.823  1.00  0.00    -0.203 F 
ATOM     77  C   UNL A   1      41.671  25.953  35.360  1.00  0.00     0.198 A 
ATOM     78  C   UNL A   1      43.988  26.212  35.915  1.00  0.00     0.198 A 
ATOM     79  F   UNL A   1      45.235  27.971  34.977  1.00  0.00    -0.203 F 
ATOM     80  F   UNL A   1      40.495  25.339  35.547  1.00  0.00    -0.200 F 
ATOM     81  C   UNL A   1      42.786  25.541  36.073  1.00  0.00     0.200 A 
ATOM     82  F   UNL A   1      45.071  25.816  36.595  1.00  0.00    -0.200 F 
ATOM     83  F   UNL A   1      42.698  24.513  36.928  1.00  0.00    -0.200 F 
ENDBRANCH  49  73
BRANCH  61  84
ATOM     84  C   UNL A   1      44.706  28.744  27.649  1.00  0.00     0.064 A 
ATOM     85  C   UNL A   1      46.030  28.306  27.483  1.00  0.00     0.173 A 
ATOM     86  C   UNL A   1      43.736  28.238  26.767  1.00  0.00     0.173 A 
ATOM     87  F   UNL A   1      46.998  28.763  28.291  1.00  0.00    -0.203 F 
ATOM     88  C   UNL A   1      46.373  27.429  26.455  1.00  0.00     0.198 A 
ATOM     89  C   UNL A   1      44.077  27.334  25.765  1.00  0.00     0.198 A 
ATOM     90  F   UNL A   1      42.454  28.613  26.885  1.00  0.00    -0.203 F 
ATOM     91  F   UNL A   1      47.653  27.073  26.281  1.00  0.00    -0.200 F 
ATOM     92  C   UNL A   1      45.396  26.939  25.602  1.00  0.00     0.200 A 
ATOM     93  F   UNL A   1      43.128  26.845  24.954  1.00  0.00    -0.200 F 
ATOM     94  F   UNL A   1      45.728  26.091  24.618  1.00  0.00    -0.200 F 
ENDBRANCH  61  84
ENDBRANCH  35  36
ENDBRANCH  28  30
ENDBRANCH  27  28
ENDBRANCH  26  27
ENDBRANCH  25  26
ENDBRANCH  24  25
ENDBRANCH  23  24
ENDBRANCH   1  23
TORSDOF 20
ENDMDL
MODEL 2
REMARK VINA RESULT:      -8.0      0.936      2.483
REMARK SMILES CC[C@@H]1CCC[C@@](Cc2ccccn2)(C(=O)OCCOCCOCCOC(=O)c2ccc(-c3c4nc(c(-c5c(F)c(F)c(F)c(F)c5F)c5ccc([nH]5)c(-c5c(F)c(F)c(F)c(F)c5F)c5nc(c(-c6c(F)c(F)c(F)c(F)c6F)c6ccc3[nH]6)C=C5)C=C4)cc2)C1
REMARK SMILES IDX 21 1 20 2 19 3 18 4 17 5 15 6 16 7 7 8 3 9 4 10 92 11 5 12
REMARK SMILES IDX 6 13 2 14 1 15 8 16 9 17 10 18 14 19 11 20 13 21 12 22 22 23
REMARK SMILES IDX 23 24 24 25 25 26 26 27 27 28 28 29 29 30 30 31 91 32 31 33
REMARK SMILES IDX 90 34 32 35 33 36 34 37 84 38 35 39 89 40 83 41 85 42 36 43
REMARK SMILES IDX 88 44 82 45 81 46 37 48 69 49 49 50 68 51 50 52 53 53 67 54
REMARK SMILES IDX 86 55 51 56 52 57 66 59 87 60 54 61 38 62 39 63 47 64 40 65
REMARK SMILES IDX 41 66 45 67 48 68 42 69 43 70 46 71 44 72 70 73 71 74 79 75
REMARK SMILES IDX 72 76 73 77 77 78 80 79 74 80 75 81 78 82 76 83 55 84 56 85
REMARK SMILES IDX 64 86 57 87 58 88 62 89 65 90 59 91 60 92 63 93 61 94
REMARK H PARENT 85 47 53 58
REMARK Flexibility Score: inf
ROOT
ATOM      1  C   UNL A   1      39.763  33.149  39.551  1.00  0.00     0.188 C 
ENDROOT
BRANCH   1   2
ATOM      2  O   UNL A   1      39.339  32.662  38.287  1.00  0.00    -0.376 OA
BRANCH   2   3
ATOM      3  C   UNL A   1      37.947  32.555  38.014  1.00  0.00     0.202 C 
BRANCH   3   4
ATOM      4  C   UNL A   1      37.340  33.403  36.884  1.00  0.00     0.261 C 
BRANCH   4   5
ATOM      5  O   UNL A   1      37.023  32.723  35.642  1.00  0.00    -0.463 OA
BRANCH   5   6
ATOM      6  C   UNL A   1      37.296  33.400  34.495  1.00  0.00     0.312 C 
ATOM      7  O   UNL A   1      36.970  34.574  34.326  1.00  0.00    -0.252 OA
BRANCH   6   8
ATOM      8  C   UNL A   1      37.933  32.558  33.355  1.00  0.00     0.074 C 
ATOM      9  C   UNL A   1      36.352  33.257  31.446  1.00  0.00    -0.010 C 
ATOM     10  C   UNL A   1      37.507  33.567  30.495  1.00  0.00     0.003 C 
ATOM     11  C   UNL A   1      36.783  32.138  32.404  1.00  0.00     0.022 C 
ATOM     12  C   UNL A   1      38.791  33.939  31.221  1.00  0.00     0.001 C 
ATOM     13  C   UNL A   1      39.096  33.164  32.513  1.00  0.00     0.019 C 
BRANCH   9  14
ATOM     14  C   UNL A   1      35.084  32.806  30.698  1.00  0.00     0.000 C 
ATOM     15  C   UNL A   1      34.417  33.918  29.918  1.00  0.00     0.004 C 
ENDBRANCH   9  14
BRANCH   8  16
ATOM     16  C   UNL A   1      38.439  31.261  34.081  1.00  0.00     0.075 C 
BRANCH  16  17
ATOM     17  C   UNL A   1      38.737  30.117  33.138  1.00  0.00     0.041 A 
ATOM     18  C   UNL A   1      39.637  30.271  32.088  1.00  0.00     0.024 A 
ATOM     19  N   UNL A   1      37.983  29.001  33.286  1.00  0.00    -0.261 NA
ATOM     20  C   UNL A   1      39.688  29.294  31.100  1.00  0.00     0.003 A 
ATOM     21  C   UNL A   1      38.078  28.053  32.330  1.00  0.00     0.111 A 
ATOM     22  C   UNL A   1      38.888  28.166  31.216  1.00  0.00     0.020 A 
ENDBRANCH  16  17
ENDBRANCH   8  16
ENDBRANCH   6   8
ENDBRANCH   5   6
ENDBRANCH   4   5
ENDBRANCH   3   4
ENDBRANCH   2   3
ENDBRANCH   1   2
BRANCH   1  23
ATOM     23  C   UNL A   1      41.243  33.036  39.934  1.00  0.00     0.188 C 
BRANCH  23  24
ATOM     24  O   UNL A   1      41.739  34.087  40.734  1.00  0.00    -0.376 OA
BRANCH  24  25
ATOM     25  C   UNL A   1      40.850  35.132  41.081  1.00  0.00     0.202 C 
BRANCH  25  26
ATOM     26  C   UNL A   1      41.389  36.562  40.918  1.00  0.00     0.261 C 
BRANCH  26  27
ATOM     27  O   UNL A   1      41.666  36.962  39.561  1.00  0.00    -0.460 OA
BRANCH  27  28
ATOM     28  C   UNL A   1      40.643  36.855  38.685  1.00  0.00     0.338 C 
ATOM     29  O   UNL A   1      39.553  37.404  38.768  1.00  0.00    -0.246 OA
BRANCH  28  30
ATOM     30  C   UNL A   1      41.121  36.162  37.463  1.00  0.00     0.060 A 
ATOM     31  C   UNL A   1      40.169  35.818  36.499  1.00  0.00     0.016 A 
ATOM     32  C   UNL A   1      42.470  35.846  37.253  1.00  0.00     0.016 A 
ATOM     33  C   UNL A   1      40.554  35.124  35.353  1.00  0.00     0.010 A 
ATOM     34  C   UNL A   1      42.853  35.135  36.102  1.00  0.00     0.010 A 
ATOM     35  C   UNL A   1      41.893  34.751  35.152  1.00  0.00    -0.014 A 
BRANCH  35  36
ATOM     36  C   UNL A   1      42.183  33.764  34.073  1.00  0.00     0.031 A 
ATOM     37  C   UNL A   1      42.560  34.305  32.720  1.00  0.00     0.074 A 
ATOM     38  C   UNL A   1      42.246  32.437  34.293  1.00  0.00     0.049 A 
ATOM     39  N   UNL A   1      42.965  33.674  31.647  1.00  0.00    -0.248 NA
ATOM     40  C   UNL A   1      42.473  35.766  32.565  1.00  0.00     0.031 C 
ATOM     41  C   UNL A   1      41.951  31.775  35.558  1.00  0.00     0.029 A 
ATOM     42  N   UNL A   1      42.632  31.409  33.462  1.00  0.00    -0.354 N 
ATOM     43  C   UNL A   1      43.173  34.658  30.691  1.00  0.00     0.074 A 
ATOM     44  C   UNL A   1      42.853  35.927  31.308  1.00  0.00     0.031 C 
ATOM     45  C   UNL A   1      42.241  30.466  35.446  1.00  0.00     0.029 A 
ATOM     46  C   UNL A   1      42.675  30.179  34.079  1.00  0.00     0.049 A 
ATOM     47  H   UNL A   1      42.857  31.541  32.512  1.00  0.00     0.167 HD
ATOM     48  C   UNL A   1      43.575  34.521  29.405  1.00  0.00     0.037 A 
ATOM     49  C   UNL A   1      43.016  28.966  33.592  1.00  0.00     0.037 A 
ATOM     50  C   UNL A   1      43.853  33.262  28.770  1.00  0.00     0.049 A 
ATOM     51  C   UNL A   1      43.392  28.833  32.132  1.00  0.00     0.074 A 
ATOM     52  C   UNL A   1      44.206  33.020  27.453  1.00  0.00     0.029 A 
ATOM     53  N   UNL A   1      43.796  32.028  29.400  1.00  0.00    -0.354 N 
ATOM     54  N   UNL A   1      43.566  29.767  31.227  1.00  0.00    -0.248 NA
ATOM     55  C   UNL A   1      43.590  27.468  31.620  1.00  0.00     0.031 C 
ATOM     56  C   UNL A   1      44.303  31.637  27.273  1.00  0.00     0.029 A 
ATOM     57  C   UNL A   1      44.081  31.019  28.493  1.00  0.00     0.049 A 
ATOM     58  H   UNL A   1      43.585  31.889  30.352  1.00  0.00     0.167 HD
ATOM     59  C   UNL A   1      43.899  29.104  30.050  1.00  0.00     0.074 A 
ATOM     60  C   UNL A   1      43.948  27.693  30.365  1.00  0.00     0.031 C 
ATOM     61  C   UNL A   1      44.127  29.615  28.815  1.00  0.00     0.037 A 
BRANCH  48  62
ATOM     62  C   UNL A   1      43.648  35.773  28.583  1.00  0.00     0.064 A 
ATOM     63  C   UNL A   1      42.512  36.339  27.987  1.00  0.00     0.173 A 
ATOM     64  C   UNL A   1      44.885  36.401  28.372  1.00  0.00     0.173 A 
ATOM     65  F   UNL A   1      41.311  35.760  28.136  1.00  0.00    -0.203 F 
ATOM     66  C   UNL A   1      42.617  37.471  27.182  1.00  0.00     0.198 A 
ATOM     67  C   UNL A   1      44.981  37.551  27.594  1.00  0.00     0.198 A 
ATOM     68  F   UNL A   1      46.002  35.897  28.916  1.00  0.00    -0.203 F 
ATOM     69  F   UNL A   1      41.530  37.958  26.569  1.00  0.00    -0.200 F 
ATOM     70  C   UNL A   1      43.850  38.078  26.991  1.00  0.00     0.200 A 
ATOM     71  F   UNL A   1      46.172  38.140  27.418  1.00  0.00    -0.200 F 
ATOM     72  F   UNL A   1      43.950  39.165  26.212  1.00  0.00    -0.200 F 
ENDBRANCH  48  62
BRANCH  49  73
ATOM     73  C   UNL A   1      42.977  27.749  34.459  1.00  0.00     0.064 A 
ATOM     74  C   UNL A   1      44.125  27.287  35.122  1.00  0.00     0.173 A 
ATOM     75  C   UNL A   1      41.814  26.971  34.572  1.00  0.00     0.173 A 
ATOM     76  F   UNL A   1      45.278  27.966  35.018  1.00  0.00    -0.203 F 
ATOM     77  C   UNL A   1      44.119  26.088  35.835  1.00  0.00     0.198 A 
ATOM     78  C   UNL A   1      41.798  25.794  35.320  1.00  0.00     0.198 A 
ATOM     79  F   UNL A   1      40.690  27.346  33.943  1.00  0.00    -0.203 F 
ATOM     80  F   UNL A   1      45.251  25.634  36.391  1.00  0.00    -0.200 F 
ATOM     81  C   UNL A   1      42.953  25.346  35.940  1.00  0.00     0.200 A 
ATOM     82  F   UNL A   1      40.665  25.086  35.422  1.00  0.00    -0.200 F 
ATOM     83  F   UNL A   1      42.947  24.190  36.617  1.00  0.00    -0.200 F 
ENDBRANCH  49  73
BRANCH  61  84
ATOM     84  C   UNL A   1      44.470  28.650  27.712  1.00  0.00     0.064 A 
ATOM     85  C   UNL A   1      45.781  28.187  27.514  1.00  0.00     0.173 A 
ATOM     86  C   UNL A   1      43.468  28.154  26.863  1.00  0.00     0.173 A 
ATOM     87  F   UNL A   1      46.780  28.634  28.291  1.00  0.00    -0.203 F 
ATOM     88  C   UNL A   1      46.080  27.296  26.485  1.00  0.00     0.198 A 
ATOM     89  C   UNL A   1      43.765  27.235  25.860  1.00  0.00     0.198 A 
ATOM     90  F   UNL A   1      42.196  28.551  27.013  1.00  0.00    -0.203 F 
ATOM     91  F   UNL A   1      47.349  26.916  26.280  1.00  0.00    -0.200 F 
ATOM     92  C   UNL A   1      45.072  26.816  25.664  1.00  0.00     0.200 A 
ATOM     93  F   UNL A   1      42.786  26.756  25.080  1.00  0.00    -0.200 F 
ATOM     94  F   UNL A   1      45.362  25.954  24.679  1.00  0.00    -0.200 F 
ENDBRANCH  61  84
ENDBRANCH  35  36
ENDBRANCH  28  30
ENDBRANCH  27  28
ENDBRANCH  26  27
ENDBRANCH  25  26
ENDBRANCH  24  25
ENDBRANCH  23  24
ENDBRANCH   1  23
TORSDOF 20
ENDMDL
MODEL 3
REMARK VINA RESULT:      -7.7      1.218      2.921
REMARK SMILES CC[C@@H]1CCC[C@@](Cc2ccccn2)(C(=O)OCCOCCOCCOC(=O)c2ccc(-c3c4nc(c(-c5c(F)c(F)c(F)c(F)c5F)c5ccc([nH]5)c(-c5c(F)c(F)c(F)c(F)c5F)c5nc(c(-c6c(F)c(F)c(F)c(F)c6F)c6ccc3[nH]6)C=C5)C=C4)cc2)C1
REMARK SMILES IDX 21 1 20 2 19 3 18 4 17 5 15 6 16 7 7 8 3 9 4 10 92 11 5 12
REMARK SMILES IDX 6 13 2 14 1 15 8 16 9 17 10 18 14 19 11 20 13 21 12 22 22 23
REMARK SMILES IDX 23 24 24 25 25 26 26 27 27 28 28 29 29 30 30 31 91 32 31 33
REMARK SMILES IDX 90 34 32 35 33 36 34 37 84 38 35 39 89 40 83 41 85 42 36 43
REMARK SMILES IDX 88 44 82 45 81 46 37 48 69 49 49 50 68 51 50 52 53 53 67 54
REMARK SMILES IDX 86 55 51 56 52 57 66 59 87 60 54 61 38 62 39 63 47 64 40 65
REMARK SMILES IDX 41 66 45 67 48 68 42 69 43 70 46 71 44 72 70 73 71 74 79 75
REMARK SMILES IDX 72 76 73 77 77 78 80 79 74 80 75 81 78 82 76 83 55 84 56 85
REMARK SMILES IDX 64 86 57 87 58 88 62 89 65 90 59 91 60 92 63 93 61 94
REMARK H PARENT 85 47 53 58
REMARK Flexibility Score: inf
ROOT
ATOM      1  C   UNL A   1      40.401  33.123  39.528  1.00  0.00     0.188 C 
ENDROOT
BRANCH   1   2
ATOM      2  O   UNL A   1      40.164  32.389  38.336  1.00  0.00    -0.376 OA
BRANCH   2   3
ATOM      3  C   UNL A   1      39.156  32.831  37.436  1.00  0.00     0.202 C 
BRANCH   3   4
ATOM      4  C   UNL A   1      38.016  31.870  37.060  1.00  0.00     0.261 C 
BRANCH   4   5
ATOM      5  O   UNL A   1      37.494  31.958  35.709  1.00  0.00    -0.463 OA
BRANCH   5   6
ATOM      6  C   UNL A   1      38.121  31.203  34.768  1.00  0.00     0.312 C 
ATOM      7  O   UNL A   1      38.557  30.078  35.004  1.00  0.00    -0.252 OA
BRANCH   6   8
ATOM      8  C   UNL A   1      38.371  31.904  33.404  1.00  0.00     0.074 C 
ATOM      9  C   UNL A   1      36.041  32.957  33.093  1.00  0.00    -0.010 C 
ATOM     10  C   UNL A   1      36.619  34.333  32.764  1.00  0.00     0.003 C 
ATOM     11  C   UNL A   1      37.029  31.878  32.628  1.00  0.00     0.022 C 
ATOM     12  C   UNL A   1      37.995  34.560  33.370  1.00  0.00     0.001 C 
ATOM     13  C   UNL A   1      38.946  33.352  33.382  1.00  0.00     0.019 C 
BRANCH   9  14
ATOM     14  C   UNL A   1      34.685  32.713  32.408  1.00  0.00     0.000 C 
ATOM     15  C   UNL A   1      34.778  32.621  30.900  1.00  0.00     0.004 C 
ENDBRANCH   9  14
BRANCH   8  16
ATOM     16  C   UNL A   1      39.362  30.940  32.660  1.00  0.00     0.075 C 
BRANCH  16  17
ATOM     17  C   UNL A   1      38.883  30.522  31.288  1.00  0.00     0.041 A 
ATOM     18  C   UNL A   1      38.846  31.431  30.235  1.00  0.00     0.024 A 
ATOM     19  N   UNL A   1      38.366  29.274  31.184  1.00  0.00    -0.261 NA
ATOM     20  C   UNL A   1      38.164  31.085  29.073  1.00  0.00     0.003 A 
ATOM     21  C   UNL A   1      37.740  28.952  30.032  1.00  0.00     0.111 A 
ATOM     22  C   UNL A   1      37.591  29.825  28.970  1.00  0.00     0.020 A 
ENDBRANCH  16  17
ENDBRANCH   8  16
ENDBRANCH   6   8
ENDBRANCH   5   6
ENDBRANCH   4   5
ENDBRANCH   3   4
ENDBRANCH   2   3
ENDBRANCH   1   2
BRANCH   1  23
ATOM     23  C   UNL A   1      39.214  33.768  40.253  1.00  0.00     0.188 C 
BRANCH  23  24
ATOM     24  O   UNL A   1      39.549  34.537  41.387  1.00  0.00    -0.376 OA
BRANCH  24  25
ATOM     25  C   UNL A   1      40.410  35.646  41.205  1.00  0.00     0.202 C 
BRANCH  25  26
ATOM     26  C   UNL A   1      39.832  36.832  40.419  1.00  0.00     0.261 C 
BRANCH  26  27
ATOM     27  O   UNL A   1      40.117  36.829  39.005  1.00  0.00    -0.460 OA
BRANCH  27  28
ATOM     28  C   UNL A   1      41.372  37.180  38.647  1.00  0.00     0.338 C 
ATOM     29  O   UNL A   1      42.163  37.831  39.314  1.00  0.00    -0.246 OA
BRANCH  28  30
ATOM     30  C   UNL A   1      41.747  36.445  37.414  1.00  0.00     0.060 A 
ATOM     31  C   UNL A   1      40.722  36.102  36.527  1.00  0.00     0.016 A 
ATOM     32  C   UNL A   1      43.070  36.089  37.120  1.00  0.00     0.016 A 
ATOM     33  C   UNL A   1      41.010  35.370  35.377  1.00  0.00     0.010 A 
ATOM     34  C   UNL A   1      43.355  35.341  35.964  1.00  0.00     0.010 A 
ATOM     35  C   UNL A   1      42.321  34.958  35.093  1.00  0.00    -0.014 A 
BRANCH  35  36
ATOM     36  C   UNL A   1      42.512  33.938  34.023  1.00  0.00     0.031 A 
ATOM     37  C   UNL A   1      42.841  34.435  32.641  1.00  0.00     0.074 A 
ATOM     38  C   UNL A   1      42.528  32.614  34.268  1.00  0.00     0.049 A 
ATOM     39  N   UNL A   1      43.162  33.766  31.563  1.00  0.00    -0.248 NA
ATOM     40  C   UNL A   1      42.810  35.895  32.457  1.00  0.00     0.031 C 
ATOM     41  C   UNL A   1      42.271  31.992  35.562  1.00  0.00     0.029 A 
ATOM     42  N   UNL A   1      42.825  31.554  33.442  1.00  0.00    -0.354 N 
ATOM     43  C   UNL A   1      43.363  34.720  30.576  1.00  0.00     0.074 A 
ATOM     44  C   UNL A   1      43.131  36.014  31.180  1.00  0.00     0.031 C 
ATOM     45  C   UNL A   1      42.497  30.669  35.464  1.00  0.00     0.029 A 
ATOM     46  C   UNL A   1      42.847  30.336  34.083  1.00  0.00     0.049 A 
ATOM     47  H   UNL A   1      43.006  31.657  32.479  1.00  0.00     0.167 HD
ATOM     48  C   UNL A   1      43.691  34.539  29.274  1.00  0.00     0.037 A 
ATOM     49  C   UNL A   1      43.108  29.099  33.606  1.00  0.00     0.037 A 
ATOM     50  C   UNL A   1      43.881  33.257  28.653  1.00  0.00     0.049 A 
ATOM     51  C   UNL A   1      43.402  28.921  32.132  1.00  0.00     0.074 A 
ATOM     52  C   UNL A   1      44.153  32.973  27.326  1.00  0.00     0.029 A 
ATOM     53  N   UNL A   1      43.803  32.040  29.313  1.00  0.00    -0.354 N 
ATOM     54  N   UNL A   1      43.569  29.827  31.199  1.00  0.00    -0.248 NA
ATOM     55  C   UNL A   1      43.513  27.538  31.641  1.00  0.00     0.031 C 
ATOM     56  C   UNL A   1      44.180  31.584  27.172  1.00  0.00     0.029 A 
ATOM     57  C   UNL A   1      43.995  31.001  28.415  1.00  0.00     0.049 A 
ATOM     58  H   UNL A   1      43.635  31.929  30.277  1.00  0.00     0.167 HD
ATOM     59  C   UNL A   1      43.812  29.127  30.021  1.00  0.00     0.074 A 
ATOM     60  C   UNL A   1      43.815  27.722  30.365  1.00  0.00     0.031 C 
ATOM     61  C   UNL A   1      43.997  29.603  28.765  1.00  0.00     0.037 A 
BRANCH  48  62
ATOM     62  C   UNL A   1      43.776  35.770  28.422  1.00  0.00     0.064 A 
ATOM     63  C   UNL A   1      44.989  36.433  28.190  1.00  0.00     0.173 A 
ATOM     64  C   UNL A   1      42.613  36.305  27.846  1.00  0.00     0.173 A 
ATOM     65  F   UNL A   1      46.124  35.977  28.742  1.00  0.00    -0.203 F 
ATOM     66  C   UNL A   1      45.031  37.605  27.441  1.00  0.00     0.198 A 
ATOM     67  C   UNL A   1      42.663  37.459  27.070  1.00  0.00     0.198 A 
ATOM     68  F   UNL A   1      41.426  35.711  28.041  1.00  0.00    -0.203 F 
ATOM     69  F   UNL A   1      46.190  38.259  27.286  1.00  0.00    -0.200 F 
ATOM     70  C   UNL A   1      43.869  38.114  26.877  1.00  0.00     0.200 A 
ATOM     71  F   UNL A   1      41.541  37.943  26.520  1.00  0.00    -0.200 F 
ATOM     72  F   UNL A   1      43.910  39.245  26.159  1.00  0.00    -0.200 F 
ENDBRANCH  48  62
BRANCH  49  73
ATOM     73  C   UNL A   1      43.062  27.903  34.500  1.00  0.00     0.064 A 
ATOM     74  C   UNL A   1      44.205  27.455  35.183  1.00  0.00     0.173 A 
ATOM     75  C   UNL A   1      41.897  27.129  34.623  1.00  0.00     0.173 A 
ATOM     76  F   UNL A   1      45.359  28.130  35.071  1.00  0.00    -0.203 F 
ATOM     77  C   UNL A   1      44.191  26.272  35.923  1.00  0.00     0.198 A 
ATOM     78  C   UNL A   1      41.873  25.970  35.399  1.00  0.00     0.198 A 
ATOM     79  F   UNL A   1      40.778  27.491  33.979  1.00  0.00    -0.203 F 
ATOM     80  F   UNL A   1      45.319  25.830  36.497  1.00  0.00    -0.200 F 
ATOM     81  C   UNL A   1      43.023  25.535  36.036  1.00  0.00     0.200 A 
ATOM     82  F   UNL A   1      40.739  25.266  35.509  1.00  0.00    -0.200 F 
ATOM     83  F   UNL A   1      43.011  24.395  36.740  1.00  0.00    -0.200 F 
ENDBRANCH  49  73
BRANCH  61  84
ATOM     84  C   UNL A   1      44.240  28.602  27.668  1.00  0.00     0.064 A 
ATOM     85  C   UNL A   1      43.206  28.157  26.829  1.00  0.00     0.173 A 
ATOM     86  C   UNL A   1      45.532  28.106  27.430  1.00  0.00     0.173 A 
ATOM     87  F   UNL A   1      41.950  28.591  27.016  1.00  0.00    -0.203 F 
ATOM     88  C   UNL A   1      43.449  27.226  25.820  1.00  0.00     0.198 A 
ATOM     89  C   UNL A   1      45.777  27.205  26.397  1.00  0.00     0.198 A 
ATOM     90  F   UNL A   1      46.561  28.505  28.192  1.00  0.00    -0.203 F 
ATOM     91  F   UNL A   1      42.434  26.773  25.072  1.00  0.00    -0.200 F 
ATOM     92  C   UNL A   1      44.734  26.757  25.601  1.00  0.00     0.200 A 
ATOM     93  F   UNL A   1      47.025  26.767  26.173  1.00  0.00    -0.200 F 
ATOM     94  F   UNL A   1      44.967  25.866  24.626  1.00  0.00    -0.200 F 
ENDBRANCH  61  84
ENDBRANCH  35  36
ENDBRANCH  28  30
ENDBRANCH  27  28
ENDBRANCH  26  27
ENDBRANCH  25  26
ENDBRANCH  24  25
ENDBRANCH  23  24
ENDBRANCH   1  23
TORSDOF 20
ENDMDL
