MODEL 1
REMARK VINA RESULT:     -11.1      0.000      0.000
REMARK SMILES CCc1ccsc1C(=O)N(CC(=O)OCCOCCOCCOC(=O)c1ccc(-c2c3nc(c(-c4c(F)c(F)c(F)c(F)c4F)c4ccc([nH]4)c(-c4c(F)c(F)c(F)c(F)c4F)c4nc(c(-c5c(F)c(F)c(F)c(F)c5F)c5ccc2[nH]5)C=C4)C=C3)cc1)c1ccccc1N
REMARK SMILES IDX 18 1 17 2 16 3 15 4 14 5 12 6 13 7 11 8 10 9 8 10 9 11 7 12
REMARK SMILES IDX 3 13 4 14 5 15 6 16 2 17 1 18 89 19 90 20 94 21 91 22 93 23
REMARK SMILES IDX 92 24 95 25 19 28 20 29 21 30 22 31 23 32 24 33 25 34 26 35
REMARK SMILES IDX 27 36 88 37 28 38 87 39 29 40 30 41 31 42 81 43 32 44 86 45
REMARK SMILES IDX 80 46 82 47 33 48 85 49 79 50 78 51 34 53 66 54 46 55 65 56
REMARK SMILES IDX 47 57 50 58 64 59 83 60 48 61 49 62 63 64 84 65 51 66 35 67
REMARK SMILES IDX 36 68 44 69 37 70 38 71 42 72 45 73 39 74 40 75 43 76 41 77
REMARK SMILES IDX 67 78 68 79 76 80 69 81 70 82 74 83 77 84 71 85 72 86 75 87
REMARK SMILES IDX 73 88 52 89 53 90 61 91 54 92 55 93 59 94 62 95 56 96 57 97
REMARK SMILES IDX 60 98 58 99
REMARK H PARENT 95 26 95 27 82 52 50 63
REMARK Flexibility Score: inf
ROOT
ATOM      1  C   UNL A   1      32.741  28.642  22.851  1.00  0.00     0.188 C 
ENDROOT
BRANCH   1   2
ATOM      2  O   UNL A   1      32.003  27.466  22.527  1.00  0.00    -0.376 OA
BRANCH   2   3
ATOM      3  C   UNL A   1      32.581  26.571  21.589  1.00  0.00     0.202 C 
BRANCH   3   4
ATOM      4  C   UNL A   1      33.455  25.468  22.192  1.00  0.00     0.261 C 
BRANCH   4   5
ATOM      5  O   UNL A   1      33.295  24.161  21.594  1.00  0.00    -0.462 OA
BRANCH   5   6
ATOM      6  C   UNL A   1      33.610  23.100  22.389  1.00  0.00     0.326 C 
ATOM      7  O   UNL A   1      34.727  22.894  22.855  1.00  0.00    -0.250 OA
BRANCH   6   8
ATOM      8  C   UNL A   1      32.470  22.097  22.585  1.00  0.00     0.248 C 
BRANCH   8   9
ATOM      9  N   UNL A   1      32.299  21.504  23.900  1.00  0.00    -0.294 N 
BRANCH   9  10
ATOM     10  C   UNL A   1      31.783  22.210  25.003  1.00  0.00     0.269 C 
ATOM     11  O   UNL A   1      30.924  21.624  25.681  1.00  0.00    -0.268 OA
BRANCH  10  12
ATOM     12  C   UNL A   1      32.115  23.627  25.336  1.00  0.00     0.096 A 
ATOM     13  C   UNL A   1      33.188  24.438  25.751  1.00  0.00    -0.025 A 
ATOM     14  C   UNL A   1      32.759  25.807  25.975  1.00  0.00     0.016 A 
ATOM     15  C   UNL A   1      31.430  26.026  25.748  1.00  0.00     0.066 A 
ATOM     16  S   UNL A   1      30.666  24.631  25.193  1.00  0.00    -0.138 S 
BRANCH  13  17
ATOM     17  C   UNL A   1      34.631  24.155  26.090  1.00  0.00     0.034 C 
ATOM     18  C   UNL A   1      34.844  22.939  26.988  1.00  0.00     0.009 C 
ENDBRANCH  13  17
ENDBRANCH  10  12
ENDBRANCH   9  10
BRANCH   9  19
ATOM     19  C   UNL A   1      32.582  20.076  24.012  1.00  0.00     0.068 A 
ATOM     20  C   UNL A   1      32.327  19.246  22.908  1.00  0.00     0.028 A 
ATOM     21  C   UNL A   1      33.012  19.447  25.211  1.00  0.00     0.056 A 
ATOM     22  C   UNL A   1      32.467  17.854  22.967  1.00  0.00     0.002 A 
ATOM     23  C   UNL A   1      33.076  18.038  25.271  1.00  0.00     0.028 A 
ATOM     24  C   UNL A   1      32.824  17.247  24.157  1.00  0.00     0.002 A 
BRANCH  21  25
ATOM     25  N   UNL A   1      33.200  20.134  26.417  1.00  0.00    -0.397 N 
ATOM     26  H   UNL A   1      32.760  21.002  26.564  1.00  0.00     0.156 HD
ATOM     27  H   UNL A   1      33.773  19.749  27.119  1.00  0.00     0.156 HD
ENDBRANCH  21  25
ENDBRANCH   9  19
ENDBRANCH   8   9
ENDBRANCH   6   8
ENDBRANCH   5   6
ENDBRANCH   4   5
ENDBRANCH   3   4
ENDBRANCH   2   3
ENDBRANCH   1   2
BRANCH   1  28
ATOM     28  C   UNL A   1      33.821  28.542  23.931  1.00  0.00     0.188 C 
BRANCH  28  29
ATOM     29  O   UNL A   1      33.366  29.165  25.132  1.00  0.00    -0.376 OA
BRANCH  29  30
ATOM     30  C   UNL A   1      32.011  29.594  25.031  1.00  0.00     0.202 C 
BRANCH  30  31
ATOM     31  C   UNL A   1      31.671  30.638  26.101  1.00  0.00     0.261 C 
BRANCH  31  32
ATOM     32  O   UNL A   1      32.552  30.582  27.246  1.00  0.00    -0.460 OA
BRANCH  32  33
ATOM     33  C   UNL A   1      33.298  31.677  27.491  1.00  0.00     0.338 C 
ATOM     34  O   UNL A   1      32.941  32.840  27.432  1.00  0.00    -0.246 OA
BRANCH  33  35
ATOM     35  C   UNL A   1      34.688  31.295  27.820  1.00  0.00     0.060 A 
ATOM     36  C   UNL A   1      35.015  29.979  28.154  1.00  0.00     0.016 A 
ATOM     37  C   UNL A   1      35.635  32.301  27.987  1.00  0.00     0.016 A 
ATOM     38  C   UNL A   1      36.231  29.686  28.781  1.00  0.00     0.010 A 
ATOM     39  C   UNL A   1      36.886  31.993  28.531  1.00  0.00     0.010 A 
ATOM     40  C   UNL A   1      37.178  30.695  28.992  1.00  0.00    -0.014 A 
BRANCH  40  41
ATOM     41  C   UNL A   1      38.432  30.470  29.770  1.00  0.00     0.031 A 
ATOM     42  C   UNL A   1      39.490  29.558  29.204  1.00  0.00     0.074 A 
ATOM     43  C   UNL A   1      38.638  31.021  30.981  1.00  0.00     0.049 A 
ATOM     44  N   UNL A   1      40.455  28.917  29.811  1.00  0.00    -0.248 NA
ATOM     45  C   UNL A   1      39.435  29.329  27.752  1.00  0.00     0.031 C 
ATOM     46  C   UNL A   1      37.777  32.008  31.628  1.00  0.00     0.029 A 
ATOM     47  N   UNL A   1      39.637  30.795  31.901  1.00  0.00    -0.354 N 
ATOM     48  C   UNL A   1      41.069  28.144  28.832  1.00  0.00     0.074 A 
ATOM     49  C   UNL A   1      40.385  28.417  27.587  1.00  0.00     0.031 C 
ATOM     50  C   UNL A   1      38.274  32.293  32.842  1.00  0.00     0.029 A 
ATOM     51  C   UNL A   1      39.427  31.435  33.098  1.00  0.00     0.049 A 
ATOM     52  H   UNL A   1      40.422  30.230  31.718  1.00  0.00     0.167 HD
ATOM     53  C   UNL A   1      42.095  27.271  28.971  1.00  0.00     0.037 A 
ATOM     54  C   UNL A   1      40.037  31.290  34.291  1.00  0.00     0.037 A 
ATOM     55  C   UNL A   1      42.815  27.055  30.200  1.00  0.00     0.049 A 
ATOM     56  C   UNL A   1      41.137  30.275  34.449  1.00  0.00     0.074 A 
ATOM     57  C   UNL A   1      43.881  26.206  30.442  1.00  0.00     0.029 A 
ATOM     58  N   UNL A   1      42.550  27.712  31.392  1.00  0.00    -0.354 N 
ATOM     59  N   UNL A   1      41.650  29.466  33.555  1.00  0.00    -0.248 NA
ATOM     60  C   UNL A   1      41.720  30.133  35.791  1.00  0.00     0.031 C 
ATOM     61  C   UNL A   1      44.237  26.322  31.790  1.00  0.00     0.029 A 
ATOM     62  C   UNL A   1      43.421  27.275  32.377  1.00  0.00     0.049 A 
ATOM     63  H   UNL A   1      41.846  28.388  31.520  1.00  0.00     0.167 HD
ATOM     64  C   UNL A   1      42.621  28.728  34.219  1.00  0.00     0.074 A 
ATOM     65  C   UNL A   1      42.635  29.194  35.590  1.00  0.00     0.031 C 
ATOM     66  C   UNL A   1      43.426  27.751  33.736  1.00  0.00     0.037 A 
BRANCH  53  67
ATOM     67  C   UNL A   1      42.463  26.434  27.781  1.00  0.00     0.064 A 
ATOM     68  C   UNL A   1      43.473  26.808  26.884  1.00  0.00     0.173 A 
ATOM     69  C   UNL A   1      41.800  25.217  27.555  1.00  0.00     0.173 A 
ATOM     70  F   UNL A   1      44.125  27.968  27.046  1.00  0.00    -0.203 F 
ATOM     71  C   UNL A   1      43.787  26.007  25.788  1.00  0.00     0.198 A 
ATOM     72  C   UNL A   1      42.136  24.406  26.476  1.00  0.00     0.198 A 
ATOM     73  F   UNL A   1      40.831  24.811  28.388  1.00  0.00    -0.203 F 
ATOM     74  F   UNL A   1      44.722  26.405  24.915  1.00  0.00    -0.200 F 
ATOM     75  C   UNL A   1      43.124  24.804  25.588  1.00  0.00     0.200 A 
ATOM     76  F   UNL A   1      41.500  23.239  26.292  1.00  0.00    -0.200 F 
ATOM     77  F   UNL A   1      43.430  24.034  24.534  1.00  0.00    -0.200 F 
ENDBRANCH  53  67
BRANCH  54  78
ATOM     78  C   UNL A   1      39.553  32.075  35.456  1.00  0.00     0.064 A 
ATOM     79  C   UNL A   1      38.614  31.541  36.348  1.00  0.00     0.173 A 
ATOM     80  C   UNL A   1      40.040  33.366  35.715  1.00  0.00     0.173 A 
ATOM     81  F   UNL A   1      38.096  30.325  36.125  1.00  0.00    -0.203 F 
ATOM     82  C   UNL A   1      38.183  32.268  37.456  1.00  0.00     0.198 A 
ATOM     83  C   UNL A   1      39.629  34.079  36.838  1.00  0.00     0.198 A 
ATOM     84  F   UNL A   1      40.934  33.924  34.886  1.00  0.00    -0.203 F 
ATOM     85  F   UNL A   1      37.261  31.746  38.278  1.00  0.00    -0.200 F 
ATOM     86  C   UNL A   1      38.699  33.530  37.707  1.00  0.00     0.200 A 
ATOM     87  F   UNL A   1      40.142  35.293  37.082  1.00  0.00    -0.200 F 
ATOM     88  F   UNL A   1      38.297  34.220  38.783  1.00  0.00    -0.200 F 
ENDBRANCH  54  78
BRANCH  66  89
ATOM     89  C   UNL A   1      44.414  27.139  34.683  1.00  0.00     0.064 A 
ATOM     90  C   UNL A   1      44.124  25.963  35.388  1.00  0.00     0.173 A 
ATOM     91  C   UNL A   1      45.686  27.709  34.849  1.00  0.00     0.173 A 
ATOM     92  F   UNL A   1      42.918  25.389  35.276  1.00  0.00    -0.203 F 
ATOM     93  C   UNL A   1      45.068  25.386  36.235  1.00  0.00     0.198 A 
ATOM     94  C   UNL A   1      46.634  27.119  35.678  1.00  0.00     0.198 A 
ATOM     95  F   UNL A   1      46.012  28.833  34.192  1.00  0.00    -0.203 F 
ATOM     96  F   UNL A   1      44.759  24.280  36.926  1.00  0.00    -0.200 F 
ATOM     97  C   UNL A   1      46.323  25.961  36.374  1.00  0.00     0.200 A 
ATOM     98  F   UNL A   1      47.849  27.669  35.804  1.00  0.00    -0.200 F 
ATOM     99  F   UNL A   1      47.232  25.400  37.184  1.00  0.00    -0.200 F 
ENDBRANCH  66  89
ENDBRANCH  40  41
ENDBRANCH  33  35
ENDBRANCH  32  33
ENDBRANCH  31  32
ENDBRANCH  30  31
ENDBRANCH  29  30
ENDBRANCH  28  29
ENDBRANCH   1  28
TORSDOF 23
ENDMDL
MODEL 2
REMARK VINA RESULT:     -10.9      1.953      3.487
REMARK SMILES CCc1ccsc1C(=O)N(CC(=O)OCCOCCOCCOC(=O)c1ccc(-c2c3nc(c(-c4c(F)c(F)c(F)c(F)c4F)c4ccc([nH]4)c(-c4c(F)c(F)c(F)c(F)c4F)c4nc(c(-c5c(F)c(F)c(F)c(F)c5F)c5ccc2[nH]5)C=C4)C=C3)cc1)c1ccccc1N
REMARK SMILES IDX 18 1 17 2 16 3 15 4 14 5 12 6 13 7 11 8 10 9 8 10 9 11 7 12
REMARK SMILES IDX 3 13 4 14 5 15 6 16 2 17 1 18 89 19 90 20 94 21 91 22 93 23
REMARK SMILES IDX 92 24 95 25 19 28 20 29 21 30 22 31 23 32 24 33 25 34 26 35
REMARK SMILES IDX 27 36 88 37 28 38 87 39 29 40 30 41 31 42 81 43 32 44 86 45
REMARK SMILES IDX 80 46 82 47 33 48 85 49 79 50 78 51 34 53 66 54 46 55 65 56
REMARK SMILES IDX 47 57 50 58 64 59 83 60 48 61 49 62 63 64 84 65 51 66 35 67
REMARK SMILES IDX 36 68 44 69 37 70 38 71 42 72 45 73 39 74 40 75 43 76 41 77
REMARK SMILES IDX 67 78 68 79 76 80 69 81 70 82 74 83 77 84 71 85 72 86 75 87
REMARK SMILES IDX 73 88 52 89 53 90 61 91 54 92 55 93 59 94 62 95 56 96 57 97
REMARK SMILES IDX 60 98 58 99
REMARK H PARENT 95 26 95 27 82 52 50 63
REMARK Flexibility Score: inf
ROOT
ATOM      1  C   UNL A   1      31.837  28.525  25.358  1.00  0.00     0.188 C 
ENDROOT
BRANCH   1   2
ATOM      2  O   UNL A   1      31.177  27.262  25.351  1.00  0.00    -0.376 OA
BRANCH   2   3
ATOM      3  C   UNL A   1      30.360  26.958  24.230  1.00  0.00     0.202 C 
BRANCH   3   4
ATOM      4  C   UNL A   1      30.791  27.610  22.913  1.00  0.00     0.261 C 
BRANCH   4   5
ATOM      5  O   UNL A   1      31.333  26.701  21.927  1.00  0.00    -0.462 OA
BRANCH   5   6
ATOM      6  C   UNL A   1      32.634  26.338  22.103  1.00  0.00     0.326 C 
ATOM      7  O   UNL A   1      33.540  27.124  22.367  1.00  0.00    -0.250 OA
BRANCH   6   8
ATOM      8  C   UNL A   1      32.918  24.857  21.840  1.00  0.00     0.248 C 
BRANCH   8   9
ATOM      9  N   UNL A   1      33.052  23.973  22.985  1.00  0.00    -0.294 N 
BRANCH   9  10
ATOM     10  C   UNL A   1      32.034  23.098  23.408  1.00  0.00     0.269 C 
ATOM     11  O   UNL A   1      30.867  23.492  23.253  1.00  0.00    -0.268 OA
BRANCH  10  12
ATOM     12  C   UNL A   1      32.266  21.804  24.116  1.00  0.00     0.096 A 
ATOM     13  C   UNL A   1      32.548  21.282  25.392  1.00  0.00    -0.025 A 
ATOM     14  C   UNL A   1      32.738  19.843  25.344  1.00  0.00     0.016 A 
ATOM     15  C   UNL A   1      32.611  19.299  24.098  1.00  0.00     0.066 A 
ATOM     16  S   UNL A   1      32.193  20.467  22.960  1.00  0.00    -0.138 S 
BRANCH  13  17
ATOM     17  C   UNL A   1      32.780  21.914  26.743  1.00  0.00     0.034 C 
ATOM     18  C   UNL A   1      34.161  21.645  27.339  1.00  0.00     0.009 C 
ENDBRANCH  13  17
ENDBRANCH  10  12
ENDBRANCH   9  10
BRANCH   9  19
ATOM     19  C   UNL A   1      34.361  23.940  23.633  1.00  0.00     0.068 A 
ATOM     20  C   UNL A   1      35.383  23.166  23.057  1.00  0.00     0.028 A 
ATOM     21  C   UNL A   1      34.644  24.569  24.874  1.00  0.00     0.056 A 
ATOM     22  C   UNL A   1      36.629  22.993  23.670  1.00  0.00     0.002 A 
ATOM     23  C   UNL A   1      35.880  24.323  25.510  1.00  0.00     0.028 A 
ATOM     24  C   UNL A   1      36.872  23.558  24.909  1.00  0.00     0.002 A 
BRANCH  21  25
ATOM     25  N   UNL A   1      33.691  25.280  25.613  1.00  0.00    -0.397 N 
ATOM     26  H   UNL A   1      33.571  26.246  25.464  1.00  0.00     0.156 HD
ATOM     27  H   UNL A   1      33.139  24.815  26.283  1.00  0.00     0.156 HD
ENDBRANCH  21  25
ENDBRANCH   9  19
ENDBRANCH   8   9
ENDBRANCH   6   8
ENDBRANCH   5   6
ENDBRANCH   4   5
ENDBRANCH   3   4
ENDBRANCH   2   3
ENDBRANCH   1   2
BRANCH   1  28
ATOM     28  C   UNL A   1      33.055  28.698  26.269  1.00  0.00     0.188 C 
BRANCH  28  29
ATOM     29  O   UNL A   1      32.994  29.963  26.926  1.00  0.00    -0.376 OA
BRANCH  29  30
ATOM     30  C   UNL A   1      31.877  30.736  26.495  1.00  0.00     0.202 C 
BRANCH  30  31
ATOM     31  C   UNL A   1      31.992  32.194  26.954  1.00  0.00     0.261 C 
BRANCH  31  32
ATOM     32  O   UNL A   1      33.258  32.490  27.586  1.00  0.00    -0.460 OA
BRANCH  32  33
ATOM     33  C   UNL A   1      33.317  33.617  28.324  1.00  0.00     0.338 C 
ATOM     34  O   UNL A   1      32.559  34.569  28.277  1.00  0.00    -0.246 OA
BRANCH  33  35
ATOM     35  C   UNL A   1      34.492  33.588  29.222  1.00  0.00     0.060 A 
ATOM     36  C   UNL A   1      35.660  34.283  28.903  1.00  0.00     0.016 A 
ATOM     37  C   UNL A   1      34.491  32.700  30.293  1.00  0.00     0.016 A 
ATOM     38  C   UNL A   1      36.861  33.993  29.561  1.00  0.00     0.010 A 
ATOM     39  C   UNL A   1      35.671  32.476  31.009  1.00  0.00     0.010 A 
ATOM     40  C   UNL A   1      36.885  33.072  30.615  1.00  0.00    -0.014 A 
BRANCH  40  41
ATOM     41  C   UNL A   1      38.153  32.626  31.264  1.00  0.00     0.031 A 
ATOM     42  C   UNL A   1      38.901  31.455  30.678  1.00  0.00     0.074 A 
ATOM     43  C   UNL A   1      38.635  33.206  32.379  1.00  0.00     0.049 A 
ATOM     44  N   UNL A   1      39.776  30.658  31.234  1.00  0.00    -0.248 NA
ATOM     45  C   UNL A   1      38.602  31.135  29.274  1.00  0.00     0.031 C 
ATOM     46  C   UNL A   1      38.105  34.409  33.014  1.00  0.00     0.029 A 
ATOM     47  N   UNL A   1      39.676  32.827  33.197  1.00  0.00    -0.354 N 
ATOM     48  C   UNL A   1      40.070  29.694  30.278  1.00  0.00     0.074 A 
ATOM     49  C   UNL A   1      39.299  30.021  29.097  1.00  0.00     0.031 C 
ATOM     50  C   UNL A   1      38.811  34.665  34.127  1.00  0.00     0.029 A 
ATOM     51  C   UNL A   1      39.773  33.587  34.337  1.00  0.00     0.049 A 
ATOM     52  H   UNL A   1      40.288  32.085  32.986  1.00  0.00     0.167 HD
ATOM     53  C   UNL A   1      40.891  28.622  30.389  1.00  0.00     0.037 A 
ATOM     54  C   UNL A   1      40.492  33.397  35.461  1.00  0.00     0.037 A 
ATOM     55  C   UNL A   1      41.706  28.341  31.543  1.00  0.00     0.049 A 
ATOM     56  C   UNL A   1      41.356  32.172  35.597  1.00  0.00     0.074 A 
ATOM     57  C   UNL A   1      42.584  27.291  31.748  1.00  0.00     0.029 A 
ATOM     58  N   UNL A   1      41.752  29.130  32.682  1.00  0.00    -0.354 N 
ATOM     59  N   UNL A   1      41.556  31.202  34.740  1.00  0.00    -0.248 NA
ATOM     60  C   UNL A   1      42.070  32.003  36.870  1.00  0.00     0.031 C 
ATOM     61  C   UNL A   1      43.135  27.425  33.027  1.00  0.00     0.029 A 
ATOM     62  C   UNL A   1      42.632  28.581  33.601  1.00  0.00     0.049 A 
ATOM     63  H   UNL A   1      41.237  29.957  32.819  1.00  0.00     0.167 HD
ATOM     64  C   UNL A   1      42.423  30.314  35.361  1.00  0.00     0.074 A 
ATOM     65  C   UNL A   1      42.724  30.867  36.665  1.00  0.00     0.031 C 
ATOM     66  C   UNL A   1      42.924  29.145  34.894  1.00  0.00     0.037 A 
BRANCH  53  67
ATOM     67  C   UNL A   1      40.904  27.636  29.258  1.00  0.00     0.064 A 
ATOM     68  C   UNL A   1      39.929  26.638  29.122  1.00  0.00     0.173 A 
ATOM     69  C   UNL A   1      41.905  27.714  28.277  1.00  0.00     0.173 A 
ATOM     70  F   UNL A   1      38.960  26.510  30.039  1.00  0.00    -0.203 F 
ATOM     71  C   UNL A   1      39.972  25.737  28.059  1.00  0.00     0.198 A 
ATOM     72  C   UNL A   1      41.929  26.831  27.202  1.00  0.00     0.198 A 
ATOM     73  F   UNL A   1      42.858  28.655  28.358  1.00  0.00    -0.203 F 
ATOM     74  F   UNL A   1      39.059  24.760  27.973  1.00  0.00    -0.200 F 
ATOM     75  C   UNL A   1      40.968  25.837  27.098  1.00  0.00     0.200 A 
ATOM     76  F   UNL A   1      42.887  26.938  26.269  1.00  0.00    -0.200 F 
ATOM     77  F   UNL A   1      41.006  24.972  26.075  1.00  0.00    -0.200 F 
ENDBRANCH  53  67
BRANCH  54  78
ATOM     78  C   UNL A   1      40.352  34.358  36.586  1.00  0.00     0.064 A 
ATOM     79  C   UNL A   1      39.370  34.182  37.569  1.00  0.00     0.173 A 
ATOM     80  C   UNL A   1      41.215  35.459  36.713  1.00  0.00     0.173 A 
ATOM     81  F   UNL A   1      38.502  33.165  37.473  1.00  0.00    -0.203 F 
ATOM     82  C   UNL A   1      39.259  35.069  38.639  1.00  0.00     0.198 A 
ATOM     83  C   UNL A   1      41.121  36.326  37.798  1.00  0.00     0.198 A 
ATOM     84  F   UNL A   1      42.167  35.674  35.793  1.00  0.00    -0.203 F 
ATOM     85  F   UNL A   1      38.293  34.896  39.551  1.00  0.00    -0.200 F 
ATOM     86  C   UNL A   1      40.142  36.132  38.759  1.00  0.00     0.200 A 
ATOM     87  F   UNL A   1      41.985  37.345  37.914  1.00  0.00    -0.200 F 
ATOM     88  F   UNL A   1      40.044  36.973  39.797  1.00  0.00    -0.200 F 
ENDBRANCH  54  78
BRANCH  66  89
ATOM     89  C   UNL A   1      43.874  28.397  35.780  1.00  0.00     0.064 A 
ATOM     90  C   UNL A   1      45.248  28.675  35.785  1.00  0.00     0.173 A 
ATOM     91  C   UNL A   1      43.396  27.426  36.673  1.00  0.00     0.173 A 
ATOM     92  F   UNL A   1      45.756  29.583  34.938  1.00  0.00    -0.203 F 
ATOM     93  C   UNL A   1      46.112  27.998  36.642  1.00  0.00     0.198 A 
ATOM     94  C   UNL A   1      44.258  26.767  37.545  1.00  0.00     0.198 A 
ATOM     95  F   UNL A   1      42.088  27.128  36.710  1.00  0.00    -0.203 F 
ATOM     96  F   UNL A   1      47.427  28.254  36.607  1.00  0.00    -0.200 F 
ATOM     97  C   UNL A   1      45.615  27.050  37.525  1.00  0.00     0.200 A 
ATOM     98  F   UNL A   1      43.776  25.859  38.404  1.00  0.00    -0.200 F 
ATOM     99  F   UNL A   1      46.447  26.405  38.355  1.00  0.00    -0.200 F 
ENDBRANCH  66  89
ENDBRANCH  40  41
ENDBRANCH  33  35
ENDBRANCH  32  33
ENDBRANCH  31  32
ENDBRANCH  30  31
ENDBRANCH  29  30
ENDBRANCH  28  29
ENDBRANCH   1  28
TORSDOF 23
ENDMDL
MODEL 3
REMARK VINA RESULT:     -10.9      2.891      7.557
REMARK SMILES CCc1ccsc1C(=O)N(CC(=O)OCCOCCOCCOC(=O)c1ccc(-c2c3nc(c(-c4c(F)c(F)c(F)c(F)c4F)c4ccc([nH]4)c(-c4c(F)c(F)c(F)c(F)c4F)c4nc(c(-c5c(F)c(F)c(F)c(F)c5F)c5ccc2[nH]5)C=C4)C=C3)cc1)c1ccccc1N
REMARK SMILES IDX 18 1 17 2 16 3 15 4 14 5 12 6 13 7 11 8 10 9 8 10 9 11 7 12
REMARK SMILES IDX 3 13 4 14 5 15 6 16 2 17 1 18 89 19 90 20 94 21 91 22 93 23
REMARK SMILES IDX 92 24 95 25 19 28 20 29 21 30 22 31 23 32 24 33 25 34 26 35
REMARK SMILES IDX 27 36 88 37 28 38 87 39 29 40 30 41 31 42 81 43 32 44 86 45
REMARK SMILES IDX 80 46 82 47 33 48 85 49 79 50 78 51 34 53 66 54 46 55 65 56
REMARK SMILES IDX 47 57 50 58 64 59 83 60 48 61 49 62 63 64 84 65 51 66 35 67
REMARK SMILES IDX 36 68 44 69 37 70 38 71 42 72 45 73 39 74 40 75 43 76 41 77
REMARK SMILES IDX 67 78 68 79 76 80 69 81 70 82 74 83 77 84 71 85 72 86 75 87
REMARK SMILES IDX 73 88 52 89 53 90 61 91 54 92 55 93 59 94 62 95 56 96 57 97
REMARK SMILES IDX 60 98 58 99
REMARK H PARENT 95 26 95 27 82 52 50 63
REMARK Flexibility Score: inf
ROOT
ATOM      1  C   UNL A   1      34.040  20.018  25.058  1.00  0.00     0.188 C 
ENDROOT
BRANCH   1   2
ATOM      2  O   UNL A   1      32.731  20.376  24.622  1.00  0.00    -0.376 OA
BRANCH   2   3
ATOM      3  C   UNL A   1      32.455  20.274  23.234  1.00  0.00     0.202 C 
BRANCH   3   4
ATOM      4  C   UNL A   1      31.873  21.536  22.591  1.00  0.00     0.261 C 
BRANCH   4   5
ATOM      5  O   UNL A   1      32.820  22.607  22.372  1.00  0.00    -0.462 OA
BRANCH   5   6
ATOM      6  C   UNL A   1      32.403  23.854  22.729  1.00  0.00     0.326 C 
ATOM      7  O   UNL A   1      32.943  24.894  22.361  1.00  0.00    -0.250 OA
BRANCH   6   8
ATOM      8  C   UNL A   1      31.245  23.870  23.730  1.00  0.00     0.248 C 
BRANCH   8   9
ATOM      9  N   UNL A   1      31.474  24.477  25.030  1.00  0.00    -0.294 N 
BRANCH   9  10
ATOM     10  C   UNL A   1      30.722  25.563  25.518  1.00  0.00     0.269 C 
ATOM     11  O   UNL A   1      29.761  25.283  26.252  1.00  0.00    -0.268 OA
BRANCH  10  12
ATOM     12  C   UNL A   1      30.937  26.987  25.127  1.00  0.00     0.096 A 
ATOM     13  C   UNL A   1      30.567  27.929  24.148  1.00  0.00    -0.025 A 
ATOM     14  C   UNL A   1      31.255  29.192  24.343  1.00  0.00     0.016 A 
ATOM     15  C   UNL A   1      32.107  29.211  25.411  1.00  0.00     0.066 A 
ATOM     16  S   UNL A   1      32.061  27.755  26.256  1.00  0.00    -0.138 S 
BRANCH  13  17
ATOM     17  C   UNL A   1      29.696  27.857  22.917  1.00  0.00     0.034 C 
ATOM     18  C   UNL A   1      28.695  29.002  22.783  1.00  0.00     0.009 C 
ENDBRANCH  13  17
ENDBRANCH  10  12
ENDBRANCH   9  10
BRANCH   9  19
ATOM     19  C   UNL A   1      32.464  23.829  25.886  1.00  0.00     0.068 A 
ATOM     20  C   UNL A   1      32.027  22.902  26.847  1.00  0.00     0.028 A 
ATOM     21  C   UNL A   1      33.848  24.150  25.876  1.00  0.00     0.056 A 
ATOM     22  C   UNL A   1      32.895  22.320  27.778  1.00  0.00     0.002 A 
ATOM     23  C   UNL A   1      34.693  23.607  26.868  1.00  0.00     0.028 A 
ATOM     24  C   UNL A   1      34.228  22.687  27.801  1.00  0.00     0.002 A 
BRANCH  21  25
ATOM     25  N   UNL A   1      34.405  25.131  25.047  1.00  0.00    -0.397 N 
ATOM     26  H   UNL A   1      34.093  26.062  25.107  1.00  0.00     0.156 HD
ATOM     27  H   UNL A   1      35.111  24.890  24.404  1.00  0.00     0.156 HD
ENDBRANCH  21  25
ENDBRANCH   9  19
ENDBRANCH   8   9
ENDBRANCH   6   8
ENDBRANCH   5   6
ENDBRANCH   4   5
ENDBRANCH   3   4
ENDBRANCH   2   3
ENDBRANCH   1   2
BRANCH   1  28
ATOM     28  C   UNL A   1      35.205  20.934  24.672  1.00  0.00     0.188 C 
BRANCH  28  29
ATOM     29  O   UNL A   1      36.367  20.583  25.423  1.00  0.00    -0.376 OA
BRANCH  29  30
ATOM     30  C   UNL A   1      37.565  21.028  24.793  1.00  0.00     0.202 C 
BRANCH  30  31
ATOM     31  C   UNL A   1      38.144  22.262  25.494  1.00  0.00     0.261 C 
BRANCH  31  32
ATOM     32  O   UNL A   1      39.236  21.946  26.387  1.00  0.00    -0.460 OA
BRANCH  32  33
ATOM     33  C   UNL A   1      40.363  22.672  26.247  1.00  0.00     0.338 C 
ATOM     34  O   UNL A   1      41.442  22.285  25.835  1.00  0.00    -0.246 OA
BRANCH  33  35
ATOM     35  C   UNL A   1      40.146  24.061  26.707  1.00  0.00     0.060 A 
ATOM     36  C   UNL A   1      40.918  25.113  26.212  1.00  0.00     0.016 A 
ATOM     37  C   UNL A   1      39.297  24.281  27.787  1.00  0.00     0.016 A 
ATOM     38  C   UNL A   1      40.949  26.346  26.874  1.00  0.00     0.010 A 
ATOM     39  C   UNL A   1      39.260  25.540  28.395  1.00  0.00     0.010 A 
ATOM     40  C   UNL A   1      40.129  26.570  27.987  1.00  0.00    -0.014 A 
BRANCH  40  41
ATOM     41  C   UNL A   1      40.214  27.812  28.811  1.00  0.00     0.031 A 
ATOM     42  C   UNL A   1      41.276  27.910  29.876  1.00  0.00     0.074 A 
ATOM     43  C   UNL A   1      39.351  28.835  28.664  1.00  0.00     0.049 A 
ATOM     44  N   UNL A   1      41.329  28.674  30.937  1.00  0.00    -0.248 NA
ATOM     45  C   UNL A   1      42.427  27.006  29.727  1.00  0.00     0.031 C 
ATOM     46  C   UNL A   1      38.340  28.956  27.618  1.00  0.00     0.029 A 
ATOM     47  N   UNL A   1      39.175  29.963  29.433  1.00  0.00    -0.354 N 
ATOM     48  C   UNL A   1      42.472  28.285  31.625  1.00  0.00     0.074 A 
ATOM     49  C   UNL A   1      43.097  27.236  30.848  1.00  0.00     0.031 C 
ATOM     50  C   UNL A   1      37.639  30.084  27.816  1.00  0.00     0.029 A 
ATOM     51  C   UNL A   1      38.085  30.709  29.057  1.00  0.00     0.049 A 
ATOM     52  H   UNL A   1      39.770  30.209  30.178  1.00  0.00     0.167 HD
ATOM     53  C   UNL A   1      42.940  28.749  32.809  1.00  0.00     0.037 A 
ATOM     54  C   UNL A   1      37.461  31.729  29.680  1.00  0.00     0.037 A 
ATOM     55  C   UNL A   1      42.349  29.839  33.543  1.00  0.00     0.049 A 
ATOM     56  C   UNL A   1      37.953  32.198  31.023  1.00  0.00     0.074 A 
ATOM     57  C   UNL A   1      42.756  30.396  34.742  1.00  0.00     0.029 A 
ATOM     58  N   UNL A   1      41.231  30.549  33.131  1.00  0.00    -0.354 N 
ATOM     59  N   UNL A   1      38.969  31.764  31.728  1.00  0.00    -0.248 NA
ATOM     60  C   UNL A   1      37.193  33.278  31.668  1.00  0.00     0.031 C 
ATOM     61  C   UNL A   1      41.862  31.420  35.075  1.00  0.00     0.029 A 
ATOM     62  C   UNL A   1      40.924  31.528  34.061  1.00  0.00     0.049 A 
ATOM     63  H   UNL A   1      40.729  30.381  32.301  1.00  0.00     0.167 HD
ATOM     64  C   UNL A   1      38.978  32.522  32.892  1.00  0.00     0.074 A 
ATOM     65  C   UNL A   1      37.873  33.452  32.793  1.00  0.00     0.031 C 
ATOM     66  C   UNL A   1      39.824  32.450  33.948  1.00  0.00     0.037 A 
BRANCH  53  67
ATOM     67  C   UNL A   1      44.112  28.040  33.420  1.00  0.00     0.064 A 
ATOM     68  C   UNL A   1      43.962  26.936  34.271  1.00  0.00     0.173 A 
ATOM     69  C   UNL A   1      45.417  28.466  33.120  1.00  0.00     0.173 A 
ATOM     70  F   UNL A   1      42.739  26.499  34.600  1.00  0.00    -0.203 F 
ATOM     71  C   UNL A   1      45.074  26.303  34.822  1.00  0.00     0.198 A 
ATOM     72  C   UNL A   1      46.526  27.813  33.650  1.00  0.00     0.198 A 
ATOM     73  F   UNL A   1      45.615  29.513  32.306  1.00  0.00    -0.203 F 
ATOM     74  F   UNL A   1      44.908  25.279  35.671  1.00  0.00    -0.200 F 
ATOM     75  C   UNL A   1      46.354  26.737  34.507  1.00  0.00     0.200 A 
ATOM     76  F   UNL A   1      47.761  28.229  33.334  1.00  0.00    -0.200 F 
ATOM     77  F   UNL A   1      47.422  26.123  35.036  1.00  0.00    -0.200 F 
ENDBRANCH  53  67
BRANCH  54  78
ATOM     78  C   UNL A   1      36.240  32.317  29.070  1.00  0.00     0.064 A 
ATOM     79  C   UNL A   1      35.114  31.528  28.802  1.00  0.00     0.173 A 
ATOM     80  C   UNL A   1      36.168  33.686  28.766  1.00  0.00     0.173 A 
ATOM     81  F   UNL A   1      35.147  30.211  29.044  1.00  0.00    -0.203 F 
ATOM     82  C   UNL A   1      33.960  32.088  28.256  1.00  0.00     0.198 A 
ATOM     83  C   UNL A   1      35.004  34.248  28.247  1.00  0.00     0.198 A 
ATOM     84  F   UNL A   1      37.223  34.481  28.997  1.00  0.00    -0.203 F 
ATOM     85  F   UNL A   1      32.906  31.307  27.981  1.00  0.00    -0.200 F 
ATOM     86  C   UNL A   1      33.902  33.448  27.990  1.00  0.00     0.200 A 
ATOM     87  F   UNL A   1      34.950  35.565  28.005  1.00  0.00    -0.200 F 
ATOM     88  F   UNL A   1      32.786  33.987  27.482  1.00  0.00    -0.200 F 
ENDBRANCH  54  78
BRANCH  66  89
ATOM     89  C   UNL A   1      39.613  33.423  35.069  1.00  0.00     0.064 A 
ATOM     90  C   UNL A   1      38.863  33.084  36.204  1.00  0.00     0.173 A 
ATOM     91  C   UNL A   1      40.211  34.692  35.030  1.00  0.00     0.173 A 
ATOM     92  F   UNL A   1      38.259  31.890  36.281  1.00  0.00    -0.203 F 
ATOM     93  C   UNL A   1      38.709  33.986  37.254  1.00  0.00     0.198 A 
ATOM     94  C   UNL A   1      40.074  35.582  36.090  1.00  0.00     0.198 A 
ATOM     95  F   UNL A   1      40.943  35.061  33.967  1.00  0.00    -0.203 F 
ATOM     96  F   UNL A   1      37.961  33.655  38.316  1.00  0.00    -0.200 F 
ATOM     97  C   UNL A   1      39.320  35.230  37.199  1.00  0.00     0.200 A 
ATOM     98  F   UNL A   1      40.673  36.780  36.040  1.00  0.00    -0.200 F 
ATOM     99  F   UNL A   1      39.176  36.094  38.214  1.00  0.00    -0.200 F 
ENDBRANCH  66  89
ENDBRANCH  40  41
ENDBRANCH  33  35
ENDBRANCH  32  33
ENDBRANCH  31  32
ENDBRANCH  30  31
ENDBRANCH  29  30
ENDBRANCH  28  29
ENDBRANCH   1  28
TORSDOF 23
ENDMDL
