MODEL 1
REMARK VINA RESULT:     -10.2      0.000      0.000
REMARK SMILES O=C(OCCOCCOCCOC(=O)c1ccnc(-n2cnnn2)c1)c1ccc(-c2c3nc(c(-c4c(F)c(F)c(F)c(F)c4F)c4ccc([nH]4)c(-c4c(F)c(F)c(F)c(F)c4F)c4nc(c(-c5c(F)c(F)c(F)c(F)c5F)c5ccc2[nH]5)C=C4)C=C3)cc1
REMARK SMILES IDX 7 1 6 2 5 3 4 4 3 5 2 6 1 7 26 8 27 9 88 10 28 11 87 12
REMARK SMILES IDX 29 13 30 14 31 15 81 16 32 17 86 18 80 19 82 20 33 21 85 22
REMARK SMILES IDX 79 23 78 24 34 26 66 27 46 28 65 29 47 30 50 31 64 32 83 33
REMARK SMILES IDX 48 34 49 35 63 37 84 38 51 39 35 40 36 41 44 42 37 43 38 44
REMARK SMILES IDX 42 45 45 46 39 47 40 48 43 49 41 50 67 51 68 52 76 53 69 54
REMARK SMILES IDX 70 55 74 56 77 57 71 58 72 59 75 60 73 61 52 62 53 63 61 64
REMARK SMILES IDX 54 65 55 66 59 67 62 68 56 69 57 70 60 71 58 72 8 73 9 74
REMARK SMILES IDX 10 75 11 76 12 77 13 78 14 79 15 80 16 81 25 82 17 83 19 84
REMARK SMILES IDX 18 85 20 86 21 87 24 88 22 89 23 90
REMARK H PARENT 82 25 50 36
REMARK Flexibility Score: inf
ROOT
ATOM      1  C   UNL A   1      44.381  18.947  24.632  1.00  0.00     0.188 C 
ENDROOT
BRANCH   1   2
ATOM      2  O   UNL A   1      43.483  18.302  25.511  1.00  0.00    -0.376 OA
BRANCH   2   3
ATOM      3  C   UNL A   1      42.308  18.909  26.011  1.00  0.00     0.202 C 
BRANCH   3   4
ATOM      4  C   UNL A   1      42.317  20.277  26.687  1.00  0.00     0.261 C 
BRANCH   4   5
ATOM      5  O   UNL A   1      41.594  21.286  25.987  1.00  0.00    -0.460 OA
BRANCH   5   6
ATOM      6  C   UNL A   1      40.432  21.873  26.337  1.00  0.00     0.338 C 
ATOM      7  O   UNL A   1      39.384  21.440  25.861  1.00  0.00    -0.246 OA
BRANCH   6   8
ATOM      8  C   UNL A   1      40.370  23.171  27.076  1.00  0.00     0.060 A 
ATOM      9  C   UNL A   1      39.455  24.205  26.866  1.00  0.00     0.016 A 
ATOM     10  C   UNL A   1      41.377  23.360  28.043  1.00  0.00     0.016 A 
ATOM     11  C   UNL A   1      39.624  25.436  27.495  1.00  0.00     0.010 A 
ATOM     12  C   UNL A   1      41.530  24.578  28.699  1.00  0.00     0.010 A 
ATOM     13  C   UNL A   1      40.700  25.643  28.358  1.00  0.00    -0.014 A 
BRANCH  13  14
ATOM     14  C   UNL A   1      40.981  27.020  28.755  1.00  0.00     0.031 A 
ATOM     15  C   UNL A   1      42.217  27.675  28.243  1.00  0.00     0.074 A 
ATOM     16  C   UNL A   1      40.149  27.706  29.564  1.00  0.00     0.049 A 
ATOM     17  N   UNL A   1      43.205  28.173  28.923  1.00  0.00    -0.248 NA
ATOM     18  C   UNL A   1      42.377  27.778  26.787  1.00  0.00     0.031 C 
ATOM     19  C   UNL A   1      38.784  27.354  29.969  1.00  0.00     0.029 A 
ATOM     20  N   UNL A   1      40.336  28.933  30.130  1.00  0.00    -0.354 N 
ATOM     21  C   UNL A   1      44.044  28.789  27.995  1.00  0.00     0.074 A 
ATOM     22  C   UNL A   1      43.527  28.449  26.692  1.00  0.00     0.031 C 
ATOM     23  C   UNL A   1      38.194  28.434  30.524  1.00  0.00     0.029 A 
ATOM     24  C   UNL A   1      39.182  29.492  30.644  1.00  0.00     0.049 A 
ATOM     25  H   UNL A   1      41.214  29.380  30.169  1.00  0.00     0.167 HD
ATOM     26  C   UNL A   1      45.020  29.670  28.358  1.00  0.00     0.037 A 
ATOM     27  C   UNL A   1      39.018  30.761  31.079  1.00  0.00     0.037 A 
ATOM     28  C   UNL A   1      45.385  29.544  29.740  1.00  0.00     0.049 A 
ATOM     29  C   UNL A   1      40.351  31.311  31.417  1.00  0.00     0.074 A 
ATOM     30  C   UNL A   1      45.929  28.544  30.521  1.00  0.00     0.029 A 
ATOM     31  N   UNL A   1      44.981  30.511  30.624  1.00  0.00    -0.354 N 
ATOM     32  N   UNL A   1      41.074  30.925  32.431  1.00  0.00    -0.248 NA
ATOM     33  C   UNL A   1      41.059  32.073  30.400  1.00  0.00     0.031 C 
ATOM     34  C   UNL A   1      45.385  28.746  31.824  1.00  0.00     0.029 A 
ATOM     35  C   UNL A   1      44.547  29.857  31.747  1.00  0.00     0.049 A 
ATOM     36  H   UNL A   1      44.998  31.484  30.480  1.00  0.00     0.167 HD
ATOM     37  C   UNL A   1      42.385  31.042  31.995  1.00  0.00     0.074 A 
ATOM     38  C   UNL A   1      42.315  31.868  30.797  1.00  0.00     0.031 C 
ATOM     39  C   UNL A   1      43.367  30.234  32.488  1.00  0.00     0.037 A 
BRANCH  26  40
ATOM     40  C   UNL A   1      45.474  30.841  27.520  1.00  0.00     0.064 A 
ATOM     41  C   UNL A   1      46.843  31.000  27.216  1.00  0.00     0.173 A 
ATOM     42  C   UNL A   1      44.657  31.959  27.254  1.00  0.00     0.173 A 
ATOM     43  F   UNL A   1      47.718  30.013  27.461  1.00  0.00    -0.203 F 
ATOM     44  C   UNL A   1      47.359  32.206  26.734  1.00  0.00     0.198 A 
ATOM     45  C   UNL A   1      45.168  33.145  26.722  1.00  0.00     0.198 A 
ATOM     46  F   UNL A   1      43.364  31.983  27.598  1.00  0.00    -0.203 F 
ATOM     47  F   UNL A   1      48.681  32.347  26.568  1.00  0.00    -0.200 F 
ATOM     48  C   UNL A   1      46.521  33.279  26.488  1.00  0.00     0.200 A 
ATOM     49  F   UNL A   1      44.344  34.181  26.510  1.00  0.00    -0.200 F 
ATOM     50  F   UNL A   1      47.020  34.451  26.077  1.00  0.00    -0.200 F 
ENDBRANCH  26  40
BRANCH  27  51
ATOM     51  C   UNL A   1      37.804  31.591  30.947  1.00  0.00     0.064 A 
ATOM     52  C   UNL A   1      37.351  32.034  29.697  1.00  0.00     0.173 A 
ATOM     53  C   UNL A   1      36.924  31.766  32.036  1.00  0.00     0.173 A 
ATOM     54  F   UNL A   1      38.106  31.854  28.604  1.00  0.00    -0.203 F 
ATOM     55  C   UNL A   1      36.089  32.618  29.545  1.00  0.00     0.198 A 
ATOM     56  C   UNL A   1      35.672  32.361  31.885  1.00  0.00     0.198 A 
ATOM     57  F   UNL A   1      37.226  31.287  33.251  1.00  0.00    -0.203 F 
ATOM     58  F   UNL A   1      35.667  32.985  28.327  1.00  0.00    -0.200 F 
ATOM     59  C   UNL A   1      35.251  32.777  30.637  1.00  0.00     0.200 A 
ATOM     60  F   UNL A   1      34.859  32.476  32.944  1.00  0.00    -0.200 F 
ATOM     61  F   UNL A   1      34.025  33.294  30.481  1.00  0.00    -0.200 F 
ENDBRANCH  27  51
BRANCH  39  62
ATOM     62  C   UNL A   1      43.064  29.434  33.719  1.00  0.00     0.064 A 
ATOM     63  C   UNL A   1      42.346  28.226  33.693  1.00  0.00     0.173 A 
ATOM     64  C   UNL A   1      43.656  29.811  34.932  1.00  0.00     0.173 A 
ATOM     65  F   UNL A   1      41.847  27.748  32.546  1.00  0.00    -0.203 F 
ATOM     66  C   UNL A   1      42.192  27.455  34.843  1.00  0.00     0.198 A 
ATOM     67  C   UNL A   1      43.528  29.021  36.072  1.00  0.00     0.198 A 
ATOM     68  F   UNL A   1      44.410  30.920  34.997  1.00  0.00    -0.203 F 
ATOM     69  F   UNL A   1      41.500  26.307  34.794  1.00  0.00    -0.200 F 
ATOM     70  C   UNL A   1      42.789  27.850  36.029  1.00  0.00     0.200 A 
ATOM     71  F   UNL A   1      44.152  29.377  37.204  1.00  0.00    -0.200 F 
ATOM     72  F   UNL A   1      42.680  27.083  37.124  1.00  0.00    -0.200 F 
ENDBRANCH  39  62
ENDBRANCH  13  14
ENDBRANCH   6   8
ENDBRANCH   5   6
ENDBRANCH   4   5
ENDBRANCH   3   4
ENDBRANCH   2   3
ENDBRANCH   1   2
BRANCH   1  73
ATOM     73  C   UNL A   1      45.865  19.230  24.949  1.00  0.00     0.188 C 
BRANCH  73  74
ATOM     74  O   UNL A   1      46.359  20.550  24.995  1.00  0.00    -0.376 OA
BRANCH  74  75
ATOM     75  C   UNL A   1      45.460  21.622  25.222  1.00  0.00     0.202 C 
BRANCH  75  76
ATOM     76  C   UNL A   1      45.561  22.393  26.538  1.00  0.00     0.261 C 
BRANCH  76  77
ATOM     77  O   UNL A   1      44.420  23.236  26.783  1.00  0.00    -0.460 OA
BRANCH  77  78
ATOM     78  C   UNL A   1      44.254  24.257  25.922  1.00  0.00     0.338 C 
ATOM     79  O   UNL A   1      43.362  24.407  25.088  1.00  0.00    -0.246 OA
BRANCH  78  80
ATOM     80  C   UNL A   1      45.288  25.271  26.141  1.00  0.00     0.065 A 
ATOM     81  C   UNL A   1      45.653  25.602  27.439  1.00  0.00     0.036 A 
ATOM     82  C   UNL A   1      45.971  25.802  25.044  1.00  0.00     0.065 A 
ATOM     83  C   UNL A   1      46.743  26.434  27.593  1.00  0.00     0.114 A 
ATOM     84  C   UNL A   1      47.035  26.658  25.297  1.00  0.00     0.157 A 
ATOM     85  N   UNL A   1      47.445  26.950  26.559  1.00  0.00    -0.237 NA
BRANCH  84  86
ATOM     86  N   UNL A   1      47.713  27.266  24.211  1.00  0.00    -0.182 N 
ATOM     87  C   UNL A   1      49.060  27.294  23.956  1.00  0.00     0.254 A 
ATOM     88  N   UNL A   1      47.082  27.885  23.190  1.00  0.00    -0.039 NA
ATOM     89  N   UNL A   1      49.281  27.972  22.854  1.00  0.00    -0.117 NA
ATOM     90  N   UNL A   1      48.043  28.357  22.406  1.00  0.00    -0.024 NA
ENDBRANCH  84  86
ENDBRANCH  78  80
ENDBRANCH  77  78
ENDBRANCH  76  77
ENDBRANCH  75  76
ENDBRANCH  74  75
ENDBRANCH  73  74
ENDBRANCH   1  73
TORSDOF 18
ENDMDL
MODEL 2
REMARK VINA RESULT:     -10.2      4.679      7.171
REMARK SMILES O=C(OCCOCCOCCOC(=O)c1ccnc(-n2cnnn2)c1)c1ccc(-c2c3nc(c(-c4c(F)c(F)c(F)c(F)c4F)c4ccc([nH]4)c(-c4c(F)c(F)c(F)c(F)c4F)c4nc(c(-c5c(F)c(F)c(F)c(F)c5F)c5ccc2[nH]5)C=C4)C=C3)cc1
REMARK SMILES IDX 7 1 6 2 5 3 4 4 3 5 2 6 1 7 26 8 27 9 88 10 28 11 87 12
REMARK SMILES IDX 29 13 30 14 31 15 81 16 32 17 86 18 80 19 82 20 33 21 85 22
REMARK SMILES IDX 79 23 78 24 34 26 66 27 46 28 65 29 47 30 50 31 64 32 83 33
REMARK SMILES IDX 48 34 49 35 63 37 84 38 51 39 35 40 36 41 44 42 37 43 38 44
REMARK SMILES IDX 42 45 45 46 39 47 40 48 43 49 41 50 67 51 68 52 76 53 69 54
REMARK SMILES IDX 70 55 74 56 77 57 71 58 72 59 75 60 73 61 52 62 53 63 61 64
REMARK SMILES IDX 54 65 55 66 59 67 62 68 56 69 57 70 60 71 58 72 8 73 9 74
REMARK SMILES IDX 10 75 11 76 12 77 13 78 14 79 15 80 16 81 25 82 17 83 19 84
REMARK SMILES IDX 18 85 20 86 21 87 24 88 22 89 23 90
REMARK H PARENT 82 25 50 36
REMARK Flexibility Score: inf
ROOT
ATOM      1  C   UNL A   1      40.411  20.786  26.419  1.00  0.00     0.188 C 
ENDROOT
BRANCH   1   2
ATOM      2  O   UNL A   1      40.925  20.055  27.514  1.00  0.00    -0.376 OA
BRANCH   2   3
ATOM      3  C   UNL A   1      42.127  19.315  27.463  1.00  0.00     0.202 C 
BRANCH   3   4
ATOM      4  C   UNL A   1      42.656  18.697  26.171  1.00  0.00     0.261 C 
BRANCH   4   5
ATOM      5  O   UNL A   1      43.928  19.189  25.759  1.00  0.00    -0.460 OA
BRANCH   5   6
ATOM      6  C   UNL A   1      44.194  20.173  24.876  1.00  0.00     0.338 C 
ATOM      7  O   UNL A   1      44.530  19.867  23.733  1.00  0.00    -0.246 OA
BRANCH   6   8
ATOM      8  C   UNL A   1      44.342  21.605  25.277  1.00  0.00     0.060 A 
ATOM      9  C   UNL A   1      45.262  22.123  26.192  1.00  0.00     0.016 A 
ATOM     10  C   UNL A   1      43.415  22.491  24.692  1.00  0.00     0.016 A 
ATOM     11  C   UNL A   1      45.168  23.447  26.614  1.00  0.00     0.010 A 
ATOM     12  C   UNL A   1      43.340  23.824  25.087  1.00  0.00     0.010 A 
ATOM     13  C   UNL A   1      44.165  24.276  26.113  1.00  0.00    -0.014 A 
BRANCH  13  14
ATOM     14  C   UNL A   1      43.947  25.547  26.799  1.00  0.00     0.031 A 
ATOM     15  C   UNL A   1      44.941  26.641  26.611  1.00  0.00     0.074 A 
ATOM     16  C   UNL A   1      42.873  25.750  27.588  1.00  0.00     0.049 A 
ATOM     17  N   UNL A   1      45.652  27.246  27.513  1.00  0.00    -0.248 NA
ATOM     18  C   UNL A   1      45.180  27.114  25.242  1.00  0.00     0.031 C 
ATOM     19  C   UNL A   1      41.669  24.922  27.709  1.00  0.00     0.029 A 
ATOM     20  N   UNL A   1      42.602  26.816  28.396  1.00  0.00    -0.354 N 
ATOM     21  C   UNL A   1      46.320  28.279  26.855  1.00  0.00     0.074 A 
ATOM     22  C   UNL A   1      46.052  28.102  25.448  1.00  0.00     0.031 C 
ATOM     23  C   UNL A   1      40.715  25.620  28.362  1.00  0.00     0.029 A 
ATOM     24  C   UNL A   1      41.290  26.870  28.825  1.00  0.00     0.049 A 
ATOM     25  H   UNL A   1      43.280  27.484  28.649  1.00  0.00     0.167 HD
ATOM     26  C   UNL A   1      46.921  29.306  27.519  1.00  0.00     0.037 A 
ATOM     27  C   UNL A   1      40.687  27.899  29.461  1.00  0.00     0.037 A 
ATOM     28  C   UNL A   1      47.191  28.988  28.893  1.00  0.00     0.049 A 
ATOM     29  C   UNL A   1      41.734  28.733  30.093  1.00  0.00     0.074 A 
ATOM     30  C   UNL A   1      47.964  28.048  29.545  1.00  0.00     0.029 A 
ATOM     31  N   UNL A   1      46.421  29.562  29.871  1.00  0.00    -0.354 N 
ATOM     32  N   UNL A   1      42.457  28.364  31.114  1.00  0.00    -0.248 NA
ATOM     33  C   UNL A   1      42.237  29.882  29.355  1.00  0.00     0.031 C 
ATOM     34  C   UNL A   1      47.278  27.777  30.766  1.00  0.00     0.029 A 
ATOM     35  C   UNL A   1      46.132  28.573  30.773  1.00  0.00     0.049 A 
ATOM     36  H   UNL A   1      46.132  30.502  29.916  1.00  0.00     0.167 HD
ATOM     37  C   UNL A   1      43.689  28.965  30.911  1.00  0.00     0.074 A 
ATOM     38  C   UNL A   1      43.455  29.980  29.892  1.00  0.00     0.031 C 
ATOM     39  C   UNL A   1      44.837  28.400  31.385  1.00  0.00     0.037 A 
BRANCH  26  40
ATOM     40  C   UNL A   1      47.037  30.717  26.995  1.00  0.00     0.064 A 
ATOM     41  C   UNL A   1      48.281  31.382  27.033  1.00  0.00     0.173 A 
ATOM     42  C   UNL A   1      45.919  31.533  26.726  1.00  0.00     0.173 A 
ATOM     43  F   UNL A   1      49.408  30.711  27.314  1.00  0.00    -0.203 F 
ATOM     44  C   UNL A   1      48.385  32.766  26.870  1.00  0.00     0.198 A 
ATOM     45  C   UNL A   1      46.033  32.907  26.511  1.00  0.00     0.198 A 
ATOM     46  F   UNL A   1      44.670  31.051  26.771  1.00  0.00    -0.203 F 
ATOM     47  F   UNL A   1      49.572  33.369  27.028  1.00  0.00    -0.200 F 
ATOM     48  C   UNL A   1      47.261  33.529  26.610  1.00  0.00     0.200 A 
ATOM     49  F   UNL A   1      44.930  33.633  26.281  1.00  0.00    -0.200 F 
ATOM     50  F   UNL A   1      47.352  34.861  26.505  1.00  0.00    -0.200 F 
ENDBRANCH  26  40
BRANCH  27  51
ATOM     51  C   UNL A   1      39.283  28.333  29.305  1.00  0.00     0.064 A 
ATOM     52  C   UNL A   1      38.423  28.439  30.406  1.00  0.00     0.173 A 
ATOM     53  C   UNL A   1      38.826  28.885  28.090  1.00  0.00     0.173 A 
ATOM     54  F   UNL A   1      38.808  27.987  31.608  1.00  0.00    -0.203 F 
ATOM     55  C   UNL A   1      37.176  29.063  30.298  1.00  0.00     0.198 A 
ATOM     56  C   UNL A   1      37.577  29.495  27.981  1.00  0.00     0.198 A 
ATOM     57  F   UNL A   1      39.616  28.920  27.008  1.00  0.00    -0.203 F 
ATOM     58  F   UNL A   1      36.400  29.193  31.382  1.00  0.00    -0.200 F 
ATOM     59  C   UNL A   1      36.757  29.594  29.088  1.00  0.00     0.200 A 
ATOM     60  F   UNL A   1      37.201  30.033  26.812  1.00  0.00    -0.200 F 
ATOM     61  F   UNL A   1      35.583  30.232  28.997  1.00  0.00    -0.200 F 
ENDBRANCH  27  51
BRANCH  39  62
ATOM     62  C   UNL A   1      44.710  27.290  32.384  1.00  0.00     0.064 A 
ATOM     63  C   UNL A   1      44.515  25.946  32.020  1.00  0.00     0.173 A 
ATOM     64  C   UNL A   1      44.956  27.566  33.736  1.00  0.00     0.173 A 
ATOM     65  F   UNL A   1      44.384  25.596  30.734  1.00  0.00    -0.203 F 
ATOM     66  C   UNL A   1      44.523  24.933  32.975  1.00  0.00     0.198 A 
ATOM     67  C   UNL A   1      44.996  26.546  34.683  1.00  0.00     0.198 A 
ATOM     68  F   UNL A   1      45.216  28.823  34.129  1.00  0.00    -0.203 F 
ATOM     69  F   UNL A   1      44.333  23.657  32.603  1.00  0.00    -0.200 F 
ATOM     70  C   UNL A   1      44.771  25.233  34.304  1.00  0.00     0.200 A 
ATOM     71  F   UNL A   1      45.290  26.832  35.960  1.00  0.00    -0.200 F 
ATOM     72  F   UNL A   1      44.826  24.251  35.216  1.00  0.00    -0.200 F 
ENDBRANCH  39  62
ENDBRANCH  13  14
ENDBRANCH   6   8
ENDBRANCH   5   6
ENDBRANCH   4   5
ENDBRANCH   3   4
ENDBRANCH   2   3
ENDBRANCH   1   2
BRANCH   1  73
ATOM     73  C   UNL A   1      39.673  22.137  26.536  1.00  0.00     0.188 C 
BRANCH  73  74
ATOM     74  O   UNL A   1      38.592  22.450  25.686  1.00  0.00    -0.376 OA
BRANCH  74  75
ATOM     75  C   UNL A   1      37.615  21.461  25.409  1.00  0.00     0.202 C 
BRANCH  75  76
ATOM     76  C   UNL A   1      36.676  21.675  24.222  1.00  0.00     0.261 C 
BRANCH  76  77
ATOM     77  O   UNL A   1      35.449  22.331  24.590  1.00  0.00    -0.460 OA
BRANCH  77  78
ATOM     78  C   UNL A   1      34.720  21.716  25.539  1.00  0.00     0.338 C 
ATOM     79  O   UNL A   1      34.644  21.995  26.735  1.00  0.00    -0.246 OA
BRANCH  78  80
ATOM     80  C   UNL A   1      33.927  20.639  24.944  1.00  0.00     0.065 A 
ATOM     81  C   UNL A   1      32.921  20.954  24.039  1.00  0.00     0.036 A 
ATOM     82  C   UNL A   1      34.269  19.309  25.203  1.00  0.00     0.065 A 
ATOM     83  C   UNL A   1      32.316  19.904  23.380  1.00  0.00     0.114 A 
ATOM     84  C   UNL A   1      33.582  18.318  24.515  1.00  0.00     0.157 A 
ATOM     85  N   UNL A   1      32.635  18.605  23.585  1.00  0.00    -0.237 NA
BRANCH  84  86
ATOM     86  N   UNL A   1      33.857  16.957  24.797  1.00  0.00    -0.182 N 
ATOM     87  C   UNL A   1      32.967  15.929  24.985  1.00  0.00     0.254 A 
ATOM     88  N   UNL A   1      35.105  16.445  24.862  1.00  0.00    -0.039 NA
ATOM     89  N   UNL A   1      33.627  14.822  25.237  1.00  0.00    -0.117 NA
ATOM     90  N   UNL A   1      34.954  15.166  25.185  1.00  0.00    -0.024 NA
ENDBRANCH  84  86
ENDBRANCH  78  80
ENDBRANCH  77  78
ENDBRANCH  76  77
ENDBRANCH  75  76
ENDBRANCH  74  75
ENDBRANCH  73  74
ENDBRANCH   1  73
TORSDOF 18
ENDMDL
MODEL 3
REMARK VINA RESULT:      -9.9      4.915     11.734
REMARK SMILES O=C(OCCOCCOCCOC(=O)c1ccnc(-n2cnnn2)c1)c1ccc(-c2c3nc(c(-c4c(F)c(F)c(F)c(F)c4F)c4ccc([nH]4)c(-c4c(F)c(F)c(F)c(F)c4F)c4nc(c(-c5c(F)c(F)c(F)c(F)c5F)c5ccc2[nH]5)C=C4)C=C3)cc1
REMARK SMILES IDX 7 1 6 2 5 3 4 4 3 5 2 6 1 7 26 8 27 9 88 10 28 11 87 12
REMARK SMILES IDX 29 13 30 14 31 15 81 16 32 17 86 18 80 19 82 20 33 21 85 22
REMARK SMILES IDX 79 23 78 24 34 26 66 27 46 28 65 29 47 30 50 31 64 32 83 33
REMARK SMILES IDX 48 34 49 35 63 37 84 38 51 39 35 40 36 41 44 42 37 43 38 44
REMARK SMILES IDX 42 45 45 46 39 47 40 48 43 49 41 50 67 51 68 52 76 53 69 54
REMARK SMILES IDX 70 55 74 56 77 57 71 58 72 59 75 60 73 61 52 62 53 63 61 64
REMARK SMILES IDX 54 65 55 66 59 67 62 68 56 69 57 70 60 71 58 72 8 73 9 74
REMARK SMILES IDX 10 75 11 76 12 77 13 78 14 79 15 80 16 81 25 82 17 83 19 84
REMARK SMILES IDX 18 85 20 86 21 87 24 88 22 89 23 90
REMARK H PARENT 82 25 50 36
REMARK Flexibility Score: inf
ROOT
ATOM      1  C   UNL A   1      32.513  36.188  31.154  1.00  0.00     0.188 C 
ENDROOT
BRANCH   1   2
ATOM      2  O   UNL A   1      32.433  35.118  30.235  1.00  0.00    -0.376 OA
BRANCH   2   3
ATOM      3  C   UNL A   1      33.410  34.864  29.246  1.00  0.00     0.202 C 
BRANCH   3   4
ATOM      4  C   UNL A   1      34.711  34.125  29.550  1.00  0.00     0.261 C 
BRANCH   4   5
ATOM      5  O   UNL A   1      34.575  32.711  29.657  1.00  0.00    -0.460 OA
BRANCH   5   6
ATOM      6  C   UNL A   1      34.821  31.777  28.716  1.00  0.00     0.338 C 
ATOM      7  O   UNL A   1      33.875  31.313  28.082  1.00  0.00    -0.246 OA
BRANCH   6   8
ATOM      8  C   UNL A   1      36.145  31.099  28.573  1.00  0.00     0.060 A 
ATOM      9  C   UNL A   1      36.372  29.809  28.090  1.00  0.00     0.016 A 
ATOM     10  C   UNL A   1      37.253  31.846  29.024  1.00  0.00     0.016 A 
ATOM     11  C   UNL A   1      37.637  29.232  28.184  1.00  0.00     0.010 A 
ATOM     12  C   UNL A   1      38.525  31.284  29.088  1.00  0.00     0.010 A 
ATOM     13  C   UNL A   1      38.695  29.945  28.746  1.00  0.00    -0.014 A 
BRANCH  13  14
ATOM     14  C   UNL A   1      39.905  29.194  29.074  1.00  0.00     0.031 A 
ATOM     15  C   UNL A   1      40.240  28.969  30.508  1.00  0.00     0.074 A 
ATOM     16  C   UNL A   1      40.714  28.703  28.115  1.00  0.00     0.049 A 
ATOM     17  N   UNL A   1      41.308  29.329  31.152  1.00  0.00    -0.248 NA
ATOM     18  C   UNL A   1      39.253  28.260  31.332  1.00  0.00     0.031 C 
ATOM     19  C   UNL A   1      40.450  28.590  26.677  1.00  0.00     0.029 A 
ATOM     20  N   UNL A   1      41.934  28.109  28.256  1.00  0.00    -0.354 N 
ATOM     21  C   UNL A   1      41.205  28.766  32.423  1.00  0.00     0.074 A 
ATOM     22  C   UNL A   1      39.888  28.185  32.504  1.00  0.00     0.031 C 
ATOM     23  C   UNL A   1      41.371  27.776  26.119  1.00  0.00     0.029 A 
ATOM     24  C   UNL A   1      42.361  27.438  27.126  1.00  0.00     0.049 A 
ATOM     25  H   UNL A   1      42.462  28.156  29.087  1.00  0.00     0.167 HD
ATOM     26  C   UNL A   1      42.266  28.675  33.275  1.00  0.00     0.037 A 
ATOM     27  C   UNL A   1      43.418  26.601  27.031  1.00  0.00     0.037 A 
ATOM     28  C   UNL A   1      43.321  29.588  32.936  1.00  0.00     0.049 A 
ATOM     29  C   UNL A   1      44.351  26.903  28.140  1.00  0.00     0.074 A 
ATOM     30  C   UNL A   1      43.437  30.962  32.858  1.00  0.00     0.029 A 
ATOM     31  N   UNL A   1      44.468  29.097  32.368  1.00  0.00    -0.354 N 
ATOM     32  N   UNL A   1      45.063  27.992  28.230  1.00  0.00    -0.248 NA
ATOM     33  C   UNL A   1      44.236  26.129  29.366  1.00  0.00     0.031 C 
ATOM     34  C   UNL A   1      44.397  31.201  31.830  1.00  0.00     0.029 A 
ATOM     35  C   UNL A   1      44.799  29.954  31.352  1.00  0.00     0.049 A 
ATOM     36  H   UNL A   1      44.957  28.287  32.637  1.00  0.00     0.167 HD
ATOM     37  C   UNL A   1      45.147  28.247  29.590  1.00  0.00     0.074 A 
ATOM     38  C   UNL A   1      44.734  27.009  30.237  1.00  0.00     0.031 C 
ATOM     39  C   UNL A   1      45.278  29.521  30.062  1.00  0.00     0.037 A 
BRANCH  26  40
ATOM     40  C   UNL A   1      42.470  27.566  34.278  1.00  0.00     0.064 A 
ATOM     41  C   UNL A   1      43.039  26.341  33.868  1.00  0.00     0.173 A 
ATOM     42  C   UNL A   1      41.865  27.560  35.552  1.00  0.00     0.173 A 
ATOM     43  F   UNL A   1      43.611  26.223  32.661  1.00  0.00    -0.203 F 
ATOM     44  C   UNL A   1      42.957  25.188  34.653  1.00  0.00     0.198 A 
ATOM     45  C   UNL A   1      41.832  26.419  36.356  1.00  0.00     0.198 A 
ATOM     46  F   UNL A   1      41.192  28.620  36.015  1.00  0.00    -0.203 F 
ATOM     47  F   UNL A   1      43.410  24.021  34.173  1.00  0.00    -0.200 F 
ATOM     48  C   UNL A   1      42.352  25.227  35.896  1.00  0.00     0.200 A 
ATOM     49  F   UNL A   1      41.223  26.470  37.549  1.00  0.00    -0.200 F 
ATOM     50  F   UNL A   1      42.226  24.111  36.626  1.00  0.00    -0.200 F 
ENDBRANCH  26  40
BRANCH  27  51
ATOM     51  C   UNL A   1      43.510  25.385  26.197  1.00  0.00     0.064 A 
ATOM     52  C   UNL A   1      44.597  25.165  25.341  1.00  0.00     0.173 A 
ATOM     53  C   UNL A   1      42.639  24.295  26.405  1.00  0.00     0.173 A 
ATOM     54  F   UNL A   1      45.499  26.134  25.134  1.00  0.00    -0.203 F 
ATOM     55  C   UNL A   1      44.802  23.924  24.729  1.00  0.00     0.198 A 
ATOM     56  C   UNL A   1      42.838  23.063  25.785  1.00  0.00     0.198 A 
ATOM     57  F   UNL A   1      41.628  24.378  27.282  1.00  0.00    -0.203 F 
ATOM     58  F   UNL A   1      45.880  23.732  23.956  1.00  0.00    -0.200 F 
ATOM     59  C   UNL A   1      43.926  22.874  24.955  1.00  0.00     0.200 A 
ATOM     60  F   UNL A   1      42.001  22.047  26.040  1.00  0.00    -0.200 F 
ATOM     61  F   UNL A   1      44.150  21.673  24.405  1.00  0.00    -0.200 F 
ENDBRANCH  27  51
BRANCH  39  62
ATOM     62  C   UNL A   1      45.635  30.597  29.082  1.00  0.00     0.064 A 
ATOM     63  C   UNL A   1      46.961  30.942  28.767  1.00  0.00     0.173 A 
ATOM     64  C   UNL A   1      44.615  31.183  28.320  1.00  0.00     0.173 A 
ATOM     65  F   UNL A   1      47.990  30.340  29.379  1.00  0.00    -0.203 F 
ATOM     66  C   UNL A   1      47.247  31.863  27.764  1.00  0.00     0.198 A 
ATOM     67  C   UNL A   1      44.906  32.079  27.295  1.00  0.00     0.198 A 
ATOM     68  F   UNL A   1      43.335  30.839  28.532  1.00  0.00    -0.203 F 
ATOM     69  F   UNL A   1      48.521  32.177  27.482  1.00  0.00    -0.200 F 
ATOM     70  C   UNL A   1      46.220  32.426  27.024  1.00  0.00     0.200 A 
ATOM     71  F   UNL A   1      43.914  32.580  26.544  1.00  0.00    -0.200 F 
ATOM     72  F   UNL A   1      46.498  33.277  26.026  1.00  0.00    -0.200 F 
ENDBRANCH  39  62
ENDBRANCH  13  14
ENDBRANCH   6   8
ENDBRANCH   5   6
ENDBRANCH   4   5
ENDBRANCH   3   4
ENDBRANCH   2   3
ENDBRANCH   1   2
BRANCH   1  73
ATOM     73  C   UNL A   1      33.200  36.108  32.534  1.00  0.00     0.188 C 
BRANCH  73  74
ATOM     74  O   UNL A   1      34.607  36.099  32.646  1.00  0.00    -0.376 OA
BRANCH  74  75
ATOM     75  C   UNL A   1      35.251  34.986  33.240  1.00  0.00     0.202 C 
BRANCH  75  76
ATOM     76  C   UNL A   1      36.685  34.662  32.821  1.00  0.00     0.261 C 
BRANCH  76  77
ATOM     77  O   UNL A   1      37.653  34.990  33.835  1.00  0.00    -0.460 OA
BRANCH  77  78
ATOM     78  C   UNL A   1      38.786  34.265  33.814  1.00  0.00     0.338 C 
ATOM     79  O   UNL A   1      39.888  34.595  33.377  1.00  0.00    -0.246 OA
BRANCH  78  80
ATOM     80  C   UNL A   1      38.568  32.973  34.468  1.00  0.00     0.065 A 
ATOM     81  C   UNL A   1      38.875  31.804  33.784  1.00  0.00     0.036 A 
ATOM     82  C   UNL A   1      38.167  32.939  35.806  1.00  0.00     0.065 A 
ATOM     83  C   UNL A   1      38.812  30.624  34.496  1.00  0.00     0.114 A 
ATOM     84  C   UNL A   1      38.102  31.701  36.430  1.00  0.00     0.157 A 
ATOM     85  N   UNL A   1      38.452  30.551  35.797  1.00  0.00    -0.237 NA
BRANCH  84  86
ATOM     86  N   UNL A   1      37.640  31.619  37.768  1.00  0.00    -0.182 N 
ATOM     87  C   UNL A   1      37.540  32.622  38.698  1.00  0.00     0.254 A 
ATOM     88  N   UNL A   1      37.150  30.488  38.320  1.00  0.00    -0.039 NA
ATOM     89  N   UNL A   1      37.076  32.129  39.823  1.00  0.00    -0.117 NA
ATOM     90  N   UNL A   1      36.865  30.796  39.579  1.00  0.00    -0.024 NA
ENDBRANCH  84  86
ENDBRANCH  78  80
ENDBRANCH  77  78
ENDBRANCH  76  77
ENDBRANCH  75  76
ENDBRANCH  74  75
ENDBRANCH  73  74
ENDBRANCH   1  73
TORSDOF 18
ENDMDL
