MODEL 1
REMARK VINA RESULT:     -11.6      0.000      0.000
REMARK SMILES Cc1cccc(O[C@H](C)C(=O)N2CCC[C@@H](C(=O)OCCOCCOCCOC(=O)c3ccc(-c4c5nc(c(-c6c(F)c(F)c(F)c(F)c6F)c6ccc([nH]6)c(-c6c(F)c(F)c(F)c(F)c6F)c6nc(c(-c7c(F)c(F)c(F)c(F)c7F)c7ccc4[nH]7)C=C6)C=C5)cc3)C2)c1
REMARK SMILES IDX 23 1 22 2 21 3 20 4 19 5 17 6 18 7 16 8 12 9 13 10 94 11
REMARK SMILES IDX 14 12 15 13 10 14 11 15 8 16 9 17 7 18 6 19 1 20 2 21 3 22
REMARK SMILES IDX 95 23 4 24 5 25 24 26 25 27 26 28 27 29 28 30 29 31 30 32
REMARK SMILES IDX 31 33 32 34 93 35 33 36 92 37 34 38 35 39 36 40 86 41 37 42
REMARK SMILES IDX 91 43 85 44 87 45 38 46 90 47 84 48 83 49 39 51 71 52 51 53
REMARK SMILES IDX 70 54 52 55 55 56 69 57 88 58 53 59 54 60 68 62 89 63 56 64
REMARK SMILES IDX 40 65 41 66 49 67 42 68 43 69 47 70 50 71 44 72 45 73 48 74
REMARK SMILES IDX 46 75 72 76 73 77 81 78 74 79 75 80 79 81 82 82 76 83 77 84
REMARK SMILES IDX 80 85 78 86 57 87 58 88 66 89 59 90 60 91 64 92 67 93 61 94
REMARK SMILES IDX 62 95 65 96 63 97
REMARK H PARENT 87 50 55 61
REMARK Flexibility Score: inf
ROOT
ATOM      1  C   UNL A   1      42.277  20.999  27.195  1.00  0.00     0.188 C 
ENDROOT
BRANCH   1   2
ATOM      2  O   UNL A   1      41.547  19.887  26.751  1.00  0.00    -0.376 OA
BRANCH   2   3
ATOM      3  C   UNL A   1      40.260  20.137  26.245  1.00  0.00     0.202 C 
BRANCH   3   4
ATOM      4  C   UNL A   1      39.626  21.527  26.125  1.00  0.00     0.261 C 
BRANCH   4   5
ATOM      5  O   UNL A   1      38.222  21.951  25.918  1.00  0.00    -0.463 OA
BRANCH   5   6
ATOM      6  C   UNL A   1      37.256  22.824  25.525  1.00  0.00     0.310 C 
ATOM      7  O   UNL A   1      37.480  24.015  25.342  1.00  0.00    -0.252 OA
BRANCH   6   8
ATOM      8  C   UNL A   1      35.720  22.332  25.562  1.00  0.00     0.119 C 
ATOM      9  N   UNL A   1      32.372  23.023  25.476  1.00  0.00    -0.339 N 
ATOM     10  C   UNL A   1      32.049  21.595  24.707  1.00  0.00     0.119 C 
ATOM     11  C   UNL A   1      33.915  23.611  25.400  1.00  0.00     0.134 C 
ATOM     12  C   UNL A   1      33.317  20.261  24.474  1.00  0.00     0.022 C 
ATOM     13  C   UNL A   1      35.164  20.427  25.032  1.00  0.00     0.019 C 
BRANCH   9  14
ATOM     14  C   UNL A   1      31.577  23.587  26.498  1.00  0.00     0.263 C 
ATOM     15  O   UNL A   1      31.473  23.001  27.583  1.00  0.00    -0.271 OA
BRANCH  14  16
ATOM     16  C   UNL A   1      30.818  25.045  26.302  1.00  0.00     0.259 C 
ATOM     17  C   UNL A   1      29.293  25.182  26.127  1.00  0.00     0.064 C 
BRANCH  16  18
ATOM     18  O   UNL A   1      31.335  26.247  26.882  1.00  0.00    -0.481 OA
BRANCH  18  19
ATOM     19  C   UNL A   1      32.235  27.069  26.284  1.00  0.00     0.120 A 
ATOM     20  C   UNL A   1      32.802  28.021  22.655  1.00  0.00     0.044 C 
ATOM     21  C   UNL A   1      33.016  27.883  24.128  1.00  0.00    -0.047 A 
ATOM     22  C   UNL A   1      34.030  28.612  24.749  1.00  0.00     0.003 A 
ATOM     23  C   UNL A   1      32.161  27.082  24.898  1.00  0.00     0.049 A 
ATOM     24  C   UNL A   1      34.043  28.695  26.129  1.00  0.00     0.004 A 
ATOM     25  C   UNL A   1      33.084  27.993  26.875  1.00  0.00     0.046 A 
ENDBRANCH  18  19
ENDBRANCH  16  18
ENDBRANCH  14  16
ENDBRANCH   9  14
ENDBRANCH   6   8
ENDBRANCH   5   6
ENDBRANCH   4   5
ENDBRANCH   3   4
ENDBRANCH   2   3
ENDBRANCH   1   2
BRANCH   1  26
ATOM     26  C   UNL A   1      43.358  21.550  26.266  1.00  0.00     0.188 C 
BRANCH  26  27
ATOM     27  O   UNL A   1      43.107  22.830  25.713  1.00  0.00    -0.376 OA
BRANCH  27  28
ATOM     28  C   UNL A   1      44.009  23.876  26.064  1.00  0.00     0.202 C 
BRANCH  28  29
ATOM     29  C   UNL A   1      44.242  24.968  25.001  1.00  0.00     0.261 C 
BRANCH  29  30
ATOM     30  O   UNL A   1      43.966  26.240  25.634  1.00  0.00    -0.460 OA
BRANCH  30  31
ATOM     31  C   UNL A   1      42.857  26.975  25.368  1.00  0.00     0.338 C 
ATOM     32  O   UNL A   1      42.656  27.743  24.454  1.00  0.00    -0.246 OA
BRANCH  31  33
ATOM     33  C   UNL A   1      41.955  26.739  26.530  1.00  0.00     0.060 A 
ATOM     34  C   UNL A   1      40.411  26.030  26.405  1.00  0.00     0.016 A 
ATOM     35  C   UNL A   1      42.625  27.225  28.049  1.00  0.00     0.016 A 
ATOM     36  C   UNL A   1      39.409  25.953  27.876  1.00  0.00     0.010 A 
ATOM     37  C   UNL A   1      41.788  27.261  29.521  1.00  0.00     0.010 A 
ATOM     38  C   UNL A   1      40.108  26.698  29.577  1.00  0.00    -0.014 A 
BRANCH  38  39
ATOM     39  C   UNL A   1      39.803  28.207  30.496  1.00  0.00     0.031 A 
ATOM     40  C   UNL A   1      39.098  29.128  29.571  1.00  0.00     0.074 A 
ATOM     41  C   UNL A   1      39.913  28.539  31.893  1.00  0.00     0.049 A 
ATOM     42  N   UNL A   1      39.359  30.384  29.460  1.00  0.00    -0.248 NA
ATOM     43  C   UNL A   1      38.147  28.672  28.536  1.00  0.00     0.031 C 
ATOM     44  C   UNL A   1      39.208  29.522  32.756  1.00  0.00     0.029 A 
ATOM     45  N   UNL A   1      40.633  27.894  32.960  1.00  0.00    -0.354 N 
ATOM     46  C   UNL A   1      38.246  30.889  28.827  1.00  0.00     0.074 A 
ATOM     47  C   UNL A   1      37.816  29.830  27.962  1.00  0.00     0.031 C 
ATOM     48  C   UNL A   1      39.676  29.549  34.041  1.00  0.00     0.029 A 
ATOM     49  C   UNL A   1      40.755  28.592  34.163  1.00  0.00     0.049 A 
ATOM     50  H   UNL A   1      41.024  26.998  32.846  1.00  0.00     0.167 HD
ATOM     51  C   UNL A   1      37.524  31.865  29.455  1.00  0.00     0.037 A 
ATOM     52  C   UNL A   1      41.937  28.605  34.832  1.00  0.00     0.037 A 
ATOM     53  C   UNL A   1      38.134  32.221  30.767  1.00  0.00     0.049 A 
ATOM     54  C   UNL A   1      42.467  29.907  34.306  1.00  0.00     0.074 A 
ATOM     55  C   UNL A   1      37.660  32.320  32.066  1.00  0.00     0.029 A 
ATOM     56  N   UNL A   1      39.529  32.300  30.892  1.00  0.00    -0.354 N 
ATOM     57  N   UNL A   1      42.013  30.418  33.186  1.00  0.00    -0.248 NA
ATOM     58  C   UNL A   1      43.233  30.859  35.097  1.00  0.00     0.031 C 
ATOM     59  C   UNL A   1      38.785  32.501  32.943  1.00  0.00     0.029 A 
ATOM     60  C   UNL A   1      39.960  32.419  32.200  1.00  0.00     0.049 A 
ATOM     61  H   UNL A   1      40.142  32.271  30.122  1.00  0.00     0.167 HD
ATOM     62  C   UNL A   1      42.081  31.761  33.288  1.00  0.00     0.074 A 
ATOM     63  C   UNL A   1      42.974  31.991  34.416  1.00  0.00     0.031 C 
ATOM     64  C   UNL A   1      41.385  32.617  32.490  1.00  0.00     0.037 A 
BRANCH  51  65
ATOM     65  C   UNL A   1      36.164  32.395  28.989  1.00  0.00     0.064 A 
ATOM     66  C   UNL A   1      35.991  33.790  28.858  1.00  0.00     0.173 A 
ATOM     67  C   UNL A   1      35.029  31.646  28.590  1.00  0.00     0.173 A 
ATOM     68  F   UNL A   1      36.958  34.647  29.204  1.00  0.00    -0.203 F 
ATOM     69  C   UNL A   1      34.828  34.371  28.340  1.00  0.00     0.198 A 
ATOM     70  C   UNL A   1      33.881  32.226  28.036  1.00  0.00     0.198 A 
ATOM     71  F   UNL A   1      34.941  30.322  28.728  1.00  0.00    -0.203 F 
ATOM     72  F   UNL A   1      34.742  35.705  28.252  1.00  0.00    -0.200 F 
ATOM     73  C   UNL A   1      33.783  33.590  27.902  1.00  0.00     0.200 A 
ATOM     74  F   UNL A   1      32.870  31.440  27.632  1.00  0.00    -0.200 F 
ATOM     75  F   UNL A   1      32.692  34.143  27.357  1.00  0.00    -0.200 F 
ENDBRANCH  51  65
BRANCH  52  76
ATOM     76  C   UNL A   1      42.571  27.230  34.895  1.00  0.00     0.064 A 
ATOM     77  C   UNL A   1      43.656  26.949  34.018  1.00  0.00     0.173 A 
ATOM     78  C   UNL A   1      42.466  26.399  36.014  1.00  0.00     0.173 A 
ATOM     79  F   UNL A   1      43.830  27.692  32.912  1.00  0.00    -0.203 F 
ATOM     80  C   UNL A   1      44.652  26.005  34.328  1.00  0.00     0.198 A 
ATOM     81  C   UNL A   1      43.478  25.475  36.341  1.00  0.00     0.198 A 
ATOM     82  F   UNL A   1      41.454  26.570  36.875  1.00  0.00    -0.203 F 
ATOM     83  F   UNL A   1      45.749  25.902  33.560  1.00  0.00    -0.200 F 
ATOM     84  C   UNL A   1      44.585  25.304  35.520  1.00  0.00     0.200 A 
ATOM     85  F   UNL A   1      43.450  24.853  37.531  1.00  0.00    -0.200 F 
ATOM     86  F   UNL A   1      45.623  24.558  35.930  1.00  0.00    -0.200 F 
ENDBRANCH  52  76
BRANCH  64  87
ATOM     87  C   UNL A   1      42.103  33.799  31.943  1.00  0.00     0.064 A 
ATOM     88  C   UNL A   1      42.348  34.951  32.711  1.00  0.00     0.173 A 
ATOM     89  C   UNL A   1      42.692  33.761  30.667  1.00  0.00     0.173 A 
ATOM     90  F   UNL A   1      42.042  35.019  34.016  1.00  0.00    -0.203 F 
ATOM     91  C   UNL A   1      42.953  36.066  32.162  1.00  0.00     0.198 A 
ATOM     92  C   UNL A   1      43.395  34.839  30.163  1.00  0.00     0.198 A 
ATOM     93  F   UNL A   1      42.633  32.681  29.876  1.00  0.00    -0.203 F 
ATOM     94  F   UNL A   1      43.030  37.191  32.883  1.00  0.00    -0.200 F 
ATOM     95  C   UNL A   1      43.474  36.011  30.886  1.00  0.00     0.200 A 
ATOM     96  F   UNL A   1      43.992  34.732  28.969  1.00  0.00    -0.200 F 
ATOM     97  F   UNL A   1      44.068  37.085  30.358  1.00  0.00    -0.200 F 
ENDBRANCH  64  87
ENDBRANCH  38  39
ENDBRANCH  31  33
ENDBRANCH  30  31
ENDBRANCH  29  30
ENDBRANCH  28  29
ENDBRANCH  27  28
ENDBRANCH  26  27
ENDBRANCH   1  26
TORSDOF 21
ENDMDL
MODEL 2
REMARK VINA RESULT:     -11.1      4.079     11.096
REMARK SMILES Cc1cccc(O[C@H](C)C(=O)N2CCC[C@@H](C(=O)OCCOCCOCCOC(=O)c3ccc(-c4c5nc(c(-c6c(F)c(F)c(F)c(F)c6F)c6ccc([nH]6)c(-c6c(F)c(F)c(F)c(F)c6F)c6nc(c(-c7c(F)c(F)c(F)c(F)c7F)c7ccc4[nH]7)C=C6)C=C5)cc3)C2)c1
REMARK SMILES IDX 23 1 22 2 21 3 20 4 19 5 17 6 18 7 16 8 12 9 13 10 94 11
REMARK SMILES IDX 14 12 15 13 10 14 11 15 8 16 9 17 7 18 6 19 1 20 2 21 3 22
REMARK SMILES IDX 95 23 4 24 5 25 24 26 25 27 26 28 27 29 28 30 29 31 30 32
REMARK SMILES IDX 31 33 32 34 93 35 33 36 92 37 34 38 35 39 36 40 86 41 37 42
REMARK SMILES IDX 91 43 85 44 87 45 38 46 90 47 84 48 83 49 39 51 71 52 51 53
REMARK SMILES IDX 70 54 52 55 55 56 69 57 88 58 53 59 54 60 68 62 89 63 56 64
REMARK SMILES IDX 40 65 41 66 49 67 42 68 43 69 47 70 50 71 44 72 45 73 48 74
REMARK SMILES IDX 46 75 72 76 73 77 81 78 74 79 75 80 79 81 82 82 76 83 77 84
REMARK SMILES IDX 80 85 78 86 57 87 58 88 66 89 59 90 60 91 64 92 67 93 61 94
REMARK SMILES IDX 62 95 65 96 63 97
REMARK H PARENT 87 50 55 61
REMARK Flexibility Score: inf
ROOT
ATOM      1  C   UNL A   1      45.841  31.628  27.105  1.00  0.00     0.188 C 
ENDROOT
BRANCH   1   2
ATOM      2  O   UNL A   1      46.761  30.726  27.657  1.00  0.00    -0.376 OA
BRANCH   2   3
ATOM      3  C   UNL A   1      48.081  30.798  27.177  1.00  0.00     0.202 C 
BRANCH   3   4
ATOM      4  C   UNL A   1      49.291  30.147  27.856  1.00  0.00     0.261 C 
BRANCH   4   5
ATOM      5  O   UNL A   1      49.466  28.817  28.484  1.00  0.00    -0.463 OA
BRANCH   5   6
ATOM      6  C   UNL A   1      49.030  27.598  28.904  1.00  0.00     0.310 C 
ATOM      7  O   UNL A   1      49.684  26.890  29.660  1.00  0.00    -0.252 OA
BRANCH   6   8
ATOM      8  C   UNL A   1      47.745  26.954  28.172  1.00  0.00     0.119 C 
ATOM      9  N   UNL A   1      44.357  26.623  27.857  1.00  0.00    -0.339 N 
ATOM     10  C   UNL A   1      44.481  26.416  26.221  1.00  0.00     0.119 C 
ATOM     11  C   UNL A   1      45.615  27.352  28.644  1.00  0.00     0.134 C 
ATOM     12  C   UNL A   1      46.103  26.186  25.350  1.00  0.00     0.022 C 
ATOM     13  C   UNL A   1      47.819  26.244  26.246  1.00  0.00     0.019 C 
BRANCH   9  14
ATOM     14  C   UNL A   1      43.473  25.907  28.696  1.00  0.00     0.263 C 
ATOM     15  O   UNL A   1      42.694  26.527  29.430  1.00  0.00    -0.271 OA
BRANCH  14  16
ATOM     16  C   UNL A   1      43.417  24.252  28.686  1.00  0.00     0.259 C 
ATOM     17  C   UNL A   1      43.652  23.396  29.944  1.00  0.00     0.064 C 
BRANCH  16  18
ATOM     18  O   UNL A   1      42.575  23.534  27.778  1.00  0.00    -0.481 OA
BRANCH  18  19
ATOM     19  C   UNL A   1      42.990  22.520  26.976  1.00  0.00     0.120 A 
ATOM     20  C   UNL A   1      46.032  22.115  24.744  1.00  0.00     0.044 C 
ATOM     21  C   UNL A   1      44.702  21.860  25.378  1.00  0.00    -0.047 A 
ATOM     22  C   UNL A   1      44.054  20.647  25.155  1.00  0.00     0.003 A 
ATOM     23  C   UNL A   1      44.138  22.803  26.249  1.00  0.00     0.049 A 
ATOM     24  C   UNL A   1      42.977  20.309  25.953  1.00  0.00     0.004 A 
ATOM     25  C   UNL A   1      42.517  21.217  26.918  1.00  0.00     0.046 A 
ENDBRANCH  18  19
ENDBRANCH  16  18
ENDBRANCH  14  16
ENDBRANCH   9  14
ENDBRANCH   6   8
ENDBRANCH   5   6
ENDBRANCH   4   5
ENDBRANCH   3   4
ENDBRANCH   2   3
ENDBRANCH   1   2
BRANCH   1  26
ATOM     26  C   UNL A   1      46.341  33.033  26.774  1.00  0.00     0.188 C 
BRANCH  26  27
ATOM     27  O   UNL A   1      45.997  33.529  25.493  1.00  0.00    -0.376 OA
BRANCH  27  28
ATOM     28  C   UNL A   1      45.248  34.740  25.445  1.00  0.00     0.202 C 
BRANCH  28  29
ATOM     29  C   UNL A   1      43.824  34.691  26.034  1.00  0.00     0.261 C 
BRANCH  29  30
ATOM     30  O   UNL A   1      43.883  35.318  27.337  1.00  0.00    -0.460 OA
BRANCH  30  31
ATOM     31  C   UNL A   1      43.040  36.310  27.720  1.00  0.00     0.338 C 
ATOM     32  O   UNL A   1      42.825  37.373  27.183  1.00  0.00    -0.246 OA
BRANCH  31  33
ATOM     33  C   UNL A   1      42.513  35.873  29.043  1.00  0.00     0.060 A 
ATOM     34  C   UNL A   1      43.385  35.999  30.502  1.00  0.00     0.016 A 
ATOM     35  C   UNL A   1      40.904  35.242  28.985  1.00  0.00     0.016 A 
ATOM     36  C   UNL A   1      42.659  35.297  31.970  1.00  0.00     0.010 A 
ATOM     37  C   UNL A   1      40.097  34.497  30.274  1.00  0.00     0.010 A 
ATOM     38  C   UNL A   1      40.896  34.393  31.854  1.00  0.00    -0.014 A 
BRANCH  38  39
ATOM     39  C   UNL A   1      40.373  32.678  31.824  1.00  0.00     0.031 A 
ATOM     40  C   UNL A   1      41.582  31.865  32.104  1.00  0.00     0.074 A 
ATOM     41  C   UNL A   1      39.076  32.053  31.806  1.00  0.00     0.049 A 
ATOM     42  N   UNL A   1      41.889  30.782  31.478  1.00  0.00    -0.248 NA
ATOM     43  C   UNL A   1      42.670  32.305  33.003  1.00  0.00     0.031 C 
ATOM     44  C   UNL A   1      38.580  30.743  32.302  1.00  0.00     0.029 A 
ATOM     45  N   UNL A   1      37.784  32.577  31.451  1.00  0.00    -0.354 N 
ATOM     46  C   UNL A   1      42.813  30.184  32.303  1.00  0.00     0.074 A 
ATOM     47  C   UNL A   1      43.515  31.278  32.905  1.00  0.00     0.031 C 
ATOM     48  C   UNL A   1      37.260  30.521  32.019  1.00  0.00     0.029 A 
ATOM     49  C   UNL A   1      36.743  31.660  31.290  1.00  0.00     0.049 A 
ATOM     50  H   UNL A   1      37.639  33.543  31.326  1.00  0.00     0.167 HD
ATOM     51  C   UNL A   1      42.544  28.934  32.787  1.00  0.00     0.037 A 
ATOM     52  C   UNL A   1      35.874  31.783  30.254  1.00  0.00     0.037 A 
ATOM     53  C   UNL A   1      41.236  28.433  32.277  1.00  0.00     0.049 A 
ATOM     54  C   UNL A   1      36.536  30.827  29.304  1.00  0.00     0.074 A 
ATOM     55  C   UNL A   1      40.100  27.903  32.867  1.00  0.00     0.029 A 
ATOM     56  N   UNL A   1      40.861  28.682  30.948  1.00  0.00    -0.354 N 
ATOM     57  N   UNL A   1      37.801  30.509  29.440  1.00  0.00    -0.248 NA
ATOM     58  C   UNL A   1      35.818  29.936  28.406  1.00  0.00     0.031 C 
ATOM     59  C   UNL A   1      39.075  27.803  31.864  1.00  0.00     0.029 A 
ATOM     60  C   UNL A   1      39.546  28.359  30.676  1.00  0.00     0.049 A 
ATOM     61  H   UNL A   1      41.476  29.053  30.274  1.00  0.00     0.167 HD
ATOM     62  C   UNL A   1      37.958  29.244  28.999  1.00  0.00     0.074 A 
ATOM     63  C   UNL A   1      36.747  28.978  28.233  1.00  0.00     0.031 C 
ATOM     64  C   UNL A   1      39.030  28.463  29.306  1.00  0.00     0.037 A 
BRANCH  51  65
ATOM     65  C   UNL A   1      43.360  28.208  33.861  1.00  0.00     0.064 A 
ATOM     66  C   UNL A   1      43.954  26.970  33.537  1.00  0.00     0.173 A 
ATOM     67  C   UNL A   1      43.671  28.658  35.168  1.00  0.00     0.173 A 
ATOM     68  F   UNL A   1      43.754  26.391  32.347  1.00  0.00    -0.203 F 
ATOM     69  C   UNL A   1      44.806  26.278  34.406  1.00  0.00     0.198 A 
ATOM     70  C   UNL A   1      44.553  27.985  36.024  1.00  0.00     0.198 A 
ATOM     71  F   UNL A   1      43.134  29.750  35.713  1.00  0.00    -0.203 F 
ATOM     72  F   UNL A   1      45.326  25.104  34.024  1.00  0.00    -0.200 F 
ATOM     73  C   UNL A   1      45.128  26.798  35.640  1.00  0.00     0.200 A 
ATOM     74  F   UNL A   1      44.838  28.508  37.227  1.00  0.00    -0.200 F 
ATOM     75  F   UNL A   1      45.984  26.163  36.450  1.00  0.00    -0.200 F 
ENDBRANCH  51  65
BRANCH  52  76
ATOM     76  C   UNL A   1      35.417  33.214  30.060  1.00  0.00     0.064 A 
ATOM     77  C   UNL A   1      35.516  33.782  28.759  1.00  0.00     0.173 A 
ATOM     78  C   UNL A   1      34.526  33.849  30.931  1.00  0.00     0.173 A 
ATOM     79  F   UNL A   1      36.354  33.243  27.857  1.00  0.00    -0.203 F 
ATOM     80  C   UNL A   1      34.665  34.812  28.319  1.00  0.00     0.198 A 
ATOM     81  C   UNL A   1      33.653  34.859  30.482  1.00  0.00     0.198 A 
ATOM     82  F   UNL A   1      34.395  33.402  32.187  1.00  0.00    -0.203 F 
ATOM     83  F   UNL A   1      34.674  35.191  27.030  1.00  0.00    -0.200 F 
ATOM     84  C   UNL A   1      33.697  35.315  29.171  1.00  0.00     0.200 A 
ATOM     85  F   UNL A   1      32.668  35.290  31.286  1.00  0.00    -0.200 F 
ATOM     86  F   UNL A   1      32.746  36.142  28.710  1.00  0.00    -0.200 F 
ENDBRANCH  52  76
BRANCH  64  87
ATOM     87  C   UNL A   1      39.652  27.672  28.211  1.00  0.00     0.064 A 
ATOM     88  C   UNL A   1      39.386  26.303  28.027  1.00  0.00     0.173 A 
ATOM     89  C   UNL A   1      40.432  28.296  27.221  1.00  0.00     0.173 A 
ATOM     90  F   UNL A   1      38.478  25.646  28.764  1.00  0.00    -0.203 F 
ATOM     91  C   UNL A   1      40.030  25.571  27.047  1.00  0.00     0.198 A 
ATOM     92  C   UNL A   1      40.983  27.577  26.175  1.00  0.00     0.198 A 
ATOM     93  F   UNL A   1      40.668  29.615  27.212  1.00  0.00    -0.203 F 
ATOM     94  F   UNL A   1      39.862  24.243  27.005  1.00  0.00    -0.200 F 
ATOM     95  C   UNL A   1      40.832  26.208  26.123  1.00  0.00     0.200 A 
ATOM     96  F   UNL A   1      41.665  28.226  25.223  1.00  0.00    -0.200 F 
ATOM     97  F   UNL A   1      41.446  25.502  25.170  1.00  0.00    -0.200 F 
ENDBRANCH  64  87
ENDBRANCH  38  39
ENDBRANCH  31  33
ENDBRANCH  30  31
ENDBRANCH  29  30
ENDBRANCH  28  29
ENDBRANCH  27  28
ENDBRANCH  26  27
ENDBRANCH   1  26
TORSDOF 21
ENDMDL
MODEL 3
REMARK VINA RESULT:     -10.9      8.349     14.466
REMARK SMILES Cc1cccc(O[C@H](C)C(=O)N2CCC[C@@H](C(=O)OCCOCCOCCOC(=O)c3ccc(-c4c5nc(c(-c6c(F)c(F)c(F)c(F)c6F)c6ccc([nH]6)c(-c6c(F)c(F)c(F)c(F)c6F)c6nc(c(-c7c(F)c(F)c(F)c(F)c7F)c7ccc4[nH]7)C=C6)C=C5)cc3)C2)c1
REMARK SMILES IDX 23 1 22 2 21 3 20 4 19 5 17 6 18 7 16 8 12 9 13 10 94 11
REMARK SMILES IDX 14 12 15 13 10 14 11 15 8 16 9 17 7 18 6 19 1 20 2 21 3 22
REMARK SMILES IDX 95 23 4 24 5 25 24 26 25 27 26 28 27 29 28 30 29 31 30 32
REMARK SMILES IDX 31 33 32 34 93 35 33 36 92 37 34 38 35 39 36 40 86 41 37 42
REMARK SMILES IDX 91 43 85 44 87 45 38 46 90 47 84 48 83 49 39 51 71 52 51 53
REMARK SMILES IDX 70 54 52 55 55 56 69 57 88 58 53 59 54 60 68 62 89 63 56 64
REMARK SMILES IDX 40 65 41 66 49 67 42 68 43 69 47 70 50 71 44 72 45 73 48 74
REMARK SMILES IDX 46 75 72 76 73 77 81 78 74 79 75 80 79 81 82 82 76 83 77 84
REMARK SMILES IDX 80 85 78 86 57 87 58 88 66 89 59 90 60 91 64 92 67 93 61 94
REMARK SMILES IDX 62 95 65 96 63 97
REMARK H PARENT 87 50 55 61
REMARK Flexibility Score: inf
ROOT
ATOM      1  C   UNL A   1      47.962  22.650  38.295  1.00  0.00     0.188 C 
ENDROOT
BRANCH   1   2
ATOM      2  O   UNL A   1      48.443  21.880  39.364  1.00  0.00    -0.376 OA
BRANCH   2   3
ATOM      3  C   UNL A   1      48.966  20.615  39.047  1.00  0.00     0.202 C 
BRANCH   3   4
ATOM      4  C   UNL A   1      48.542  19.303  39.717  1.00  0.00     0.261 C 
BRANCH   4   5
ATOM      5  O   UNL A   1      47.205  18.718  39.970  1.00  0.00    -0.463 OA
BRANCH   5   6
ATOM      6  C   UNL A   1      46.227  18.209  40.767  1.00  0.00     0.310 C 
ATOM      7  O   UNL A   1      45.041  18.255  40.464  1.00  0.00    -0.252 OA
BRANCH   6   8
ATOM      8  C   UNL A   1      46.616  17.776  42.271  1.00  0.00     0.119 C 
ATOM      9  N   UNL A   1      47.108  15.357  44.637  1.00  0.00    -0.339 N 
ATOM     10  C   UNL A   1      48.304  16.241  45.360  1.00  0.00     0.119 C 
ATOM     11  C   UNL A   1      46.727  15.708  43.068  1.00  0.00     0.134 C 
ATOM     12  C   UNL A   1      48.677  18.001  44.907  1.00  0.00     0.022 C 
ATOM     13  C   UNL A   1      47.767  18.960  43.493  1.00  0.00     0.019 C 
BRANCH   9  14
ATOM     14  C   UNL A   1      46.130  14.606  45.327  1.00  0.00     0.263 C 
ATOM     15  O   UNL A   1      45.550  15.107  46.298  1.00  0.00    -0.271 OA
BRANCH  14  16
ATOM     16  C   UNL A   1      45.698  13.085  44.835  1.00  0.00     0.259 C 
ATOM     17  C   UNL A   1      46.716  12.044  44.333  1.00  0.00     0.064 C 
BRANCH  16  18
ATOM     18  O   UNL A   1      44.566  12.407  45.391  1.00  0.00    -0.481 OA
BRANCH  18  19
ATOM     19  C   UNL A   1      43.628  11.746  44.666  1.00  0.00     0.120 A 
ATOM     20  C   UNL A   1      41.441  12.809  41.752  1.00  0.00     0.044 C 
ATOM     21  C   UNL A   1      41.992  11.999  42.882  1.00  0.00    -0.047 A 
ATOM     22  C   UNL A   1      41.566  10.684  43.060  1.00  0.00     0.003 A 
ATOM     23  C   UNL A   1      42.984  12.530  43.719  1.00  0.00     0.049 A 
ATOM     24  C   UNL A   1      42.274   9.864  43.919  1.00  0.00     0.004 A 
ATOM     25  C   UNL A   1      43.356  10.386  44.642  1.00  0.00     0.046 A 
ENDBRANCH  18  19
ENDBRANCH  16  18
ENDBRANCH  14  16
ENDBRANCH   9  14
ENDBRANCH   6   8
ENDBRANCH   5   6
ENDBRANCH   4   5
ENDBRANCH   3   4
ENDBRANCH   2   3
ENDBRANCH   1   2
BRANCH   1  26
ATOM     26  C   UNL A   1      48.388  22.243  36.886  1.00  0.00     0.188 C 
BRANCH  26  27
ATOM     27  O   UNL A   1      47.356  21.768  36.039  1.00  0.00    -0.376 OA
BRANCH  27  28
ATOM     28  C   UNL A   1      46.018  21.911  36.504  1.00  0.00     0.202 C 
BRANCH  28  29
ATOM     29  C   UNL A   1      45.144  22.953  35.778  1.00  0.00     0.261 C 
BRANCH  29  30
ATOM     30  O   UNL A   1      46.043  23.844  35.076  1.00  0.00    -0.460 OA
BRANCH  30  31
ATOM     31  C   UNL A   1      45.685  25.088  34.669  1.00  0.00     0.338 C 
ATOM     32  O   UNL A   1      45.112  25.954  35.290  1.00  0.00    -0.246 OA
BRANCH  31  33
ATOM     33  C   UNL A   1      46.032  25.130  33.221  1.00  0.00     0.060 A 
ATOM     34  C   UNL A   1      47.505  25.737  32.615  1.00  0.00     0.016 A 
ATOM     35  C   UNL A   1      44.811  24.475  32.186  1.00  0.00     0.016 A 
ATOM     36  C   UNL A   1      47.696  25.843  30.847  1.00  0.00     0.010 A 
ATOM     37  C   UNL A   1      44.821  24.545  30.494  1.00  0.00     0.010 A 
ATOM     38  C   UNL A   1      46.207  25.275  29.664  1.00  0.00    -0.014 A 
BRANCH  38  39
ATOM     39  C   UNL A   1      44.968  26.153  28.711  1.00  0.00     0.031 A 
ATOM     40  C   UNL A   1      45.076  27.582  29.094  1.00  0.00     0.074 A 
ATOM     41  C   UNL A   1      44.142  25.769  27.595  1.00  0.00     0.049 A 
ATOM     42  N   UNL A   1      44.067  28.351  29.316  1.00  0.00    -0.248 NA
ATOM     43  C   UNL A   1      46.353  28.235  29.451  1.00  0.00     0.031 C 
ATOM     44  C   UNL A   1      43.536  26.537  26.477  1.00  0.00     0.029 A 
ATOM     45  N   UNL A   1      43.775  24.469  27.098  1.00  0.00    -0.354 N 
ATOM     46  C   UNL A   1      44.604  29.616  29.236  1.00  0.00     0.074 A 
ATOM     47  C   UNL A   1      45.938  29.469  29.740  1.00  0.00     0.031 C 
ATOM     48  C   UNL A   1      42.758  25.772  25.652  1.00  0.00     0.029 A 
ATOM     49  C   UNL A   1      42.755  24.412  26.147  1.00  0.00     0.049 A 
ATOM     50  H   UNL A   1      44.225  23.653  27.416  1.00  0.00     0.167 HD
ATOM     51  C   UNL A   1      44.102  30.482  28.306  1.00  0.00     0.037 A 
ATOM     52  C   UNL A   1      41.795  23.455  26.228  1.00  0.00     0.037 A 
ATOM     53  C   UNL A   1      42.994  29.852  27.532  1.00  0.00     0.049 A 
ATOM     54  C   UNL A   1      40.749  24.260  26.943  1.00  0.00     0.074 A 
ATOM     55  C   UNL A   1      42.718  29.691  26.183  1.00  0.00     0.029 A 
ATOM     56  N   UNL A   1      42.065  29.029  28.184  1.00  0.00    -0.354 N 
ATOM     57  N   UNL A   1      41.074  25.330  27.630  1.00  0.00    -0.248 NA
ATOM     58  C   UNL A   1      39.320  24.161  26.686  1.00  0.00     0.031 C 
ATOM     59  C   UNL A   1      41.594  28.804  26.056  1.00  0.00     0.029 A 
ATOM     60  C   UNL A   1      41.234  28.341  27.320  1.00  0.00     0.049 A 
ATOM     61  H   UNL A   1      42.010  28.948  29.165  1.00  0.00     0.167 HD
ATOM     62  C   UNL A   1      40.038  26.191  27.567  1.00  0.00     0.074 A 
ATOM     63  C   UNL A   1      38.921  25.377  27.104  1.00  0.00     0.031 C 
ATOM     64  C   UNL A   1      40.140  27.519  27.849  1.00  0.00     0.037 A 
BRANCH  51  65
ATOM     65  C   UNL A   1      44.704  31.845  27.951  1.00  0.00     0.064 A 
ATOM     66  C   UNL A   1      44.213  32.993  28.608  1.00  0.00     0.173 A 
ATOM     67  C   UNL A   1      45.779  32.117  27.068  1.00  0.00     0.173 A 
ATOM     68  F   UNL A   1      43.190  32.920  29.467  1.00  0.00    -0.203 F 
ATOM     69  C   UNL A   1      44.765  34.268  28.438  1.00  0.00     0.198 A 
ATOM     70  C   UNL A   1      46.356  33.386  26.926  1.00  0.00     0.198 A 
ATOM     71  F   UNL A   1      46.322  31.195  26.272  1.00  0.00    -0.203 F 
ATOM     72  F   UNL A   1      44.237  35.308  29.097  1.00  0.00    -0.200 F 
ATOM     73  C   UNL A   1      45.855  34.461  27.619  1.00  0.00     0.200 A 
ATOM     74  F   UNL A   1      47.408  33.549  26.108  1.00  0.00    -0.200 F 
ATOM     75  F   UNL A   1      46.416  35.671  27.497  1.00  0.00    -0.200 F 
ENDBRANCH  51  65
BRANCH  52  76
ATOM     76  C   UNL A   1      42.375  22.090  26.535  1.00  0.00     0.064 A 
ATOM     77  C   UNL A   1      41.721  21.285  27.510  1.00  0.00     0.173 A 
ATOM     78  C   UNL A   1      43.212  21.406  25.647  1.00  0.00     0.173 A 
ATOM     79  F   UNL A   1      40.904  21.857  28.409  1.00  0.00    -0.203 F 
ATOM     80  C   UNL A   1      41.783  19.879  27.491  1.00  0.00     0.198 A 
ATOM     81  C   UNL A   1      43.250  19.999  25.609  1.00  0.00     0.198 A 
ATOM     82  F   UNL A   1      43.893  22.090  24.719  1.00  0.00    -0.203 F 
ATOM     83  F   UNL A   1      41.007  19.158  28.318  1.00  0.00    -0.200 F 
ATOM     84  C   UNL A   1      42.510  19.237  26.504  1.00  0.00     0.200 A 
ATOM     85  F   UNL A   1      43.893  19.379  24.607  1.00  0.00    -0.200 F 
ATOM     86  F   UNL A   1      42.413  17.908  26.343  1.00  0.00    -0.200 F 
ENDBRANCH  52  76
BRANCH  64  87
ATOM     87  C   UNL A   1      39.076  28.137  28.686  1.00  0.00     0.064 A 
ATOM     88  C   UNL A   1      38.959  27.879  30.063  1.00  0.00     0.173 A 
ATOM     89  C   UNL A   1      38.220  29.119  28.158  1.00  0.00     0.173 A 
ATOM     90  F   UNL A   1      39.858  27.141  30.732  1.00  0.00    -0.203 F 
ATOM     91  C   UNL A   1      37.920  28.406  30.807  1.00  0.00     0.198 A 
ATOM     92  C   UNL A   1      37.253  29.729  28.936  1.00  0.00     0.198 A 
ATOM     93  F   UNL A   1      38.302  29.542  26.889  1.00  0.00    -0.203 F 
ATOM     94  F   UNL A   1      37.759  28.015  32.077  1.00  0.00    -0.200 F 
ATOM     95  C   UNL A   1      37.065  29.329  30.242  1.00  0.00     0.200 A 
ATOM     96  F   UNL A   1      36.504  30.704  28.405  1.00  0.00    -0.200 F 
ATOM     97  F   UNL A   1      36.066  29.847  30.963  1.00  0.00    -0.200 F 
ENDBRANCH  64  87
ENDBRANCH  38  39
ENDBRANCH  31  33
ENDBRANCH  30  31
ENDBRANCH  29  30
ENDBRANCH  28  29
ENDBRANCH  27  28
ENDBRANCH  26  27
ENDBRANCH   1  26
TORSDOF 21
ENDMDL
