MODEL 1
REMARK VINA RESULT:     -11.4      0.000      0.000
REMARK SMILES C/C(=N\NC(N)=O)c1nnn(-c2ccc(C(=O)OCCOCCOCCOC(=O)c3ccc(-c4c5nc(c(-c6c(F)c(F)c(F)c(F)c6F)c6ccc([nH]6)c(-c6c(F)c(F)c(F)c(F)c6F)c6nc(c(-c7c(F)c(F)c(F)c(F)c7F)c7ccc4[nH]7)C=C6)C=C5)cc3)cc2)c1C
REMARK SMILES IDX 22 1 21 2 20 3 19 4 18 5 16 6 17 7 15 8 12 9 13 10 94 11
REMARK SMILES IDX 14 12 93 13 11 14 8 15 9 16 95 17 10 18 96 19 2 20 1 21 3 22
REMARK SMILES IDX 4 23 5 24 6 26 7 27 23 30 24 31 25 32 26 33 27 34 28 35
REMARK SMILES IDX 29 36 30 37 31 38 92 39 32 40 91 41 33 42 34 43 35 44 85 45
REMARK SMILES IDX 36 46 90 47 84 48 86 49 37 50 89 51 83 52 82 53 38 55 70 56
REMARK SMILES IDX 50 57 69 58 51 59 54 60 68 61 87 62 52 63 53 64 67 66 88 67
REMARK SMILES IDX 55 68 39 69 40 70 48 71 41 72 42 73 46 74 49 75 43 76 44 77
REMARK SMILES IDX 47 78 45 79 71 80 72 81 80 82 73 83 74 84 78 85 81 86 75 87
REMARK SMILES IDX 76 88 79 89 77 90 56 91 57 92 65 93 58 94 59 95 63 96 66 97
REMARK SMILES IDX 60 98 61 99 64 100 62 101
REMARK H PARENT 4 25 6 28 6 29 86 54 54 65
REMARK Flexibility Score: inf
ROOT
ATOM      1  C   UNL A   1      33.302  34.303  28.486  1.00  0.00     0.188 C 
ENDROOT
BRANCH   1   2
ATOM      2  O   UNL A   1      34.561  34.125  27.870  1.00  0.00    -0.376 OA
BRANCH   2   3
ATOM      3  C   UNL A   1      35.006  32.799  27.623  1.00  0.00     0.202 C 
BRANCH   3   4
ATOM      4  C   UNL A   1      34.162  31.558  27.990  1.00  0.00     0.261 C 
BRANCH   4   5
ATOM      5  O   UNL A   1      33.720  30.725  26.916  1.00  0.00    -0.460 OA
BRANCH   5   6
ATOM      6  C   UNL A   1      32.391  30.714  26.663  1.00  0.00     0.338 C 
ATOM      7  O   UNL A   1      31.655  31.681  26.599  1.00  0.00    -0.246 OA
BRANCH   6   8
ATOM      8  C   UNL A   1      31.968  29.336  26.312  1.00  0.00     0.060 A 
ATOM      9  C   UNL A   1      31.384  26.684  25.732  1.00  0.00     0.067 A 
ATOM     10  C   UNL A   1      31.467  27.087  27.069  1.00  0.00     0.029 A 
ATOM     11  C   UNL A   1      31.464  27.619  24.692  1.00  0.00     0.029 A 
ATOM     12  C   UNL A   1      31.792  28.413  27.354  1.00  0.00     0.018 A 
ATOM     13  C   UNL A   1      31.744  28.953  24.984  1.00  0.00     0.018 A 
BRANCH   9  14
ATOM     14  N   UNL A   1      31.444  25.304  25.443  1.00  0.00    -0.217 N 
ATOM     15  C   UNL A   1      32.119  23.233  25.420  1.00  0.00     0.132 A 
ATOM     16  N   UNL A   1      30.751  23.245  25.432  1.00  0.00    -0.128 NA
ATOM     17  C   UNL A   1      32.594  24.531  25.426  1.00  0.00     0.071 A 
ATOM     18  N   UNL A   1      30.352  24.508  25.513  1.00  0.00    -0.061 NA
ATOM     19  C   UNL A   1      33.972  25.053  25.607  1.00  0.00     0.069 C 
BRANCH  15  20
ATOM     20  C   UNL A   1      32.899  22.025  25.610  1.00  0.00     0.087 C 
ATOM     21  C   UNL A   1      33.567  21.870  26.955  1.00  0.00     0.071 C 
ATOM     22  N   UNL A   1      32.926  21.204  24.603  1.00  0.00    -0.174 NA
BRANCH  22  23
ATOM     23  N   UNL A   1      33.708  20.083  24.632  1.00  0.00    -0.229 N 
ATOM     24  C   UNL A   1      33.284  18.830  25.026  1.00  0.00     0.332 C 
ATOM     25  H   UNL A   1      34.648  20.177  24.351  1.00  0.00     0.195 HD
ATOM     26  N   UNL A   1      34.285  17.906  24.988  1.00  0.00    -0.350 N 
ATOM     27  O   UNL A   1      32.154  18.508  25.367  1.00  0.00    -0.247 OA
ATOM     28  H   UNL A   1      35.191  18.174  24.711  1.00  0.00     0.161 HD
ATOM     29  H   UNL A   1      34.101  16.972  25.235  1.00  0.00     0.161 HD
ENDBRANCH  22  23
ENDBRANCH  15  20
ENDBRANCH   9  14
ENDBRANCH   6   8
ENDBRANCH   5   6
ENDBRANCH   4   5
ENDBRANCH   3   4
ENDBRANCH   2   3
ENDBRANCH   1   2
BRANCH   1  30
ATOM     30  C   UNL A   1      33.178  35.631  29.264  1.00  0.00     0.188 C 
BRANCH  30  31
ATOM     31  O   UNL A   1      33.722  35.781  30.572  1.00  0.00    -0.376 OA
BRANCH  31  32
ATOM     32  C   UNL A   1      33.890  34.664  31.439  1.00  0.00     0.202 C 
BRANCH  32  33
ATOM     33  C   UNL A   1      35.266  34.029  31.638  1.00  0.00     0.261 C 
BRANCH  33  34
ATOM     34  O   UNL A   1      35.440  32.804  30.941  1.00  0.00    -0.460 OA
BRANCH  34  35
ATOM     35  C   UNL A   1      35.988  31.822  31.686  1.00  0.00     0.338 C 
ATOM     36  O   UNL A   1      35.840  31.631  32.880  1.00  0.00    -0.246 OA
BRANCH  35  37
ATOM     37  C   UNL A   1      36.870  31.001  30.844  1.00  0.00     0.060 A 
ATOM     38  C   UNL A   1      36.673  29.621  30.918  1.00  0.00     0.016 A 
ATOM     39  C   UNL A   1      38.003  31.558  30.233  1.00  0.00     0.016 A 
ATOM     40  C   UNL A   1      37.733  28.794  30.626  1.00  0.00     0.010 A 
ATOM     41  C   UNL A   1      39.067  30.729  29.943  1.00  0.00     0.010 A 
ATOM     42  C   UNL A   1      38.950  29.376  30.257  1.00  0.00    -0.014 A 
BRANCH  42  43
ATOM     43  C   UNL A   1      40.126  28.541  30.382  1.00  0.00     0.031 A 
ATOM     44  C   UNL A   1      40.707  28.414  31.730  1.00  0.00     0.074 A 
ATOM     45  C   UNL A   1      40.633  27.896  29.314  1.00  0.00     0.049 A 
ATOM     46  N   UNL A   1      41.905  28.709  32.111  1.00  0.00    -0.248 NA
ATOM     47  C   UNL A   1      39.820  27.937  32.799  1.00  0.00     0.031 C 
ATOM     48  C   UNL A   1      40.015  27.714  27.996  1.00  0.00     0.029 A 
ATOM     49  N   UNL A   1      41.784  27.176  29.224  1.00  0.00    -0.354 N 
ATOM     50  C   UNL A   1      41.982  28.304  33.437  1.00  0.00     0.074 A 
ATOM     51  C   UNL A   1      40.650  27.934  33.842  1.00  0.00     0.031 C 
ATOM     52  C   UNL A   1      40.696  26.766  27.318  1.00  0.00     0.029 A 
ATOM     53  C   UNL A   1      41.856  26.370  28.101  1.00  0.00     0.049 A 
ATOM     54  H   UNL A   1      42.502  27.222  29.897  1.00  0.00     0.167 HD
ATOM     55  C   UNL A   1      43.175  28.098  34.052  1.00  0.00     0.037 A 
ATOM     56  C   UNL A   1      42.756  25.386  27.875  1.00  0.00     0.037 A 
ATOM     57  C   UNL A   1      44.254  28.801  33.416  1.00  0.00     0.049 A 
ATOM     58  C   UNL A   1      43.921  25.616  28.762  1.00  0.00     0.074 A 
ATOM     59  C   UNL A   1      44.513  30.131  33.145  1.00  0.00     0.029 A 
ATOM     60  N   UNL A   1      45.158  28.093  32.667  1.00  0.00    -0.354 N 
ATOM     61  N   UNL A   1      44.784  26.581  28.616  1.00  0.00    -0.248 NA
ATOM     62  C   UNL A   1      43.931  24.966  30.065  1.00  0.00     0.031 C 
ATOM     63  C   UNL A   1      45.234  30.135  31.915  1.00  0.00     0.029 A 
ATOM     64  C   UNL A   1      45.372  28.806  31.514  1.00  0.00     0.049 A 
ATOM     65  H   UNL A   1      45.575  27.235  32.910  1.00  0.00     0.167 HD
ATOM     66  C   UNL A   1      45.148  26.929  29.908  1.00  0.00     0.074 A 
ATOM     67  C   UNL A   1      44.693  25.826  30.743  1.00  0.00     0.031 C 
ATOM     68  C   UNL A   1      45.531  28.203  30.213  1.00  0.00     0.037 A 
BRANCH  55  69
ATOM     69  C   UNL A   1      43.385  26.996  35.050  1.00  0.00     0.064 A 
ATOM     70  C   UNL A   1      43.706  27.306  36.383  1.00  0.00     0.173 A 
ATOM     71  C   UNL A   1      43.547  25.644  34.674  1.00  0.00     0.173 A 
ATOM     72  F   UNL A   1      43.636  28.571  36.824  1.00  0.00    -0.203 F 
ATOM     73  C   UNL A   1      44.187  26.335  37.265  1.00  0.00     0.198 A 
ATOM     74  C   UNL A   1      43.972  24.668  35.570  1.00  0.00     0.198 A 
ATOM     75  F   UNL A   1      43.404  25.243  33.403  1.00  0.00    -0.203 F 
ATOM     76  F   UNL A   1      44.583  26.692  38.494  1.00  0.00    -0.200 F 
ATOM     77  C   UNL A   1      44.315  25.018  36.860  1.00  0.00     0.200 A 
ATOM     78  F   UNL A   1      44.114  23.403  35.152  1.00  0.00    -0.200 F 
ATOM     79  F   UNL A   1      44.820  24.097  37.691  1.00  0.00    -0.200 F 
ENDBRANCH  55  69
BRANCH  56  80
ATOM     80  C   UNL A   1      42.546  24.122  27.135  1.00  0.00     0.064 A 
ATOM     81  C   UNL A   1      43.145  23.904  25.885  1.00  0.00     0.173 A 
ATOM     82  C   UNL A   1      41.952  23.001  27.750  1.00  0.00     0.173 A 
ATOM     83  F   UNL A   1      43.779  24.905  25.258  1.00  0.00    -0.203 F 
ATOM     84  C   UNL A   1      43.157  22.639  25.291  1.00  0.00     0.198 A 
ATOM     85  C   UNL A   1      41.950  21.744  27.150  1.00  0.00     0.198 A 
ATOM     86  F   UNL A   1      41.441  23.081  28.987  1.00  0.00    -0.203 F 
ATOM     87  F   UNL A   1      43.790  22.455  24.125  1.00  0.00    -0.200 F 
ATOM     88  C   UNL A   1      42.563  21.559  25.925  1.00  0.00     0.200 A 
ATOM     89  F   UNL A   1      41.402  20.702  27.791  1.00  0.00    -0.200 F 
ATOM     90  F   UNL A   1      42.616  20.337  25.379  1.00  0.00    -0.200 F 
ENDBRANCH  56  80
BRANCH  68  91
ATOM     91  C   UNL A   1      45.855  29.121  29.070  1.00  0.00     0.064 A 
ATOM     92  C   UNL A   1      47.134  29.221  28.496  1.00  0.00     0.173 A 
ATOM     93  C   UNL A   1      44.813  29.829  28.457  1.00  0.00     0.173 A 
ATOM     94  F   UNL A   1      48.155  28.489  28.962  1.00  0.00    -0.203 F 
ATOM     95  C   UNL A   1      47.367  30.042  27.395  1.00  0.00     0.198 A 
ATOM     96  C   UNL A   1      45.042  30.620  27.335  1.00  0.00     0.198 A 
ATOM     97  F   UNL A   1      43.559  29.720  28.925  1.00  0.00    -0.203 F 
ATOM     98  F   UNL A   1      48.601  30.138  26.877  1.00  0.00    -0.200 F 
ATOM     99  C   UNL A   1      46.320  30.737  26.812  1.00  0.00     0.200 A 
ATOM    100  F   UNL A   1      44.018  31.252  26.743  1.00  0.00    -0.200 F 
ATOM    101  F   UNL A   1      46.538  31.500  25.732  1.00  0.00    -0.200 F 
ENDBRANCH  68  91
ENDBRANCH  42  43
ENDBRANCH  35  37
ENDBRANCH  34  35
ENDBRANCH  33  34
ENDBRANCH  32  33
ENDBRANCH  31  32
ENDBRANCH  30  31
ENDBRANCH   1  30
TORSDOF 20
ENDMDL
MODEL 2
REMARK VINA RESULT:     -11.4      4.215     10.178
REMARK SMILES C/C(=N\NC(N)=O)c1nnn(-c2ccc(C(=O)OCCOCCOCCOC(=O)c3ccc(-c4c5nc(c(-c6c(F)c(F)c(F)c(F)c6F)c6ccc([nH]6)c(-c6c(F)c(F)c(F)c(F)c6F)c6nc(c(-c7c(F)c(F)c(F)c(F)c7F)c7ccc4[nH]7)C=C6)C=C5)cc3)cc2)c1C
REMARK SMILES IDX 22 1 21 2 20 3 19 4 18 5 16 6 17 7 15 8 12 9 13 10 94 11
REMARK SMILES IDX 14 12 93 13 11 14 8 15 9 16 95 17 10 18 96 19 2 20 1 21 3 22
REMARK SMILES IDX 4 23 5 24 6 26 7 27 23 30 24 31 25 32 26 33 27 34 28 35
REMARK SMILES IDX 29 36 30 37 31 38 92 39 32 40 91 41 33 42 34 43 35 44 85 45
REMARK SMILES IDX 36 46 90 47 84 48 86 49 37 50 89 51 83 52 82 53 38 55 70 56
REMARK SMILES IDX 50 57 69 58 51 59 54 60 68 61 87 62 52 63 53 64 67 66 88 67
REMARK SMILES IDX 55 68 39 69 40 70 48 71 41 72 42 73 46 74 49 75 43 76 44 77
REMARK SMILES IDX 47 78 45 79 71 80 72 81 80 82 73 83 74 84 78 85 81 86 75 87
REMARK SMILES IDX 76 88 79 89 77 90 56 91 57 92 65 93 58 94 59 95 63 96 66 97
REMARK SMILES IDX 60 98 61 99 64 100 62 101
REMARK H PARENT 4 25 6 28 6 29 86 54 54 65
REMARK Flexibility Score: inf
ROOT
ATOM      1  C   UNL A   1      40.024  20.075  26.176  1.00  0.00     0.188 C 
ENDROOT
BRANCH   1   2
ATOM      2  O   UNL A   1      39.090  19.397  25.363  1.00  0.00    -0.376 OA
BRANCH   2   3
ATOM      3  C   UNL A   1      37.987  20.132  24.850  1.00  0.00     0.202 C 
BRANCH   3   4
ATOM      4  C   UNL A   1      36.557  19.550  24.795  1.00  0.00     0.261 C 
BRANCH   4   5
ATOM      5  O   UNL A   1      35.512  20.324  25.388  1.00  0.00    -0.460 OA
BRANCH   5   6
ATOM      6  C   UNL A   1      34.318  20.324  24.750  1.00  0.00     0.338 C 
ATOM      7  O   UNL A   1      33.657  19.349  24.444  1.00  0.00    -0.246 OA
BRANCH   6   8
ATOM      8  C   UNL A   1      33.837  21.720  24.604  1.00  0.00     0.060 A 
ATOM      9  C   UNL A   1      32.784  24.287  24.504  1.00  0.00     0.067 A 
ATOM     10  C   UNL A   1      33.547  23.906  25.613  1.00  0.00     0.029 A 
ATOM     11  C   UNL A   1      32.654  23.441  23.395  1.00  0.00     0.029 A 
ATOM     12  C   UNL A   1      34.046  22.605  25.673  1.00  0.00     0.018 A 
ATOM     13  C   UNL A   1      33.194  22.157  23.441  1.00  0.00     0.018 A 
BRANCH   9  14
ATOM     14  N   UNL A   1      31.970  25.435  24.613  1.00  0.00    -0.217 N 
ATOM     15  C   UNL A   1      31.145  27.416  24.241  1.00  0.00     0.132 A 
ATOM     16  N   UNL A   1      30.118  26.569  24.560  1.00  0.00    -0.128 NA
ATOM     17  C   UNL A   1      32.341  26.724  24.267  1.00  0.00     0.071 A 
ATOM     18  N   UNL A   1      30.624  25.353  24.719  1.00  0.00    -0.061 NA
ATOM     19  C   UNL A   1      33.698  27.128  23.819  1.00  0.00     0.069 C 
BRANCH  15  20
ATOM     20  C   UNL A   1      30.932  28.758  23.735  1.00  0.00     0.087 C 
ATOM     21  C   UNL A   1      31.076  29.877  24.737  1.00  0.00     0.071 C 
ATOM     22  N   UNL A   1      30.652  28.848  22.468  1.00  0.00    -0.174 NA
BRANCH  22  23
ATOM     23  N   UNL A   1      30.335  30.053  21.904  1.00  0.00    -0.229 N 
ATOM     24  C   UNL A   1      29.081  30.415  21.459  1.00  0.00     0.332 C 
ATOM     25  H   UNL A   1      31.060  30.713  21.807  1.00  0.00     0.195 HD
ATOM     26  N   UNL A   1      29.063  31.662  20.911  1.00  0.00    -0.350 N 
ATOM     27  O   UNL A   1      28.054  29.753  21.530  1.00  0.00    -0.247 OA
ATOM     28  H   UNL A   1      29.893  32.189  20.858  1.00  0.00     0.161 HD
ATOM     29  H   UNL A   1      28.220  32.037  20.568  1.00  0.00     0.161 HD
ENDBRANCH  22  23
ENDBRANCH  15  20
ENDBRANCH   9  14
ENDBRANCH   6   8
ENDBRANCH   5   6
ENDBRANCH   4   5
ENDBRANCH   3   4
ENDBRANCH   2   3
ENDBRANCH   1   2
BRANCH   1  30
ATOM     30  C   UNL A   1      41.441  19.461  26.132  1.00  0.00     0.188 C 
BRANCH  30  31
ATOM     31  O   UNL A   1      42.470  20.024  25.323  1.00  0.00    -0.376 OA
BRANCH  31  32
ATOM     32  C   UNL A   1      43.369  21.000  25.838  1.00  0.00     0.202 C 
BRANCH  32  33
ATOM     33  C   UNL A   1      42.862  22.141  26.720  1.00  0.00     0.261 C 
BRANCH  33  34
ATOM     34  O   UNL A   1      41.893  22.966  26.092  1.00  0.00    -0.460 OA
BRANCH  34  35
ATOM     35  C   UNL A   1      41.209  23.756  26.945  1.00  0.00     0.338 C 
ATOM     36  O   UNL A   1      40.270  23.438  27.654  1.00  0.00    -0.246 OA
BRANCH  35  37
ATOM     37  C   UNL A   1      41.733  25.127  26.872  1.00  0.00     0.060 A 
ATOM     38  C   UNL A   1      42.659  25.480  27.855  1.00  0.00     0.016 A 
ATOM     39  C   UNL A   1      41.129  26.084  26.044  1.00  0.00     0.016 A 
ATOM     40  C   UNL A   1      42.778  26.808  28.193  1.00  0.00     0.010 A 
ATOM     41  C   UNL A   1      41.246  27.415  26.384  1.00  0.00     0.010 A 
ATOM     42  C   UNL A   1      41.977  27.739  27.527  1.00  0.00    -0.014 A 
BRANCH  42  43
ATOM     43  C   UNL A   1      41.802  29.020  28.178  1.00  0.00     0.031 A 
ATOM     44  C   UNL A   1      42.872  30.013  27.983  1.00  0.00     0.074 A 
ATOM     45  C   UNL A   1      40.693  29.284  28.898  1.00  0.00     0.049 A 
ATOM     46  N   UNL A   1      43.588  30.599  28.885  1.00  0.00    -0.248 NA
ATOM     47  C   UNL A   1      43.215  30.365  26.600  1.00  0.00     0.031 C 
ATOM     48  C   UNL A   1      39.449  28.509  28.952  1.00  0.00     0.029 A 
ATOM     49  N   UNL A   1      40.419  30.374  29.666  1.00  0.00    -0.354 N 
ATOM     50  C   UNL A   1      44.369  31.518  28.198  1.00  0.00     0.074 A 
ATOM     51  C   UNL A   1      44.179  31.265  26.792  1.00  0.00     0.031 C 
ATOM     52  C   UNL A   1      38.490  29.257  29.537  1.00  0.00     0.029 A 
ATOM     53  C   UNL A   1      39.083  30.501  30.002  1.00  0.00     0.049 A 
ATOM     54  H   UNL A   1      41.109  31.015  29.955  1.00  0.00     0.167 HD
ATOM     55  C   UNL A   1      44.956  32.568  28.828  1.00  0.00     0.037 A 
ATOM     56  C   UNL A   1      38.491  31.590  30.544  1.00  0.00     0.037 A 
ATOM     57  C   UNL A   1      45.121  32.344  30.237  1.00  0.00     0.049 A 
ATOM     58  C   UNL A   1      39.548  32.429  31.160  1.00  0.00     0.074 A 
ATOM     59  C   UNL A   1      45.781  31.395  30.994  1.00  0.00     0.029 A 
ATOM     60  N   UNL A   1      44.300  33.004  31.115  1.00  0.00    -0.354 N 
ATOM     61  N   UNL A   1      40.203  32.117  32.242  1.00  0.00    -0.248 NA
ATOM     62  C   UNL A   1      40.147  33.481  30.352  1.00  0.00     0.031 C 
ATOM     63  C   UNL A   1      44.991  31.229  32.169  1.00  0.00     0.029 A 
ATOM     64  C   UNL A   1      43.900  32.090  32.057  1.00  0.00     0.049 A 
ATOM     65  H   UNL A   1      44.045  33.955  31.077  1.00  0.00     0.167 HD
ATOM     66  C   UNL A   1      41.478  32.626  32.043  1.00  0.00     0.074 A 
ATOM     67  C   UNL A   1      41.347  33.557  30.930  1.00  0.00     0.031 C 
ATOM     68  C   UNL A   1      42.569  32.037  32.613  1.00  0.00     0.037 A 
BRANCH  55  69
ATOM     69  C   UNL A   1      45.087  33.920  28.188  1.00  0.00     0.064 A 
ATOM     70  C   UNL A   1      46.356  34.500  28.025  1.00  0.00     0.173 A 
ATOM     71  C   UNL A   1      43.983  34.776  27.977  1.00  0.00     0.173 A 
ATOM     72  F   UNL A   1      47.467  33.785  28.254  1.00  0.00    -0.203 F 
ATOM     73  C   UNL A   1      46.507  35.853  27.706  1.00  0.00     0.198 A 
ATOM     74  C   UNL A   1      44.136  36.107  27.604  1.00  0.00     0.198 A 
ATOM     75  F   UNL A   1      42.726  34.383  28.229  1.00  0.00    -0.203 F 
ATOM     76  F   UNL A   1      47.732  36.393  27.667  1.00  0.00    -0.200 F 
ATOM     77  C   UNL A   1      45.398  36.653  27.492  1.00  0.00     0.200 A 
ATOM     78  F   UNL A   1      43.050  36.873  27.426  1.00  0.00    -0.200 F 
ATOM     79  F   UNL A   1      45.542  37.959  27.232  1.00  0.00    -0.200 F 
ENDBRANCH  55  69
BRANCH  56  80
ATOM     80  C   UNL A   1      37.109  32.072  30.324  1.00  0.00     0.064 A 
ATOM     81  C   UNL A   1      36.177  32.103  31.372  1.00  0.00     0.173 A 
ATOM     82  C   UNL A   1      36.746  32.743  29.140  1.00  0.00     0.173 A 
ATOM     83  F   UNL A   1      36.468  31.535  32.551  1.00  0.00    -0.203 F 
ATOM     84  C   UNL A   1      34.957  32.773  31.244  1.00  0.00     0.198 A 
ATOM     85  C   UNL A   1      35.522  33.397  29.008  1.00  0.00     0.198 A 
ATOM     86  F   UNL A   1      37.606  32.857  28.118  1.00  0.00    -0.203 F 
ATOM     87  F   UNL A   1      34.115  32.832  32.285  1.00  0.00    -0.200 F 
ATOM     88  C   UNL A   1      34.632  33.423  30.064  1.00  0.00     0.200 A 
ATOM     89  F   UNL A   1      35.237  34.051  27.872  1.00  0.00    -0.200 F 
ATOM     90  F   UNL A   1      33.485  34.106  29.958  1.00  0.00    -0.200 F 
ENDBRANCH  56  80
BRANCH  68  91
ATOM     91  C   UNL A   1      42.324  31.036  33.704  1.00  0.00     0.064 A 
ATOM     92  C   UNL A   1      42.297  31.371  35.070  1.00  0.00     0.173 A 
ATOM     93  C   UNL A   1      41.985  29.723  33.352  1.00  0.00     0.173 A 
ATOM     94  F   UNL A   1      42.504  32.632  35.472  1.00  0.00    -0.203 F 
ATOM     95  C   UNL A   1      42.002  30.415  36.039  1.00  0.00     0.198 A 
ATOM     96  C   UNL A   1      41.655  28.780  34.322  1.00  0.00     0.198 A 
ATOM     97  F   UNL A   1      41.932  29.365  32.059  1.00  0.00    -0.203 F 
ATOM     98  F   UNL A   1      42.003  30.753  37.338  1.00  0.00    -0.200 F 
ATOM     99  C   UNL A   1      41.676  29.122  35.665  1.00  0.00     0.200 A 
ATOM    100  F   UNL A   1      41.292  27.544  33.953  1.00  0.00    -0.200 F 
ATOM    101  F   UNL A   1      41.359  28.211  36.595  1.00  0.00    -0.200 F 
ENDBRANCH  68  91
ENDBRANCH  42  43
ENDBRANCH  35  37
ENDBRANCH  34  35
ENDBRANCH  33  34
ENDBRANCH  32  33
ENDBRANCH  31  32
ENDBRANCH  30  31
ENDBRANCH   1  30
TORSDOF 20
ENDMDL
MODEL 3
REMARK VINA RESULT:     -11.0      1.572      2.512
REMARK SMILES C/C(=N\NC(N)=O)c1nnn(-c2ccc(C(=O)OCCOCCOCCOC(=O)c3ccc(-c4c5nc(c(-c6c(F)c(F)c(F)c(F)c6F)c6ccc([nH]6)c(-c6c(F)c(F)c(F)c(F)c6F)c6nc(c(-c7c(F)c(F)c(F)c(F)c7F)c7ccc4[nH]7)C=C6)C=C5)cc3)cc2)c1C
REMARK SMILES IDX 22 1 21 2 20 3 19 4 18 5 16 6 17 7 15 8 12 9 13 10 94 11
REMARK SMILES IDX 14 12 93 13 11 14 8 15 9 16 95 17 10 18 96 19 2 20 1 21 3 22
REMARK SMILES IDX 4 23 5 24 6 26 7 27 23 30 24 31 25 32 26 33 27 34 28 35
REMARK SMILES IDX 29 36 30 37 31 38 92 39 32 40 91 41 33 42 34 43 35 44 85 45
REMARK SMILES IDX 36 46 90 47 84 48 86 49 37 50 89 51 83 52 82 53 38 55 70 56
REMARK SMILES IDX 50 57 69 58 51 59 54 60 68 61 87 62 52 63 53 64 67 66 88 67
REMARK SMILES IDX 55 68 39 69 40 70 48 71 41 72 42 73 46 74 49 75 43 76 44 77
REMARK SMILES IDX 47 78 45 79 71 80 72 81 80 82 73 83 74 84 78 85 81 86 75 87
REMARK SMILES IDX 76 88 79 89 77 90 56 91 57 92 65 93 58 94 59 95 63 96 66 97
REMARK SMILES IDX 60 98 61 99 64 100 62 101
REMARK H PARENT 4 25 6 28 6 29 86 54 54 65
REMARK Flexibility Score: inf
ROOT
ATOM      1  C   UNL A   1      34.077  31.262  28.117  1.00  0.00     0.188 C 
ENDROOT
BRANCH   1   2
ATOM      2  O   UNL A   1      33.821  31.022  26.749  1.00  0.00    -0.376 OA
BRANCH   2   3
ATOM      3  C   UNL A   1      33.580  29.684  26.335  1.00  0.00     0.202 C 
BRANCH   3   4
ATOM      4  C   UNL A   1      32.777  29.342  25.060  1.00  0.00     0.261 C 
BRANCH   4   5
ATOM      5  O   UNL A   1      32.388  27.979  24.877  1.00  0.00    -0.460 OA
BRANCH   5   6
ATOM      6  C   UNL A   1      32.864  27.353  23.776  1.00  0.00     0.338 C 
ATOM      7  O   UNL A   1      32.964  27.825  22.658  1.00  0.00    -0.246 OA
BRANCH   6   8
ATOM      8  C   UNL A   1      33.407  26.027  24.158  1.00  0.00     0.060 A 
ATOM      9  C   UNL A   1      34.244  23.448  24.755  1.00  0.00     0.067 A 
ATOM     10  C   UNL A   1      34.351  23.911  23.440  1.00  0.00     0.029 A 
ATOM     11  C   UNL A   1      33.845  24.304  25.790  1.00  0.00     0.029 A 
ATOM     12  C   UNL A   1      33.898  25.196  23.140  1.00  0.00     0.018 A 
ATOM     13  C   UNL A   1      33.437  25.603  25.491  1.00  0.00     0.018 A 
BRANCH   9  14
ATOM     14  N   UNL A   1      34.329  22.058  24.985  1.00  0.00    -0.217 N 
ATOM     15  C   UNL A   1      33.845  19.934  24.961  1.00  0.00     0.132 A 
ATOM     16  N   UNL A   1      35.202  20.073  24.858  1.00  0.00    -0.128 NA
ATOM     17  C   UNL A   1      33.256  21.182  25.044  1.00  0.00     0.071 A 
ATOM     18  N   UNL A   1      35.480  21.370  24.807  1.00  0.00    -0.061 NA
ATOM     19  C   UNL A   1      31.828  21.581  24.979  1.00  0.00     0.069 C 
BRANCH  15  20
ATOM     20  C   UNL A   1      33.165  18.668  24.769  1.00  0.00     0.087 C 
ATOM     21  C   UNL A   1      32.613  18.413  23.388  1.00  0.00     0.071 C 
ATOM     22  N   UNL A   1      33.118  17.887  25.808  1.00  0.00    -0.174 NA
BRANCH  22  23
ATOM     23  N   UNL A   1      32.418  16.713  25.772  1.00  0.00    -0.229 N 
ATOM     24  C   UNL A   1      32.964  15.471  25.521  1.00  0.00     0.332 C 
ATOM     25  H   UNL A   1      31.448  16.758  25.938  1.00  0.00     0.195 HD
ATOM     26  N   UNL A   1      32.027  14.483  25.513  1.00  0.00    -0.350 N 
ATOM     27  O   UNL A   1      34.144  15.209  25.334  1.00  0.00    -0.247 OA
ATOM     28  H   UNL A   1      31.079  14.702  25.666  1.00  0.00     0.161 HD
ATOM     29  H   UNL A   1      32.297  13.550  25.357  1.00  0.00     0.161 HD
ENDBRANCH  22  23
ENDBRANCH  15  20
ENDBRANCH   9  14
ENDBRANCH   6   8
ENDBRANCH   5   6
ENDBRANCH   4   5
ENDBRANCH   3   4
ENDBRANCH   2   3
ENDBRANCH   1   2
BRANCH   1  30
ATOM     30  C   UNL A   1      35.248  32.238  28.364  1.00  0.00     0.188 C 
BRANCH  30  31
ATOM     31  O   UNL A   1      35.614  32.642  29.680  1.00  0.00    -0.376 OA
BRANCH  31  32
ATOM     32  C   UNL A   1      34.645  32.757  30.717  1.00  0.00     0.202 C 
BRANCH  32  33
ATOM     33  C   UNL A   1      35.073  32.813  32.183  1.00  0.00     0.261 C 
BRANCH  33  34
ATOM     34  O   UNL A   1      35.777  31.661  32.622  1.00  0.00    -0.460 OA
BRANCH  34  35
ATOM     35  C   UNL A   1      37.076  31.885  32.905  1.00  0.00     0.338 C 
ATOM     36  O   UNL A   1      37.528  32.596  33.785  1.00  0.00    -0.246 OA
BRANCH  35  37
ATOM     37  C   UNL A   1      37.920  31.168  31.939  1.00  0.00     0.060 A 
ATOM     38  C   UNL A   1      37.582  29.834  31.705  1.00  0.00     0.016 A 
ATOM     39  C   UNL A   1      39.139  31.711  31.506  1.00  0.00     0.016 A 
ATOM     40  C   UNL A   1      38.569  28.974  31.281  1.00  0.00     0.010 A 
ATOM     41  C   UNL A   1      40.129  30.850  31.084  1.00  0.00     0.010 A 
ATOM     42  C   UNL A   1      39.857  29.482  31.093  1.00  0.00    -0.014 A 
BRANCH  42  43
ATOM     43  C   UNL A   1      40.934  28.514  31.079  1.00  0.00     0.031 A 
ATOM     44  C   UNL A   1      41.567  28.210  32.374  1.00  0.00     0.074 A 
ATOM     45  C   UNL A   1      41.305  27.909  29.933  1.00  0.00     0.049 A 
ATOM     46  N   UNL A   1      42.811  28.336  32.701  1.00  0.00    -0.248 NA
ATOM     47  C   UNL A   1      40.690  27.746  33.455  1.00  0.00     0.031 C 
ATOM     48  C   UNL A   1      40.600  27.909  28.647  1.00  0.00     0.029 A 
ATOM     49  N   UNL A   1      42.359  27.075  29.716  1.00  0.00    -0.354 N 
ATOM     50  C   UNL A   1      42.911  27.815  33.984  1.00  0.00     0.074 A 
ATOM     51  C   UNL A   1      41.568  27.562  34.441  1.00  0.00     0.031 C 
ATOM     52  C   UNL A   1      41.130  26.952  27.856  1.00  0.00     0.029 A 
ATOM     53  C   UNL A   1      42.276  26.364  28.531  1.00  0.00     0.049 A 
ATOM     54  H   UNL A   1      43.112  26.985  30.345  1.00  0.00     0.167 HD
ATOM     55  C   UNL A   1      44.102  27.426  34.505  1.00  0.00     0.037 A 
ATOM     56  C   UNL A   1      43.043  25.309  28.173  1.00  0.00     0.037 A 
ATOM     57  C   UNL A   1      45.220  28.056  33.859  1.00  0.00     0.049 A 
ATOM     58  C   UNL A   1      44.273  25.332  29.000  1.00  0.00     0.074 A 
ATOM     59  C   UNL A   1      45.617  29.367  33.676  1.00  0.00     0.029 A 
ATOM     60  N   UNL A   1      45.995  27.318  33.002  1.00  0.00    -0.354 N 
ATOM     61  N   UNL A   1      45.233  26.204  28.876  1.00  0.00    -0.248 NA
ATOM     62  C   UNL A   1      44.276  24.578  30.246  1.00  0.00     0.031 C 
ATOM     63  C   UNL A   1      46.267  29.394  32.408  1.00  0.00     0.029 A 
ATOM     64  C   UNL A   1      46.228  28.097  31.897  1.00  0.00     0.049 A 
ATOM     65  H   UNL A   1      46.322  26.401  33.151  1.00  0.00     0.167 HD
ATOM     66  C   UNL A   1      45.703  26.399  30.166  1.00  0.00     0.074 A 
ATOM     67  C   UNL A   1      45.168  25.287  30.940  1.00  0.00     0.031 C 
ATOM     68  C   UNL A   1      46.247  27.592  30.545  1.00  0.00     0.037 A 
BRANCH  55  69
ATOM     69  C   UNL A   1      44.237  26.227  35.399  1.00  0.00     0.064 A 
ATOM     70  C   UNL A   1      44.809  26.362  36.675  1.00  0.00     0.173 A 
ATOM     71  C   UNL A   1      44.068  24.904  34.934  1.00  0.00     0.173 A 
ATOM     72  F   UNL A   1      45.058  27.578  37.184  1.00  0.00    -0.203 F 
ATOM     73  C   UNL A   1      45.213  25.250  37.418  1.00  0.00     0.198 A 
ATOM     74  C   UNL A   1      44.420  23.796  35.699  1.00  0.00     0.198 A 
ATOM     75  F   UNL A   1      43.659  24.641  33.684  1.00  0.00    -0.203 F 
ATOM     76  F   UNL A   1      45.853  25.426  38.582  1.00  0.00    -0.200 F 
ATOM     77  C   UNL A   1      45.015  23.969  36.931  1.00  0.00     0.200 A 
ATOM     78  F   UNL A   1      44.243  22.565  35.200  1.00  0.00    -0.200 F 
ATOM     79  F   UNL A   1      45.445  22.905  37.622  1.00  0.00    -0.200 F 
ENDBRANCH  55  69
BRANCH  56  80
ATOM     80  C   UNL A   1      42.648  24.143  27.352  1.00  0.00     0.064 A 
ATOM     81  C   UNL A   1      43.403  23.753  26.235  1.00  0.00     0.173 A 
ATOM     82  C   UNL A   1      41.661  23.237  27.789  1.00  0.00     0.173 A 
ATOM     83  F   UNL A   1      44.398  24.533  25.788  1.00  0.00    -0.203 F 
ATOM     84  C   UNL A   1      43.188  22.527  25.600  1.00  0.00     0.198 A 
ATOM     85  C   UNL A   1      41.436  22.022  27.145  1.00  0.00     0.198 A 
ATOM     86  F   UNL A   1      40.955  23.470  28.905  1.00  0.00    -0.203 F 
ATOM     87  F   UNL A   1      43.967  22.161  24.573  1.00  0.00    -0.200 F 
ATOM     88  C   UNL A   1      42.208  21.661  26.058  1.00  0.00     0.200 A 
ATOM     89  F   UNL A   1      40.508  21.180  27.621  1.00  0.00    -0.200 F 
ATOM     90  F   UNL A   1      42.034  20.465  25.480  1.00  0.00    -0.200 F 
ENDBRANCH  56  80
BRANCH  68  91
ATOM     91  C   UNL A   1      46.613  28.562  29.459  1.00  0.00     0.064 A 
ATOM     92  C   UNL A   1      47.860  28.561  28.809  1.00  0.00     0.173 A 
ATOM     93  C   UNL A   1      45.632  29.437  28.977  1.00  0.00     0.173 A 
ATOM     94  F   UNL A   1      48.809  27.677  29.145  1.00  0.00    -0.203 F 
ATOM     95  C   UNL A   1      48.127  29.441  27.763  1.00  0.00     0.198 A 
ATOM     96  C   UNL A   1      45.890  30.290  27.907  1.00  0.00     0.198 A 
ATOM     97  F   UNL A   1      44.403  29.435  29.518  1.00  0.00    -0.203 F 
ATOM     98  F   UNL A   1      49.332  29.437  27.172  1.00  0.00    -0.200 F 
ATOM     99  C   UNL A   1      47.141  30.302  27.310  1.00  0.00     0.200 A 
ATOM    100  F   UNL A   1      44.919  31.086  27.439  1.00  0.00    -0.200 F 
ATOM    101  F   UNL A   1      47.386  31.125  26.281  1.00  0.00    -0.200 F 
ENDBRANCH  68  91
ENDBRANCH  42  43
ENDBRANCH  35  37
ENDBRANCH  34  35
ENDBRANCH  33  34
ENDBRANCH  32  33
ENDBRANCH  31  32
ENDBRANCH  30  31
ENDBRANCH   1  30
TORSDOF 20
ENDMDL
