MODEL 1
REMARK VINA RESULT:     -10.5      0.000      0.000
REMARK SMILES CC1(C)CCC[C@@](C)(CCC(=O)OCCOCCOCCOC(=O)c2ccc(-c3c4nc(c(-c5c(F)c(F)c(F)c(F)c5F)c5ccc([nH]5)c(-c5c(F)c(F)c(F)c(F)c5F)c5nc(c(-c6c(F)c(F)c(F)c(F)c6F)c6ccc3[nH]6)C=C5)C=C4)cc2)C1=O
REMARK SMILES IDX 17 1 16 2 15 3 14 4 13 5 11 6 12 7 10 8 9 9 7 10 1 11 2 12
REMARK SMILES IDX 3 13 4 14 88 15 5 16 89 17 6 18 8 19 18 20 19 21 20 22 21 23
REMARK SMILES IDX 22 24 23 25 24 26 25 27 26 28 87 29 27 30 86 31 28 32 29 33
REMARK SMILES IDX 30 34 80 35 31 36 85 37 79 38 81 39 32 40 84 41 78 42 77 43
REMARK SMILES IDX 33 45 65 46 45 47 64 48 46 49 49 50 63 51 82 52 47 53 48 54
REMARK SMILES IDX 62 56 83 57 50 58 34 59 35 60 43 61 36 62 37 63 41 64 44 65
REMARK SMILES IDX 38 66 39 67 42 68 40 69 66 70 67 71 75 72 68 73 69 74 73 75
REMARK SMILES IDX 76 76 70 77 71 78 74 79 72 80 51 81 52 82 60 83 53 84 54 85
REMARK SMILES IDX 58 86 61 87 55 88 56 89 59 90 57 91
REMARK H PARENT 81 44 49 55
REMARK Flexibility Score: inf
ROOT
ATOM      1  C   UNL A   1      34.992  33.556  28.247  1.00  0.00     0.188 C 
ENDROOT
BRANCH   1   2
ATOM      2  O   UNL A   1      34.136  32.494  27.871  1.00  0.00    -0.376 OA
BRANCH   2   3
ATOM      3  C   UNL A   1      34.726  31.194  27.798  1.00  0.00     0.202 C 
BRANCH   3   4
ATOM      4  C   UNL A   1      34.024  30.089  26.970  1.00  0.00     0.261 C 
BRANCH   4   5
ATOM      5  O   UNL A   1      32.575  30.008  27.146  1.00  0.00    -0.463 OA
BRANCH   5   6
ATOM      6  C   UNL A   1      31.778  30.446  26.133  1.00  0.00     0.305 C 
ATOM      7  O   UNL A   1      31.270  31.563  26.116  1.00  0.00    -0.252 OA
BRANCH   6   8
ATOM      8  C   UNL A   1      31.534  29.429  25.005  1.00  0.00     0.124 C 
BRANCH   8   9
ATOM      9  C   UNL A   1      31.031  27.969  25.259  1.00  0.00     0.026 C 
BRANCH   9  10
ATOM     10  C   UNL A   1      31.203  26.779  24.209  1.00  0.00     0.027 C 
ATOM     11  C   UNL A   1      33.743  26.589  26.024  1.00  0.00     0.019 C 
ATOM     12  C   UNL A   1      33.208  25.415  25.242  1.00  0.00     0.024 C 
ATOM     13  C   UNL A   1      34.476  24.585  24.964  1.00  0.00     0.019 C 
ATOM     14  C   UNL A   1      32.167  24.491  25.902  1.00  0.00     0.014 C 
ATOM     15  C   UNL A   1      32.601  26.095  24.030  1.00  0.00     0.144 C 
ATOM     16  C   UNL A   1      30.673  24.799  25.727  1.00  0.00     0.002 C 
ATOM     17  O   UNL A   1      33.193  26.060  22.948  1.00  0.00    -0.298 OA
ATOM     18  C   UNL A   1      30.283  25.584  24.471  1.00  0.00     0.014 C 
ATOM     19  C   UNL A   1      30.897  27.394  22.812  1.00  0.00     0.020 C 
ENDBRANCH   9  10
ENDBRANCH   8   9
ENDBRANCH   6   8
ENDBRANCH   5   6
ENDBRANCH   4   5
ENDBRANCH   3   4
ENDBRANCH   2   3
ENDBRANCH   1   2
BRANCH   1  20
ATOM     20  C   UNL A   1      34.245  34.831  28.596  1.00  0.00     0.188 C 
BRANCH  20  21
ATOM     21  O   UNL A   1      34.417  35.204  29.967  1.00  0.00    -0.376 OA
BRANCH  21  22
ATOM     22  C   UNL A   1      33.869  34.291  30.920  1.00  0.00     0.202 C 
BRANCH  22  23
ATOM     23  C   UNL A   1      34.827  33.972  32.075  1.00  0.00     0.261 C 
BRANCH  23  24
ATOM     24  O   UNL A   1      35.057  32.562  32.157  1.00  0.00    -0.460 OA
BRANCH  24  25
ATOM     25  C   UNL A   1      36.131  32.213  32.910  1.00  0.00     0.338 C 
ATOM     26  O   UNL A   1      36.275  32.375  34.113  1.00  0.00    -0.246 OA
BRANCH  25  27
ATOM     27  C   UNL A   1      37.041  31.385  32.086  1.00  0.00     0.060 A 
ATOM     28  C   UNL A   1      38.009  30.619  32.754  1.00  0.00     0.016 A 
ATOM     29  C   UNL A   1      36.871  31.254  30.700  1.00  0.00     0.016 A 
ATOM     30  C   UNL A   1      38.844  29.768  32.036  1.00  0.00     0.010 A 
ATOM     31  C   UNL A   1      37.714  30.409  29.978  1.00  0.00     0.010 A 
ATOM     32  C   UNL A   1      38.742  29.716  30.640  1.00  0.00    -0.014 A 
BRANCH  32  33
ATOM     33  C   UNL A   1      39.927  29.281  29.869  1.00  0.00     0.031 A 
ATOM     34  C   UNL A   1      41.004  30.315  29.669  1.00  0.00     0.074 A 
ATOM     35  C   UNL A   1      40.071  28.032  29.401  1.00  0.00     0.049 A 
ATOM     36  N   UNL A   1      42.151  30.223  29.050  1.00  0.00    -0.248 NA
ATOM     37  C   UNL A   1      40.743  31.645  30.250  1.00  0.00     0.031 C 
ATOM     38  C   UNL A   1      39.110  26.945  29.561  1.00  0.00     0.029 A 
ATOM     39  N   UNL A   1      41.102  27.473  28.688  1.00  0.00    -0.354 N 
ATOM     40  C   UNL A   1      42.738  31.476  29.171  1.00  0.00     0.074 A 
ATOM     41  C   UNL A   1      41.809  32.326  29.875  1.00  0.00     0.031 C 
ATOM     42  C   UNL A   1      39.596  25.845  28.954  1.00  0.00     0.029 A 
ATOM     43  C   UNL A   1      40.891  26.161  28.352  1.00  0.00     0.049 A 
ATOM     44  H   UNL A   1      41.916  27.969  28.441  1.00  0.00     0.167 HD
ATOM     45  C   UNL A   1      43.956  31.883  28.748  1.00  0.00     0.037 A 
ATOM     46  C   UNL A   1      41.662  25.322  27.632  1.00  0.00     0.037 A 
ATOM     47  C   UNL A   1      44.871  31.039  28.035  1.00  0.00     0.049 A 
ATOM     48  C   UNL A   1      42.995  25.814  27.118  1.00  0.00     0.074 A 
ATOM     49  C   UNL A   1      46.128  31.343  27.548  1.00  0.00     0.029 A 
ATOM     50  N   UNL A   1      44.613  29.717  27.698  1.00  0.00    -0.354 N 
ATOM     51  N   UNL A   1      43.560  26.990  27.260  1.00  0.00    -0.248 NA
ATOM     52  C   UNL A   1      43.804  24.853  26.356  1.00  0.00     0.031 C 
ATOM     53  C   UNL A   1      46.611  30.219  26.871  1.00  0.00     0.029 A 
ATOM     54  C   UNL A   1      45.684  29.195  26.994  1.00  0.00     0.049 A 
ATOM     55  H   UNL A   1      43.792  29.224  27.926  1.00  0.00     0.167 HD
ATOM     56  C   UNL A   1      44.804  26.898  26.644  1.00  0.00     0.074 A 
ATOM     57  C   UNL A   1      44.912  25.545  26.136  1.00  0.00     0.031 C 
ATOM     58  C   UNL A   1      45.772  27.839  26.514  1.00  0.00     0.037 A 
BRANCH  45  59
ATOM     59  C   UNL A   1      44.331  33.309  29.022  1.00  0.00     0.064 A 
ATOM     60  C   UNL A   1      44.040  34.339  28.111  1.00  0.00     0.173 A 
ATOM     61  C   UNL A   1      45.015  33.648  30.197  1.00  0.00     0.173 A 
ATOM     62  F   UNL A   1      43.415  34.063  26.956  1.00  0.00    -0.203 F 
ATOM     63  C   UNL A   1      44.452  35.647  28.354  1.00  0.00     0.198 A 
ATOM     64  C   UNL A   1      45.394  34.963  30.453  1.00  0.00     0.198 A 
ATOM     65  F   UNL A   1      45.326  32.701  31.095  1.00  0.00    -0.203 F 
ATOM     66  F   UNL A   1      44.223  36.600  27.439  1.00  0.00    -0.200 F 
ATOM     67  C   UNL A   1      45.122  35.959  29.526  1.00  0.00     0.200 A 
ATOM     68  F   UNL A   1      46.036  35.263  31.589  1.00  0.00    -0.200 F 
ATOM     69  F   UNL A   1      45.518  37.217  29.758  1.00  0.00    -0.200 F 
ENDBRANCH  45  59
BRANCH  46  70
ATOM     70  C   UNL A   1      41.209  23.931  27.361  1.00  0.00     0.064 A 
ATOM     71  C   UNL A   1      41.864  22.830  27.931  1.00  0.00     0.173 A 
ATOM     72  C   UNL A   1      40.131  23.673  26.503  1.00  0.00     0.173 A 
ATOM     73  F   UNL A   1      42.919  23.022  28.737  1.00  0.00    -0.203 F 
ATOM     74  C   UNL A   1      41.474  21.525  27.634  1.00  0.00     0.198 A 
ATOM     75  C   UNL A   1      39.722  22.369  26.230  1.00  0.00     0.198 A 
ATOM     76  F   UNL A   1      39.472  24.689  25.927  1.00  0.00    -0.203 F 
ATOM     77  F   UNL A   1      42.153  20.491  28.150  1.00  0.00    -0.200 F 
ATOM     78  C   UNL A   1      40.400  21.295  26.788  1.00  0.00     0.200 A 
ATOM     79  F   UNL A   1      38.679  22.151  25.417  1.00  0.00    -0.200 F 
ATOM     80  F   UNL A   1      40.026  20.042  26.501  1.00  0.00    -0.200 F 
ENDBRANCH  46  70
BRANCH  58  81
ATOM     81  C   UNL A   1      47.055  27.424  25.853  1.00  0.00     0.064 A 
ATOM     82  C   UNL A   1      48.091  26.800  26.564  1.00  0.00     0.173 A 
ATOM     83  C   UNL A   1      47.234  27.625  24.474  1.00  0.00     0.173 A 
ATOM     84  F   UNL A   1      47.973  26.590  27.884  1.00  0.00    -0.203 F 
ATOM     85  C   UNL A   1      49.274  26.431  25.928  1.00  0.00     0.198 A 
ATOM     86  C   UNL A   1      48.401  27.220  23.836  1.00  0.00     0.198 A 
ATOM     87  F   UNL A   1      46.269  28.202  23.744  1.00  0.00    -0.203 F 
ATOM     88  F   UNL A   1      50.274  25.893  26.639  1.00  0.00    -0.200 F 
ATOM     89  C   UNL A   1      49.425  26.636  24.564  1.00  0.00     0.200 A 
ATOM     90  F   UNL A   1      48.537  27.402  22.515  1.00  0.00    -0.200 F 
ATOM     91  F   UNL A   1      50.563  26.278  23.955  1.00  0.00    -0.200 F 
ENDBRANCH  58  81
ENDBRANCH  32  33
ENDBRANCH  25  27
ENDBRANCH  24  25
ENDBRANCH  23  24
ENDBRANCH  22  23
ENDBRANCH  21  22
ENDBRANCH  20  21
ENDBRANCH   1  20
TORSDOF 19
ENDMDL
MODEL 2
REMARK VINA RESULT:     -10.5      3.603      9.023
REMARK SMILES CC1(C)CCC[C@@](C)(CCC(=O)OCCOCCOCCOC(=O)c2ccc(-c3c4nc(c(-c5c(F)c(F)c(F)c(F)c5F)c5ccc([nH]5)c(-c5c(F)c(F)c(F)c(F)c5F)c5nc(c(-c6c(F)c(F)c(F)c(F)c6F)c6ccc3[nH]6)C=C5)C=C4)cc2)C1=O
REMARK SMILES IDX 17 1 16 2 15 3 14 4 13 5 11 6 12 7 10 8 9 9 7 10 1 11 2 12
REMARK SMILES IDX 3 13 4 14 88 15 5 16 89 17 6 18 8 19 18 20 19 21 20 22 21 23
REMARK SMILES IDX 22 24 23 25 24 26 25 27 26 28 87 29 27 30 86 31 28 32 29 33
REMARK SMILES IDX 30 34 80 35 31 36 85 37 79 38 81 39 32 40 84 41 78 42 77 43
REMARK SMILES IDX 33 45 65 46 45 47 64 48 46 49 49 50 63 51 82 52 47 53 48 54
REMARK SMILES IDX 62 56 83 57 50 58 34 59 35 60 43 61 36 62 37 63 41 64 44 65
REMARK SMILES IDX 38 66 39 67 42 68 40 69 66 70 67 71 75 72 68 73 69 74 73 75
REMARK SMILES IDX 76 76 70 77 71 78 74 79 72 80 51 81 52 82 60 83 53 84 54 85
REMARK SMILES IDX 58 86 61 87 55 88 56 89 59 90 57 91
REMARK H PARENT 81 44 49 55
REMARK Flexibility Score: inf
ROOT
ATOM      1  C   UNL A   1      35.412  21.054  25.533  1.00  0.00     0.188 C 
ENDROOT
BRANCH   1   2
ATOM      2  O   UNL A   1      34.946  22.137  26.316  1.00  0.00    -0.376 OA
BRANCH   2   3
ATOM      3  C   UNL A   1      34.344  21.805  27.569  1.00  0.00     0.202 C 
BRANCH   3   4
ATOM      4  C   UNL A   1      32.912  22.309  27.879  1.00  0.00     0.261 C 
BRANCH   4   5
ATOM      5  O   UNL A   1      32.546  23.568  27.235  1.00  0.00    -0.463 OA
BRANCH   5   6
ATOM      6  C   UNL A   1      31.377  23.618  26.538  1.00  0.00     0.305 C 
ATOM      7  O   UNL A   1      30.316  23.986  27.034  1.00  0.00    -0.252 OA
BRANCH   6   8
ATOM      8  C   UNL A   1      31.468  23.158  25.073  1.00  0.00     0.124 C 
BRANCH   8   9
ATOM      9  C   UNL A   1      31.615  24.148  23.870  1.00  0.00     0.026 C 
BRANCH   9  10
ATOM     10  C   UNL A   1      33.013  24.511  23.188  1.00  0.00     0.027 C 
ATOM     11  C   UNL A   1      31.489  27.238  23.340  1.00  0.00     0.019 C 
ATOM     12  C   UNL A   1      32.993  27.146  23.251  1.00  0.00     0.024 C 
ATOM     13  C   UNL A   1      33.372  28.452  22.528  1.00  0.00     0.019 C 
ATOM     14  C   UNL A   1      33.813  27.065  24.554  1.00  0.00     0.014 C 
ATOM     15  C   UNL A   1      33.183  25.878  22.442  1.00  0.00     0.144 C 
ATOM     16  C   UNL A   1      34.145  25.687  25.147  1.00  0.00     0.002 C 
ATOM     17  O   UNL A   1      33.497  25.954  21.251  1.00  0.00    -0.298 OA
ATOM     18  C   UNL A   1      34.195  24.517  24.161  1.00  0.00     0.014 C 
ATOM     19  C   UNL A   1      33.238  23.441  22.079  1.00  0.00     0.020 C 
ENDBRANCH   9  10
ENDBRANCH   8   9
ENDBRANCH   6   8
ENDBRANCH   5   6
ENDBRANCH   4   5
ENDBRANCH   3   4
ENDBRANCH   2   3
ENDBRANCH   1   2
BRANCH   1  20
ATOM     20  C   UNL A   1      36.904  21.113  25.258  1.00  0.00     0.188 C 
BRANCH  20  21
ATOM     21  O   UNL A   1      37.412  19.881  24.738  1.00  0.00    -0.376 OA
BRANCH  21  22
ATOM     22  C   UNL A   1      38.750  19.564  25.125  1.00  0.00     0.202 C 
BRANCH  22  23
ATOM     23  C   UNL A   1      39.333  20.543  26.153  1.00  0.00     0.261 C 
BRANCH  23  24
ATOM     24  O   UNL A   1      40.514  19.995  26.749  1.00  0.00    -0.460 OA
BRANCH  24  25
ATOM     25  C   UNL A   1      41.666  20.597  26.360  1.00  0.00     0.338 C 
ATOM     26  O   UNL A   1      42.491  20.171  25.564  1.00  0.00    -0.246 OA
BRANCH  25  27
ATOM     27  C   UNL A   1      41.679  21.982  26.882  1.00  0.00     0.060 A 
ATOM     28  C   UNL A   1      41.075  22.979  26.099  1.00  0.00     0.016 A 
ATOM     29  C   UNL A   1      42.152  22.286  28.167  1.00  0.00     0.016 A 
ATOM     30  C   UNL A   1      40.994  24.286  26.571  1.00  0.00     0.010 A 
ATOM     31  C   UNL A   1      42.081  23.597  28.638  1.00  0.00     0.010 A 
ATOM     32  C   UNL A   1      41.560  24.608  27.812  1.00  0.00    -0.014 A 
BRANCH  32  33
ATOM     33  C   UNL A   1      41.965  26.010  28.052  1.00  0.00     0.031 A 
ATOM     34  C   UNL A   1      43.308  26.415  27.505  1.00  0.00     0.074 A 
ATOM     35  C   UNL A   1      41.178  26.896  28.682  1.00  0.00     0.049 A 
ATOM     36  N   UNL A   1      43.921  27.569  27.552  1.00  0.00    -0.248 NA
ATOM     37  C   UNL A   1      44.072  25.361  26.811  1.00  0.00     0.031 C 
ATOM     38  C   UNL A   1      39.850  26.623  29.224  1.00  0.00     0.029 A 
ATOM     39  N   UNL A   1      41.398  28.219  28.969  1.00  0.00    -0.354 N 
ATOM     40  C   UNL A   1      45.129  27.374  26.895  1.00  0.00     0.074 A 
ATOM     41  C   UNL A   1      45.192  25.987  26.503  1.00  0.00     0.031 C 
ATOM     42  C   UNL A   1      39.373  27.750  29.787  1.00  0.00     0.029 A 
ATOM     43  C   UNL A   1      40.371  28.811  29.658  1.00  0.00     0.049 A 
ATOM     44  H   UNL A   1      42.217  28.698  28.706  1.00  0.00     0.167 HD
ATOM     45  C   UNL A   1      46.098  28.276  26.624  1.00  0.00     0.037 A 
ATOM     46  C   UNL A   1      40.265  30.069  30.132  1.00  0.00     0.037 A 
ATOM     47  C   UNL A   1      46.038  29.650  27.029  1.00  0.00     0.049 A 
ATOM     48  C   UNL A   1      41.386  31.047  29.868  1.00  0.00     0.074 A 
ATOM     49  C   UNL A   1      46.965  30.654  26.820  1.00  0.00     0.029 A 
ATOM     50  N   UNL A   1      44.987  30.210  27.741  1.00  0.00    -0.354 N 
ATOM     51  N   UNL A   1      42.514  30.867  29.222  1.00  0.00    -0.248 NA
ATOM     52  C   UNL A   1      41.210  32.409  30.390  1.00  0.00     0.031 C 
ATOM     53  C   UNL A   1      46.496  31.811  27.451  1.00  0.00     0.029 A 
ATOM     54  C   UNL A   1      45.249  31.545  27.995  1.00  0.00     0.049 A 
ATOM     55  H   UNL A   1      44.175  29.729  28.024  1.00  0.00     0.167 HD
ATOM     56  C   UNL A   1      43.160  32.098  29.222  1.00  0.00     0.074 A 
ATOM     57  C   UNL A   1      42.291  33.019  29.927  1.00  0.00     0.031 C 
ATOM     58  C   UNL A   1      44.358  32.443  28.685  1.00  0.00     0.037 A 
BRANCH  45  59
ATOM     59  C   UNL A   1      47.308  27.777  25.890  1.00  0.00     0.064 A 
ATOM     60  C   UNL A   1      48.465  27.358  26.568  1.00  0.00     0.173 A 
ATOM     61  C   UNL A   1      47.320  27.743  24.489  1.00  0.00     0.173 A 
ATOM     62  F   UNL A   1      48.516  27.401  27.908  1.00  0.00    -0.203 F 
ATOM     63  C   UNL A   1      49.599  26.957  25.867  1.00  0.00     0.198 A 
ATOM     64  C   UNL A   1      48.445  27.308  23.792  1.00  0.00     0.198 A 
ATOM     65  F   UNL A   1      46.245  28.141  23.793  1.00  0.00    -0.203 F 
ATOM     66  F   UNL A   1      50.715  26.628  26.534  1.00  0.00    -0.200 F 
ATOM     67  C   UNL A   1      49.587  26.926  24.481  1.00  0.00     0.200 A 
ATOM     68  F   UNL A   1      48.428  27.273  22.453  1.00  0.00    -0.200 F 
ATOM     69  F   UNL A   1      50.679  26.541  23.808  1.00  0.00    -0.200 F 
ENDBRANCH  45  59
BRANCH  46  70
ATOM     70  C   UNL A   1      39.055  30.485  30.890  1.00  0.00     0.064 A 
ATOM     71  C   UNL A   1      37.923  30.988  30.233  1.00  0.00     0.173 A 
ATOM     72  C   UNL A   1      39.017  30.419  32.291  1.00  0.00     0.173 A 
ATOM     73  F   UNL A   1      37.919  31.099  28.896  1.00  0.00    -0.203 F 
ATOM     74  C   UNL A   1      36.810  31.430  30.947  1.00  0.00     0.198 A 
ATOM     75  C   UNL A   1      37.892  30.832  33.002  1.00  0.00     0.198 A 
ATOM     76  F   UNL A   1      40.073  29.951  32.970  1.00  0.00    -0.203 F 
ATOM     77  F   UNL A   1      35.764  31.956  30.295  1.00  0.00    -0.200 F 
ATOM     78  C   UNL A   1      36.793  31.347  32.330  1.00  0.00     0.200 A 
ATOM     79  F   UNL A   1      37.877  30.743  34.339  1.00  0.00    -0.200 F 
ATOM     80  F   UNL A   1      35.725  31.772  33.017  1.00  0.00    -0.200 F 
ENDBRANCH  46  70
BRANCH  58  81
ATOM     81  C   UNL A   1      44.769  33.883  28.782  1.00  0.00     0.064 A 
ATOM     82  C   UNL A   1      44.395  34.831  27.817  1.00  0.00     0.173 A 
ATOM     83  C   UNL A   1      45.524  34.328  29.880  1.00  0.00     0.173 A 
ATOM     84  F   UNL A   1      43.680  34.457  26.745  1.00  0.00    -0.203 F 
ATOM     85  C   UNL A   1      44.797  36.160  27.927  1.00  0.00     0.198 A 
ATOM     86  C   UNL A   1      45.890  35.663  30.005  1.00  0.00     0.198 A 
ATOM     87  F   UNL A   1      45.894  33.467  30.839  1.00  0.00    -0.203 F 
ATOM     88  F   UNL A   1      44.481  37.035  26.962  1.00  0.00    -0.200 F 
ATOM     89  C   UNL A   1      45.538  36.576  29.024  1.00  0.00     0.200 A 
ATOM     90  F   UNL A   1      46.590  36.067  31.075  1.00  0.00    -0.200 F 
ATOM     91  F   UNL A   1      45.921  37.856  29.128  1.00  0.00    -0.200 F 
ENDBRANCH  58  81
ENDBRANCH  32  33
ENDBRANCH  25  27
ENDBRANCH  24  25
ENDBRANCH  23  24
ENDBRANCH  22  23
ENDBRANCH  21  22
ENDBRANCH  20  21
ENDBRANCH   1  20
TORSDOF 19
ENDMDL
MODEL 3
REMARK VINA RESULT:     -10.4      2.980      8.978
REMARK SMILES CC1(C)CCC[C@@](C)(CCC(=O)OCCOCCOCCOC(=O)c2ccc(-c3c4nc(c(-c5c(F)c(F)c(F)c(F)c5F)c5ccc([nH]5)c(-c5c(F)c(F)c(F)c(F)c5F)c5nc(c(-c6c(F)c(F)c(F)c(F)c6F)c6ccc3[nH]6)C=C5)C=C4)cc2)C1=O
REMARK SMILES IDX 17 1 16 2 15 3 14 4 13 5 11 6 12 7 10 8 9 9 7 10 1 11 2 12
REMARK SMILES IDX 3 13 4 14 88 15 5 16 89 17 6 18 8 19 18 20 19 21 20 22 21 23
REMARK SMILES IDX 22 24 23 25 24 26 25 27 26 28 87 29 27 30 86 31 28 32 29 33
REMARK SMILES IDX 30 34 80 35 31 36 85 37 79 38 81 39 32 40 84 41 78 42 77 43
REMARK SMILES IDX 33 45 65 46 45 47 64 48 46 49 49 50 63 51 82 52 47 53 48 54
REMARK SMILES IDX 62 56 83 57 50 58 34 59 35 60 43 61 36 62 37 63 41 64 44 65
REMARK SMILES IDX 38 66 39 67 42 68 40 69 66 70 67 71 75 72 68 73 69 74 73 75
REMARK SMILES IDX 76 76 70 77 71 78 74 79 72 80 51 81 52 82 60 83 53 84 54 85
REMARK SMILES IDX 58 86 61 87 55 88 56 89 59 90 57 91
REMARK H PARENT 81 44 49 55
REMARK Flexibility Score: inf
ROOT
ATOM      1  C   UNL A   1      35.446  20.762  25.061  1.00  0.00     0.188 C 
ENDROOT
BRANCH   1   2
ATOM      2  O   UNL A   1      34.904  21.932  24.479  1.00  0.00    -0.376 OA
BRANCH   2   3
ATOM      3  C   UNL A   1      33.582  21.825  23.945  1.00  0.00     0.202 C 
BRANCH   3   4
ATOM      4  C   UNL A   1      33.124  22.822  22.850  1.00  0.00     0.261 C 
BRANCH   4   5
ATOM      5  O   UNL A   1      34.069  23.897  22.557  1.00  0.00    -0.463 OA
BRANCH   5   6
ATOM      6  C   UNL A   1      33.666  25.181  22.761  1.00  0.00     0.305 C 
ATOM      7  O   UNL A   1      33.138  25.865  21.889  1.00  0.00    -0.252 OA
BRANCH   6   8
ATOM      8  C   UNL A   1      33.937  25.737  24.170  1.00  0.00     0.124 C 
BRANCH   8   9
ATOM      9  C   UNL A   1      33.713  27.235  24.560  1.00  0.00     0.026 C 
BRANCH   9  10
ATOM     10  C   UNL A   1      32.544  27.733  25.527  1.00  0.00     0.027 C 
ATOM     11  C   UNL A   1      31.853  29.001  22.753  1.00  0.00     0.019 C 
ATOM     12  C   UNL A   1      30.816  28.762  23.823  1.00  0.00     0.024 C 
ATOM     13  C   UNL A   1      29.784  29.873  23.552  1.00  0.00     0.019 C 
ATOM     14  C   UNL A   1      30.070  27.414  23.851  1.00  0.00     0.014 C 
ATOM     15  C   UNL A   1      31.630  28.928  25.092  1.00  0.00     0.144 C 
ATOM     16  C   UNL A   1      30.643  26.257  24.683  1.00  0.00     0.002 C 
ATOM     17  O   UNL A   1      31.525  29.964  25.754  1.00  0.00    -0.298 OA
ATOM     18  C   UNL A   1      31.522  26.647  25.875  1.00  0.00     0.014 C 
ATOM     19  C   UNL A   1      33.246  28.241  26.820  1.00  0.00     0.020 C 
ENDBRANCH   9  10
ENDBRANCH   8   9
ENDBRANCH   6   8
ENDBRANCH   5   6
ENDBRANCH   4   5
ENDBRANCH   3   4
ENDBRANCH   2   3
ENDBRANCH   1   2
BRANCH   1  20
ATOM     20  C   UNL A   1      36.959  20.692  24.962  1.00  0.00     0.188 C 
BRANCH  20  21
ATOM     21  O   UNL A   1      37.443  19.345  24.962  1.00  0.00    -0.376 OA
BRANCH  21  22
ATOM     22  C   UNL A   1      38.814  19.191  25.335  1.00  0.00     0.202 C 
BRANCH  22  23
ATOM     23  C   UNL A   1      39.419  20.457  25.958  1.00  0.00     0.261 C 
BRANCH  23  24
ATOM     24  O   UNL A   1      40.528  20.117  26.798  1.00  0.00    -0.460 OA
BRANCH  24  25
ATOM     25  C   UNL A   1      41.699  20.702  26.440  1.00  0.00     0.338 C 
ATOM     26  O   UNL A   1      42.530  20.272  25.654  1.00  0.00    -0.246 OA
BRANCH  25  27
ATOM     27  C   UNL A   1      41.727  22.080  26.983  1.00  0.00     0.060 A 
ATOM     28  C   UNL A   1      41.010  23.068  26.289  1.00  0.00     0.016 A 
ATOM     29  C   UNL A   1      42.330  22.379  28.213  1.00  0.00     0.016 A 
ATOM     30  C   UNL A   1      40.943  24.365  26.791  1.00  0.00     0.010 A 
ATOM     31  C   UNL A   1      42.273  23.680  28.712  1.00  0.00     0.010 A 
ATOM     32  C   UNL A   1      41.633  24.686  27.967  1.00  0.00    -0.014 A 
BRANCH  32  33
ATOM     33  C   UNL A   1      42.020  26.097  28.187  1.00  0.00     0.031 A 
ATOM     34  C   UNL A   1      43.355  26.513  27.629  1.00  0.00     0.074 A 
ATOM     35  C   UNL A   1      41.223  26.980  28.808  1.00  0.00     0.049 A 
ATOM     36  N   UNL A   1      43.951  27.675  27.658  1.00  0.00    -0.248 NA
ATOM     37  C   UNL A   1      44.130  25.460  26.946  1.00  0.00     0.031 C 
ATOM     38  C   UNL A   1      39.901  26.697  29.359  1.00  0.00     0.029 A 
ATOM     39  N   UNL A   1      41.426  28.310  29.076  1.00  0.00    -0.354 N 
ATOM     40  C   UNL A   1      45.160  27.488  26.998  1.00  0.00     0.074 A 
ATOM     41  C   UNL A   1      45.240  26.097  26.625  1.00  0.00     0.031 C 
ATOM     42  C   UNL A   1      39.411  27.824  29.909  1.00  0.00     0.029 A 
ATOM     43  C   UNL A   1      40.393  28.898  29.761  1.00  0.00     0.049 A 
ATOM     44  H   UNL A   1      42.237  28.797  28.803  1.00  0.00     0.167 HD
ATOM     45  C   UNL A   1      46.115  28.399  26.711  1.00  0.00     0.037 A 
ATOM     46  C   UNL A   1      40.272  30.160  30.219  1.00  0.00     0.037 A 
ATOM     47  C   UNL A   1      46.038  29.778  27.098  1.00  0.00     0.049 A 
ATOM     48  C   UNL A   1      41.379  31.149  29.937  1.00  0.00     0.074 A 
ATOM     49  C   UNL A   1      46.950  30.792  26.871  1.00  0.00     0.029 A 
ATOM     50  N   UNL A   1      44.982  30.333  27.807  1.00  0.00    -0.354 N 
ATOM     51  N   UNL A   1      42.506  30.976  29.288  1.00  0.00    -0.248 NA
ATOM     52  C   UNL A   1      41.186  32.516  30.441  1.00  0.00     0.031 C 
ATOM     53  C   UNL A   1      46.468  31.951  27.489  1.00  0.00     0.029 A 
ATOM     54  C   UNL A   1      45.227  31.675  28.041  1.00  0.00     0.049 A 
ATOM     55  H   UNL A   1      44.178  29.845  28.099  1.00  0.00     0.167 HD
ATOM     56  C   UNL A   1      43.135  32.216  29.269  1.00  0.00     0.074 A 
ATOM     57  C   UNL A   1      42.256  33.134  29.965  1.00  0.00     0.031 C 
ATOM     58  C   UNL A   1      44.326  32.569  28.723  1.00  0.00     0.037 A 
BRANCH  45  59
ATOM     59  C   UNL A   1      47.329  27.907  25.979  1.00  0.00     0.064 A 
ATOM     60  C   UNL A   1      47.361  27.814  24.578  1.00  0.00     0.173 A 
ATOM     61  C   UNL A   1      48.466  27.497  26.689  1.00  0.00     0.173 A 
ATOM     62  F   UNL A   1      46.287  28.164  23.853  1.00  0.00    -0.203 F 
ATOM     63  C   UNL A   1      48.473  27.297  23.919  1.00  0.00     0.198 A 
ATOM     64  C   UNL A   1      49.590  27.013  26.025  1.00  0.00     0.198 A 
ATOM     65  F   UNL A   1      48.484  27.556  28.029  1.00  0.00    -0.203 F 
ATOM     66  F   UNL A   1      48.455  27.154  22.586  1.00  0.00    -0.200 F 
ATOM     67  C   UNL A   1      49.589  26.903  24.642  1.00  0.00     0.200 A 
ATOM     68  F   UNL A   1      50.669  26.639  26.726  1.00  0.00    -0.200 F 
ATOM     69  F   UNL A   1      50.658  26.405  24.008  1.00  0.00    -0.200 F 
ENDBRANCH  45  59
BRANCH  46  70
ATOM     70  C   UNL A   1      39.059  30.570  30.976  1.00  0.00     0.064 A 
ATOM     71  C   UNL A   1      37.946  31.118  30.323  1.00  0.00     0.173 A 
ATOM     72  C   UNL A   1      39.000  30.451  32.372  1.00  0.00     0.173 A 
ATOM     73  F   UNL A   1      37.962  31.279  28.991  1.00  0.00    -0.203 F 
ATOM     74  C   UNL A   1      36.831  31.553  31.039  1.00  0.00     0.198 A 
ATOM     75  C   UNL A   1      37.874  30.859  33.084  1.00  0.00     0.198 A 
ATOM     76  F   UNL A   1      40.039  29.939  33.047  1.00  0.00    -0.203 F 
ATOM     77  F   UNL A   1      35.804  32.124  30.394  1.00  0.00    -0.200 F 
ATOM     78  C   UNL A   1      36.794  31.419  32.418  1.00  0.00     0.200 A 
ATOM     79  F   UNL A   1      37.838  30.720  34.416  1.00  0.00    -0.200 F 
ATOM     80  F   UNL A   1      35.724  31.838  33.106  1.00  0.00    -0.200 F 
ENDBRANCH  46  70
BRANCH  58  81
ATOM     81  C   UNL A   1      44.718  34.017  28.798  1.00  0.00     0.064 A 
ATOM     82  C   UNL A   1      45.526  34.518  29.828  1.00  0.00     0.173 A 
ATOM     83  C   UNL A   1      44.301  34.911  27.798  1.00  0.00     0.173 A 
ATOM     84  F   UNL A   1      45.947  33.707  30.812  1.00  0.00    -0.203 F 
ATOM     85  C   UNL A   1      45.869  35.867  29.878  1.00  0.00     0.198 A 
ATOM     86  C   UNL A   1      44.676  36.250  27.831  1.00  0.00     0.198 A 
ATOM     87  F   UNL A   1      43.539  34.482  26.781  1.00  0.00    -0.203 F 
ATOM     88  F   UNL A   1      46.591  36.335  30.905  1.00  0.00    -0.200 F 
ATOM     89  C   UNL A   1      45.449  36.730  28.876  1.00  0.00     0.200 A 
ATOM     90  F   UNL A   1      44.286  37.077  26.851  1.00  0.00    -0.200 F 
ATOM     91  F   UNL A   1      45.782  38.027  28.925  1.00  0.00    -0.200 F 
ENDBRANCH  58  81
ENDBRANCH  32  33
ENDBRANCH  25  27
ENDBRANCH  24  25
ENDBRANCH  23  24
ENDBRANCH  22  23
ENDBRANCH  21  22
ENDBRANCH  20  21
ENDBRANCH   1  20
TORSDOF 19
ENDMDL
