MODEL 1
REMARK VINA RESULT:     -10.6      0.000      0.000
REMARK SMILES O=C(OCCOCCOCCOC(=O)[C@H]1C[C@H]1c1ccc(C2CC2)cc1)c1ccc(-c2c3nc(c(-c4c(F)c(F)c(F)c(F)c4F)c4ccc([nH]4)c(-c4c(F)c(F)c(F)c(F)c4F)c4nc(c(-c5c(F)c(F)c(F)c(F)c5F)c5ccc2[nH]5)C=C4)C=C3)cc1
REMARK SMILES IDX 7 1 6 2 5 3 4 4 3 5 2 6 1 7 27 8 28 9 89 10 29 11 88 12
REMARK SMILES IDX 30 13 31 14 32 15 82 16 33 17 87 18 81 19 83 20 34 21 86 22
REMARK SMILES IDX 80 23 79 24 35 26 67 27 47 28 66 29 48 30 51 31 65 32 84 33
REMARK SMILES IDX 49 34 50 35 64 37 85 38 52 39 36 40 37 41 45 42 38 43 39 44
REMARK SMILES IDX 43 45 46 46 40 47 41 48 44 49 42 50 68 51 69 52 77 53 70 54
REMARK SMILES IDX 71 55 75 56 78 57 72 58 73 59 76 60 74 61 53 62 54 63 62 64
REMARK SMILES IDX 55 65 56 66 60 67 63 68 57 69 58 70 61 71 59 72 8 73 9 74
REMARK SMILES IDX 10 75 11 76 12 77 13 78 14 79 15 80 16 81 17 82 18 83 19 84
REMARK SMILES IDX 26 85 20 86 25 87 21 88 22 89 23 90 24 91
REMARK H PARENT 83 25 51 36
REMARK Flexibility Score: inf
ROOT
ATOM      1  C   UNL A   1      33.705  19.178  24.231  1.00  0.00     0.188 C 
ENDROOT
BRANCH   1   2
ATOM      2  O   UNL A   1      35.058  19.049  24.692  1.00  0.00    -0.376 OA
BRANCH   2   3
ATOM      3  C   UNL A   1      35.683  20.309  24.968  1.00  0.00     0.202 C 
BRANCH   3   4
ATOM      4  C   UNL A   1      37.218  20.290  24.947  1.00  0.00     0.261 C 
BRANCH   4   5
ATOM      5  O   UNL A   1      37.794  21.499  25.468  1.00  0.00    -0.460 OA
BRANCH   5   6
ATOM      6  C   UNL A   1      39.001  21.669  26.060  1.00  0.00     0.338 C 
ATOM      7  O   UNL A   1      39.759  20.702  26.126  1.00  0.00    -0.246 OA
BRANCH   6   8
ATOM      8  C   UNL A   1      39.489  22.969  26.623  1.00  0.00     0.060 A 
ATOM      9  C   UNL A   1      38.951  24.229  26.350  1.00  0.00     0.016 A 
ATOM     10  C   UNL A   1      40.548  22.898  27.549  1.00  0.00     0.016 A 
ATOM     11  C   UNL A   1      39.514  25.387  26.880  1.00  0.00     0.010 A 
ATOM     12  C   UNL A   1      41.090  24.051  28.125  1.00  0.00     0.010 A 
ATOM     13  C   UNL A   1      40.598  25.305  27.754  1.00  0.00    -0.014 A 
BRANCH  13  14
ATOM     14  C   UNL A   1      41.263  26.556  28.165  1.00  0.00     0.031 A 
ATOM     15  C   UNL A   1      42.650  26.818  27.675  1.00  0.00     0.074 A 
ATOM     16  C   UNL A   1      40.582  27.471  28.876  1.00  0.00     0.049 A 
ATOM     17  N   UNL A   1      43.407  27.865  27.862  1.00  0.00    -0.248 NA
ATOM     18  C   UNL A   1      43.276  25.753  26.874  1.00  0.00     0.031 C 
ATOM     19  C   UNL A   1      39.229  27.276  29.382  1.00  0.00     0.029 A 
ATOM     20  N   UNL A   1      40.907  28.741  29.268  1.00  0.00    -0.354 N 
ATOM     21  C   UNL A   1      44.615  27.563  27.249  1.00  0.00     0.074 A 
ATOM     22  C   UNL A   1      44.486  26.245  26.669  1.00  0.00     0.031 C 
ATOM     23  C   UNL A   1      38.809  28.410  29.962  1.00  0.00     0.029 A 
ATOM     24  C   UNL A   1      39.874  29.402  29.892  1.00  0.00     0.049 A 
ATOM     25  H   UNL A   1      41.793  29.144  29.118  1.00  0.00     0.167 HD
ATOM     26  C   UNL A   1      45.735  28.320  27.208  1.00  0.00     0.037 A 
ATOM     27  C   UNL A   1      39.805  30.668  30.345  1.00  0.00     0.037 A 
ATOM     28  C   UNL A   1      45.827  29.624  27.807  1.00  0.00     0.049 A 
ATOM     29  C   UNL A   1      41.048  31.510  30.229  1.00  0.00     0.074 A 
ATOM     30  C   UNL A   1      46.919  30.466  27.893  1.00  0.00     0.029 A 
ATOM     31  N   UNL A   1      44.766  30.275  28.426  1.00  0.00    -0.354 N 
ATOM     32  N   UNL A   1      42.201  31.208  29.680  1.00  0.00    -0.248 NA
ATOM     33  C   UNL A   1      40.998  32.851  30.825  1.00  0.00     0.031 C 
ATOM     34  C   UNL A   1      46.527  31.611  28.599  1.00  0.00     0.029 A 
ATOM     35  C   UNL A   1      45.179  31.506  28.908  1.00  0.00     0.049 A 
ATOM     36  H   UNL A   1      43.854  29.914  28.511  1.00  0.00     0.167 HD
ATOM     37  C   UNL A   1      43.023  32.305  29.883  1.00  0.00     0.074 A 
ATOM     38  C   UNL A   1      42.214  33.306  30.552  1.00  0.00     0.031 C 
ATOM     39  C   UNL A   1      44.335  32.465  29.579  1.00  0.00     0.037 A 
BRANCH  26  40
ATOM     40  C   UNL A   1      46.947  27.701  26.578  1.00  0.00     0.064 A 
ATOM     41  C   UNL A   1      47.248  27.867  25.218  1.00  0.00     0.173 A 
ATOM     42  C   UNL A   1      47.790  26.877  27.339  1.00  0.00     0.173 A 
ATOM     43  F   UNL A   1      46.454  28.615  24.437  1.00  0.00    -0.203 F 
ATOM     44  C   UNL A   1      48.325  27.200  24.636  1.00  0.00     0.198 A 
ATOM     45  C   UNL A   1      48.882  26.236  26.761  1.00  0.00     0.198 A 
ATOM     46  F   UNL A   1      47.542  26.676  28.643  1.00  0.00    -0.203 F 
ATOM     47  F   UNL A   1      48.551  27.317  23.319  1.00  0.00    -0.200 F 
ATOM     48  C   UNL A   1      49.142  26.388  25.408  1.00  0.00     0.200 A 
ATOM     49  F   UNL A   1      49.670  25.451  27.510  1.00  0.00    -0.200 F 
ATOM     50  F   UNL A   1      50.168  25.736  24.844  1.00  0.00    -0.200 F 
ENDBRANCH  26  40
BRANCH  27  51
ATOM     51  C   UNL A   1      38.537  31.208  30.917  1.00  0.00     0.064 A 
ATOM     52  C   UNL A   1      37.558  31.777  30.090  1.00  0.00     0.173 A 
ATOM     53  C   UNL A   1      38.261  31.156  32.293  1.00  0.00     0.173 A 
ATOM     54  F   UNL A   1      37.770  31.869  28.768  1.00  0.00    -0.203 F 
ATOM     55  C   UNL A   1      36.365  32.280  30.612  1.00  0.00     0.198 A 
ATOM     56  C   UNL A   1      37.052  31.624  32.810  1.00  0.00     0.198 A 
ATOM     57  F   UNL A   1      39.159  30.630  33.138  1.00  0.00    -0.203 F 
ATOM     58  F   UNL A   1      35.470  32.856  29.797  1.00  0.00    -0.200 F 
ATOM     59  C   UNL A   1      36.109  32.194  31.971  1.00  0.00     0.200 A 
ATOM     60  F   UNL A   1      36.808  31.528  34.125  1.00  0.00    -0.200 F 
ATOM     61  F   UNL A   1      34.962  32.674  32.471  1.00  0.00    -0.200 F 
ENDBRANCH  27  51
BRANCH  39  62
ATOM     62  C   UNL A   1      44.965  33.762  29.990  1.00  0.00     0.064 A 
ATOM     63  C   UNL A   1      44.973  34.871  29.130  1.00  0.00     0.173 A 
ATOM     64  C   UNL A   1      45.525  33.909  31.266  1.00  0.00     0.173 A 
ATOM     65  F   UNL A   1      44.459  34.771  27.895  1.00  0.00    -0.203 F 
ATOM     66  C   UNL A   1      45.546  36.074  29.526  1.00  0.00     0.198 A 
ATOM     67  C   UNL A   1      46.071  35.122  31.668  1.00  0.00     0.198 A 
ATOM     68  F   UNL A   1      45.532  32.877  32.124  1.00  0.00    -0.203 F 
ATOM     69  F   UNL A   1      45.586  37.106  28.673  1.00  0.00    -0.200 F 
ATOM     70  C   UNL A   1      46.088  36.201  30.796  1.00  0.00     0.200 A 
ATOM     71  F   UNL A   1      46.584  35.249  32.900  1.00  0.00    -0.200 F 
ATOM     72  F   UNL A   1      46.635  37.363  31.178  1.00  0.00    -0.200 F 
ENDBRANCH  39  62
ENDBRANCH  13  14
ENDBRANCH   6   8
ENDBRANCH   5   6
ENDBRANCH   4   5
ENDBRANCH   3   4
ENDBRANCH   2   3
ENDBRANCH   1   2
BRANCH   1  73
ATOM     73  C   UNL A   1      32.704  19.285  25.382  1.00  0.00     0.188 C 
BRANCH  73  74
ATOM     74  O   UNL A   1      31.808  20.396  25.361  1.00  0.00    -0.376 OA
BRANCH  74  75
ATOM     75  C   UNL A   1      32.368  21.706  25.404  1.00  0.00     0.202 C 
BRANCH  75  76
ATOM     76  C   UNL A   1      31.476  22.869  24.951  1.00  0.00     0.261 C 
BRANCH  76  77
ATOM     77  O   UNL A   1      31.473  23.969  25.864  1.00  0.00    -0.463 OA
BRANCH  77  78
ATOM     78  C   UNL A   1      30.428  24.833  25.732  1.00  0.00     0.309 C 
ATOM     79  O   UNL A   1      29.753  25.305  26.627  1.00  0.00    -0.252 OA
BRANCH  78  80
ATOM     80  C   UNL A   1      30.268  25.287  24.330  1.00  0.00     0.107 C 
ATOM     81  C   UNL A   1      29.450  26.499  23.982  1.00  0.00     0.025 C 
ATOM     82  C   UNL A   1      30.945  26.533  23.803  1.00  0.00     0.034 C 
BRANCH  82  83
ATOM     83  C   UNL A   1      31.864  27.331  24.693  1.00  0.00    -0.044 A 
ATOM     84  C   UNL A   1      33.216  27.021  24.874  1.00  0.00     0.004 A 
ATOM     85  C   UNL A   1      31.356  28.398  25.444  1.00  0.00     0.004 A 
ATOM     86  C   UNL A   1      33.995  27.683  25.831  1.00  0.00     0.004 A 
ATOM     87  C   UNL A   1      32.140  29.072  26.384  1.00  0.00     0.004 A 
ATOM     88  C   UNL A   1      33.468  28.700  26.641  1.00  0.00    -0.045 A 
BRANCH  88  89
ATOM     89  C   UNL A   1      34.304  29.313  27.746  1.00  0.00     0.019 C 
ATOM     90  C   UNL A   1      35.806  29.408  27.655  1.00  0.00     0.009 C 
ATOM     91  C   UNL A   1      34.973  30.652  27.525  1.00  0.00     0.009 C 
ENDBRANCH  88  89
ENDBRANCH  82  83
ENDBRANCH  78  80
ENDBRANCH  77  78
ENDBRANCH  76  77
ENDBRANCH  75  76
ENDBRANCH  74  75
ENDBRANCH  73  74
ENDBRANCH   1  73
TORSDOF 19
ENDMDL
MODEL 2
REMARK VINA RESULT:     -10.5      3.055      9.028
REMARK SMILES O=C(OCCOCCOCCOC(=O)[C@H]1C[C@H]1c1ccc(C2CC2)cc1)c1ccc(-c2c3nc(c(-c4c(F)c(F)c(F)c(F)c4F)c4ccc([nH]4)c(-c4c(F)c(F)c(F)c(F)c4F)c4nc(c(-c5c(F)c(F)c(F)c(F)c5F)c5ccc2[nH]5)C=C4)C=C3)cc1
REMARK SMILES IDX 7 1 6 2 5 3 4 4 3 5 2 6 1 7 27 8 28 9 89 10 29 11 88 12
REMARK SMILES IDX 30 13 31 14 32 15 82 16 33 17 87 18 81 19 83 20 34 21 86 22
REMARK SMILES IDX 80 23 79 24 35 26 67 27 47 28 66 29 48 30 51 31 65 32 84 33
REMARK SMILES IDX 49 34 50 35 64 37 85 38 52 39 36 40 37 41 45 42 38 43 39 44
REMARK SMILES IDX 43 45 46 46 40 47 41 48 44 49 42 50 68 51 69 52 77 53 70 54
REMARK SMILES IDX 71 55 75 56 78 57 72 58 73 59 76 60 74 61 53 62 54 63 62 64
REMARK SMILES IDX 55 65 56 66 60 67 63 68 57 69 58 70 61 71 59 72 8 73 9 74
REMARK SMILES IDX 10 75 11 76 12 77 13 78 14 79 15 80 16 81 17 82 18 83 19 84
REMARK SMILES IDX 26 85 20 86 25 87 21 88 22 89 23 90 24 91
REMARK H PARENT 83 25 51 36
REMARK Flexibility Score: inf
ROOT
ATOM      1  C   UNL A   1      41.196  20.829  27.399  1.00  0.00     0.188 C 
ENDROOT
BRANCH   1   2
ATOM      2  O   UNL A   1      41.711  20.611  26.078  1.00  0.00    -0.376 OA
BRANCH   2   3
ATOM      3  C   UNL A   1      41.866  19.224  25.753  1.00  0.00     0.202 C 
BRANCH   3   4
ATOM      4  C   UNL A   1      43.261  18.645  26.030  1.00  0.00     0.261 C 
BRANCH   4   5
ATOM      5  O   UNL A   1      44.059  18.533  24.841  1.00  0.00    -0.460 OA
BRANCH   5   6
ATOM      6  C   UNL A   1      44.919  19.438  24.315  1.00  0.00     0.338 C 
ATOM      7  O   UNL A   1      45.712  19.057  23.455  1.00  0.00    -0.246 OA
BRANCH   6   8
ATOM      8  C   UNL A   1      44.956  20.887  24.694  1.00  0.00     0.060 A 
ATOM      9  C   UNL A   1      44.560  21.952  23.883  1.00  0.00     0.016 A 
ATOM     10  C   UNL A   1      45.377  21.186  26.005  1.00  0.00     0.016 A 
ATOM     11  C   UNL A   1      44.686  23.272  24.308  1.00  0.00     0.010 A 
ATOM     12  C   UNL A   1      45.462  22.506  26.458  1.00  0.00     0.010 A 
ATOM     13  C   UNL A   1      45.156  23.556  25.590  1.00  0.00    -0.014 A 
BRANCH  13  14
ATOM     14  C   UNL A   1      45.426  24.963  25.943  1.00  0.00     0.031 A 
ATOM     15  C   UNL A   1      44.353  25.742  26.632  1.00  0.00     0.074 A 
ATOM     16  C   UNL A   1      46.649  25.479  25.735  1.00  0.00     0.049 A 
ATOM     17  N   UNL A   1      44.382  26.968  27.080  1.00  0.00    -0.248 NA
ATOM     18  C   UNL A   1      43.068  25.052  26.834  1.00  0.00     0.031 C 
ATOM     19  C   UNL A   1      47.737  24.772  25.071  1.00  0.00     0.029 A 
ATOM     20  N   UNL A   1      47.196  26.686  26.080  1.00  0.00    -0.354 N 
ATOM     21  C   UNL A   1      43.107  27.214  27.568  1.00  0.00     0.074 A 
ATOM     22  C   UNL A   1      42.333  26.008  27.379  1.00  0.00     0.031 C 
ATOM     23  C   UNL A   1      48.844  25.528  25.111  1.00  0.00     0.029 A 
ATOM     24  C   UNL A   1      48.536  26.784  25.782  1.00  0.00     0.049 A 
ATOM     25  H   UNL A   1      46.682  27.413  26.500  1.00  0.00     0.167 HD
ATOM     26  C   UNL A   1      42.630  28.363  28.099  1.00  0.00     0.037 A 
ATOM     27  C   UNL A   1      49.407  27.780  26.034  1.00  0.00     0.037 A 
ATOM     28  C   UNL A   1      43.431  29.547  28.261  1.00  0.00     0.049 A 
ATOM     29  C   UNL A   1      48.862  29.024  26.684  1.00  0.00     0.074 A 
ATOM     30  C   UNL A   1      43.055  30.793  28.724  1.00  0.00     0.029 A 
ATOM     31  N   UNL A   1      44.786  29.620  27.960  1.00  0.00    -0.354 N 
ATOM     32  N   UNL A   1      47.645  29.266  27.112  1.00  0.00    -0.248 NA
ATOM     33  C   UNL A   1      49.794  30.146  26.854  1.00  0.00     0.031 C 
ATOM     34  C   UNL A   1      44.175  31.632  28.666  1.00  0.00     0.029 A 
ATOM     35  C   UNL A   1      45.261  30.895  28.216  1.00  0.00     0.049 A 
ATOM     36  H   UNL A   1      45.329  28.875  27.614  1.00  0.00     0.167 HD
ATOM     37  C   UNL A   1      47.655  30.572  27.579  1.00  0.00     0.074 A 
ATOM     38  C   UNL A   1      49.018  31.048  27.438  1.00  0.00     0.031 C 
ATOM     39  C   UNL A   1      46.629  31.324  28.049  1.00  0.00     0.037 A 
BRANCH  26  40
ATOM     40  C   UNL A   1      41.170  28.396  28.440  1.00  0.00     0.064 A 
ATOM     41  C   UNL A   1      40.207  28.897  27.552  1.00  0.00     0.173 A 
ATOM     42  C   UNL A   1      40.737  27.973  29.706  1.00  0.00     0.173 A 
ATOM     43  F   UNL A   1      40.574  29.348  26.343  1.00  0.00    -0.203 F 
ATOM     44  C   UNL A   1      38.871  29.008  27.933  1.00  0.00     0.198 A 
ATOM     45  C   UNL A   1      39.396  28.059  30.072  1.00  0.00     0.198 A 
ATOM     46  F   UNL A   1      41.618  27.495  30.598  1.00  0.00    -0.203 F 
ATOM     47  F   UNL A   1      37.980  29.556  27.093  1.00  0.00    -0.200 F 
ATOM     48  C   UNL A   1      38.467  28.587  29.190  1.00  0.00     0.200 A 
ATOM     49  F   UNL A   1      39.009  27.650  31.289  1.00  0.00    -0.200 F 
ATOM     50  F   UNL A   1      37.184  28.708  29.560  1.00  0.00    -0.200 F 
ENDBRANCH  26  40
BRANCH  27  51
ATOM     51  C   UNL A   1      50.852  27.635  25.695  1.00  0.00     0.064 A 
ATOM     52  C   UNL A   1      51.776  27.195  26.655  1.00  0.00     0.173 A 
ATOM     53  C   UNL A   1      51.347  27.912  24.411  1.00  0.00     0.173 A 
ATOM     54  F   UNL A   1      51.367  26.927  27.905  1.00  0.00    -0.203 F 
ATOM     55  C   UNL A   1      53.131  27.049  26.349  1.00  0.00     0.198 A 
ATOM     56  C   UNL A   1      52.695  27.730  24.096  1.00  0.00     0.198 A 
ATOM     57  F   UNL A   1      50.517  28.344  23.451  1.00  0.00    -0.203 F 
ATOM     58  F   UNL A   1      53.992  26.667  27.303  1.00  0.00    -0.200 F 
ATOM     59  C   UNL A   1      53.587  27.307  25.067  1.00  0.00     0.200 A 
ATOM     60  F   UNL A   1      53.126  27.973  22.850  1.00  0.00    -0.200 F 
ATOM     61  F   UNL A   1      54.886  27.164  24.774  1.00  0.00    -0.200 F 
ENDBRANCH  27  51
BRANCH  39  62
ATOM     62  C   UNL A   1      46.953  32.740  28.421  1.00  0.00     0.064 A 
ATOM     63  C   UNL A   1      46.848  33.779  27.483  1.00  0.00     0.173 A 
ATOM     64  C   UNL A   1      47.330  33.065  29.731  1.00  0.00     0.173 A 
ATOM     65  F   UNL A   1      46.503  33.512  26.215  1.00  0.00    -0.203 F 
ATOM     66  C   UNL A   1      47.136  35.092  27.841  1.00  0.00     0.198 A 
ATOM     67  C   UNL A   1      47.589  34.382  30.091  1.00  0.00     0.198 A 
ATOM     68  F   UNL A   1      47.435  32.104  30.662  1.00  0.00    -0.203 F 
ATOM     69  F   UNL A   1      47.076  36.063  26.920  1.00  0.00    -0.200 F 
ATOM     70  C   UNL A   1      47.500  35.393  29.145  1.00  0.00     0.200 A 
ATOM     71  F   UNL A   1      47.929  34.675  31.354  1.00  0.00    -0.200 F 
ATOM     72  F   UNL A   1      47.772  36.659  29.489  1.00  0.00    -0.200 F 
ENDBRANCH  39  62
ENDBRANCH  13  14
ENDBRANCH   6   8
ENDBRANCH   5   6
ENDBRANCH   4   5
ENDBRANCH   3   4
ENDBRANCH   2   3
ENDBRANCH   1   2
BRANCH   1  73
ATOM     73  C   UNL A   1      40.497  22.181  27.539  1.00  0.00     0.188 C 
BRANCH  73  74
ATOM     74  O   UNL A   1      39.275  22.357  26.823  1.00  0.00    -0.376 OA
BRANCH  74  75
ATOM     75  C   UNL A   1      38.888  23.685  26.480  1.00  0.00     0.202 C 
BRANCH  75  76
ATOM     76  C   UNL A   1      37.462  23.889  25.951  1.00  0.00     0.261 C 
BRANCH  76  77
ATOM     77  O   UNL A   1      37.102  22.965  24.922  1.00  0.00    -0.463 OA
BRANCH  77  78
ATOM     78  C   UNL A   1      36.177  23.418  24.029  1.00  0.00     0.309 C 
ATOM     79  O   UNL A   1      36.024  23.044  22.883  1.00  0.00    -0.252 OA
BRANCH  78  80
ATOM     80  C   UNL A   1      35.223  24.360  24.663  1.00  0.00     0.107 C 
ATOM     81  C   UNL A   1      34.033  24.897  23.916  1.00  0.00     0.025 C 
ATOM     82  C   UNL A   1      33.825  23.945  25.065  1.00  0.00     0.034 C 
BRANCH  82  83
ATOM     83  C   UNL A   1      33.376  22.517  24.882  1.00  0.00    -0.044 A 
ATOM     84  C   UNL A   1      33.620  21.510  25.820  1.00  0.00     0.004 A 
ATOM     85  C   UNL A   1      32.742  22.132  23.694  1.00  0.00     0.004 A 
ATOM     86  C   UNL A   1      33.334  20.167  25.543  1.00  0.00     0.004 A 
ATOM     87  C   UNL A   1      32.438  20.794  23.426  1.00  0.00     0.004 A 
ATOM     88  C   UNL A   1      32.770  19.768  24.321  1.00  0.00    -0.045 A 
BRANCH  88  89
ATOM     89  C   UNL A   1      32.583  18.297  24.007  1.00  0.00     0.019 C 
ATOM     90  C   UNL A   1      32.633  17.766  22.597  1.00  0.00     0.009 C 
ATOM     91  C   UNL A   1      33.764  17.473  23.541  1.00  0.00     0.009 C 
ENDBRANCH  88  89
ENDBRANCH  82  83
ENDBRANCH  78  80
ENDBRANCH  77  78
ENDBRANCH  76  77
ENDBRANCH  75  76
ENDBRANCH  74  75
ENDBRANCH  73  74
ENDBRANCH   1  73
TORSDOF 19
ENDMDL
MODEL 3
REMARK VINA RESULT:     -10.4      1.130      2.040
REMARK SMILES O=C(OCCOCCOCCOC(=O)[C@H]1C[C@H]1c1ccc(C2CC2)cc1)c1ccc(-c2c3nc(c(-c4c(F)c(F)c(F)c(F)c4F)c4ccc([nH]4)c(-c4c(F)c(F)c(F)c(F)c4F)c4nc(c(-c5c(F)c(F)c(F)c(F)c5F)c5ccc2[nH]5)C=C4)C=C3)cc1
REMARK SMILES IDX 7 1 6 2 5 3 4 4 3 5 2 6 1 7 27 8 28 9 89 10 29 11 88 12
REMARK SMILES IDX 30 13 31 14 32 15 82 16 33 17 87 18 81 19 83 20 34 21 86 22
REMARK SMILES IDX 80 23 79 24 35 26 67 27 47 28 66 29 48 30 51 31 65 32 84 33
REMARK SMILES IDX 49 34 50 35 64 37 85 38 52 39 36 40 37 41 45 42 38 43 39 44
REMARK SMILES IDX 43 45 46 46 40 47 41 48 44 49 42 50 68 51 69 52 77 53 70 54
REMARK SMILES IDX 71 55 75 56 78 57 72 58 73 59 76 60 74 61 53 62 54 63 62 64
REMARK SMILES IDX 55 65 56 66 60 67 63 68 57 69 58 70 61 71 59 72 8 73 9 74
REMARK SMILES IDX 10 75 11 76 12 77 13 78 14 79 15 80 16 81 17 82 18 83 19 84
REMARK SMILES IDX 26 85 20 86 25 87 21 88 22 89 23 90 24 91
REMARK H PARENT 83 25 51 36
REMARK Flexibility Score: inf
ROOT
ATOM      1  C   UNL A   1      34.329  18.110  24.141  1.00  0.00     0.188 C 
ENDROOT
BRANCH   1   2
ATOM      2  O   UNL A   1      35.608  18.231  24.780  1.00  0.00    -0.376 OA
BRANCH   2   3
ATOM      3  C   UNL A   1      36.040  19.590  24.925  1.00  0.00     0.202 C 
BRANCH   3   4
ATOM      4  C   UNL A   1      37.555  19.806  24.797  1.00  0.00     0.261 C 
BRANCH   4   5
ATOM      5  O   UNL A   1      38.000  21.005  25.450  1.00  0.00    -0.460 OA
BRANCH   5   6
ATOM      6  C   UNL A   1      39.193  21.245  26.047  1.00  0.00     0.338 C 
ATOM      7  O   UNL A   1      39.996  20.317  26.140  1.00  0.00    -0.246 OA
BRANCH   6   8
ATOM      8  C   UNL A   1      39.614  22.578  26.585  1.00  0.00     0.060 A 
ATOM      9  C   UNL A   1      39.059  23.811  26.236  1.00  0.00     0.016 A 
ATOM     10  C   UNL A   1      40.622  22.572  27.569  1.00  0.00     0.016 A 
ATOM     11  C   UNL A   1      39.560  25.003  26.751  1.00  0.00     0.010 A 
ATOM     12  C   UNL A   1      41.099  23.761  28.129  1.00  0.00     0.010 A 
ATOM     13  C   UNL A   1      40.596  24.985  27.685  1.00  0.00    -0.014 A 
BRANCH  13  14
ATOM     14  C   UNL A   1      41.203  26.270  28.082  1.00  0.00     0.031 A 
ATOM     15  C   UNL A   1      42.587  26.579  27.608  1.00  0.00     0.074 A 
ATOM     16  C   UNL A   1      40.475  27.169  28.766  1.00  0.00     0.049 A 
ATOM     17  N   UNL A   1      43.298  27.659  27.788  1.00  0.00    -0.248 NA
ATOM     18  C   UNL A   1      43.267  25.526  26.837  1.00  0.00     0.031 C 
ATOM     19  C   UNL A   1      39.122  26.929  29.254  1.00  0.00     0.029 A 
ATOM     20  N   UNL A   1      40.742  28.458  29.139  1.00  0.00    -0.354 N 
ATOM     21  C   UNL A   1      44.526  27.396  27.199  1.00  0.00     0.074 A 
ATOM     22  C   UNL A   1      44.460  26.063  26.642  1.00  0.00     0.031 C 
ATOM     23  C   UNL A   1      38.648  28.054  29.807  1.00  0.00     0.029 A 
ATOM     24  C   UNL A   1      39.673  29.087  29.735  1.00  0.00     0.049 A 
ATOM     25  H   UNL A   1      41.613  28.894  28.996  1.00  0.00     0.167 HD
ATOM     26  C   UNL A   1      45.615  28.196  27.162  1.00  0.00     0.037 A 
ATOM     27  C   UNL A   1      39.546  30.357  30.163  1.00  0.00     0.037 A 
ATOM     28  C   UNL A   1      45.645  29.514  27.738  1.00  0.00     0.049 A 
ATOM     29  C   UNL A   1      40.756  31.247  30.051  1.00  0.00     0.074 A 
ATOM     30  C   UNL A   1      46.700  30.401  27.825  1.00  0.00     0.029 A 
ATOM     31  N   UNL A   1      44.548  30.132  28.329  1.00  0.00    -0.354 N 
ATOM     32  N   UNL A   1      41.929  30.982  29.526  1.00  0.00    -0.248 NA
ATOM     33  C   UNL A   1      40.642  32.595  30.621  1.00  0.00     0.031 C 
ATOM     34  C   UNL A   1      46.252  31.541  28.504  1.00  0.00     0.029 A 
ATOM     35  C   UNL A   1      44.904  31.386  28.794  1.00  0.00     0.049 A 
ATOM     36  H   UNL A   1      43.651  29.736  28.406  1.00  0.00     0.167 HD
ATOM     37  C   UNL A   1      42.703  32.115  29.721  1.00  0.00     0.074 A 
ATOM     38  C   UNL A   1      41.843  33.094  30.359  1.00  0.00     0.031 C 
ATOM     39  C   UNL A   1      44.012  32.322  29.434  1.00  0.00     0.037 A 
BRANCH  26  40
ATOM     40  C   UNL A   1      46.861  27.615  26.562  1.00  0.00     0.064 A 
ATOM     41  C   UNL A   1      47.095  27.619  25.179  1.00  0.00     0.173 A 
ATOM     42  C   UNL A   1      47.811  26.990  27.385  1.00  0.00     0.173 A 
ATOM     43  F   UNL A   1      46.201  28.172  24.344  1.00  0.00    -0.203 F 
ATOM     44  C   UNL A   1      48.213  26.985  24.640  1.00  0.00     0.198 A 
ATOM     45  C   UNL A   1      48.941  26.384  26.845  1.00  0.00     0.198 A 
ATOM     46  F   UNL A   1      47.631  26.950  28.714  1.00  0.00    -0.203 F 
ATOM     47  F   UNL A   1      48.380  26.939  23.310  1.00  0.00    -0.200 F 
ATOM     48  C   UNL A   1      49.136  26.371  25.473  1.00  0.00     0.200 A 
ATOM     49  F   UNL A   1      49.831  25.791  27.654  1.00  0.00    -0.200 F 
ATOM     50  F   UNL A   1      50.203  25.750  24.952  1.00  0.00    -0.200 F 
ENDBRANCH  26  40
BRANCH  27  51
ATOM     51  C   UNL A   1      38.248  30.855  30.706  1.00  0.00     0.064 A 
ATOM     52  C   UNL A   1      38.044  30.973  32.089  1.00  0.00     0.173 A 
ATOM     53  C   UNL A   1      37.190  31.241  29.869  1.00  0.00     0.173 A 
ATOM     54  F   UNL A   1      39.013  30.607  32.942  1.00  0.00    -0.203 F 
ATOM     55  C   UNL A   1      36.837  31.443  32.610  1.00  0.00     0.198 A 
ATOM     56  C   UNL A   1      35.997  31.746  30.389  1.00  0.00     0.198 A 
ATOM     57  F   UNL A   1      37.319  31.146  28.537  1.00  0.00    -0.203 F 
ATOM     58  F   UNL A   1      36.663  31.502  33.938  1.00  0.00    -0.200 F 
ATOM     59  C   UNL A   1      35.819  31.839  31.759  1.00  0.00     0.200 A 
ATOM     60  F   UNL A   1      35.021  32.137  29.558  1.00  0.00    -0.200 F 
ATOM     61  F   UNL A   1      34.662  32.293  32.260  1.00  0.00    -0.200 F 
ENDBRANCH  27  51
BRANCH  39  62
ATOM     62  C   UNL A   1      44.582  33.651  29.831  1.00  0.00     0.064 A 
ATOM     63  C   UNL A   1      44.528  34.753  28.964  1.00  0.00     0.173 A 
ATOM     64  C   UNL A   1      45.147  33.833  31.100  1.00  0.00     0.173 A 
ATOM     65  F   UNL A   1      44.008  34.621  27.735  1.00  0.00    -0.203 F 
ATOM     66  C   UNL A   1      45.046  35.986  29.347  1.00  0.00     0.198 A 
ATOM     67  C   UNL A   1      45.637  35.074  31.489  1.00  0.00     0.198 A 
ATOM     68  F   UNL A   1      45.212  32.809  31.965  1.00  0.00    -0.203 F 
ATOM     69  F   UNL A   1      45.028  37.013  28.487  1.00  0.00    -0.200 F 
ATOM     70  C   UNL A   1      45.594  36.147  30.611  1.00  0.00     0.200 A 
ATOM     71  F   UNL A   1      46.156  35.234  32.715  1.00  0.00    -0.200 F 
ATOM     72  F   UNL A   1      46.088  37.337  30.980  1.00  0.00    -0.200 F 
ENDBRANCH  39  62
ENDBRANCH  13  14
ENDBRANCH   6   8
ENDBRANCH   5   6
ENDBRANCH   4   5
ENDBRANCH   3   4
ENDBRANCH   2   3
ENDBRANCH   1   2
BRANCH   1  73
ATOM     73  C   UNL A   1      33.199  17.855  25.139  1.00  0.00     0.188 C 
BRANCH  73  74
ATOM     74  O   UNL A   1      32.221  18.884  25.287  1.00  0.00    -0.376 OA
BRANCH  74  75
ATOM     75  C   UNL A   1      32.371  20.066  24.504  1.00  0.00     0.202 C 
BRANCH  75  76
ATOM     76  C   UNL A   1      32.078  21.407  25.188  1.00  0.00     0.261 C 
BRANCH  76  77
ATOM     77  O   UNL A   1      32.072  22.514  24.284  1.00  0.00    -0.463 OA
BRANCH  77  78
ATOM     78  C   UNL A   1      33.280  22.826  23.736  1.00  0.00     0.309 C 
ATOM     79  O   UNL A   1      33.487  23.233  22.609  1.00  0.00    -0.252 OA
BRANCH  78  80
ATOM     80  C   UNL A   1      34.369  22.758  24.740  1.00  0.00     0.107 C 
ATOM     81  C   UNL A   1      35.642  23.541  24.575  1.00  0.00     0.025 C 
ATOM     82  C   UNL A   1      34.679  23.907  25.673  1.00  0.00     0.034 C 
BRANCH  82  83
ATOM     83  C   UNL A   1      33.833  25.155  25.647  1.00  0.00    -0.044 A 
ATOM     84  C   UNL A   1      34.233  26.339  25.019  1.00  0.00     0.004 A 
ATOM     85  C   UNL A   1      32.614  25.186  26.334  1.00  0.00     0.004 A 
ATOM     86  C   UNL A   1      33.497  27.523  25.155  1.00  0.00     0.004 A 
ATOM     87  C   UNL A   1      31.869  26.363  26.453  1.00  0.00     0.004 A 
ATOM     88  C   UNL A   1      32.314  27.577  25.909  1.00  0.00    -0.045 A 
BRANCH  88  89
ATOM     89  C   UNL A   1      31.607  28.898  26.133  1.00  0.00     0.019 C 
ATOM     90  C   UNL A   1      32.293  30.222  25.912  1.00  0.00     0.009 C 
ATOM     91  C   UNL A   1      31.238  29.762  24.946  1.00  0.00     0.009 C 
ENDBRANCH  88  89
ENDBRANCH  82  83
ENDBRANCH  78  80
ENDBRANCH  77  78
ENDBRANCH  76  77
ENDBRANCH  75  76
ENDBRANCH  74  75
ENDBRANCH  73  74
ENDBRANCH   1  73
TORSDOF 19
ENDMDL
