MODEL 1
REMARK VINA RESULT:     -10.4      0.000      0.000
REMARK SMILES NC(=O)C[C@@H](CC(=O)OCCOCCOCCOC(=O)c1ccc(-c2c3nc(c(-c4c(F)c(F)c(F)c(F)c4F)c4ccc([nH]4)c(-c4c(F)c(F)c(F)c(F)c4F)c4nc(c(-c5c(F)c(F)c(F)c(F)c5F)c5ccc2[nH]5)C=C4)C=C3)cc1)c1cccc(Br)c1
REMARK SMILES IDX 13 1 12 2 11 3 10 4 9 5 7 6 8 7 6 8 5 9 4 10 2 11 1 12 3 15
REMARK SMILES IDX 84 16 85 17 90 18 86 19 88 20 87 21 89 22 14 23 15 24 16 25
REMARK SMILES IDX 17 26 18 27 19 28 20 29 21 30 22 31 83 32 23 33 82 34 24 35
REMARK SMILES IDX 25 36 26 37 76 38 27 39 81 40 75 41 77 42 28 43 80 44 74 45
REMARK SMILES IDX 73 46 29 48 61 49 41 50 60 51 42 52 45 53 59 54 78 55 43 56
REMARK SMILES IDX 44 57 58 59 79 60 46 61 30 62 31 63 39 64 32 65 33 66 37 67
REMARK SMILES IDX 40 68 34 69 35 70 38 71 36 72 62 73 63 74 71 75 64 76 65 77
REMARK SMILES IDX 69 78 72 79 66 80 67 81 70 82 68 83 47 84 48 85 56 86 49 87
REMARK SMILES IDX 50 88 54 89 57 90 51 91 52 92 55 93 53 94
REMARK H PARENT 1 13 1 14 77 47 45 58
REMARK Flexibility Score: inf
ROOT
ATOM      1  C   UNL A   1      34.945  32.309  28.033  1.00  0.00     0.188 C 
ENDROOT
BRANCH   1   2
ATOM      2  O   UNL A   1      33.685  31.673  27.841  1.00  0.00    -0.376 OA
BRANCH   2   3
ATOM      3  C   UNL A   1      33.636  30.465  27.090  1.00  0.00     0.202 C 
BRANCH   3   4
ATOM      4  C   UNL A   1      32.254  30.090  26.550  1.00  0.00     0.261 C 
BRANCH   4   5
ATOM      5  O   UNL A   1      31.734  28.893  27.175  1.00  0.00    -0.463 OA
BRANCH   5   6
ATOM      6  C   UNL A   1      31.476  27.848  26.357  1.00  0.00     0.306 C 
ATOM      7  O   UNL A   1      30.970  26.797  26.737  1.00  0.00    -0.252 OA
BRANCH   6   8
ATOM      8  C   UNL A   1      31.742  28.105  24.881  1.00  0.00     0.131 C 
BRANCH   8   9
ATOM      9  C   UNL A   1      30.886  27.552  23.704  1.00  0.00     0.039 C 
BRANCH   9  10
ATOM     10  C   UNL A   1      31.651  27.093  22.450  1.00  0.00     0.108 C 
BRANCH  10  11
ATOM     11  C   UNL A   1      31.788  25.590  22.433  1.00  0.00     0.218 C 
ATOM     12  N   UNL A   1      32.499  25.074  21.398  1.00  0.00    -0.370 N 
ATOM     13  H   UNL A   1      32.627  24.100  21.326  1.00  0.00     0.159 HD
ATOM     14  H   UNL A   1      32.887  25.673  20.720  1.00  0.00     0.159 HD
ATOM     15  O   UNL A   1      31.333  24.870  23.312  1.00  0.00    -0.275 OA
ENDBRANCH  10  11
ENDBRANCH   9  10
BRANCH   9  16
ATOM     16  C   UNL A   1      29.623  28.386  23.429  1.00  0.00    -0.043 A 
ATOM     17  C   UNL A   1      28.339  27.830  23.311  1.00  0.00     0.004 A 
ATOM     18  C   UNL A   1      29.727  29.793  23.383  1.00  0.00     0.019 A 
ATOM     19  C   UNL A   1      27.212  28.641  23.126  1.00  0.00     0.001 A 
ATOM     20  C   UNL A   1      28.598  30.598  23.205  1.00  0.00     0.018 A 
ATOM     21  C   UNL A   1      27.339  30.025  23.067  1.00  0.00     0.016 A 
ATOM     22  Br  UNL A   1      28.782  32.478  23.121  1.00  0.00    -0.051 Br
ENDBRANCH   9  16
ENDBRANCH   8   9
ENDBRANCH   6   8
ENDBRANCH   5   6
ENDBRANCH   4   5
ENDBRANCH   3   4
ENDBRANCH   2   3
ENDBRANCH   1   2
BRANCH   1  23
ATOM     23  C   UNL A   1      34.975  33.694  28.688  1.00  0.00     0.188 C 
BRANCH  23  24
ATOM     24  O   UNL A   1      33.680  34.193  28.993  1.00  0.00    -0.376 OA
BRANCH  24  25
ATOM     25  C   UNL A   1      33.579  35.610  28.952  1.00  0.00     0.202 C 
BRANCH  25  26
ATOM     26  C   UNL A   1      32.400  36.081  29.800  1.00  0.00     0.261 C 
BRANCH  26  27
ATOM     27  O   UNL A   1      32.792  36.980  30.857  1.00  0.00    -0.460 OA
BRANCH  27  28
ATOM     28  C   UNL A   1      32.727  36.477  32.109  1.00  0.00     0.338 C 
ATOM     29  O   UNL A   1      31.930  36.762  32.981  1.00  0.00    -0.246 OA
BRANCH  28  30
ATOM     30  C   UNL A   1      33.763  35.436  32.240  1.00  0.00     0.060 A 
ATOM     31  C   UNL A   1      33.410  34.148  32.656  1.00  0.00     0.016 A 
ATOM     32  C   UNL A   1      35.100  35.770  32.034  1.00  0.00     0.016 A 
ATOM     33  C   UNL A   1      34.398  33.198  32.923  1.00  0.00     0.010 A 
ATOM     34  C   UNL A   1      36.087  34.816  32.293  1.00  0.00     0.010 A 
ATOM     35  C   UNL A   1      35.746  33.538  32.776  1.00  0.00    -0.014 A 
BRANCH  35  36
ATOM     36  C   UNL A   1      36.824  32.639  33.258  1.00  0.00     0.031 A 
ATOM     37  C   UNL A   1      37.418  32.904  34.613  1.00  0.00     0.074 A 
ATOM     38  C   UNL A   1      37.294  31.633  32.502  1.00  0.00     0.049 A 
ATOM     39  N   UNL A   1      38.543  32.479  35.126  1.00  0.00    -0.248 NA
ATOM     40  C   UNL A   1      36.639  33.779  35.504  1.00  0.00     0.031 C 
ATOM     41  C   UNL A   1      36.745  31.206  31.218  1.00  0.00     0.029 A 
ATOM     42  N   UNL A   1      38.373  30.805  32.700  1.00  0.00    -0.354 N 
ATOM     43  C   UNL A   1      38.634  33.080  36.375  1.00  0.00     0.074 A 
ATOM     44  C   UNL A   1      37.446  33.886  36.550  1.00  0.00     0.031 C 
ATOM     45  C   UNL A   1      37.508  30.216  30.725  1.00  0.00     0.029 A 
ATOM     46  C   UNL A   1      38.638  29.993  31.623  1.00  0.00     0.049 A 
ATOM     47  H   UNL A   1      38.902  30.794  33.529  1.00  0.00     0.167 HD
ATOM     48  C   UNL A   1      39.632  32.973  37.283  1.00  0.00     0.037 A 
ATOM     49  C   UNL A   1      39.705  29.210  31.367  1.00  0.00     0.037 A 
ATOM     50  C   UNL A   1      40.788  32.134  37.114  1.00  0.00     0.049 A 
ATOM     51  C   UNL A   1      40.834  29.153  32.364  1.00  0.00     0.074 A 
ATOM     52  C   UNL A   1      41.857  31.951  37.974  1.00  0.00     0.029 A 
ATOM     53  N   UNL A   1      41.018  31.326  36.011  1.00  0.00    -0.354 N 
ATOM     54  N   UNL A   1      40.955  29.769  33.515  1.00  0.00    -0.248 NA
ATOM     55  C   UNL A   1      41.985  28.304  32.018  1.00  0.00     0.031 C 
ATOM     56  C   UNL A   1      42.752  31.060  37.372  1.00  0.00     0.029 A 
ATOM     57  C   UNL A   1      42.216  30.651  36.162  1.00  0.00     0.049 A 
ATOM     58  H   UNL A   1      40.417  31.244  35.236  1.00  0.00     0.167 HD
ATOM     59  C   UNL A   1      42.174  29.362  34.042  1.00  0.00     0.074 A 
ATOM     60  C   UNL A   1      42.754  28.442  33.088  1.00  0.00     0.031 C 
ATOM     61  C   UNL A   1      42.762  29.718  35.211  1.00  0.00     0.037 A 
BRANCH  48  62
ATOM     62  C   UNL A   1      39.546  33.813  38.523  1.00  0.00     0.064 A 
ATOM     63  C   UNL A   1      40.152  35.074  38.611  1.00  0.00     0.173 A 
ATOM     64  C   UNL A   1      38.794  33.366  39.620  1.00  0.00     0.173 A 
ATOM     65  F   UNL A   1      40.895  35.538  37.595  1.00  0.00    -0.203 F 
ATOM     66  C   UNL A   1      40.017  35.853  39.758  1.00  0.00     0.198 A 
ATOM     67  C   UNL A   1      38.640  34.157  40.755  1.00  0.00     0.198 A 
ATOM     68  F   UNL A   1      38.193  32.168  39.585  1.00  0.00    -0.203 F 
ATOM     69  F   UNL A   1      40.630  37.041  39.835  1.00  0.00    -0.200 F 
ATOM     70  C   UNL A   1      39.254  35.398  40.824  1.00  0.00     0.200 A 
ATOM     71  F   UNL A   1      37.893  33.721  41.779  1.00  0.00    -0.200 F 
ATOM     72  F   UNL A   1      39.115  36.156  41.921  1.00  0.00    -0.200 F 
ENDBRANCH  48  62
BRANCH  49  73
ATOM     73  C   UNL A   1      39.792  28.468  30.081  1.00  0.00     0.064 A 
ATOM     74  C   UNL A   1      39.259  27.178  29.952  1.00  0.00     0.173 A 
ATOM     75  C   UNL A   1      40.431  29.024  28.963  1.00  0.00     0.173 A 
ATOM     76  F   UNL A   1      38.667  26.590  31.002  1.00  0.00    -0.203 F 
ATOM     77  C   UNL A   1      39.376  26.466  28.759  1.00  0.00     0.198 A 
ATOM     78  C   UNL A   1      40.519  28.323  27.761  1.00  0.00     0.198 A 
ATOM     79  F   UNL A   1      40.965  30.251  29.034  1.00  0.00    -0.203 F 
ATOM     80  F   UNL A   1      38.903  25.216  28.679  1.00  0.00    -0.200 F 
ATOM     81  C   UNL A   1      40.000  27.043  27.662  1.00  0.00     0.200 A 
ATOM     82  F   UNL A   1      41.115  28.889  26.702  1.00  0.00    -0.200 F 
ATOM     83  F   UNL A   1      40.110  26.360  26.515  1.00  0.00    -0.200 F 
ENDBRANCH  49  73
BRANCH  61  84
ATOM     84  C   UNL A   1      44.068  29.067  35.555  1.00  0.00     0.064 A 
ATOM     85  C   UNL A   1      44.126  27.859  36.264  1.00  0.00     0.173 A 
ATOM     86  C   UNL A   1      45.274  29.632  35.113  1.00  0.00     0.173 A 
ATOM     87  F   UNL A   1      43.000  27.288  36.718  1.00  0.00    -0.203 F 
ATOM     88  C   UNL A   1      45.348  27.250  36.535  1.00  0.00     0.198 A 
ATOM     89  C   UNL A   1      46.491  29.007  35.363  1.00  0.00     0.198 A 
ATOM     90  F   UNL A   1      45.268  30.783  34.423  1.00  0.00    -0.203 F 
ATOM     91  F   UNL A   1      45.386  26.114  37.244  1.00  0.00    -0.200 F 
ATOM     92  C   UNL A   1      46.528  27.819  36.077  1.00  0.00     0.200 A 
ATOM     93  F   UNL A   1      47.628  29.552  34.910  1.00  0.00    -0.200 F 
ATOM     94  F   UNL A   1      47.702  27.224  36.329  1.00  0.00    -0.200 F 
ENDBRANCH  61  84
ENDBRANCH  35  36
ENDBRANCH  28  30
ENDBRANCH  27  28
ENDBRANCH  26  27
ENDBRANCH  25  26
ENDBRANCH  24  25
ENDBRANCH  23  24
ENDBRANCH   1  23
TORSDOF 21
ENDMDL
MODEL 2
REMARK VINA RESULT:     -10.3      5.512      9.578
REMARK SMILES NC(=O)C[C@@H](CC(=O)OCCOCCOCCOC(=O)c1ccc(-c2c3nc(c(-c4c(F)c(F)c(F)c(F)c4F)c4ccc([nH]4)c(-c4c(F)c(F)c(F)c(F)c4F)c4nc(c(-c5c(F)c(F)c(F)c(F)c5F)c5ccc2[nH]5)C=C4)C=C3)cc1)c1cccc(Br)c1
REMARK SMILES IDX 13 1 12 2 11 3 10 4 9 5 7 6 8 7 6 8 5 9 4 10 2 11 1 12 3 15
REMARK SMILES IDX 84 16 85 17 90 18 86 19 88 20 87 21 89 22 14 23 15 24 16 25
REMARK SMILES IDX 17 26 18 27 19 28 20 29 21 30 22 31 83 32 23 33 82 34 24 35
REMARK SMILES IDX 25 36 26 37 76 38 27 39 81 40 75 41 77 42 28 43 80 44 74 45
REMARK SMILES IDX 73 46 29 48 61 49 41 50 60 51 42 52 45 53 59 54 78 55 43 56
REMARK SMILES IDX 44 57 58 59 79 60 46 61 30 62 31 63 39 64 32 65 33 66 37 67
REMARK SMILES IDX 40 68 34 69 35 70 38 71 36 72 62 73 63 74 71 75 64 76 65 77
REMARK SMILES IDX 69 78 72 79 66 80 67 81 70 82 68 83 47 84 48 85 56 86 49 87
REMARK SMILES IDX 50 88 54 89 57 90 51 91 52 92 55 93 53 94
REMARK H PARENT 1 13 1 14 77 47 45 58
REMARK Flexibility Score: inf
ROOT
ATOM      1  C   UNL A   1      32.833  21.431  23.647  1.00  0.00     0.188 C 
ENDROOT
BRANCH   1   2
ATOM      2  O   UNL A   1      32.015  22.579  23.855  1.00  0.00    -0.376 OA
BRANCH   2   3
ATOM      3  C   UNL A   1      32.285  23.756  23.101  1.00  0.00     0.202 C 
BRANCH   3   4
ATOM      4  C   UNL A   1      32.794  24.947  23.915  1.00  0.00     0.261 C 
BRANCH   4   5
ATOM      5  O   UNL A   1      31.995  25.176  25.100  1.00  0.00    -0.463 OA
BRANCH   5   6
ATOM      6  C   UNL A   1      30.920  25.984  24.957  1.00  0.00     0.306 C 
ATOM      7  O   UNL A   1      29.871  25.631  24.429  1.00  0.00    -0.252 OA
BRANCH   6   8
ATOM      8  C   UNL A   1      31.050  27.350  25.615  1.00  0.00     0.131 C 
BRANCH   8   9
ATOM      9  C   UNL A   1      31.476  28.660  24.891  1.00  0.00     0.039 C 
BRANCH   9  10
ATOM     10  C   UNL A   1      32.046  28.510  23.470  1.00  0.00     0.108 C 
BRANCH  10  11
ATOM     11  C   UNL A   1      30.979  28.782  22.439  1.00  0.00     0.218 C 
ATOM     12  N   UNL A   1      31.055  29.984  21.813  1.00  0.00    -0.370 N 
ATOM     13  H   UNL A   1      30.389  30.226  21.129  1.00  0.00     0.159 HD
ATOM     14  H   UNL A   1      31.775  30.614  22.042  1.00  0.00     0.159 HD
ATOM     15  O   UNL A   1      30.117  27.965  22.141  1.00  0.00    -0.275 OA
ENDBRANCH  10  11
ENDBRANCH   9  10
BRANCH   9  16
ATOM     16  C   UNL A   1      32.244  29.634  25.803  1.00  0.00    -0.043 A 
ATOM     17  C   UNL A   1      31.715  30.856  26.249  1.00  0.00     0.004 A 
ATOM     18  C   UNL A   1      33.508  29.253  26.302  1.00  0.00     0.019 A 
ATOM     19  C   UNL A   1      32.429  31.675  27.132  1.00  0.00     0.001 A 
ATOM     20  C   UNL A   1      34.213  30.073  27.189  1.00  0.00     0.018 A 
ATOM     21  C   UNL A   1      33.681  31.290  27.599  1.00  0.00     0.016 A 
ATOM     22  Br  UNL A   1      35.917  29.541  27.814  1.00  0.00    -0.051 Br
ENDBRANCH   9  16
ENDBRANCH   8   9
ENDBRANCH   6   8
ENDBRANCH   5   6
ENDBRANCH   4   5
ENDBRANCH   3   4
ENDBRANCH   2   3
ENDBRANCH   1   2
BRANCH   1  23
ATOM     23  C   UNL A   1      33.497  20.775  24.862  1.00  0.00     0.188 C 
BRANCH  23  24
ATOM     24  O   UNL A   1      34.905  20.645  24.725  1.00  0.00    -0.376 OA
BRANCH  24  25
ATOM     25  C   UNL A   1      35.604  21.883  24.701  1.00  0.00     0.202 C 
BRANCH  25  26
ATOM     26  C   UNL A   1      36.716  21.882  25.748  1.00  0.00     0.261 C 
BRANCH  26  27
ATOM     27  O   UNL A   1      38.032  21.993  25.168  1.00  0.00    -0.460 OA
BRANCH  27  28
ATOM     28  C   UNL A   1      39.057  21.617  25.964  1.00  0.00     0.338 C 
ATOM     29  O   UNL A   1      39.520  20.501  26.097  1.00  0.00    -0.246 OA
BRANCH  28  30
ATOM     30  C   UNL A   1      39.599  22.823  26.616  1.00  0.00     0.060 A 
ATOM     31  C   UNL A   1      39.199  24.091  26.181  1.00  0.00     0.016 A 
ATOM     32  C   UNL A   1      40.576  22.689  27.601  1.00  0.00     0.016 A 
ATOM     33  C   UNL A   1      39.815  25.236  26.690  1.00  0.00     0.010 A 
ATOM     34  C   UNL A   1      41.184  23.836  28.115  1.00  0.00     0.010 A 
ATOM     35  C   UNL A   1      40.836  25.114  27.637  1.00  0.00    -0.014 A 
BRANCH  35  36
ATOM     36  C   UNL A   1      41.661  26.281  28.034  1.00  0.00     0.031 A 
ATOM     37  C   UNL A   1      41.007  27.380  28.824  1.00  0.00     0.074 A 
ATOM     38  C   UNL A   1      42.952  26.387  27.675  1.00  0.00     0.049 A 
ATOM     39  N   UNL A   1      41.402  28.610  29.025  1.00  0.00    -0.248 NA
ATOM     40  C   UNL A   1      39.725  27.045  29.463  1.00  0.00     0.031 C 
ATOM     41  C   UNL A   1      43.733  25.357  26.997  1.00  0.00     0.029 A 
ATOM     42  N   UNL A   1      43.825  27.441  27.807  1.00  0.00    -0.354 N 
ATOM     43  C   UNL A   1      40.391  29.211  29.765  1.00  0.00     0.074 A 
ATOM     44  C   UNL A   1      39.373  28.209  29.989  1.00  0.00     0.031 C 
ATOM     45  C   UNL A   1      44.962  25.838  26.743  1.00  0.00     0.029 A 
ATOM     46  C   UNL A   1      45.026  27.232  27.173  1.00  0.00     0.049 A 
ATOM     47  H   UNL A   1      43.612  28.262  28.305  1.00  0.00     0.167 HD
ATOM     48  C   UNL A   1      40.322  30.490  30.201  1.00  0.00     0.037 A 
ATOM     49  C   UNL A   1      46.033  28.090  26.915  1.00  0.00     0.037 A 
ATOM     50  C   UNL A   1      41.363  31.465  30.006  1.00  0.00     0.049 A 
ATOM     51  C   UNL A   1      45.910  29.527  27.355  1.00  0.00     0.074 A 
ATOM     52  C   UNL A   1      41.394  32.788  30.409  1.00  0.00     0.029 A 
ATOM     53  N   UNL A   1      42.564  31.212  29.361  1.00  0.00    -0.354 N 
ATOM     54  N   UNL A   1      44.928  30.116  27.996  1.00  0.00    -0.248 NA
ATOM     55  C   UNL A   1      47.026  30.424  27.021  1.00  0.00     0.031 C 
ATOM     56  C   UNL A   1      42.601  33.347  29.975  1.00  0.00     0.029 A 
ATOM     57  C   UNL A   1      43.340  32.359  29.345  1.00  0.00     0.049 A 
ATOM     58  H   UNL A   1      42.826  30.347  28.973  1.00  0.00     0.167 HD
ATOM     59  C   UNL A   1      45.320  31.437  28.167  1.00  0.00     0.074 A 
ATOM     60  C   UNL A   1      46.631  31.565  27.567  1.00  0.00     0.031 C 
ATOM     61  C   UNL A   1      44.655  32.455  28.766  1.00  0.00     0.037 A 
BRANCH  48  62
ATOM     62  C   UNL A   1      39.066  30.929  30.892  1.00  0.00     0.064 A 
ATOM     63  C   UNL A   1      38.008  31.536  30.200  1.00  0.00     0.173 A 
ATOM     64  C   UNL A   1      38.900  30.683  32.264  1.00  0.00     0.173 A 
ATOM     65  F   UNL A   1      38.126  31.807  28.892  1.00  0.00    -0.203 F 
ATOM     66  C   UNL A   1      36.835  31.892  30.860  1.00  0.00     0.198 A 
ATOM     67  C   UNL A   1      37.716  31.016  32.914  1.00  0.00     0.198 A 
ATOM     68  F   UNL A   1      39.881  30.103  32.971  1.00  0.00    -0.203 F 
ATOM     69  F   UNL A   1      35.848  32.501  30.188  1.00  0.00    -0.200 F 
ATOM     70  C   UNL A   1      36.686  31.624  32.213  1.00  0.00     0.200 A 
ATOM     71  F   UNL A   1      37.570  30.746  34.219  1.00  0.00    -0.200 F 
ATOM     72  F   UNL A   1      35.549  31.955  32.842  1.00  0.00    -0.200 F 
ENDBRANCH  48  62
BRANCH  49  73
ATOM     73  C   UNL A   1      47.220  27.635  26.142  1.00  0.00     0.064 A 
ATOM     74  C   UNL A   1      48.367  27.159  26.791  1.00  0.00     0.173 A 
ATOM     75  C   UNL A   1      47.239  27.690  24.740  1.00  0.00     0.173 A 
ATOM     76  F   UNL A   1      48.410  27.117  28.131  1.00  0.00    -0.203 F 
ATOM     77  C   UNL A   1      49.494  26.770  26.068  1.00  0.00     0.198 A 
ATOM     78  C   UNL A   1      48.355  27.271  24.018  1.00  0.00     0.198 A 
ATOM     79  F   UNL A   1      46.171  28.145  24.069  1.00  0.00    -0.203 F 
ATOM     80  F   UNL A   1      50.595  26.366  26.716  1.00  0.00    -0.200 F 
ATOM     81  C   UNL A   1      49.484  26.820  24.682  1.00  0.00     0.200 A 
ATOM     82  F   UNL A   1      48.336  27.313  22.678  1.00  0.00    -0.200 F 
ATOM     83  F   UNL A   1      50.566  26.443  23.988  1.00  0.00    -0.200 F 
ENDBRANCH  49  73
BRANCH  61  84
ATOM     84  C   UNL A   1      45.354  33.778  28.860  1.00  0.00     0.064 A 
ATOM     85  C   UNL A   1      45.271  34.730  27.835  1.00  0.00     0.173 A 
ATOM     86  C   UNL A   1      46.066  34.117  30.021  1.00  0.00     0.173 A 
ATOM     87  F   UNL A   1      44.612  34.447  26.701  1.00  0.00    -0.203 F 
ATOM     88  C   UNL A   1      45.893  35.970  27.962  1.00  0.00     0.198 A 
ATOM     89  C   UNL A   1      46.664  35.366  30.155  1.00  0.00     0.198 A 
ATOM     90  F   UNL A   1      46.165  33.241  31.033  1.00  0.00    -0.203 F 
ATOM     91  F   UNL A   1      45.832  36.854  26.957  1.00  0.00    -0.200 F 
ATOM     92  C   UNL A   1      46.580  36.289  29.124  1.00  0.00     0.200 A 
ATOM     93  F   UNL A   1      47.317  35.678  31.282  1.00  0.00    -0.200 F 
ATOM     94  F   UNL A   1      47.168  37.487  29.248  1.00  0.00    -0.200 F 
ENDBRANCH  61  84
ENDBRANCH  35  36
ENDBRANCH  28  30
ENDBRANCH  27  28
ENDBRANCH  26  27
ENDBRANCH  25  26
ENDBRANCH  24  25
ENDBRANCH  23  24
ENDBRANCH   1  23
TORSDOF 21
ENDMDL
MODEL 3
REMARK VINA RESULT:     -10.1      5.192      9.321
REMARK SMILES NC(=O)C[C@@H](CC(=O)OCCOCCOCCOC(=O)c1ccc(-c2c3nc(c(-c4c(F)c(F)c(F)c(F)c4F)c4ccc([nH]4)c(-c4c(F)c(F)c(F)c(F)c4F)c4nc(c(-c5c(F)c(F)c(F)c(F)c5F)c5ccc2[nH]5)C=C4)C=C3)cc1)c1cccc(Br)c1
REMARK SMILES IDX 13 1 12 2 11 3 10 4 9 5 7 6 8 7 6 8 5 9 4 10 2 11 1 12 3 15
REMARK SMILES IDX 84 16 85 17 90 18 86 19 88 20 87 21 89 22 14 23 15 24 16 25
REMARK SMILES IDX 17 26 18 27 19 28 20 29 21 30 22 31 83 32 23 33 82 34 24 35
REMARK SMILES IDX 25 36 26 37 76 38 27 39 81 40 75 41 77 42 28 43 80 44 74 45
REMARK SMILES IDX 73 46 29 48 61 49 41 50 60 51 42 52 45 53 59 54 78 55 43 56
REMARK SMILES IDX 44 57 58 59 79 60 46 61 30 62 31 63 39 64 32 65 33 66 37 67
REMARK SMILES IDX 40 68 34 69 35 70 38 71 36 72 62 73 63 74 71 75 64 76 65 77
REMARK SMILES IDX 69 78 72 79 66 80 67 81 70 82 68 83 47 84 48 85 56 86 49 87
REMARK SMILES IDX 50 88 54 89 57 90 51 91 52 92 55 93 53 94
REMARK H PARENT 1 13 1 14 77 47 45 58
REMARK Flexibility Score: inf
ROOT
ATOM      1  C   UNL A   1      33.018  20.898  24.372  1.00  0.00     0.188 C 
ENDROOT
BRANCH   1   2
ATOM      2  O   UNL A   1      31.996  21.094  25.346  1.00  0.00    -0.376 OA
BRANCH   2   3
ATOM      3  C   UNL A   1      31.922  22.348  26.015  1.00  0.00     0.202 C 
BRANCH   3   4
ATOM      4  C   UNL A   1      31.629  23.549  25.115  1.00  0.00     0.261 C 
BRANCH   4   5
ATOM      5  O   UNL A   1      31.656  24.797  25.847  1.00  0.00    -0.463 OA
BRANCH   5   6
ATOM      6  C   UNL A   1      30.599  25.622  25.675  1.00  0.00     0.306 C 
ATOM      7  O   UNL A   1      29.829  25.937  26.576  1.00  0.00    -0.252 OA
BRANCH   6   8
ATOM      8  C   UNL A   1      30.491  26.250  24.293  1.00  0.00     0.131 C 
BRANCH   8   9
ATOM      9  C   UNL A   1      30.820  27.733  23.951  1.00  0.00     0.039 C 
BRANCH   9  10
ATOM     10  C   UNL A   1      31.792  28.460  24.895  1.00  0.00     0.108 C 
BRANCH  10  11
ATOM     11  C   UNL A   1      33.138  28.638  24.235  1.00  0.00     0.218 C 
ATOM     12  N   UNL A   1      33.144  29.376  23.095  1.00  0.00    -0.370 N 
ATOM     13  H   UNL A   1      33.989  29.531  22.614  1.00  0.00     0.159 HD
ATOM     14  H   UNL A   1      32.304  29.755  22.750  1.00  0.00     0.159 HD
ATOM     15  O   UNL A   1      34.175  28.192  24.708  1.00  0.00    -0.275 OA
ENDBRANCH  10  11
ENDBRANCH   9  10
BRANCH   9  16
ATOM     16  C   UNL A   1      29.582  28.547  23.534  1.00  0.00    -0.043 A 
ATOM     17  C   UNL A   1      28.310  27.982  23.349  1.00  0.00     0.004 A 
ATOM     18  C   UNL A   1      29.692  29.950  23.420  1.00  0.00     0.019 A 
ATOM     19  C   UNL A   1      27.202  28.778  23.034  1.00  0.00     0.001 A 
ATOM     20  C   UNL A   1      28.580  30.740  23.113  1.00  0.00     0.018 A 
ATOM     21  C   UNL A   1      27.335  30.158  22.910  1.00  0.00     0.016 A 
ATOM     22  Br  UNL A   1      28.773  32.614  22.940  1.00  0.00    -0.051 Br
ENDBRANCH   9  16
ENDBRANCH   8   9
ENDBRANCH   6   8
ENDBRANCH   5   6
ENDBRANCH   4   5
ENDBRANCH   3   4
ENDBRANCH   2   3
ENDBRANCH   1   2
BRANCH   1  23
ATOM     23  C   UNL A   1      34.102  19.850  24.649  1.00  0.00     0.188 C 
BRANCH  23  24
ATOM     24  O   UNL A   1      35.381  20.421  24.881  1.00  0.00    -0.376 OA
BRANCH  24  25
ATOM     25  C   UNL A   1      35.442  21.268  26.021  1.00  0.00     0.202 C 
BRANCH  25  26
ATOM     26  C   UNL A   1      36.409  22.424  25.771  1.00  0.00     0.261 C 
BRANCH  26  27
ATOM     27  O   UNL A   1      37.570  22.029  25.014  1.00  0.00    -0.460 OA
BRANCH  27  28
ATOM     28  C   UNL A   1      38.627  21.602  25.741  1.00  0.00     0.338 C 
ATOM     29  O   UNL A   1      39.095  20.482  25.781  1.00  0.00    -0.246 OA
BRANCH  28  30
ATOM     30  C   UNL A   1      39.196  22.765  26.448  1.00  0.00     0.060 A 
ATOM     31  C   UNL A   1      38.800  24.059  26.097  1.00  0.00     0.016 A 
ATOM     32  C   UNL A   1      40.194  22.566  27.401  1.00  0.00     0.016 A 
ATOM     33  C   UNL A   1      39.438  25.168  26.656  1.00  0.00     0.010 A 
ATOM     34  C   UNL A   1      40.824  23.676  27.967  1.00  0.00     0.010 A 
ATOM     35  C   UNL A   1      40.479  24.982  27.570  1.00  0.00    -0.014 A 
BRANCH  35  36
ATOM     36  C   UNL A   1      41.325  26.117  28.015  1.00  0.00     0.031 A 
ATOM     37  C   UNL A   1      40.680  27.215  28.814  1.00  0.00     0.074 A 
ATOM     38  C   UNL A   1      42.626  26.196  27.690  1.00  0.00     0.049 A 
ATOM     39  N   UNL A   1      41.103  28.429  29.054  1.00  0.00    -0.248 NA
ATOM     40  C   UNL A   1      39.374  26.900  29.414  1.00  0.00     0.031 C 
ATOM     41  C   UNL A   1      43.396  25.160  27.008  1.00  0.00     0.029 A 
ATOM     42  N   UNL A   1      43.523  27.222  27.868  1.00  0.00    -0.354 N 
ATOM     43  C   UNL A   1      40.090  29.040  29.782  1.00  0.00     0.074 A 
ATOM     44  C   UNL A   1      39.040  28.061  29.958  1.00  0.00     0.031 C 
ATOM     45  C   UNL A   1      44.644  25.614  26.795  1.00  0.00     0.029 A 
ATOM     46  C   UNL A   1      44.734  26.996  27.259  1.00  0.00     0.049 A 
ATOM     47  H   UNL A   1      43.319  28.037  28.380  1.00  0.00     0.167 HD
ATOM     48  C   UNL A   1      40.044  30.310  30.246  1.00  0.00     0.037 A 
ATOM     49  C   UNL A   1      45.769  27.832  27.046  1.00  0.00     0.037 A 
ATOM     50  C   UNL A   1      41.115  31.260  30.100  1.00  0.00     0.049 A 
ATOM     51  C   UNL A   1      45.673  29.261  27.516  1.00  0.00     0.074 A 
ATOM     52  C   UNL A   1      41.171  32.573  30.534  1.00  0.00     0.029 A 
ATOM     53  N   UNL A   1      42.325  30.990  29.479  1.00  0.00    -0.354 N 
ATOM     54  N   UNL A   1      44.692  29.861  28.147  1.00  0.00    -0.248 NA
ATOM     55  C   UNL A   1      46.821  30.135  27.231  1.00  0.00     0.031 C 
ATOM     56  C   UNL A   1      42.403  33.108  30.143  1.00  0.00     0.029 A 
ATOM     57  C   UNL A   1      43.130  32.115  29.509  1.00  0.00     0.049 A 
ATOM     58  H   UNL A   1      42.573  30.127  29.078  1.00  0.00     0.167 HD
ATOM     59  C   UNL A   1      45.114  31.167  28.358  1.00  0.00     0.074 A 
ATOM     60  C   UNL A   1      46.443  31.273  27.794  1.00  0.00     0.031 C 
ATOM     61  C   UNL A   1      44.461  32.189  28.965  1.00  0.00     0.037 A 
BRANCH  48  62
ATOM     62  C   UNL A   1      38.783  30.767  30.917  1.00  0.00     0.064 A 
ATOM     63  C   UNL A   1      37.668  31.205  30.187  1.00  0.00     0.173 A 
ATOM     64  C   UNL A   1      38.673  30.710  32.315  1.00  0.00     0.173 A 
ATOM     65  F   UNL A   1      37.729  31.293  28.851  1.00  0.00    -0.203 F 
ATOM     66  C   UNL A   1      36.494  31.580  30.835  1.00  0.00     0.198 A 
ATOM     67  C   UNL A   1      37.490  31.061  32.957  1.00  0.00     0.198 A 
ATOM     68  F   UNL A   1      39.710  30.296  33.058  1.00  0.00    -0.203 F 
ATOM     69  F   UNL A   1      35.451  32.026  30.122  1.00  0.00    -0.200 F 
ATOM     70  C   UNL A   1      36.402  31.499  32.217  1.00  0.00     0.200 A 
ATOM     71  F   UNL A   1      37.400  30.971  34.291  1.00  0.00    -0.200 F 
ATOM     72  F   UNL A   1      35.265  31.848  32.837  1.00  0.00    -0.200 F 
ENDBRANCH  48  62
BRANCH  49  73
ATOM     73  C   UNL A   1      46.963  27.362  26.292  1.00  0.00     0.064 A 
ATOM     74  C   UNL A   1      47.061  27.544  24.906  1.00  0.00     0.173 A 
ATOM     75  C   UNL A   1      48.017  26.700  26.938  1.00  0.00     0.173 A 
ATOM     76  F   UNL A   1      46.064  28.143  24.236  1.00  0.00    -0.203 F 
ATOM     77  C   UNL A   1      48.160  27.069  24.193  1.00  0.00     0.198 A 
ATOM     78  C   UNL A   1      49.130  26.252  26.229  1.00  0.00     0.198 A 
ATOM     79  F   UNL A   1      47.970  26.491  28.262  1.00  0.00    -0.203 F 
ATOM     80  F   UNL A   1      48.205  27.212  22.861  1.00  0.00    -0.200 F 
ATOM     81  C   UNL A   1      49.197  26.429  24.856  1.00  0.00     0.200 A 
ATOM     82  F   UNL A   1      50.133  25.644  26.877  1.00  0.00    -0.200 F 
ATOM     83  F   UNL A   1      50.255  25.975  24.171  1.00  0.00    -0.200 F 
ENDBRANCH  49  73
BRANCH  61  84
ATOM     84  C   UNL A   1      45.193  33.490  29.106  1.00  0.00     0.064 A 
ATOM     85  C   UNL A   1      45.969  33.780  30.237  1.00  0.00     0.173 A 
ATOM     86  C   UNL A   1      45.163  34.431  28.066  1.00  0.00     0.173 A 
ATOM     87  F   UNL A   1      46.017  32.917  31.262  1.00  0.00    -0.203 F 
ATOM     88  C   UNL A   1      46.675  34.977  30.328  1.00  0.00     0.198 A 
ATOM     89  C   UNL A   1      45.891  35.614  28.150  1.00  0.00     0.198 A 
ATOM     90  F   UNL A   1      44.442  34.194  26.960  1.00  0.00    -0.203 F 
ATOM     91  F   UNL A   1      47.383  35.252  31.432  1.00  0.00    -0.200 F 
ATOM     92  C   UNL A   1      46.642  35.888  29.282  1.00  0.00     0.200 A 
ATOM     93  F   UNL A   1      45.868  36.487  27.133  1.00  0.00    -0.200 F 
ATOM     94  F   UNL A   1      47.332  37.033  29.369  1.00  0.00    -0.200 F 
ENDBRANCH  61  84
ENDBRANCH  35  36
ENDBRANCH  28  30
ENDBRANCH  27  28
ENDBRANCH  26  27
ENDBRANCH  25  26
ENDBRANCH  24  25
ENDBRANCH  23  24
ENDBRANCH   1  23
TORSDOF 21
ENDMDL
