MODEL 1
REMARK VINA RESULT:     -11.4      0.000      0.000
REMARK SMILES COc1cc([C@@H]2CC(=O)Nc3c(C(=O)OCCOCCOCCOC(=O)c4ccc(-c5c6nc(c(-c7c(F)c(F)c(F)c(F)c7F)c7ccc([nH]7)c(-c7c(F)c(F)c(F)c(F)c7F)c7nc(c(-c8c(F)c(F)c(F)c(F)c8F)c8ccc5[nH]8)C=C7)C=C6)cc4)cn(-c4ccc(F)cc4)c32)c(OC)c2c1OCO2
REMARK SMILES IDX 19 1 18 2 17 3 16 4 15 5 13 6 14 7 12 8 6 9 7 10 99 11 8 12
REMARK SMILES IDX 11 13 91 14 9 15 10 16 90 17 5 19 3 20 4 21 104 22 103 23
REMARK SMILES IDX 105 24 100 25 107 26 106 27 2 28 1 29 101 30 102 31 92 32
REMARK SMILES IDX 93 33 98 34 94 35 97 36 95 37 96 38 20 39 21 40 22 41 23 42
REMARK SMILES IDX 24 43 25 44 26 45 27 46 28 47 89 48 29 49 88 50 30 51 31 52
REMARK SMILES IDX 32 53 82 54 33 55 87 56 81 57 83 58 34 59 86 60 80 61 79 62
REMARK SMILES IDX 35 64 67 65 47 66 66 67 48 68 51 69 65 70 84 71 49 72 50 73
REMARK SMILES IDX 64 75 85 76 52 77 36 78 37 79 45 80 38 81 39 82 43 83 46 84
REMARK SMILES IDX 40 85 41 86 44 87 42 88 68 89 69 90 77 91 70 92 71 93 75 94
REMARK SMILES IDX 78 95 72 96 73 97 76 98 74 99 53 100 54 101 62 102 55 103
REMARK SMILES IDX 56 104 60 105 63 106 57 107 58 108 61 109 59 110
REMARK H PARENT 10 18 83 63 51 74
REMARK Flexibility Score: inf
ROOT
ATOM      1  C   UNL A   1      41.276  20.773  26.198  1.00  0.00     0.188 C 
ENDROOT
BRANCH   1   2
ATOM      2  O   UNL A   1      40.291  21.797  26.195  1.00  0.00    -0.376 OA
BRANCH   2   3
ATOM      3  C   UNL A   1      38.920  21.495  25.965  1.00  0.00     0.202 C 
BRANCH   3   4
ATOM      4  C   UNL A   1      37.881  22.597  25.670  1.00  0.00     0.261 C 
BRANCH   4   5
ATOM      5  O   UNL A   1      36.735  22.201  24.906  1.00  0.00    -0.460 OA
BRANCH   5   6
ATOM      6  C   UNL A   1      35.567  22.116  25.605  1.00  0.00     0.341 C 
ATOM      7  O   UNL A   1      35.471  21.676  26.741  1.00  0.00    -0.246 OA
BRANCH   6   8
ATOM      8  C   UNL A   1      34.446  22.729  24.906  1.00  0.00     0.102 A 
ATOM      9  C   UNL A   1      31.281  24.599  24.573  1.00  0.00     0.082 C 
ATOM     10  C   UNL A   1      30.437  23.919  25.663  1.00  0.00     0.115 C 
ATOM     11  C   UNL A   1      32.547  23.824  24.368  1.00  0.00     0.055 A 
ATOM     12  C   UNL A   1      31.222  23.257  26.793  1.00  0.00     0.225 C 
ATOM     13  C   UNL A   1      33.133  23.041  25.335  1.00  0.00     0.078 A 
ATOM     14  N   UNL A   1      33.330  23.761  23.239  1.00  0.00    -0.317 N 
ATOM     15  O   UNL A   1      30.707  23.061  27.895  1.00  0.00    -0.275 OA
ATOM     16  N   UNL A   1      32.484  22.784  26.520  1.00  0.00    -0.324 N 
ATOM     17  C   UNL A   1      34.490  23.099  23.566  1.00  0.00     0.109 A 
ATOM     18  H   UNL A   1      32.941  22.239  27.201  1.00  0.00     0.170 HD
BRANCH   9  19
ATOM     19  C   UNL A   1      31.548  26.087  24.860  1.00  0.00     0.012 A 
ATOM     20  C   UNL A   1      32.765  27.705  26.253  1.00  0.00     0.165 A 
ATOM     21  C   UNL A   1      32.574  26.401  25.787  1.00  0.00     0.059 A 
ATOM     22  C   UNL A   1      31.982  28.704  25.711  1.00  0.00     0.211 A 
ATOM     23  C   UNL A   1      31.019  28.430  24.759  1.00  0.00     0.211 A 
ATOM     24  O   UNL A   1      32.046  30.034  26.005  1.00  0.00    -0.449 OA
ATOM     25  C   UNL A   1      30.775  27.139  24.312  1.00  0.00     0.168 A 
ATOM     26  O   UNL A   1      30.369  29.564  24.366  1.00  0.00    -0.449 OA
ATOM     27  C   UNL A   1      31.074  30.573  25.098  1.00  0.00     0.468 C 
BRANCH  20  28
ATOM     28  O   UNL A   1      33.734  27.867  27.202  1.00  0.00    -0.493 OA
ATOM     29  C   UNL A   1      34.691  28.875  26.886  1.00  0.00     0.278 C 
ENDBRANCH  20  28
BRANCH  25  30
ATOM     30  O   UNL A   1      29.845  26.788  23.384  1.00  0.00    -0.492 OA
ATOM     31  C   UNL A   1      28.473  26.726  23.733  1.00  0.00     0.278 C 
ENDBRANCH  25  30
ENDBRANCH   9  19
BRANCH  14  32
ATOM     32  C   UNL A   1      33.040  24.277  21.962  1.00  0.00     0.046 A 
ATOM     33  C   UNL A   1      33.056  23.421  20.860  1.00  0.00     0.029 A 
ATOM     34  C   UNL A   1      32.754  25.639  21.815  1.00  0.00     0.029 A 
ATOM     35  C   UNL A   1      32.854  23.941  19.584  1.00  0.00     0.041 A 
ATOM     36  C   UNL A   1      32.552  26.153  20.533  1.00  0.00     0.041 A 
ATOM     37  C   UNL A   1      32.615  25.303  19.430  1.00  0.00     0.123 A 
ATOM     38  F   UNL A   1      32.439  25.803  18.201  1.00  0.00    -0.207 F 
ENDBRANCH  14  32
ENDBRANCH   6   8
ENDBRANCH   5   6
ENDBRANCH   4   5
ENDBRANCH   3   4
ENDBRANCH   2   3
ENDBRANCH   1   2
BRANCH   1  39
ATOM     39  C   UNL A   1      42.782  21.114  26.125  1.00  0.00     0.188 C 
BRANCH  39  40
ATOM     40  O   UNL A   1      43.177  21.746  24.928  1.00  0.00    -0.376 OA
BRANCH  40  41
ATOM     41  C   UNL A   1      43.508  23.126  24.909  1.00  0.00     0.202 C 
BRANCH  41  42
ATOM     42  C   UNL A   1      43.115  24.087  26.033  1.00  0.00     0.261 C 
BRANCH  42  43
ATOM     43  O   UNL A   1      41.905  24.798  25.850  1.00  0.00    -0.460 OA
BRANCH  43  44
ATOM     44  C   UNL A   1      42.065  26.063  25.415  1.00  0.00     0.338 C 
ATOM     45  O   UNL A   1      42.886  26.470  24.615  1.00  0.00    -0.246 OA
BRANCH  44  46
ATOM     46  C   UNL A   1      41.105  26.920  26.117  1.00  0.00     0.060 A 
ATOM     47  C   UNL A   1      41.309  28.295  26.004  1.00  0.00     0.016 A 
ATOM     48  C   UNL A   1      40.279  26.359  27.102  1.00  0.00     0.016 A 
ATOM     49  C   UNL A   1      40.919  29.085  27.057  1.00  0.00     0.010 A 
ATOM     50  C   UNL A   1      39.901  27.146  28.161  1.00  0.00     0.010 A 
ATOM     51  C   UNL A   1      40.332  28.468  28.168  1.00  0.00    -0.014 A 
BRANCH  51  52
ATOM     52  C   UNL A   1      40.267  29.248  29.380  1.00  0.00     0.031 A 
ATOM     53  C   UNL A   1      39.100  30.142  29.471  1.00  0.00     0.074 A 
ATOM     54  C   UNL A   1      41.198  29.127  30.342  1.00  0.00     0.049 A 
ATOM     55  N   UNL A   1      39.098  31.431  29.520  1.00  0.00    -0.248 NA
ATOM     56  C   UNL A   1      37.770  29.528  29.376  1.00  0.00     0.031 C 
ATOM     57  C   UNL A   1      42.230  28.097  30.491  1.00  0.00     0.029 A 
ATOM     58  N   UNL A   1      41.337  29.868  31.470  1.00  0.00    -0.354 N 
ATOM     59  C   UNL A   1      37.762  31.796  29.618  1.00  0.00     0.074 A 
ATOM     60  C   UNL A   1      36.987  30.605  29.385  1.00  0.00     0.031 C 
ATOM     61  C   UNL A   1      42.716  28.145  31.753  1.00  0.00     0.029 A 
ATOM     62  C   UNL A   1      42.114  29.271  32.447  1.00  0.00     0.049 A 
ATOM     63  H   UNL A   1      40.921  30.753  31.583  1.00  0.00     0.167 HD
ATOM     64  C   UNL A   1      37.398  33.014  30.097  1.00  0.00     0.037 A 
ATOM     65  C   UNL A   1      42.145  29.631  33.754  1.00  0.00     0.037 A 
ATOM     66  C   UNL A   1      38.484  33.957  30.045  1.00  0.00     0.049 A 
ATOM     67  C   UNL A   1      41.614  31.019  33.850  1.00  0.00     0.074 A 
ATOM     68  C   UNL A   1      39.260  34.473  29.025  1.00  0.00     0.029 A 
ATOM     69  N   UNL A   1      39.156  34.251  31.206  1.00  0.00    -0.354 N 
ATOM     70  N   UNL A   1      42.239  32.074  33.407  1.00  0.00    -0.248 NA
ATOM     71  C   UNL A   1      40.179  31.184  34.047  1.00  0.00     0.031 C 
ATOM     72  C   UNL A   1      40.565  34.611  29.582  1.00  0.00     0.029 A 
ATOM     73  C   UNL A   1      40.496  34.206  30.915  1.00  0.00     0.049 A 
ATOM     74  H   UNL A   1      38.753  34.456  32.080  1.00  0.00     0.167 HD
ATOM     75  C   UNL A   1      41.241  32.877  32.870  1.00  0.00     0.074 A 
ATOM     76  C   UNL A   1      39.990  32.325  33.378  1.00  0.00     0.031 C 
ATOM     77  C   UNL A   1      41.498  33.731  31.837  1.00  0.00     0.037 A 
BRANCH  64  78
ATOM     78  C   UNL A   1      36.161  33.243  30.918  1.00  0.00     0.064 A 
ATOM     79  C   UNL A   1      35.111  34.008  30.382  1.00  0.00     0.173 A 
ATOM     80  C   UNL A   1      36.092  32.990  32.306  1.00  0.00     0.173 A 
ATOM     81  F   UNL A   1      35.096  34.329  29.079  1.00  0.00    -0.203 F 
ATOM     82  C   UNL A   1      34.103  34.538  31.190  1.00  0.00     0.198 A 
ATOM     83  C   UNL A   1      35.054  33.470  33.098  1.00  0.00     0.198 A 
ATOM     84  F   UNL A   1      37.079  32.371  32.967  1.00  0.00    -0.203 F 
ATOM     85  F   UNL A   1      33.194  35.366  30.659  1.00  0.00    -0.200 F 
ATOM     86  C   UNL A   1      34.077  34.271  32.547  1.00  0.00     0.200 A 
ATOM     87  F   UNL A   1      35.057  33.215  34.414  1.00  0.00    -0.200 F 
ATOM     88  F   UNL A   1      33.146  34.827  33.332  1.00  0.00    -0.200 F 
ENDBRANCH  64  78
BRANCH  65  89
ATOM     89  C   UNL A   1      42.263  28.737  34.932  1.00  0.00     0.064 A 
ATOM     90  C   UNL A   1      41.552  27.528  34.987  1.00  0.00     0.173 A 
ATOM     91  C   UNL A   1      43.270  28.911  35.904  1.00  0.00     0.173 A 
ATOM     92  F   UNL A   1      40.607  27.258  34.074  1.00  0.00    -0.203 F 
ATOM     93  C   UNL A   1      41.850  26.543  35.935  1.00  0.00     0.198 A 
ATOM     94  C   UNL A   1      43.555  27.936  36.860  1.00  0.00     0.198 A 
ATOM     95  F   UNL A   1      44.068  29.988  35.892  1.00  0.00    -0.203 F 
ATOM     96  F   UNL A   1      41.197  25.373  35.910  1.00  0.00    -0.200 F 
ATOM     97  C   UNL A   1      42.856  26.745  36.864  1.00  0.00     0.200 A 
ATOM     98  F   UNL A   1      44.554  28.133  37.731  1.00  0.00    -0.200 F 
ATOM     99  F   UNL A   1      43.182  25.779  37.735  1.00  0.00    -0.200 F 
ENDBRANCH  65  89
BRANCH  77 100
ATOM    100  C   UNL A   1      42.933  33.984  31.472  1.00  0.00     0.064 A 
ATOM    101  C   UNL A   1      43.664  33.180  30.580  1.00  0.00     0.173 A 
ATOM    102  C   UNL A   1      43.543  35.159  31.930  1.00  0.00     0.173 A 
ATOM    103  F   UNL A   1      43.111  32.103  30.009  1.00  0.00    -0.203 F 
ATOM    104  C   UNL A   1      44.967  33.511  30.212  1.00  0.00     0.198 A 
ATOM    105  C   UNL A   1      44.829  35.509  31.530  1.00  0.00     0.198 A 
ATOM    106  F   UNL A   1      42.870  35.998  32.734  1.00  0.00    -0.203 F 
ATOM    107  F   UNL A   1      45.651  32.718  29.374  1.00  0.00    -0.200 F 
ATOM    108  C   UNL A   1      45.546  34.678  30.683  1.00  0.00     0.200 A 
ATOM    109  F   UNL A   1      45.366  36.665  31.944  1.00  0.00    -0.200 F 
ATOM    110  F   UNL A   1      46.785  35.017  30.298  1.00  0.00    -0.200 F 
ENDBRANCH  77 100
ENDBRANCH  51  52
ENDBRANCH  44  46
ENDBRANCH  43  44
ENDBRANCH  42  43
ENDBRANCH  41  42
ENDBRANCH  40  41
ENDBRANCH  39  40
ENDBRANCH   1  39
TORSDOF 21
ENDMDL
MODEL 2
REMARK VINA RESULT:     -10.5      7.490     14.716
REMARK SMILES COc1cc([C@@H]2CC(=O)Nc3c(C(=O)OCCOCCOCCOC(=O)c4ccc(-c5c6nc(c(-c7c(F)c(F)c(F)c(F)c7F)c7ccc([nH]7)c(-c7c(F)c(F)c(F)c(F)c7F)c7nc(c(-c8c(F)c(F)c(F)c(F)c8F)c8ccc5[nH]8)C=C7)C=C6)cc4)cn(-c4ccc(F)cc4)c32)c(OC)c2c1OCO2
REMARK SMILES IDX 19 1 18 2 17 3 16 4 15 5 13 6 14 7 12 8 6 9 7 10 99 11 8 12
REMARK SMILES IDX 11 13 91 14 9 15 10 16 90 17 5 19 3 20 4 21 104 22 103 23
REMARK SMILES IDX 105 24 100 25 107 26 106 27 2 28 1 29 101 30 102 31 92 32
REMARK SMILES IDX 93 33 98 34 94 35 97 36 95 37 96 38 20 39 21 40 22 41 23 42
REMARK SMILES IDX 24 43 25 44 26 45 27 46 28 47 89 48 29 49 88 50 30 51 31 52
REMARK SMILES IDX 32 53 82 54 33 55 87 56 81 57 83 58 34 59 86 60 80 61 79 62
REMARK SMILES IDX 35 64 67 65 47 66 66 67 48 68 51 69 65 70 84 71 49 72 50 73
REMARK SMILES IDX 64 75 85 76 52 77 36 78 37 79 45 80 38 81 39 82 43 83 46 84
REMARK SMILES IDX 40 85 41 86 44 87 42 88 68 89 69 90 77 91 70 92 71 93 75 94
REMARK SMILES IDX 78 95 72 96 73 97 76 98 74 99 53 100 54 101 62 102 55 103
REMARK SMILES IDX 56 104 60 105 63 106 57 107 58 108 61 109 59 110
REMARK H PARENT 10 18 83 63 51 74
REMARK Flexibility Score: inf
ROOT
ATOM      1  C   UNL A   1      45.751  27.317  37.389  1.00  0.00     0.188 C 
ENDROOT
BRANCH   1   2
ATOM      2  O   UNL A   1      45.044  26.413  36.550  1.00  0.00    -0.376 OA
BRANCH   2   3
ATOM      3  C   UNL A   1      43.662  26.601  36.271  1.00  0.00     0.202 C 
BRANCH   3   4
ATOM      4  C   UNL A   1      42.864  25.605  35.403  1.00  0.00     0.261 C 
BRANCH   4   5
ATOM      5  O   UNL A   1      42.834  24.247  35.860  1.00  0.00    -0.460 OA
BRANCH   5   6
ATOM      6  C   UNL A   1      43.495  23.351  35.073  1.00  0.00     0.341 C 
ATOM      7  O   UNL A   1      43.065  22.905  34.021  1.00  0.00    -0.246 OA
BRANCH   6   8
ATOM      8  C   UNL A   1      44.842  23.068  35.550  1.00  0.00     0.102 A 
ATOM      9  C   UNL A   1      47.457  22.295  38.037  1.00  0.00     0.082 C 
ATOM     10  C   UNL A   1      47.107  23.310  39.138  1.00  0.00     0.115 C 
ATOM     11  C   UNL A   1      46.656  22.598  36.808  1.00  0.00     0.055 A 
ATOM     12  C   UNL A   1      45.657  23.787  39.163  1.00  0.00     0.225 C 
ATOM     13  C   UNL A   1      45.438  23.238  36.822  1.00  0.00     0.078 A 
ATOM     14  N   UNL A   1      46.962  22.299  35.501  1.00  0.00    -0.317 N 
ATOM     15  O   UNL A   1      45.154  24.241  40.193  1.00  0.00    -0.275 OA
ATOM     16  N   UNL A   1      44.954  23.800  37.981  1.00  0.00    -0.324 N 
ATOM     17  C   UNL A   1      45.856  22.580  34.733  1.00  0.00     0.109 A 
ATOM     18  H   UNL A   1      44.069  24.230  37.963  1.00  0.00     0.170 HD
BRANCH   9  19
ATOM     19  C   UNL A   1      47.295  20.834  38.493  1.00  0.00     0.012 A 
ATOM     20  C   UNL A   1      46.063  18.730  38.184  1.00  0.00     0.165 A 
ATOM     21  C   UNL A   1      46.419  20.008  37.743  1.00  0.00     0.059 A 
ATOM     22  C   UNL A   1      46.665  18.253  39.331  1.00  0.00     0.211 A 
ATOM     23  C   UNL A   1      47.569  19.017  40.043  1.00  0.00     0.211 A 
ATOM     24  O   UNL A   1      46.479  17.025  39.894  1.00  0.00    -0.449 OA
ATOM     25  C   UNL A   1      47.907  20.306  39.656  1.00  0.00     0.168 A 
ATOM     26  O   UNL A   1      48.037  18.347  41.137  1.00  0.00    -0.449 OA
ATOM     27  C   UNL A   1      47.403  17.071  40.990  1.00  0.00     0.468 C 
BRANCH  20  28
ATOM     28  O   UNL A   1      45.153  18.062  37.415  1.00  0.00    -0.493 OA
ATOM     29  C   UNL A   1      45.091  18.516  36.066  1.00  0.00     0.278 C 
ENDBRANCH  20  28
BRANCH  25  30
ATOM     30  O   UNL A   1      48.782  21.121  40.303  1.00  0.00    -0.492 OA
ATOM     31  C   UNL A   1      50.075  21.352  39.770  1.00  0.00     0.278 C 
ENDBRANCH  25  30
ENDBRANCH   9  19
BRANCH  14  32
ATOM     32  C   UNL A   1      48.172  21.787  34.997  1.00  0.00     0.046 A 
ATOM     33  C   UNL A   1      49.304  22.603  34.978  1.00  0.00     0.029 A 
ATOM     34  C   UNL A   1      48.219  20.475  34.512  1.00  0.00     0.029 A 
ATOM     35  C   UNL A   1      50.481  22.131  34.403  1.00  0.00     0.041 A 
ATOM     36  C   UNL A   1      49.403  20.008  33.938  1.00  0.00     0.041 A 
ATOM     37  C   UNL A   1      50.518  20.843  33.879  1.00  0.00     0.123 A 
ATOM     38  F   UNL A   1      51.645  20.398  33.311  1.00  0.00    -0.207 F 
ENDBRANCH  14  32
ENDBRANCH   6   8
ENDBRANCH   5   6
ENDBRANCH   4   5
ENDBRANCH   3   4
ENDBRANCH   2   3
ENDBRANCH   1   2
BRANCH   1  39
ATOM     39  C   UNL A   1      47.112  26.932  38.010  1.00  0.00     0.188 C 
BRANCH  39  40
ATOM     40  O   UNL A   1      48.194  27.728  37.577  1.00  0.00    -0.376 OA
BRANCH  40  41
ATOM     41  C   UNL A   1      49.512  27.476  38.038  1.00  0.00     0.202 C 
BRANCH  41  42
ATOM     42  C   UNL A   1      50.599  26.867  37.150  1.00  0.00     0.261 C 
BRANCH  42  43
ATOM     43  O   UNL A   1      50.148  26.064  36.077  1.00  0.00    -0.460 OA
BRANCH  43  44
ATOM     44  C   UNL A   1      50.224  26.657  34.869  1.00  0.00     0.338 C 
ATOM     45  O   UNL A   1      51.024  27.500  34.509  1.00  0.00    -0.246 OA
BRANCH  44  46
ATOM     46  C   UNL A   1      49.122  26.161  34.039  1.00  0.00     0.060 A 
ATOM     47  C   UNL A   1      49.479  25.582  32.822  1.00  0.00     0.016 A 
ATOM     48  C   UNL A   1      47.812  26.580  34.319  1.00  0.00     0.016 A 
ATOM     49  C   UNL A   1      48.592  25.687  31.780  1.00  0.00     0.010 A 
ATOM     50  C   UNL A   1      46.930  26.698  33.274  1.00  0.00     0.010 A 
ATOM     51  C   UNL A   1      47.383  26.357  32.004  1.00  0.00    -0.014 A 
BRANCH  51  52
ATOM     52  C   UNL A   1      46.645  26.766  30.834  1.00  0.00     0.031 A 
ATOM     53  C   UNL A   1      45.611  25.813  30.397  1.00  0.00     0.074 A 
ATOM     54  C   UNL A   1      46.887  27.942  30.229  1.00  0.00     0.049 A 
ATOM     55  N   UNL A   1      45.565  25.157  29.288  1.00  0.00    -0.248 NA
ATOM     56  C   UNL A   1      44.567  25.458  31.366  1.00  0.00     0.031 C 
ATOM     57  C   UNL A   1      47.677  29.076  30.717  1.00  0.00     0.029 A 
ATOM     58  N   UNL A   1      46.366  28.407  29.065  1.00  0.00    -0.354 N 
ATOM     59  C   UNL A   1      44.394  24.412  29.345  1.00  0.00     0.074 A 
ATOM     60  C   UNL A   1      43.895  24.526  30.692  1.00  0.00     0.031 C 
ATOM     61  C   UNL A   1      47.380  30.167  29.975  1.00  0.00     0.029 A 
ATOM     62  C   UNL A   1      46.479  29.777  28.903  1.00  0.00     0.049 A 
ATOM     63  H   UNL A   1      45.945  27.821  28.396  1.00  0.00     0.167 HD
ATOM     64  C   UNL A   1      43.809  23.931  28.218  1.00  0.00     0.037 A 
ATOM     65  C   UNL A   1      45.774  30.522  28.017  1.00  0.00     0.037 A 
ATOM     66  C   UNL A   1      44.728  23.892  27.112  1.00  0.00     0.049 A 
ATOM     67  C   UNL A   1      45.259  29.602  26.965  1.00  0.00     0.074 A 
ATOM     68  C   UNL A   1      45.932  23.254  26.884  1.00  0.00     0.029 A 
ATOM     69  N   UNL A   1      44.638  24.866  26.148  1.00  0.00    -0.354 N 
ATOM     70  N   UNL A   1      46.010  29.013  26.076  1.00  0.00    -0.248 NA
ATOM     71  C   UNL A   1      43.954  28.989  27.179  1.00  0.00     0.031 C 
ATOM     72  C   UNL A   1      46.707  24.178  26.123  1.00  0.00     0.029 A 
ATOM     73  C   UNL A   1      45.915  25.305  25.903  1.00  0.00     0.049 A 
ATOM     74  H   UNL A   1      43.815  25.188  25.715  1.00  0.00     0.167 HD
ATOM     75  C   UNL A   1      45.467  27.743  25.940  1.00  0.00     0.074 A 
ATOM     76  C   UNL A   1      44.152  27.818  26.567  1.00  0.00     0.031 C 
ATOM     77  C   UNL A   1      46.242  26.675  25.592  1.00  0.00     0.037 A 
BRANCH  64  78
ATOM     78  C   UNL A   1      42.321  23.816  28.044  1.00  0.00     0.064 A 
ATOM     79  C   UNL A   1      41.757  22.563  27.748  1.00  0.00     0.173 A 
ATOM     80  C   UNL A   1      41.472  24.931  27.869  1.00  0.00     0.173 A 
ATOM     81  F   UNL A   1      42.488  21.443  27.854  1.00  0.00    -0.203 F 
ATOM     82  C   UNL A   1      40.460  22.443  27.246  1.00  0.00     0.198 A 
ATOM     83  C   UNL A   1      40.159  24.802  27.426  1.00  0.00     0.198 A 
ATOM     84  F   UNL A   1      41.909  26.189  28.007  1.00  0.00    -0.203 F 
ATOM     85  F   UNL A   1      40.007  21.244  26.857  1.00  0.00    -0.200 F 
ATOM     86  C   UNL A   1      39.663  23.562  27.083  1.00  0.00     0.200 A 
ATOM     87  F   UNL A   1      39.410  25.901  27.257  1.00  0.00    -0.200 F 
ATOM     88  F   UNL A   1      38.441  23.456  26.547  1.00  0.00    -0.200 F 
ENDBRANCH  64  78
BRANCH  65  89
ATOM     89  C   UNL A   1      45.230  31.888  28.219  1.00  0.00     0.064 A 
ATOM     90  C   UNL A   1      45.540  32.921  27.320  1.00  0.00     0.173 A 
ATOM     91  C   UNL A   1      44.189  32.150  29.132  1.00  0.00     0.173 A 
ATOM     92  F   UNL A   1      46.486  32.742  26.386  1.00  0.00    -0.203 F 
ATOM     93  C   UNL A   1      44.833  34.128  27.316  1.00  0.00     0.198 A 
ATOM     94  C   UNL A   1      43.496  33.360  29.140  1.00  0.00     0.198 A 
ATOM     95  F   UNL A   1      43.752  31.206  29.977  1.00  0.00    -0.203 F 
ATOM     96  F   UNL A   1      45.111  35.062  26.396  1.00  0.00    -0.200 F 
ATOM     97  C   UNL A   1      43.807  34.343  28.220  1.00  0.00     0.200 A 
ATOM     98  F   UNL A   1      42.482  33.540  29.998  1.00  0.00    -0.200 F 
ATOM     99  F   UNL A   1      43.090  35.475  28.179  1.00  0.00    -0.200 F 
ENDBRANCH  65  89
BRANCH  77 100
ATOM    100  C   UNL A   1      47.635  26.946  25.098  1.00  0.00     0.064 A 
ATOM    101  C   UNL A   1      47.936  27.320  23.777  1.00  0.00     0.173 A 
ATOM    102  C   UNL A   1      48.682  26.967  26.029  1.00  0.00     0.173 A 
ATOM    103  F   UNL A   1      46.971  27.435  22.856  1.00  0.00    -0.203 F 
ATOM    104  C   UNL A   1      49.237  27.642  23.396  1.00  0.00     0.198 A 
ATOM    105  C   UNL A   1      49.974  27.329  25.656  1.00  0.00     0.198 A 
ATOM    106  F   UNL A   1      48.442  26.682  27.319  1.00  0.00    -0.203 F 
ATOM    107  F   UNL A   1      49.502  27.977  22.125  1.00  0.00    -0.200 F 
ATOM    108  C   UNL A   1      50.253  27.652  24.337  1.00  0.00     0.200 A 
ATOM    109  F   UNL A   1      50.943  27.389  26.579  1.00  0.00    -0.200 F 
ATOM    110  F   UNL A   1      51.498  28.001  23.980  1.00  0.00    -0.200 F 
ENDBRANCH  77 100
ENDBRANCH  51  52
ENDBRANCH  44  46
ENDBRANCH  43  44
ENDBRANCH  42  43
ENDBRANCH  41  42
ENDBRANCH  40  41
ENDBRANCH  39  40
ENDBRANCH   1  39
TORSDOF 21
ENDMDL
MODEL 3
REMARK VINA RESULT:     -10.2      8.731     15.550
REMARK SMILES COc1cc([C@@H]2CC(=O)Nc3c(C(=O)OCCOCCOCCOC(=O)c4ccc(-c5c6nc(c(-c7c(F)c(F)c(F)c(F)c7F)c7ccc([nH]7)c(-c7c(F)c(F)c(F)c(F)c7F)c7nc(c(-c8c(F)c(F)c(F)c(F)c8F)c8ccc5[nH]8)C=C7)C=C6)cc4)cn(-c4ccc(F)cc4)c32)c(OC)c2c1OCO2
REMARK SMILES IDX 19 1 18 2 17 3 16 4 15 5 13 6 14 7 12 8 6 9 7 10 99 11 8 12
REMARK SMILES IDX 11 13 91 14 9 15 10 16 90 17 5 19 3 20 4 21 104 22 103 23
REMARK SMILES IDX 105 24 100 25 107 26 106 27 2 28 1 29 101 30 102 31 92 32
REMARK SMILES IDX 93 33 98 34 94 35 97 36 95 37 96 38 20 39 21 40 22 41 23 42
REMARK SMILES IDX 24 43 25 44 26 45 27 46 28 47 89 48 29 49 88 50 30 51 31 52
REMARK SMILES IDX 32 53 82 54 33 55 87 56 81 57 83 58 34 59 86 60 80 61 79 62
REMARK SMILES IDX 35 64 67 65 47 66 66 67 48 68 51 69 65 70 84 71 49 72 50 73
REMARK SMILES IDX 64 75 85 76 52 77 36 78 37 79 45 80 38 81 39 82 43 83 46 84
REMARK SMILES IDX 40 85 41 86 44 87 42 88 68 89 69 90 77 91 70 92 71 93 75 94
REMARK SMILES IDX 78 95 72 96 73 97 76 98 74 99 53 100 54 101 62 102 55 103
REMARK SMILES IDX 56 104 60 105 63 106 57 107 58 108 61 109 59 110
REMARK H PARENT 10 18 83 63 51 74
REMARK Flexibility Score: inf
ROOT
ATOM      1  C   UNL A   1      45.907  20.307  36.429  1.00  0.00     0.188 C 
ENDROOT
BRANCH   1   2
ATOM      2  O   UNL A   1      45.827  19.760  37.738  1.00  0.00    -0.376 OA
BRANCH   2   3
ATOM      3  C   UNL A   1      46.961  19.159  38.352  1.00  0.00     0.202 C 
BRANCH   3   4
ATOM      4  C   UNL A   1      47.976  19.984  39.173  1.00  0.00     0.261 C 
BRANCH   4   5
ATOM      5  O   UNL A   1      47.836  19.925  40.598  1.00  0.00    -0.460 OA
BRANCH   5   6
ATOM      6  C   UNL A   1      48.434  18.857  41.200  1.00  0.00     0.341 C 
ATOM      7  O   UNL A   1      49.615  18.569  41.083  1.00  0.00    -0.246 OA
BRANCH   6   8
ATOM      8  C   UNL A   1      47.543  18.154  42.113  1.00  0.00     0.102 A 
ATOM      9  C   UNL A   1      44.306  17.082  43.526  1.00  0.00     0.082 C 
ATOM     10  C   UNL A   1      43.567  18.429  43.586  1.00  0.00     0.115 C 
ATOM     11  C   UNL A   1      45.749  17.321  43.200  1.00  0.00     0.055 A 
ATOM     12  C   UNL A   1      44.052  19.496  42.609  1.00  0.00     0.225 C 
ATOM     13  C   UNL A   1      46.209  18.416  42.505  1.00  0.00     0.078 A 
ATOM     14  N   UNL A   1      46.830  16.529  43.506  1.00  0.00    -0.317 N 
ATOM     15  O   UNL A   1      43.317  20.422  42.261  1.00  0.00    -0.275 OA
ATOM     16  N   UNL A   1      45.368  19.464  42.208  1.00  0.00    -0.324 N 
ATOM     17  C   UNL A   1      47.924  17.031  42.840  1.00  0.00     0.109 A 
ATOM     18  H   UNL A   1      45.722  20.221  41.688  1.00  0.00     0.170 HD
BRANCH   9  19
ATOM     19  C   UNL A   1      43.650  16.078  42.563  1.00  0.00     0.012 A 
ATOM     20  C   UNL A   1      43.132  15.543  40.221  1.00  0.00     0.165 A 
ATOM     21  C   UNL A   1      43.837  16.285  41.172  1.00  0.00     0.059 A 
ATOM     22  C   UNL A   1      42.310  14.530  40.673  1.00  0.00     0.211 A 
ATOM     23  C   UNL A   1      42.161  14.270  42.021  1.00  0.00     0.211 A 
ATOM     24  O   UNL A   1      41.576  13.677  39.903  1.00  0.00    -0.449 OA
ATOM     25  C   UNL A   1      42.812  15.019  42.991  1.00  0.00     0.168 A 
ATOM     26  O   UNL A   1      41.305  13.228  42.236  1.00  0.00    -0.449 OA
ATOM     27  C   UNL A   1      41.004  12.816  40.898  1.00  0.00     0.468 C 
BRANCH  20  28
ATOM     28  O   UNL A   1      43.340  15.888  38.916  1.00  0.00    -0.493 OA
ATOM     29  C   UNL A   1      44.507  16.680  38.706  1.00  0.00     0.278 C 
ENDBRANCH  20  28
BRANCH  25  30
ATOM     30  O   UNL A   1      42.715  14.828  44.333  1.00  0.00    -0.492 OA
ATOM     31  C   UNL A   1      43.231  13.651  44.930  1.00  0.00     0.278 C 
ENDBRANCH  25  30
ENDBRANCH   9  19
BRANCH  14  32
ATOM     32  C   UNL A   1      46.856  15.394  44.337  1.00  0.00     0.046 A 
ATOM     33  C   UNL A   1      46.720  14.127  43.767  1.00  0.00     0.029 A 
ATOM     34  C   UNL A   1      47.002  15.552  45.720  1.00  0.00     0.029 A 
ATOM     35  C   UNL A   1      46.659  13.006  44.591  1.00  0.00     0.041 A 
ATOM     36  C   UNL A   1      46.940  14.423  46.540  1.00  0.00     0.041 A 
ATOM     37  C   UNL A   1      46.759  13.164  45.970  1.00  0.00     0.123 A 
ATOM     38  F   UNL A   1      46.681  12.087  46.760  1.00  0.00    -0.207 F 
ENDBRANCH  14  32
ENDBRANCH   6   8
ENDBRANCH   5   6
ENDBRANCH   4   5
ENDBRANCH   3   4
ENDBRANCH   2   3
ENDBRANCH   1   2
BRANCH   1  39
ATOM     39  C   UNL A   1      45.669  21.813  36.177  1.00  0.00     0.188 C 
BRANCH  39  40
ATOM     40  O   UNL A   1      46.055  22.254  34.894  1.00  0.00    -0.376 OA
BRANCH  40  41
ATOM     41  C   UNL A   1      45.233  23.142  34.152  1.00  0.00     0.202 C 
BRANCH  41  42
ATOM     42  C   UNL A   1      45.795  24.317  33.350  1.00  0.00     0.261 C 
BRANCH  42  43
ATOM     43  O   UNL A   1      44.932  24.880  32.382  1.00  0.00    -0.460 OA
BRANCH  43  44
ATOM     44  C   UNL A   1      45.374  26.035  31.847  1.00  0.00     0.338 C 
ATOM     45  O   UNL A   1      46.150  26.170  30.920  1.00  0.00    -0.246 OA
BRANCH  44  46
ATOM     46  C   UNL A   1      44.806  27.148  32.613  1.00  0.00     0.060 A 
ATOM     47  C   UNL A   1      43.451  27.053  32.928  1.00  0.00     0.016 A 
ATOM     48  C   UNL A   1      45.515  28.357  32.691  1.00  0.00     0.016 A 
ATOM     49  C   UNL A   1      42.739  28.220  33.040  1.00  0.00     0.010 A 
ATOM     50  C   UNL A   1      44.800  29.525  32.789  1.00  0.00     0.010 A 
ATOM     51  C   UNL A   1      43.414  29.431  32.844  1.00  0.00    -0.014 A 
BRANCH  51  52
ATOM     52  C   UNL A   1      42.596  30.596  32.609  1.00  0.00     0.031 A 
ATOM     53  C   UNL A   1      41.799  31.029  33.769  1.00  0.00     0.074 A 
ATOM     54  C   UNL A   1      42.603  31.229  31.423  1.00  0.00     0.049 A 
ATOM     55  N   UNL A   1      40.514  31.061  33.873  1.00  0.00    -0.248 NA
ATOM     56  C   UNL A   1      42.525  31.351  35.004  1.00  0.00     0.031 C 
ATOM     57  C   UNL A   1      43.537  31.068  30.306  1.00  0.00     0.029 A 
ATOM     58  N   UNL A   1      41.809  32.252  31.017  1.00  0.00    -0.354 N 
ATOM     59  C   UNL A   1      40.257  31.559  35.144  1.00  0.00     0.074 A 
ATOM     60  C   UNL A   1      41.516  31.587  35.842  1.00  0.00     0.031 C 
ATOM     61  C   UNL A   1      43.400  32.120  29.466  1.00  0.00     0.029 A 
ATOM     62  C   UNL A   1      42.302  32.952  29.929  1.00  0.00     0.049 A 
ATOM     63  H   UNL A   1      40.959  32.477  31.457  1.00  0.00     0.167 HD
ATOM     64  C   UNL A   1      39.056  32.112  35.454  1.00  0.00     0.037 A 
ATOM     65  C   UNL A   1      41.891  34.183  29.536  1.00  0.00     0.037 A 
ATOM     66  C   UNL A   1      38.029  31.720  34.526  1.00  0.00     0.049 A 
ATOM     67  C   UNL A   1      40.549  34.421  30.137  1.00  0.00     0.074 A 
ATOM     68  C   UNL A   1      37.490  30.506  34.145  1.00  0.00     0.029 A 
ATOM     69  N   UNL A   1      37.635  32.617  33.563  1.00  0.00    -0.354 N 
ATOM     70  N   UNL A   1      39.463  33.796  29.774  1.00  0.00    -0.248 NA
ATOM     71  C   UNL A   1      40.496  35.045  31.454  1.00  0.00     0.031 C 
ATOM     72  C   UNL A   1      37.223  30.636  32.751  1.00  0.00     0.029 A 
ATOM     73  C   UNL A   1      37.581  31.931  32.376  1.00  0.00     0.049 A 
ATOM     74  H   UNL A   1      37.431  33.570  33.699  1.00  0.00     0.167 HD
ATOM     75  C   UNL A   1      38.768  33.581  30.956  1.00  0.00     0.074 A 
ATOM     76  C   UNL A   1      39.401  34.453  31.939  1.00  0.00     0.031 C 
ATOM     77  C   UNL A   1      37.935  32.509  31.103  1.00  0.00     0.037 A 
BRANCH  64  78
ATOM     78  C   UNL A   1      38.899  33.268  36.400  1.00  0.00     0.064 A 
ATOM     79  C   UNL A   1      39.517  34.494  36.097  1.00  0.00     0.173 A 
ATOM     80  C   UNL A   1      38.415  33.132  37.720  1.00  0.00     0.173 A 
ATOM     81  F   UNL A   1      40.035  34.714  34.879  1.00  0.00    -0.203 F 
ATOM     82  C   UNL A   1      39.698  35.483  37.065  1.00  0.00     0.198 A 
ATOM     83  C   UNL A   1      38.544  34.145  38.666  1.00  0.00     0.198 A 
ATOM     84  F   UNL A   1      37.905  31.982  38.176  1.00  0.00    -0.203 F 
ATOM     85  F   UNL A   1      40.404  36.581  36.768  1.00  0.00    -0.200 F 
ATOM     86  C   UNL A   1      39.215  35.306  38.349  1.00  0.00     0.200 A 
ATOM     87  F   UNL A   1      38.086  33.945  39.910  1.00  0.00    -0.200 F 
ATOM     88  F   UNL A   1      39.440  36.227  39.294  1.00  0.00    -0.200 F 
ENDBRANCH  64  78
BRANCH  65  89
ATOM     89  C   UNL A   1      42.725  35.280  28.986  1.00  0.00     0.064 A 
ATOM     90  C   UNL A   1      42.315  35.987  27.845  1.00  0.00     0.173 A 
ATOM     91  C   UNL A   1      43.799  35.837  29.710  1.00  0.00     0.173 A 
ATOM     92  F   UNL A   1      41.272  35.555  27.122  1.00  0.00    -0.203 F 
ATOM     93  C   UNL A   1      42.921  37.191  27.469  1.00  0.00     0.198 A 
ATOM     94  C   UNL A   1      44.415  37.027  29.326  1.00  0.00     0.198 A 
ATOM     95  F   UNL A   1      44.217  35.293  30.863  1.00  0.00    -0.203 F 
ATOM     96  F   UNL A   1      42.455  37.873  26.415  1.00  0.00    -0.200 F 
ATOM     97  C   UNL A   1      43.965  37.713  28.215  1.00  0.00     0.200 A 
ATOM     98  F   UNL A   1      45.401  37.538  30.077  1.00  0.00    -0.200 F 
ATOM     99  F   UNL A   1      44.507  38.895  27.890  1.00  0.00    -0.200 F 
ENDBRANCH  65  89
BRANCH  77 100
ATOM    100  C   UNL A   1      37.579  31.720  29.875  1.00  0.00     0.064 A 
ATOM    101  C   UNL A   1      38.349  30.652  29.383  1.00  0.00     0.173 A 
ATOM    102  C   UNL A   1      36.344  31.962  29.260  1.00  0.00     0.173 A 
ATOM    103  F   UNL A   1      39.486  30.285  29.988  1.00  0.00    -0.203 F 
ATOM    104  C   UNL A   1      37.925  29.900  28.288  1.00  0.00     0.198 A 
ATOM    105  C   UNL A   1      35.904  31.185  28.192  1.00  0.00     0.198 A 
ATOM    106  F   UNL A   1      35.536  32.928  29.727  1.00  0.00    -0.203 F 
ATOM    107  F   UNL A   1      38.687  28.899  27.825  1.00  0.00    -0.200 F 
ATOM    108  C   UNL A   1      36.701  30.164  27.698  1.00  0.00     0.200 A 
ATOM    109  F   UNL A   1      34.695  31.408  27.658  1.00  0.00    -0.200 F 
ATOM    110  F   UNL A   1      36.274  29.416  26.670  1.00  0.00    -0.200 F 
ENDBRANCH  77 100
ENDBRANCH  51  52
ENDBRANCH  44  46
ENDBRANCH  43  44
ENDBRANCH  42  43
ENDBRANCH  41  42
ENDBRANCH  40  41
ENDBRANCH  39  40
ENDBRANCH   1  39
TORSDOF 21
ENDMDL
