MODEL 1
REMARK VINA RESULT:      -9.9      0.000      0.000
REMARK SMILES CCN(CC)C(=O)C[N@@H+](C)[C@@H](C)c1ccc(C(=O)OCCOCCOCCOC(=O)c2ccc(-c3c4nc(c(-c5c(F)c(F)c(F)c(F)c5F)c5ccc([nH]5)c(-c5c(F)c(F)c(F)c(F)c5F)c5nc(c(-c6c(F)c(F)c(F)c(F)c6F)c6ccc3[nH]6)C=C5)C=C4)cc2)o1
REMARK SMILES IDX 22 1 21 2 20 3 19 4 17 5 18 6 16 7 13 8 14 9 94 10 15 11
REMARK SMILES IDX 11 12 12 13 9 14 10 15 8 17 6 18 3 19 7 20 2 21 1 22 4 23
REMARK SMILES IDX 5 24 23 25 24 26 25 27 26 28 27 29 28 30 29 31 30 32 31 33
REMARK SMILES IDX 32 34 93 35 33 36 92 37 34 38 35 39 36 40 86 41 37 42 91 43
REMARK SMILES IDX 85 44 87 45 38 46 90 47 84 48 83 49 39 51 71 52 51 53 70 54
REMARK SMILES IDX 52 55 55 56 69 57 88 58 53 59 54 60 68 62 89 63 56 64 40 65
REMARK SMILES IDX 41 66 49 67 42 68 43 69 47 70 50 71 44 72 45 73 48 74 46 75
REMARK SMILES IDX 72 76 73 77 81 78 74 79 75 80 79 81 82 82 76 83 77 84 80 85
REMARK SMILES IDX 78 86 57 87 58 88 66 89 59 90 60 91 64 92 67 93 61 94 62 95
REMARK SMILES IDX 65 96 63 97
REMARK H PARENT 9 16 87 50 55 61
REMARK Flexibility Score: inf
ROOT
ATOM      1  O   UNL A   1      34.092  20.122  25.694  1.00  0.00    -0.376 OA
ENDROOT
BRANCH   1   2
ATOM      2  C   UNL A   1      32.798  20.097  25.119  1.00  0.00     0.202 C 
BRANCH   2   3
ATOM      3  C   UNL A   1      32.061  21.426  24.931  1.00  0.00     0.261 C 
BRANCH   3   4
ATOM      4  O   UNL A   1      31.442  21.977  26.098  1.00  0.00    -0.457 OA
BRANCH   4   5
ATOM      5  C   UNL A   1      32.134  22.987  26.705  1.00  0.00     0.374 C 
ATOM      6  O   UNL A   1      33.124  22.838  27.413  1.00  0.00    -0.242 OA
BRANCH   5   7
ATOM      7  C   UNL A   1      31.533  24.249  26.362  1.00  0.00     0.212 A 
ATOM      8  C   UNL A   1      31.517  26.422  25.937  1.00  0.00     0.162 A 
ATOM      9  C   UNL A   1      30.203  26.006  25.985  1.00  0.00     0.053 A 
ATOM     10  O   UNL A   1      32.333  25.353  26.209  1.00  0.00    -0.448 OA
ATOM     11  C   UNL A   1      30.215  24.605  26.169  1.00  0.00     0.059 A 
BRANCH   8  12
ATOM     12  C   UNL A   1      32.193  27.764  25.814  1.00  0.00     0.248 C 
ATOM     13  C   UNL A   1      31.698  28.680  26.945  1.00  0.00     0.084 C 
BRANCH  12  14
ATOM     14  N   UNL A   1      32.206  28.365  24.451  1.00  0.00    -0.321 N 
ATOM     15  C   UNL A   1      33.580  28.657  24.019  1.00  0.00     0.333 C 
ATOM     16  H   UNL A   1      31.769  27.638  23.886  1.00  0.00     0.348 HD
BRANCH  14  17
ATOM     17  C   UNL A   1      31.378  29.573  24.236  1.00  0.00     0.364 C 
BRANCH  17  18
ATOM     18  C   UNL A   1      30.013  29.299  23.577  1.00  0.00     0.277 C 
ATOM     19  N   UNL A   1      29.098  30.330  23.385  1.00  0.00    -0.338 N 
ATOM     20  O   UNL A   1      29.713  28.131  23.296  1.00  0.00    -0.268 OA
BRANCH  19  21
ATOM     21  C   UNL A   1      27.875  30.030  22.640  1.00  0.00     0.116 C 
ATOM     22  C   UNL A   1      27.274  28.700  23.070  1.00  0.00     0.027 C 
ENDBRANCH  19  21
BRANCH  19  23
ATOM     23  C   UNL A   1      29.198  31.667  23.970  1.00  0.00     0.116 C 
ATOM     24  C   UNL A   1      28.660  32.728  23.022  1.00  0.00     0.027 C 
ENDBRANCH  19  23
ENDBRANCH  17  18
ENDBRANCH  14  17
ENDBRANCH  12  14
ENDBRANCH   8  12
ENDBRANCH   5   7
ENDBRANCH   4   5
ENDBRANCH   3   4
ENDBRANCH   2   3
ENDBRANCH   1   2
BRANCH   1  25
ATOM     25  C   UNL A   1      35.225  20.528  24.932  1.00  0.00     0.188 C 
BRANCH  25  26
ATOM     26  C   UNL A   1      36.348  21.389  25.545  1.00  0.00     0.188 C 
BRANCH  26  27
ATOM     27  O   UNL A   1      37.585  21.284  24.864  1.00  0.00    -0.376 OA
BRANCH  27  28
ATOM     28  C   UNL A   1      38.188  20.005  24.797  1.00  0.00     0.202 C 
BRANCH  28  29
ATOM     29  C   UNL A   1      39.218  19.654  25.882  1.00  0.00     0.261 C 
BRANCH  29  30
ATOM     30  O   UNL A   1      40.586  19.592  25.453  1.00  0.00    -0.460 OA
BRANCH  30  31
ATOM     31  C   UNL A   1      41.537  19.710  26.404  1.00  0.00     0.338 C 
ATOM     32  O   UNL A   1      42.303  18.846  26.787  1.00  0.00    -0.246 OA
BRANCH  31  33
ATOM     33  C   UNL A   1      41.611  21.130  26.821  1.00  0.00     0.060 A 
ATOM     34  C   UNL A   1      41.613  22.114  25.825  1.00  0.00     0.016 A 
ATOM     35  C   UNL A   1      41.688  21.493  28.169  1.00  0.00     0.016 A 
ATOM     36  C   UNL A   1      41.750  23.459  26.174  1.00  0.00     0.010 A 
ATOM     37  C   UNL A   1      41.836  22.843  28.516  1.00  0.00     0.010 A 
ATOM     38  C   UNL A   1      41.910  23.828  27.517  1.00  0.00    -0.014 A 
BRANCH  38  39
ATOM     39  C   UNL A   1      42.352  25.210  27.841  1.00  0.00     0.031 A 
ATOM     40  C   UNL A   1      43.770  25.604  27.519  1.00  0.00     0.074 A 
ATOM     41  C   UNL A   1      41.507  26.121  28.356  1.00  0.00     0.049 A 
ATOM     42  N   UNL A   1      44.368  26.760  27.656  1.00  0.00    -0.248 NA
ATOM     43  C   UNL A   1      44.629  24.545  26.965  1.00  0.00     0.031 C 
ATOM     44  C   UNL A   1      40.107  25.881  28.695  1.00  0.00     0.029 A 
ATOM     45  N   UNL A   1      41.711  27.440  28.681  1.00  0.00    -0.354 N 
ATOM     46  C   UNL A   1      45.666  26.569  27.199  1.00  0.00     0.074 A 
ATOM     47  C   UNL A   1      45.782  25.179  26.817  1.00  0.00     0.031 C 
ATOM     48  C   UNL A   1      39.577  27.016  29.185  1.00  0.00     0.029 A 
ATOM     49  C   UNL A   1      40.604  28.057  29.207  1.00  0.00     0.049 A 
ATOM     50  H   UNL A   1      42.572  27.900  28.549  1.00  0.00     0.167 HD
ATOM     51  C   UNL A   1      46.669  27.474  27.089  1.00  0.00     0.037 A 
ATOM     52  C   UNL A   1      40.442  29.317  29.658  1.00  0.00     0.037 A 
ATOM     53  C   UNL A   1      46.565  28.856  27.474  1.00  0.00     0.049 A 
ATOM     54  C   UNL A   1      41.591  30.292  29.576  1.00  0.00     0.074 A 
ATOM     55  C   UNL A   1      47.522  29.852  27.388  1.00  0.00     0.029 A 
ATOM     56  N   UNL A   1      45.434  29.436  28.029  1.00  0.00    -0.354 N 
ATOM     57  N   UNL A   1      42.799  30.116  29.099  1.00  0.00    -0.248 NA
ATOM     58  C   UNL A   1      41.345  31.648  30.089  1.00  0.00     0.031 C 
ATOM     59  C   UNL A   1      46.985  31.023  27.934  1.00  0.00     0.029 A 
ATOM     60  C   UNL A   1      45.676  30.771  28.311  1.00  0.00     0.049 A 
ATOM     61  H   UNL A   1      44.583  28.968  28.198  1.00  0.00     0.167 HD
ATOM     62  C   UNL A   1      43.444  31.340  29.224  1.00  0.00     0.074 A 
ATOM     63  C   UNL A   1      42.489  32.257  29.809  1.00  0.00     0.031 C 
ATOM     64  C   UNL A   1      44.715  31.676  28.886  1.00  0.00     0.037 A 
BRANCH  51  65
ATOM     65  C   UNL A   1      47.978  26.984  26.545  1.00  0.00     0.064 A 
ATOM     66  C   UNL A   1      48.214  26.900  25.163  1.00  0.00     0.173 A 
ATOM     67  C   UNL A   1      49.015  26.611  27.413  1.00  0.00     0.173 A 
ATOM     68  F   UNL A   1      47.249  27.229  24.292  1.00  0.00    -0.203 F 
ATOM     69  C   UNL A   1      49.432  26.436  24.673  1.00  0.00     0.198 A 
ATOM     70  C   UNL A   1      50.241  26.175  26.917  1.00  0.00     0.198 A 
ATOM     71  F   UNL A   1      48.840  26.675  28.741  1.00  0.00    -0.203 F 
ATOM     72  F   UNL A   1      49.619  26.319  23.351  1.00  0.00    -0.200 F 
ATOM     73  C   UNL A   1      50.446  26.080  25.549  1.00  0.00     0.200 A 
ATOM     74  F   UNL A   1      51.223  25.840  27.767  1.00  0.00    -0.200 F 
ATOM     75  F   UNL A   1      51.618  25.637  25.076  1.00  0.00    -0.200 F 
ENDBRANCH  51  65
BRANCH  52  76
ATOM     76  C   UNL A   1      39.135  29.744  30.223  1.00  0.00     0.064 A 
ATOM     77  C   UNL A   1      38.143  30.310  29.411  1.00  0.00     0.173 A 
ATOM     78  C   UNL A   1      38.868  29.629  31.595  1.00  0.00     0.173 A 
ATOM     79  F   UNL A   1      38.364  30.469  28.098  1.00  0.00    -0.203 F 
ATOM     80  C   UNL A   1      36.941  30.763  29.952  1.00  0.00     0.198 A 
ATOM     81  C   UNL A   1      37.655  30.058  32.132  1.00  0.00     0.198 A 
ATOM     82  F   UNL A   1      39.789  29.105  32.417  1.00  0.00    -0.203 F 
ATOM     83  F   UNL A   1      36.031  31.348  29.161  1.00  0.00    -0.200 F 
ATOM     84  C   UNL A   1      36.697  30.633  31.311  1.00  0.00     0.200 A 
ATOM     85  F   UNL A   1      37.421  29.927  33.444  1.00  0.00    -0.200 F 
ATOM     86  F   UNL A   1      35.543  31.073  31.831  1.00  0.00    -0.200 F 
ENDBRANCH  52  76
BRANCH  64  87
ATOM     87  C   UNL A   1      45.132  33.103  29.102  1.00  0.00     0.064 A 
ATOM     88  C   UNL A   1      44.941  34.086  28.119  1.00  0.00     0.173 A 
ATOM     89  C   UNL A   1      45.708  33.496  30.321  1.00  0.00     0.173 A 
ATOM     90  F   UNL A   1      44.406  33.760  26.934  1.00  0.00    -0.203 F 
ATOM     91  C   UNL A   1      45.343  35.401  28.335  1.00  0.00     0.198 A 
ATOM     92  C   UNL A   1      46.080  34.819  30.544  1.00  0.00     0.198 A 
ATOM     93  F   UNL A   1      45.905  32.599  31.297  1.00  0.00    -0.203 F 
ATOM     94  F   UNL A   1      45.203  36.312  27.361  1.00  0.00    -0.200 F 
ATOM     95  C   UNL A   1      45.908  35.769  29.548  1.00  0.00     0.200 A 
ATOM     96  F   UNL A   1      46.613  35.175  31.721  1.00  0.00    -0.200 F 
ATOM     97  F   UNL A   1      46.294  37.035  29.754  1.00  0.00    -0.200 F 
ENDBRANCH  64  87
ENDBRANCH  38  39
ENDBRANCH  31  33
ENDBRANCH  30  31
ENDBRANCH  29  30
ENDBRANCH  28  29
ENDBRANCH  27  28
ENDBRANCH  26  27
ENDBRANCH  25  26
ENDBRANCH   1  25
TORSDOF 23
ENDMDL
MODEL 2
REMARK VINA RESULT:      -9.9      3.304      9.067
REMARK SMILES CCN(CC)C(=O)C[N@@H+](C)[C@@H](C)c1ccc(C(=O)OCCOCCOCCOC(=O)c2ccc(-c3c4nc(c(-c5c(F)c(F)c(F)c(F)c5F)c5ccc([nH]5)c(-c5c(F)c(F)c(F)c(F)c5F)c5nc(c(-c6c(F)c(F)c(F)c(F)c6F)c6ccc3[nH]6)C=C5)C=C4)cc2)o1
REMARK SMILES IDX 22 1 21 2 20 3 19 4 17 5 18 6 16 7 13 8 14 9 94 10 15 11
REMARK SMILES IDX 11 12 12 13 9 14 10 15 8 17 6 18 3 19 7 20 2 21 1 22 4 23
REMARK SMILES IDX 5 24 23 25 24 26 25 27 26 28 27 29 28 30 29 31 30 32 31 33
REMARK SMILES IDX 32 34 93 35 33 36 92 37 34 38 35 39 36 40 86 41 37 42 91 43
REMARK SMILES IDX 85 44 87 45 38 46 90 47 84 48 83 49 39 51 71 52 51 53 70 54
REMARK SMILES IDX 52 55 55 56 69 57 88 58 53 59 54 60 68 62 89 63 56 64 40 65
REMARK SMILES IDX 41 66 49 67 42 68 43 69 47 70 50 71 44 72 45 73 48 74 46 75
REMARK SMILES IDX 72 76 73 77 81 78 74 79 75 80 79 81 82 82 76 83 77 84 80 85
REMARK SMILES IDX 78 86 57 87 58 88 66 89 59 90 60 91 64 92 67 93 61 94 62 95
REMARK SMILES IDX 65 96 63 97
REMARK H PARENT 9 16 87 50 55 61
REMARK Flexibility Score: inf
ROOT
ATOM      1  O   UNL A   1      34.536  32.391  28.891  1.00  0.00    -0.376 OA
ENDROOT
BRANCH   1   2
ATOM      2  C   UNL A   1      34.694  31.491  27.810  1.00  0.00     0.202 C 
BRANCH   2   3
ATOM      3  C   UNL A   1      33.438  30.862  27.200  1.00  0.00     0.261 C 
BRANCH   3   4
ATOM      4  O   UNL A   1      33.623  29.624  26.507  1.00  0.00    -0.457 OA
BRANCH   4   5
ATOM      5  C   UNL A   1      32.625  28.706  26.672  1.00  0.00     0.374 C 
ATOM      6  O   UNL A   1      31.860  28.660  27.629  1.00  0.00    -0.242 OA
BRANCH   5   7
ATOM      7  C   UNL A   1      32.599  27.821  25.538  1.00  0.00     0.212 A 
ATOM      8  C   UNL A   1      31.714  26.309  24.183  1.00  0.00     0.162 A 
ATOM      9  C   UNL A   1      33.030  26.478  23.802  1.00  0.00     0.053 A 
ATOM     10  O   UNL A   1      31.461  27.102  25.273  1.00  0.00    -0.448 OA
ATOM     11  C   UNL A   1      33.569  27.505  24.610  1.00  0.00     0.059 A 
BRANCH   8  12
ATOM     12  C   UNL A   1      30.611  25.367  23.771  1.00  0.00     0.248 C 
ATOM     13  C   UNL A   1      29.256  26.065  23.967  1.00  0.00     0.084 C 
BRANCH  12  14
ATOM     14  N   UNL A   1      30.709  23.979  24.300  1.00  0.00    -0.321 N 
ATOM     15  C   UNL A   1      30.910  23.985  25.756  1.00  0.00     0.333 C 
ATOM     16  H   UNL A   1      29.809  23.578  24.036  1.00  0.00     0.348 HD
BRANCH  14  17
ATOM     17  C   UNL A   1      31.723  23.090  23.688  1.00  0.00     0.364 C 
BRANCH  17  18
ATOM     18  C   UNL A   1      32.379  22.102  24.672  1.00  0.00     0.277 C 
ATOM     19  N   UNL A   1      33.636  22.365  25.208  1.00  0.00    -0.338 N 
ATOM     20  O   UNL A   1      31.803  21.034  24.912  1.00  0.00    -0.268 OA
BRANCH  19  21
ATOM     21  C   UNL A   1      34.148  21.453  26.232  1.00  0.00     0.116 C 
ATOM     22  C   UNL A   1      33.969  22.028  27.629  1.00  0.00     0.027 C 
ENDBRANCH  19  21
BRANCH  19  23
ATOM     23  C   UNL A   1      34.548  23.412  24.748  1.00  0.00     0.116 C 
ATOM     24  C   UNL A   1      35.376  22.943  23.562  1.00  0.00     0.027 C 
ENDBRANCH  19  23
ENDBRANCH  17  18
ENDBRANCH  14  17
ENDBRANCH  12  14
ENDBRANCH   8  12
ENDBRANCH   5   7
ENDBRANCH   4   5
ENDBRANCH   3   4
ENDBRANCH   2   3
ENDBRANCH   1   2
BRANCH   1  25
ATOM     25  C   UNL A   1      34.369  33.788  28.665  1.00  0.00     0.188 C 
BRANCH  25  26
ATOM     26  C   UNL A   1      33.283  34.602  29.396  1.00  0.00     0.188 C 
BRANCH  26  27
ATOM     27  O   UNL A   1      33.639  34.978  30.713  1.00  0.00    -0.376 OA
BRANCH  27  28
ATOM     28  C   UNL A   1      34.717  34.289  31.321  1.00  0.00     0.202 C 
BRANCH  28  29
ATOM     29  C   UNL A   1      34.370  33.101  32.231  1.00  0.00     0.261 C 
BRANCH  29  30
ATOM     30  O   UNL A   1      35.335  32.040  32.275  1.00  0.00    -0.460 OA
BRANCH  30  31
ATOM     31  C   UNL A   1      36.378  32.189  33.119  1.00  0.00     0.338 C 
ATOM     32  O   UNL A   1      36.329  32.355  34.324  1.00  0.00    -0.246 OA
BRANCH  31  33
ATOM     33  C   UNL A   1      37.631  31.968  32.361  1.00  0.00     0.060 A 
ATOM     34  C   UNL A   1      37.610  32.160  30.975  1.00  0.00     0.016 A 
ATOM     35  C   UNL A   1      38.809  31.564  32.998  1.00  0.00     0.016 A 
ATOM     36  C   UNL A   1      38.752  31.895  30.216  1.00  0.00     0.010 A 
ATOM     37  C   UNL A   1      39.951  31.289  32.234  1.00  0.00     0.010 A 
ATOM     38  C   UNL A   1      39.915  31.412  30.834  1.00  0.00    -0.014 A 
BRANCH  38  39
ATOM     39  C   UNL A   1      41.005  30.855  29.991  1.00  0.00     0.031 A 
ATOM     40  C   UNL A   1      42.157  31.753  29.622  1.00  0.00     0.074 A 
ATOM     41  C   UNL A   1      41.012  29.567  29.604  1.00  0.00     0.049 A 
ATOM     42  N   UNL A   1      43.246  31.482  28.948  1.00  0.00    -0.248 NA
ATOM     43  C   UNL A   1      42.066  33.150  30.080  1.00  0.00     0.031 C 
ATOM     44  C   UNL A   1      39.975  28.586  29.908  1.00  0.00     0.029 A 
ATOM     45  N   UNL A   1      41.936  28.865  28.869  1.00  0.00    -0.354 N 
ATOM     46  C   UNL A   1      43.969  32.667  28.908  1.00  0.00     0.074 A 
ATOM     47  C   UNL A   1      43.181  33.670  29.591  1.00  0.00     0.031 C 
ATOM     48  C   UNL A   1      40.318  27.406  29.360  1.00  0.00     0.029 A 
ATOM     49  C   UNL A   1      41.591  27.554  28.655  1.00  0.00     0.049 A 
ATOM     50  H   UNL A   1      42.769  29.265  28.526  1.00  0.00     0.167 HD
ATOM     51  C   UNL A   1      45.189  32.899  28.366  1.00  0.00     0.037 A 
ATOM     52  C   UNL A   1      42.229  26.588  27.965  1.00  0.00     0.037 A 
ATOM     53  C   UNL A   1      45.976  31.911  27.678  1.00  0.00     0.049 A 
ATOM     54  C   UNL A   1      43.562  26.885  27.323  1.00  0.00     0.074 A 
ATOM     55  C   UNL A   1      47.229  32.048  27.108  1.00  0.00     0.029 A 
ATOM     56  N   UNL A   1      45.578  30.601  27.458  1.00  0.00    -0.354 N 
ATOM     57  N   UNL A   1      44.260  27.994  27.332  1.00  0.00    -0.248 NA
ATOM     58  C   UNL A   1      44.199  25.785  26.584  1.00  0.00     0.031 C 
ATOM     59  C   UNL A   1      47.570  30.833  26.503  1.00  0.00     0.029 A 
ATOM     60  C   UNL A   1      46.552  29.924  26.742  1.00  0.00     0.049 A 
ATOM     61  H   UNL A   1      44.728  30.209  27.767  1.00  0.00     0.167 HD
ATOM     62  C   UNL A   1      45.427  27.719  26.630  1.00  0.00     0.074 A 
ATOM     63  C   UNL A   1      45.351  26.332  26.223  1.00  0.00     0.031 C 
ATOM     64  C   UNL A   1      46.469  28.541  26.348  1.00  0.00     0.037 A 
BRANCH  51  65
ATOM     65  C   UNL A   1      45.739  34.290  28.484  1.00  0.00     0.064 A 
ATOM     66  C   UNL A   1      46.543  34.674  29.569  1.00  0.00     0.173 A 
ATOM     67  C   UNL A   1      45.474  35.246  27.491  1.00  0.00     0.173 A 
ATOM     68  F   UNL A   1      46.811  33.802  30.552  1.00  0.00    -0.203 F 
ATOM     69  C   UNL A   1      47.039  35.971  29.667  1.00  0.00     0.198 A 
ATOM     70  C   UNL A   1      45.996  36.534  27.580  1.00  0.00     0.198 A 
ATOM     71  F   UNL A   1      44.713  34.928  26.433  1.00  0.00    -0.203 F 
ATOM     72  F   UNL A   1      47.765  36.329  30.736  1.00  0.00    -0.200 F 
ATOM     73  C   UNL A   1      46.771  36.897  28.671  1.00  0.00     0.200 A 
ATOM     74  F   UNL A   1      45.744  37.424  26.611  1.00  0.00    -0.200 F 
ATOM     75  F   UNL A   1      47.252  38.144  28.766  1.00  0.00    -0.200 F 
ENDBRANCH  51  65
BRANCH  52  76
ATOM     76  C   UNL A   1      41.624  25.234  27.847  1.00  0.00     0.064 A 
ATOM     77  C   UNL A   1      42.152  24.140  28.545  1.00  0.00     0.173 A 
ATOM     78  C   UNL A   1      40.529  25.002  27.001  1.00  0.00     0.173 A 
ATOM     79  F   UNL A   1      43.218  24.306  29.342  1.00  0.00    -0.203 F 
ATOM     80  C   UNL A   1      41.621  22.861  28.387  1.00  0.00     0.198 A 
ATOM     81  C   UNL A   1      39.982  23.728  26.865  1.00  0.00     0.198 A 
ATOM     82  F   UNL A   1      39.995  26.014  26.302  1.00  0.00    -0.203 F 
ATOM     83  F   UNL A   1      42.178  21.823  29.026  1.00  0.00    -0.200 F 
ATOM     84  C   UNL A   1      40.534  22.657  27.551  1.00  0.00     0.200 A 
ATOM     85  F   UNL A   1      38.929  23.535  26.059  1.00  0.00    -0.200 F 
ATOM     86  F   UNL A   1      40.027  21.427  27.396  1.00  0.00    -0.200 F 
ENDBRANCH  52  76
BRANCH  64  87
ATOM     87  C   UNL A   1      47.629  27.952  25.597  1.00  0.00     0.064 A 
ATOM     88  C   UNL A   1      47.616  27.824  24.199  1.00  0.00     0.173 A 
ATOM     89  C   UNL A   1      48.779  27.533  26.283  1.00  0.00     0.173 A 
ATOM     90  F   UNL A   1      46.537  28.199  23.497  1.00  0.00    -0.203 F 
ATOM     91  C   UNL A   1      48.698  27.268  23.522  1.00  0.00     0.198 A 
ATOM     92  C   UNL A   1      49.871  27.005  25.599  1.00  0.00     0.198 A 
ATOM     93  F   UNL A   1      48.848  27.640  27.618  1.00  0.00    -0.203 F 
ATOM     94  F   UNL A   1      48.641  27.104  22.192  1.00  0.00    -0.200 F 
ATOM     95  C   UNL A   1      49.826  26.863  24.221  1.00  0.00     0.200 A 
ATOM     96  F   UNL A   1      50.965  26.627  26.275  1.00  0.00    -0.200 F 
ATOM     97  F   UNL A   1      50.866  26.327  23.566  1.00  0.00    -0.200 F 
ENDBRANCH  64  87
ENDBRANCH  38  39
ENDBRANCH  31  33
ENDBRANCH  30  31
ENDBRANCH  29  30
ENDBRANCH  28  29
ENDBRANCH  27  28
ENDBRANCH  26  27
ENDBRANCH  25  26
ENDBRANCH   1  25
TORSDOF 23
ENDMDL
MODEL 3
REMARK VINA RESULT:      -9.9      1.282      2.675
REMARK SMILES CCN(CC)C(=O)C[N@@H+](C)[C@@H](C)c1ccc(C(=O)OCCOCCOCCOC(=O)c2ccc(-c3c4nc(c(-c5c(F)c(F)c(F)c(F)c5F)c5ccc([nH]5)c(-c5c(F)c(F)c(F)c(F)c5F)c5nc(c(-c6c(F)c(F)c(F)c(F)c6F)c6ccc3[nH]6)C=C5)C=C4)cc2)o1
REMARK SMILES IDX 22 1 21 2 20 3 19 4 17 5 18 6 16 7 13 8 14 9 94 10 15 11
REMARK SMILES IDX 11 12 12 13 9 14 10 15 8 17 6 18 3 19 7 20 2 21 1 22 4 23
REMARK SMILES IDX 5 24 23 25 24 26 25 27 26 28 27 29 28 30 29 31 30 32 31 33
REMARK SMILES IDX 32 34 93 35 33 36 92 37 34 38 35 39 36 40 86 41 37 42 91 43
REMARK SMILES IDX 85 44 87 45 38 46 90 47 84 48 83 49 39 51 71 52 51 53 70 54
REMARK SMILES IDX 52 55 55 56 69 57 88 58 53 59 54 60 68 62 89 63 56 64 40 65
REMARK SMILES IDX 41 66 49 67 42 68 43 69 47 70 50 71 44 72 45 73 48 74 46 75
REMARK SMILES IDX 72 76 73 77 81 78 74 79 75 80 79 81 82 82 76 83 77 84 80 85
REMARK SMILES IDX 78 86 57 87 58 88 66 89 59 90 60 91 64 92 67 93 61 94 62 95
REMARK SMILES IDX 65 96 63 97
REMARK H PARENT 9 16 87 50 55 61
REMARK Flexibility Score: inf
ROOT
ATOM      1  O   UNL A   1      34.147  20.305  25.638  1.00  0.00    -0.376 OA
ENDROOT
BRANCH   1   2
ATOM      2  C   UNL A   1      32.921  20.240  24.930  1.00  0.00     0.202 C 
BRANCH   2   3
ATOM      3  C   UNL A   1      32.156  21.543  24.682  1.00  0.00     0.261 C 
BRANCH   3   4
ATOM      4  O   UNL A   1      31.826  22.314  25.841  1.00  0.00    -0.457 OA
BRANCH   4   5
ATOM      5  C   UNL A   1      32.473  23.512  25.949  1.00  0.00     0.374 C 
ATOM      6  O   UNL A   1      33.574  23.676  26.464  1.00  0.00    -0.242 OA
BRANCH   5   7
ATOM      7  C   UNL A   1      31.671  24.542  25.344  1.00  0.00     0.212 A 
ATOM      8  C   UNL A   1      31.207  26.127  23.869  1.00  0.00     0.162 A 
ATOM      9  C   UNL A   1      30.214  26.157  24.827  1.00  0.00     0.053 A 
ATOM     10  O   UNL A   1      32.123  25.164  24.208  1.00  0.00    -0.448 OA
ATOM     11  C   UNL A   1      30.462  25.090  25.718  1.00  0.00     0.059 A 
BRANCH   8  12
ATOM     12  C   UNL A   1      31.555  26.994  22.685  1.00  0.00     0.248 C 
ATOM     13  C   UNL A   1      31.859  26.094  21.476  1.00  0.00     0.084 C 
BRANCH  12  14
ATOM     14  N   UNL A   1      32.534  28.086  22.943  1.00  0.00    -0.321 N 
ATOM     15  C   UNL A   1      33.658  28.019  21.998  1.00  0.00     0.333 C 
ATOM     16  H   UNL A   1      31.969  28.925  22.812  1.00  0.00     0.348 HD
BRANCH  14  17
ATOM     17  C   UNL A   1      33.079  28.197  24.316  1.00  0.00     0.364 C 
BRANCH  17  18
ATOM     18  C   UNL A   1      32.387  29.260  25.190  1.00  0.00     0.277 C 
ATOM     19  N   UNL A   1      32.817  29.495  26.493  1.00  0.00    -0.338 N 
ATOM     20  O   UNL A   1      31.393  29.843  24.740  1.00  0.00    -0.268 OA
BRANCH  19  21
ATOM     21  C   UNL A   1      32.203  30.604  27.226  1.00  0.00     0.116 C 
ATOM     22  C   UNL A   1      33.116  31.821  27.260  1.00  0.00     0.027 C 
ENDBRANCH  19  21
BRANCH  19  23
ATOM     23  C   UNL A   1      33.748  28.650  27.240  1.00  0.00     0.116 C 
ATOM     24  C   UNL A   1      35.168  29.189  27.164  1.00  0.00     0.027 C 
ENDBRANCH  19  23
ENDBRANCH  17  18
ENDBRANCH  14  17
ENDBRANCH  12  14
ENDBRANCH   8  12
ENDBRANCH   5   7
ENDBRANCH   4   5
ENDBRANCH   3   4
ENDBRANCH   2   3
ENDBRANCH   1   2
BRANCH   1  25
ATOM     25  C   UNL A   1      35.353  20.685  24.982  1.00  0.00     0.188 C 
BRANCH  25  26
ATOM     26  C   UNL A   1      36.471  21.449  25.719  1.00  0.00     0.188 C 
BRANCH  26  27
ATOM     27  O   UNL A   1      37.746  21.314  25.121  1.00  0.00    -0.376 OA
BRANCH  27  28
ATOM     28  C   UNL A   1      38.268  20.005  24.983  1.00  0.00     0.202 C 
BRANCH  28  29
ATOM     29  C   UNL A   1      39.385  19.586  25.951  1.00  0.00     0.261 C 
BRANCH  29  30
ATOM     30  O   UNL A   1      40.710  19.541  25.400  1.00  0.00    -0.460 OA
BRANCH  30  31
ATOM     31  C   UNL A   1      41.740  19.699  26.258  1.00  0.00     0.338 C 
ATOM     32  O   UNL A   1      42.579  18.870  26.559  1.00  0.00    -0.246 OA
BRANCH  31  33
ATOM     33  C   UNL A   1      41.787  21.119  26.678  1.00  0.00     0.060 A 
ATOM     34  C   UNL A   1      41.733  22.106  25.688  1.00  0.00     0.016 A 
ATOM     35  C   UNL A   1      41.896  21.480  28.026  1.00  0.00     0.016 A 
ATOM     36  C   UNL A   1      41.843  23.454  26.038  1.00  0.00     0.010 A 
ATOM     37  C   UNL A   1      42.017  22.831  28.374  1.00  0.00     0.010 A 
ATOM     38  C   UNL A   1      42.034  23.822  27.377  1.00  0.00    -0.014 A 
BRANCH  38  39
ATOM     39  C   UNL A   1      42.447  25.215  27.694  1.00  0.00     0.031 A 
ATOM     40  C   UNL A   1      43.838  25.653  27.318  1.00  0.00     0.074 A 
ATOM     41  C   UNL A   1      41.597  26.096  28.249  1.00  0.00     0.049 A 
ATOM     42  N   UNL A   1      44.407  26.826  27.439  1.00  0.00    -0.248 NA
ATOM     43  C   UNL A   1      44.706  24.623  26.721  1.00  0.00     0.031 C 
ATOM     44  C   UNL A   1      40.220  25.812  28.643  1.00  0.00     0.029 A 
ATOM     45  N   UNL A   1      41.775  27.419  28.576  1.00  0.00    -0.354 N 
ATOM     46  C   UNL A   1      45.690  26.677  26.928  1.00  0.00     0.074 A 
ATOM     47  C   UNL A   1      45.832  25.293  26.531  1.00  0.00     0.031 C 
ATOM     48  C   UNL A   1      39.677  26.928  29.162  1.00  0.00     0.029 A 
ATOM     49  C   UNL A   1      40.672  27.999  29.151  1.00  0.00     0.049 A 
ATOM     50  H   UNL A   1      42.616  27.905  28.413  1.00  0.00     0.167 HD
ATOM     51  C   UNL A   1      46.661  27.612  26.785  1.00  0.00     0.037 A 
ATOM     52  C   UNL A   1      40.492  29.251  29.618  1.00  0.00     0.037 A 
ATOM     53  C   UNL A   1      46.531  28.988  27.185  1.00  0.00     0.049 A 
ATOM     54  C   UNL A   1      41.607  30.260  29.498  1.00  0.00     0.074 A 
ATOM     55  C   UNL A   1      47.454  30.012  27.068  1.00  0.00     0.029 A 
ATOM     56  N   UNL A   1      45.407  29.529  27.790  1.00  0.00    -0.354 N 
ATOM     57  N   UNL A   1      42.799  30.123  28.970  1.00  0.00    -0.248 NA
ATOM     58  C   UNL A   1      41.342  31.605  30.031  1.00  0.00     0.031 C 
ATOM     59  C   UNL A   1      46.906  31.163  27.644  1.00  0.00     0.029 A 
ATOM     60  C   UNL A   1      45.621  30.869  28.072  1.00  0.00     0.049 A 
ATOM     61  H   UNL A   1      44.579  29.035  27.989  1.00  0.00     0.167 HD
ATOM     62  C   UNL A   1      43.412  31.365  29.079  1.00  0.00     0.074 A 
ATOM     63  C   UNL A   1      42.454  32.249  29.709  1.00  0.00     0.031 C 
ATOM     64  C   UNL A   1      44.657  31.741  28.692  1.00  0.00     0.037 A 
BRANCH  51  65
ATOM     65  C   UNL A   1      47.961  27.165  26.184  1.00  0.00     0.064 A 
ATOM     66  C   UNL A   1      49.004  26.662  26.979  1.00  0.00     0.173 A 
ATOM     67  C   UNL A   1      48.160  27.222  24.797  1.00  0.00     0.173 A 
ATOM     68  F   UNL A   1      48.868  26.603  28.312  1.00  0.00    -0.203 F 
ATOM     69  C   UNL A   1      50.207  26.259  26.407  1.00  0.00     0.198 A 
ATOM     70  C   UNL A   1      49.355  26.791  24.227  1.00  0.00     0.198 A 
ATOM     71  F   UNL A   1      47.194  27.692  23.994  1.00  0.00    -0.203 F 
ATOM     72  F   UNL A   1      51.206  25.828  27.189  1.00  0.00    -0.200 F 
ATOM     73  C   UNL A   1      50.380  26.317  25.033  1.00  0.00     0.200 A 
ATOM     74  F   UNL A   1      49.516  26.839  22.898  1.00  0.00    -0.200 F 
ATOM     75  F   UNL A   1      51.537  25.925  24.484  1.00  0.00    -0.200 F 
ENDBRANCH  51  65
BRANCH  52  76
ATOM     76  C   UNL A   1      39.196  29.634  30.239  1.00  0.00     0.064 A 
ATOM     77  C   UNL A   1      38.909  29.314  31.573  1.00  0.00     0.173 A 
ATOM     78  C   UNL A   1      38.206  30.294  29.498  1.00  0.00     0.173 A 
ATOM     79  F   UNL A   1      39.812  28.655  32.313  1.00  0.00    -0.203 F 
ATOM     80  C   UNL A   1      37.672  29.622  32.136  1.00  0.00     0.198 A 
ATOM     81  C   UNL A   1      36.978  30.626  30.070  1.00  0.00     0.198 A 
ATOM     82  F   UNL A   1      38.428  30.612  28.214  1.00  0.00    -0.203 F 
ATOM     83  F   UNL A   1      37.403  29.257  33.398  1.00  0.00    -0.200 F 
ATOM     84  C   UNL A   1      36.710  30.281  31.386  1.00  0.00     0.200 A 
ATOM     85  F   UNL A   1      36.053  31.266  29.344  1.00  0.00    -0.200 F 
ATOM     86  F   UNL A   1      35.519  30.572  31.927  1.00  0.00    -0.200 F 
ENDBRANCH  52  76
BRANCH  64  87
ATOM     87  C   UNL A   1      45.041  33.179  28.902  1.00  0.00     0.064 A 
ATOM     88  C   UNL A   1      45.702  33.605  30.064  1.00  0.00     0.173 A 
ATOM     89  C   UNL A   1      44.764  34.138  27.915  1.00  0.00     0.173 A 
ATOM     90  F   UNL A   1      45.979  32.731  31.043  1.00  0.00    -0.203 F 
ATOM     91  C   UNL A   1      46.041  34.944  30.244  1.00  0.00     0.198 A 
ATOM     92  C   UNL A   1      45.133  35.469  28.086  1.00  0.00     0.198 A 
ATOM     93  F   UNL A   1      44.142  33.783  26.782  1.00  0.00    -0.203 F 
ATOM     94  F   UNL A   1      46.622  35.338  31.386  1.00  0.00    -0.200 F 
ATOM     95  C   UNL A   1      45.761  35.874  29.254  1.00  0.00     0.200 A 
ATOM     96  F   UNL A   1      44.874  36.364  27.122  1.00  0.00    -0.200 F 
ATOM     97  F   UNL A   1      46.088  37.162  29.429  1.00  0.00    -0.200 F 
ENDBRANCH  64  87
ENDBRANCH  38  39
ENDBRANCH  31  33
ENDBRANCH  30  31
ENDBRANCH  29  30
ENDBRANCH  28  29
ENDBRANCH  27  28
ENDBRANCH  26  27
ENDBRANCH  25  26
ENDBRANCH   1  25
TORSDOF 23
ENDMDL
