MODEL 1
REMARK VINA RESULT:      -8.6      0.000      0.000
REMARK SMILES O=C(CCN1C(=O)S/C(=C\c2ccccc2F)C1=O)Nc1ccc(C(=O)OCCOCCOCCOC(=O)c2ccc(-c3c4nc(c(-c5c(F)c(F)c(F)c(F)c5F)c5ccc([nH]5)c(-c5c(F)c(F)c(F)c(F)c5F)c5nc(c(-c6c(F)c(F)c(F)c(F)c6F)c6ccc3[nH]6)C=C5)C=C4)cc2)c(O)c1
REMARK SMILES IDX 30 1 29 2 28 3 27 4 25 5 26 6 24 7 21 8 22 9 104 10 23 11
REMARK SMILES IDX 102 12 20 13 1 14 2 15 3 17 4 18 5 19 6 20 18 21 7 22 8 23
REMARK SMILES IDX 9 24 19 25 10 26 11 27 12 28 16 29 13 30 15 31 17 32 14 33
REMARK SMILES IDX 103 34 31 36 32 37 33 38 34 39 35 40 36 41 37 42 38 43 39 44
REMARK SMILES IDX 40 45 101 46 41 47 100 48 42 49 43 50 44 51 94 52 45 53
REMARK SMILES IDX 99 54 93 55 95 56 46 57 98 58 92 59 91 60 47 62 79 63 59 64
REMARK SMILES IDX 78 65 60 66 63 67 77 68 96 69 61 70 62 71 76 73 97 74 64 75
REMARK SMILES IDX 48 76 49 77 57 78 50 79 51 80 55 81 58 82 52 83 53 84 56 85
REMARK SMILES IDX 54 86 80 87 81 88 89 89 82 90 83 91 87 92 90 93 84 94 85 95
REMARK SMILES IDX 88 96 86 97 65 98 66 99 74 100 67 101 68 102 72 103 75 104
REMARK SMILES IDX 69 105 70 106 73 107 71 108
REMARK H PARENT 20 16 103 35 95 61 63 72
REMARK Flexibility Score: inf
ROOT
ATOM      1  O   UNL A   1      43.268  23.741  28.775  1.00  0.00    -0.376 OA
ENDROOT
BRANCH   1   2
ATOM      2  C   UNL A   1      41.959  23.778  28.220  1.00  0.00     0.202 C 
BRANCH   2   3
ATOM      3  C   UNL A   1      41.310  25.106  27.781  1.00  0.00     0.261 C 
BRANCH   3   4
ATOM      4  O   UNL A   1      41.270  26.151  28.769  1.00  0.00    -0.460 OA
BRANCH   4   5
ATOM      5  C   UNL A   1      40.025  26.585  29.106  1.00  0.00     0.341 C 
ATOM      6  O   UNL A   1      39.018  25.906  29.207  1.00  0.00    -0.246 OA
BRANCH   5   7
ATOM      7  C   UNL A   1      40.097  27.994  29.559  1.00  0.00     0.101 A 
ATOM      8  C   UNL A   1      40.265  30.720  30.240  1.00  0.00     0.044 A 
ATOM      9  C   UNL A   1      40.665  30.285  28.974  1.00  0.00     0.027 A 
ATOM     10  C   UNL A   1      39.771  29.785  31.157  1.00  0.00     0.073 A 
ATOM     11  C   UNL A   1      40.608  28.927  28.647  1.00  0.00     0.022 A 
ATOM     12  C   UNL A   1      39.640  28.440  30.801  1.00  0.00     0.132 A 
BRANCH   8  13
ATOM     13  N   UNL A   1      40.387  32.059  30.665  1.00  0.00    -0.326 N 
ATOM     14  O   UNL A   1      39.823  31.888  32.898  1.00  0.00    -0.275 OA
ATOM     15  C   UNL A   1      40.028  32.571  31.894  1.00  0.00     0.226 C 
ATOM     16  H   UNL A   1      40.767  32.695  30.018  1.00  0.00     0.169 HD
BRANCH  15  17
ATOM     17  C   UNL A   1      39.787  34.075  31.944  1.00  0.00     0.122 C 
BRANCH  17  18
ATOM     18  C   UNL A   1      38.362  34.592  31.751  1.00  0.00     0.140 C 
BRANCH  18  19
ATOM     19  N   UNL A   1      37.404  33.660  31.162  1.00  0.00    -0.268 N 
ATOM     20  C   UNL A   1      36.355  33.134  31.867  1.00  0.00     0.293 C 
ATOM     21  C   UNL A   1      37.383  33.442  29.798  1.00  0.00     0.268 C 
ATOM     22  O   UNL A   1      36.026  33.394  33.016  1.00  0.00    -0.261 OA
ATOM     23  S   UNL A   1      35.499  31.972  30.885  1.00  0.00    -0.022 SA
ATOM     24  C   UNL A   1      36.317  32.464  29.452  1.00  0.00     0.083 C 
ATOM     25  O   UNL A   1      38.141  33.941  28.979  1.00  0.00    -0.268 OA
ATOM     26  C   UNL A   1      36.111  32.039  28.197  1.00  0.00     0.032 C 
BRANCH  26  27
ATOM     27  C   UNL A   1      35.142  31.004  27.812  1.00  0.00     0.012 A 
ATOM     28  C   UNL A   1      33.803  31.369  27.619  1.00  0.00     0.011 A 
ATOM     29  C   UNL A   1      35.510  29.670  27.591  1.00  0.00     0.130 A 
ATOM     30  C   UNL A   1      32.876  30.432  27.158  1.00  0.00     0.001 A 
ATOM     31  C   UNL A   1      34.594  28.738  27.115  1.00  0.00     0.040 A 
ATOM     32  F   UNL A   1      36.770  29.268  27.822  1.00  0.00    -0.206 F 
ATOM     33  C   UNL A   1      33.274  29.122  26.888  1.00  0.00     0.003 A 
ENDBRANCH  26  27
ENDBRANCH  18  19
ENDBRANCH  17  18
ENDBRANCH  15  17
ENDBRANCH   8  13
BRANCH  12  34
ATOM     34  O   UNL A   1      39.017  27.627  31.707  1.00  0.00    -0.507 OA
ATOM     35  H   UNL A   1      39.495  27.289  32.439  1.00  0.00     0.293 HD
ENDBRANCH  12  34
ENDBRANCH   5   7
ENDBRANCH   4   5
ENDBRANCH   3   4
ENDBRANCH   2   3
ENDBRANCH   1   2
BRANCH   1  36
ATOM     36  C   UNL A   1      44.319  24.493  28.185  1.00  0.00     0.188 C 
BRANCH  36  37
ATOM     37  C   UNL A   1      45.734  23.888  28.071  1.00  0.00     0.188 C 
BRANCH  37  38
ATOM     38  O   UNL A   1      45.856  22.933  27.043  1.00  0.00    -0.376 OA
BRANCH  38  39
ATOM     39  C   UNL A   1      44.821  22.862  26.074  1.00  0.00     0.202 C 
BRANCH  39  40
ATOM     40  C   UNL A   1      44.885  23.588  24.710  1.00  0.00     0.261 C 
BRANCH  40  41
ATOM     41  O   UNL A   1      44.659  25.007  24.680  1.00  0.00    -0.460 OA
BRANCH  41  42
ATOM     42  C   UNL A   1      45.732  25.805  24.882  1.00  0.00     0.338 C 
ATOM     43  O   UNL A   1      46.819  25.724  24.338  1.00  0.00    -0.246 OA
BRANCH  42  44
ATOM     44  C   UNL A   1      45.331  26.937  25.746  1.00  0.00     0.060 A 
ATOM     45  C   UNL A   1      46.320  27.595  26.490  1.00  0.00     0.016 A 
ATOM     46  C   UNL A   1      43.992  27.320  25.862  1.00  0.00     0.016 A 
ATOM     47  C   UNL A   1      45.967  28.608  27.382  1.00  0.00     0.010 A 
ATOM     48  C   UNL A   1      43.639  28.328  26.770  1.00  0.00     0.010 A 
ATOM     49  C   UNL A   1      44.620  28.951  27.562  1.00  0.00    -0.014 A 
BRANCH  49  50
ATOM     50  C   UNL A   1      44.248  29.858  28.680  1.00  0.00     0.031 A 
ATOM     51  C   UNL A   1      43.993  29.279  30.046  1.00  0.00     0.074 A 
ATOM     52  C   UNL A   1      44.199  31.190  28.501  1.00  0.00     0.049 A 
ATOM     53  N   UNL A   1      43.707  29.890  31.169  1.00  0.00    -0.248 NA
ATOM     54  C   UNL A   1      44.072  27.815  30.163  1.00  0.00     0.031 C 
ATOM     55  C   UNL A   1      44.449  31.877  27.237  1.00  0.00     0.029 A 
ATOM     56  N   UNL A   1      43.931  32.203  29.389  1.00  0.00    -0.354 N 
ATOM     57  C   UNL A   1      43.569  28.887  32.120  1.00  0.00     0.074 A 
ATOM     58  C   UNL A   1      43.766  27.627  31.438  1.00  0.00     0.031 C 
ATOM     59  C   UNL A   1      44.328  33.201  27.430  1.00  0.00     0.029 A 
ATOM     60  C   UNL A   1      43.966  33.454  28.825  1.00  0.00     0.049 A 
ATOM     61  H   UNL A   1      43.732  32.047  30.340  1.00  0.00     0.167 HD
ATOM     62  C   UNL A   1      43.316  29.010  33.445  1.00  0.00     0.037 A 
ATOM     63  C   UNL A   1      43.727  34.664  29.367  1.00  0.00     0.037 A 
ATOM     64  C   UNL A   1      43.130  30.266  34.126  1.00  0.00     0.049 A 
ATOM     65  C   UNL A   1      43.406  34.774  30.833  1.00  0.00     0.074 A 
ATOM     66  C   UNL A   1      42.911  30.490  35.474  1.00  0.00     0.029 A 
ATOM     67  N   UNL A   1      43.132  31.510  33.510  1.00  0.00    -0.354 N 
ATOM     68  N   UNL A   1      43.314  33.824  31.734  1.00  0.00    -0.248 NA
ATOM     69  C   UNL A   1      43.164  36.123  31.363  1.00  0.00     0.031 C 
ATOM     70  C   UNL A   1      42.705  31.859  35.663  1.00  0.00     0.029 A 
ATOM     71  C   UNL A   1      42.875  32.501  34.446  1.00  0.00     0.049 A 
ATOM     72  H   UNL A   1      43.291  31.667  32.552  1.00  0.00     0.167 HD
ATOM     73  C   UNL A   1      43.024  34.459  32.935  1.00  0.00     0.074 A 
ATOM     74  C   UNL A   1      42.978  35.879  32.653  1.00  0.00     0.031 C 
ATOM     75  C   UNL A   1      42.813  33.913  34.159  1.00  0.00     0.037 A 
BRANCH  62  76
ATOM     76  C   UNL A   1      43.198  27.751  34.258  1.00  0.00     0.064 A 
ATOM     77  C   UNL A   1      44.351  27.119  34.752  1.00  0.00     0.173 A 
ATOM     78  C   UNL A   1      41.962  27.130  34.489  1.00  0.00     0.173 A 
ATOM     79  F   UNL A   1      45.559  27.668  34.557  1.00  0.00    -0.203 F 
ATOM     80  C   UNL A   1      44.270  25.905  35.428  1.00  0.00     0.198 A 
ATOM     81  C   UNL A   1      41.882  25.931  35.195  1.00  0.00     0.198 A 
ATOM     82  F   UNL A   1      40.827  27.697  34.051  1.00  0.00    -0.203 F 
ATOM     83  F   UNL A   1      45.389  25.301  35.854  1.00  0.00    -0.200 F 
ATOM     84  C   UNL A   1      43.037  25.314  35.653  1.00  0.00     0.200 A 
ATOM     85  F   UNL A   1      40.688  25.374  35.435  1.00  0.00    -0.200 F 
ATOM     86  F   UNL A   1      42.961  24.150  36.312  1.00  0.00    -0.200 F 
ENDBRANCH  62  76
BRANCH  63  87
ATOM     87  C   UNL A   1      43.795  35.872  28.501  1.00  0.00     0.064 A 
ATOM     88  C   UNL A   1      45.009  36.544  28.291  1.00  0.00     0.173 A 
ATOM     89  C   UNL A   1      42.646  36.401  27.897  1.00  0.00     0.173 A 
ATOM     90  F   UNL A   1      46.139  36.074  28.840  1.00  0.00    -0.203 F 
ATOM     91  C   UNL A   1      45.065  37.715  27.540  1.00  0.00     0.198 A 
ATOM     92  C   UNL A   1      42.708  37.556  27.120  1.00  0.00     0.198 A 
ATOM     93  F   UNL A   1      41.466  35.778  28.041  1.00  0.00    -0.203 F 
ATOM     94  F   UNL A   1      46.230  38.359  27.392  1.00  0.00    -0.200 F 
ATOM     95  C   UNL A   1      43.914  38.220  26.953  1.00  0.00     0.200 A 
ATOM     96  F   UNL A   1      41.600  38.024  26.528  1.00  0.00    -0.200 F 
ATOM     97  F   UNL A   1      43.969  39.342  26.224  1.00  0.00    -0.200 F 
ENDBRANCH  63  87
BRANCH  75  98
ATOM     98  C   UNL A   1      42.518  34.850  35.300  1.00  0.00     0.064 A 
ATOM     99  C   UNL A   1      43.563  35.414  36.049  1.00  0.00     0.173 A 
ATOM    100  C   UNL A   1      41.203  35.154  35.684  1.00  0.00     0.173 A 
ATOM    101  F   UNL A   1      44.840  35.149  35.737  1.00  0.00    -0.203 F 
ATOM    102  C   UNL A   1      43.303  36.240  37.140  1.00  0.00     0.198 A 
ATOM    103  C   UNL A   1      40.946  36.010  36.752  1.00  0.00     0.198 A 
ATOM    104  F   UNL A   1      40.165  34.649  34.999  1.00  0.00    -0.203 F 
ATOM    105  F   UNL A   1      44.318  36.738  37.860  1.00  0.00    -0.200 F 
ATOM    106  C   UNL A   1      41.995  36.547  37.484  1.00  0.00     0.200 A 
ATOM    107  F   UNL A   1      39.682  36.329  37.064  1.00  0.00    -0.200 F 
ATOM    108  F   UNL A   1      41.746  37.362  38.518  1.00  0.00    -0.200 F 
ENDBRANCH  75  98
ENDBRANCH  49  50
ENDBRANCH  42  44
ENDBRANCH  41  42
ENDBRANCH  40  41
ENDBRANCH  39  40
ENDBRANCH  38  39
ENDBRANCH  37  38
ENDBRANCH  36  37
ENDBRANCH   1  36
TORSDOF 23
ENDMDL
MODEL 2
REMARK VINA RESULT:      -7.8      4.129      7.890
REMARK SMILES O=C(CCN1C(=O)S/C(=C\c2ccccc2F)C1=O)Nc1ccc(C(=O)OCCOCCOCCOC(=O)c2ccc(-c3c4nc(c(-c5c(F)c(F)c(F)c(F)c5F)c5ccc([nH]5)c(-c5c(F)c(F)c(F)c(F)c5F)c5nc(c(-c6c(F)c(F)c(F)c(F)c6F)c6ccc3[nH]6)C=C5)C=C4)cc2)c(O)c1
REMARK SMILES IDX 30 1 29 2 28 3 27 4 25 5 26 6 24 7 21 8 22 9 104 10 23 11
REMARK SMILES IDX 102 12 20 13 1 14 2 15 3 17 4 18 5 19 6 20 18 21 7 22 8 23
REMARK SMILES IDX 9 24 19 25 10 26 11 27 12 28 16 29 13 30 15 31 17 32 14 33
REMARK SMILES IDX 103 34 31 36 32 37 33 38 34 39 35 40 36 41 37 42 38 43 39 44
REMARK SMILES IDX 40 45 101 46 41 47 100 48 42 49 43 50 44 51 94 52 45 53
REMARK SMILES IDX 99 54 93 55 95 56 46 57 98 58 92 59 91 60 47 62 79 63 59 64
REMARK SMILES IDX 78 65 60 66 63 67 77 68 96 69 61 70 62 71 76 73 97 74 64 75
REMARK SMILES IDX 48 76 49 77 57 78 50 79 51 80 55 81 58 82 52 83 53 84 56 85
REMARK SMILES IDX 54 86 80 87 81 88 89 89 82 90 83 91 87 92 90 93 84 94 85 95
REMARK SMILES IDX 88 96 86 97 65 98 66 99 74 100 67 101 68 102 72 103 75 104
REMARK SMILES IDX 69 105 70 106 73 107 71 108
REMARK H PARENT 20 16 103 35 95 61 63 72
REMARK Flexibility Score: inf
ROOT
ATOM      1  O   UNL A   1      50.895  29.846  25.345  1.00  0.00    -0.376 OA
ENDROOT
BRANCH   1   2
ATOM      2  C   UNL A   1      50.610  28.529  25.801  1.00  0.00     0.202 C 
BRANCH   2   3
ATOM      3  C   UNL A   1      50.703  27.315  24.857  1.00  0.00     0.261 C 
BRANCH   3   4
ATOM      4  O   UNL A   1      49.661  26.330  24.982  1.00  0.00    -0.460 OA
BRANCH   4   5
ATOM      5  C   UNL A   1      48.629  26.461  24.106  1.00  0.00     0.341 C 
ATOM      6  O   UNL A   1      48.628  26.149  22.928  1.00  0.00    -0.246 OA
BRANCH   5   7
ATOM      7  C   UNL A   1      47.399  26.840  24.841  1.00  0.00     0.101 A 
ATOM      8  C   UNL A   1      45.126  27.456  26.383  1.00  0.00     0.044 A 
ATOM      9  C   UNL A   1      46.000  26.447  26.791  1.00  0.00     0.027 A 
ATOM     10  C   UNL A   1      45.403  28.162  25.205  1.00  0.00     0.073 A 
ATOM     11  C   UNL A   1      47.113  26.122  26.010  1.00  0.00     0.022 A 
ATOM     12  C   UNL A   1      46.558  27.890  24.468  1.00  0.00     0.132 A 
BRANCH   8  13
ATOM     13  N   UNL A   1      43.936  27.768  27.073  1.00  0.00    -0.326 N 
ATOM     14  O   UNL A   1      44.402  26.963  29.186  1.00  0.00    -0.275 OA
ATOM     15  C   UNL A   1      43.599  27.383  28.353  1.00  0.00     0.226 C 
ATOM     16  H   UNL A   1      43.277  28.316  26.590  1.00  0.00     0.169 HD
BRANCH  15  17
ATOM     17  C   UNL A   1      42.112  27.405  28.685  1.00  0.00     0.122 C 
BRANCH  17  18
ATOM     18  C   UNL A   1      41.237  26.256  28.188  1.00  0.00     0.140 C 
BRANCH  18  19
ATOM     19  N   UNL A   1      41.881  25.274  27.320  1.00  0.00    -0.268 N 
ATOM     20  C   UNL A   1      41.998  25.446  25.967  1.00  0.00     0.293 C 
ATOM     21  C   UNL A   1      42.603  24.227  27.858  1.00  0.00     0.268 C 
ATOM     22  O   UNL A   1      41.664  26.423  25.310  1.00  0.00    -0.261 OA
ATOM     23  S   UNL A   1      42.705  24.024  25.243  1.00  0.00    -0.022 SA
ATOM     24  C   UNL A   1      43.163  23.379  26.772  1.00  0.00     0.083 C 
ATOM     25  O   UNL A   1      42.748  23.992  29.049  1.00  0.00    -0.268 OA
ATOM     26  C   UNL A   1      43.870  22.266  27.020  1.00  0.00     0.032 C 
BRANCH  26  27
ATOM     27  C   UNL A   1      44.360  21.339  25.992  1.00  0.00     0.012 A 
ATOM     28  C   UNL A   1      45.658  21.510  25.491  1.00  0.00     0.011 A 
ATOM     29  C   UNL A   1      43.597  20.264  25.518  1.00  0.00     0.130 A 
ATOM     30  C   UNL A   1      46.192  20.590  24.585  1.00  0.00     0.001 A 
ATOM     31  C   UNL A   1      44.130  19.336  24.629  1.00  0.00     0.040 A 
ATOM     32  F   UNL A   1      42.329  20.101  25.928  1.00  0.00    -0.206 F 
ATOM     33  C   UNL A   1      45.436  19.493  24.169  1.00  0.00     0.003 A 
ENDBRANCH  26  27
ENDBRANCH  18  19
ENDBRANCH  17  18
ENDBRANCH  15  17
ENDBRANCH   8  13
BRANCH  12  34
ATOM     34  O   UNL A   1      46.818  28.722  23.414  1.00  0.00    -0.507 OA
ATOM     35  H   UNL A   1      46.136  29.259  23.062  1.00  0.00     0.293 HD
ENDBRANCH  12  34
ENDBRANCH   5   7
ENDBRANCH   4   5
ENDBRANCH   3   4
ENDBRANCH   2   3
ENDBRANCH   1   2
BRANCH   1  36
ATOM     36  C   UNL A   1      51.665  30.732  26.147  1.00  0.00     0.188 C 
BRANCH  36  37
ATOM     37  C   UNL A   1      53.181  30.500  26.318  1.00  0.00     0.188 C 
BRANCH  37  38
ATOM     38  O   UNL A   1      53.799  29.953  25.176  1.00  0.00    -0.376 OA
BRANCH  38  39
ATOM     39  C   UNL A   1      54.628  28.814  25.350  1.00  0.00     0.202 C 
BRANCH  39  40
ATOM     40  C   UNL A   1      54.161  27.525  26.065  1.00  0.00     0.261 C 
BRANCH  40  41
ATOM     41  O   UNL A   1      53.864  27.593  27.470  1.00  0.00    -0.460 OA
BRANCH  41  42
ATOM     42  C   UNL A   1      53.479  26.445  28.073  1.00  0.00     0.338 C 
ATOM     43  O   UNL A   1      54.141  25.433  28.215  1.00  0.00    -0.246 OA
BRANCH  42  44
ATOM     44  C   UNL A   1      52.165  26.662  28.718  1.00  0.00     0.060 A 
ATOM     45  C   UNL A   1      51.057  25.952  28.237  1.00  0.00     0.016 A 
ATOM     46  C   UNL A   1      52.012  27.586  29.755  1.00  0.00     0.016 A 
ATOM     47  C   UNL A   1      49.787  26.197  28.761  1.00  0.00     0.010 A 
ATOM     48  C   UNL A   1      50.733  27.840  30.270  1.00  0.00     0.010 A 
ATOM     49  C   UNL A   1      49.609  27.174  29.749  1.00  0.00    -0.014 A 
BRANCH  49  50
ATOM     50  C   UNL A   1      48.228  27.582  30.121  1.00  0.00     0.031 A 
ATOM     51  C   UNL A   1      47.508  26.841  31.215  1.00  0.00     0.074 A 
ATOM     52  C   UNL A   1      47.641  28.642  29.536  1.00  0.00     0.049 A 
ATOM     53  N   UNL A   1      46.324  27.061  31.730  1.00  0.00    -0.248 NA
ATOM     54  C   UNL A   1      48.218  25.699  31.810  1.00  0.00     0.031 C 
ATOM     55  C   UNL A   1      48.240  29.457  28.482  1.00  0.00     0.029 A 
ATOM     56  N   UNL A   1      46.413  29.218  29.753  1.00  0.00    -0.354 N 
ATOM     57  C   UNL A   1      46.148  26.087  32.704  1.00  0.00     0.074 A 
ATOM     58  C   UNL A   1      47.329  25.251  32.684  1.00  0.00     0.031 C 
ATOM     59  C   UNL A   1      47.380  30.434  28.147  1.00  0.00     0.029 A 
ATOM     60  C   UNL A   1      46.160  30.297  28.943  1.00  0.00     0.049 A 
ATOM     61  H   UNL A   1      45.775  28.887  30.425  1.00  0.00     0.167 HD
ATOM     62  C   UNL A   1      45.102  25.915  33.547  1.00  0.00     0.037 A 
ATOM     63  C   UNL A   1      45.068  31.080  28.847  1.00  0.00     0.037 A 
ATOM     64  C   UNL A   1      43.931  26.754  33.573  1.00  0.00     0.049 A 
ATOM     65  C   UNL A   1      43.899  30.845  29.766  1.00  0.00     0.074 A 
ATOM     66  C   UNL A   1      42.840  26.681  34.421  1.00  0.00     0.029 A 
ATOM     67  N   UNL A   1      43.694  27.813  32.708  1.00  0.00    -0.354 N 
ATOM     68  N   UNL A   1      43.755  29.945  30.709  1.00  0.00    -0.248 NA
ATOM     69  C   UNL A   1      42.743  31.741  29.616  1.00  0.00     0.031 C 
ATOM     70  C   UNL A   1      41.909  27.644  34.021  1.00  0.00     0.029 A 
ATOM     71  C   UNL A   1      42.453  28.373  32.975  1.00  0.00     0.049 A 
ATOM     72  H   UNL A   1      44.313  28.120  32.007  1.00  0.00     0.167 HD
ATOM     73  C   UNL A   1      42.508  30.175  31.274  1.00  0.00     0.074 A 
ATOM     74  C   UNL A   1      41.943  31.316  30.585  1.00  0.00     0.031 C 
ATOM     75  C   UNL A   1      41.887  29.499  32.274  1.00  0.00     0.037 A 
BRANCH  62  76
ATOM     76  C   UNL A   1      45.154  24.758  34.506  1.00  0.00     0.064 A 
ATOM     77  C   UNL A   1      45.680  24.933  35.796  1.00  0.00     0.173 A 
ATOM     78  C   UNL A   1      44.755  23.466  34.132  1.00  0.00     0.173 A 
ATOM     79  F   UNL A   1      46.080  26.147  36.204  1.00  0.00    -0.203 F 
ATOM     80  C   UNL A   1      45.822  23.856  36.666  1.00  0.00     0.198 A 
ATOM     81  C   UNL A   1      44.867  22.396  35.018  1.00  0.00     0.198 A 
ATOM     82  F   UNL A   1      44.233  23.244  32.916  1.00  0.00    -0.203 F 
ATOM     83  F   UNL A   1      46.364  24.042  37.878  1.00  0.00    -0.200 F 
ATOM     84  C   UNL A   1      45.412  22.590  36.279  1.00  0.00     0.200 A 
ATOM     85  F   UNL A   1      44.446  21.178  34.652  1.00  0.00    -0.200 F 
ATOM     86  F   UNL A   1      45.540  21.556  37.121  1.00  0.00    -0.200 F 
ENDBRANCH  62  76
BRANCH  63  87
ATOM     87  C   UNL A   1      45.045  32.172  27.836  1.00  0.00     0.064 A 
ATOM     88  C   UNL A   1      45.707  33.387  28.070  1.00  0.00     0.173 A 
ATOM     89  C   UNL A   1      44.335  32.038  26.636  1.00  0.00     0.173 A 
ATOM     90  F   UNL A   1      46.409  33.563  29.199  1.00  0.00    -0.203 F 
ATOM     91  C   UNL A   1      45.630  34.437  27.158  1.00  0.00     0.198 A 
ATOM     92  C   UNL A   1      44.283  33.079  25.710  1.00  0.00     0.198 A 
ATOM     93  F   UNL A   1      43.711  30.884  26.352  1.00  0.00    -0.203 F 
ATOM     94  F   UNL A   1      46.236  35.601  27.427  1.00  0.00    -0.200 F 
ATOM     95  C   UNL A   1      44.919  34.281  25.978  1.00  0.00     0.200 A 
ATOM     96  F   UNL A   1      43.621  32.914  24.556  1.00  0.00    -0.200 F 
ATOM     97  F   UNL A   1      44.851  35.289  25.097  1.00  0.00    -0.200 F 
ENDBRANCH  63  87
BRANCH  75  98
ATOM     98  C   UNL A   1      40.523  29.975  32.696  1.00  0.00     0.064 A 
ATOM     99  C   UNL A   1      39.364  29.383  32.166  1.00  0.00     0.173 A 
ATOM    100  C   UNL A   1      40.358  31.047  33.586  1.00  0.00     0.173 A 
ATOM    101  F   UNL A   1      39.459  28.364  31.300  1.00  0.00    -0.203 F 
ATOM    102  C   UNL A   1      38.097  29.850  32.507  1.00  0.00     0.198 A 
ATOM    103  C   UNL A   1      39.089  31.486  33.955  1.00  0.00     0.198 A 
ATOM    104  F   UNL A   1      41.430  31.645  34.129  1.00  0.00    -0.203 F 
ATOM    105  F   UNL A   1      37.008  29.291  31.961  1.00  0.00    -0.200 F 
ATOM    106  C   UNL A   1      37.959  30.893  33.409  1.00  0.00     0.200 A 
ATOM    107  F   UNL A   1      38.958  32.475  34.850  1.00  0.00    -0.200 F 
ATOM    108  F   UNL A   1      36.739  31.325  33.757  1.00  0.00    -0.200 F 
ENDBRANCH  75  98
ENDBRANCH  49  50
ENDBRANCH  42  44
ENDBRANCH  41  42
ENDBRANCH  40  41
ENDBRANCH  39  40
ENDBRANCH  38  39
ENDBRANCH  37  38
ENDBRANCH  36  37
ENDBRANCH   1  36
TORSDOF 23
ENDMDL
MODEL 3
REMARK VINA RESULT:      -7.7      5.432      9.914
REMARK SMILES O=C(CCN1C(=O)S/C(=C\c2ccccc2F)C1=O)Nc1ccc(C(=O)OCCOCCOCCOC(=O)c2ccc(-c3c4nc(c(-c5c(F)c(F)c(F)c(F)c5F)c5ccc([nH]5)c(-c5c(F)c(F)c(F)c(F)c5F)c5nc(c(-c6c(F)c(F)c(F)c(F)c6F)c6ccc3[nH]6)C=C5)C=C4)cc2)c(O)c1
REMARK SMILES IDX 30 1 29 2 28 3 27 4 25 5 26 6 24 7 21 8 22 9 104 10 23 11
REMARK SMILES IDX 102 12 20 13 1 14 2 15 3 17 4 18 5 19 6 20 18 21 7 22 8 23
REMARK SMILES IDX 9 24 19 25 10 26 11 27 12 28 16 29 13 30 15 31 17 32 14 33
REMARK SMILES IDX 103 34 31 36 32 37 33 38 34 39 35 40 36 41 37 42 38 43 39 44
REMARK SMILES IDX 40 45 101 46 41 47 100 48 42 49 43 50 44 51 94 52 45 53
REMARK SMILES IDX 99 54 93 55 95 56 46 57 98 58 92 59 91 60 47 62 79 63 59 64
REMARK SMILES IDX 78 65 60 66 63 67 77 68 96 69 61 70 62 71 76 73 97 74 64 75
REMARK SMILES IDX 48 76 49 77 57 78 50 79 51 80 55 81 58 82 52 83 53 84 56 85
REMARK SMILES IDX 54 86 80 87 81 88 89 89 82 90 83 91 87 92 90 93 84 94 85 95
REMARK SMILES IDX 88 96 86 97 65 98 66 99 74 100 67 101 68 102 72 103 75 104
REMARK SMILES IDX 69 105 70 106 73 107 71 108
REMARK H PARENT 20 16 103 35 95 61 63 72
REMARK Flexibility Score: inf
ROOT
ATOM      1  O   UNL A   1      41.276  25.459  27.863  1.00  0.00    -0.376 OA
ENDROOT
BRANCH   1   2
ATOM      2  C   UNL A   1      41.425  24.067  28.112  1.00  0.00     0.202 C 
BRANCH   2   3
ATOM      3  C   UNL A   1      41.664  23.067  26.963  1.00  0.00     0.261 C 
BRANCH   3   4
ATOM      4  O   UNL A   1      40.539  22.804  26.105  1.00  0.00    -0.460 OA
BRANCH   4   5
ATOM      5  C   UNL A   1      39.961  21.583  26.262  1.00  0.00     0.341 C 
ATOM      6  O   UNL A   1      40.459  20.602  26.786  1.00  0.00    -0.246 OA
BRANCH   5   7
ATOM      7  C   UNL A   1      38.527  21.662  25.898  1.00  0.00     0.101 A 
ATOM      8  C   UNL A   1      35.807  21.627  25.173  1.00  0.00     0.044 A 
ATOM      9  C   UNL A   1      36.618  20.520  24.914  1.00  0.00     0.027 A 
ATOM     10  C   UNL A   1      36.362  22.745  25.806  1.00  0.00     0.073 A 
ATOM     11  C   UNL A   1      37.976  20.550  25.249  1.00  0.00     0.022 A 
ATOM     12  C   UNL A   1      37.700  22.743  26.211  1.00  0.00     0.132 A 
BRANCH   8  13
ATOM     13  N   UNL A   1      34.456  21.698  24.775  1.00  0.00    -0.326 N 
ATOM     14  O   UNL A   1      33.966  19.474  24.395  1.00  0.00    -0.275 OA
ATOM     15  C   UNL A   1      33.684  20.667  24.284  1.00  0.00     0.226 C 
ATOM     16  H   UNL A   1      34.019  22.576  24.854  1.00  0.00     0.169 HD
BRANCH  15  17
ATOM     17  C   UNL A   1      32.460  21.078  23.476  1.00  0.00     0.122 C 
BRANCH  17  18
ATOM     18  C   UNL A   1      32.572  22.286  22.546  1.00  0.00     0.140 C 
BRANCH  18  19
ATOM     19  N   UNL A   1      32.650  23.597  23.185  1.00  0.00    -0.268 N 
ATOM     20  C   UNL A   1      33.810  24.322  23.247  1.00  0.00     0.293 C 
ATOM     21  C   UNL A   1      31.501  24.266  23.559  1.00  0.00     0.268 C 
ATOM     22  O   UNL A   1      34.890  24.040  22.748  1.00  0.00    -0.261 OA
ATOM     23  S   UNL A   1      33.558  25.771  24.186  1.00  0.00    -0.022 SA
ATOM     24  C   UNL A   1      31.848  25.575  24.175  1.00  0.00     0.083 C 
ATOM     25  O   UNL A   1      30.358  23.850  23.443  1.00  0.00    -0.268 OA
ATOM     26  C   UNL A   1      30.919  26.406  24.669  1.00  0.00     0.032 C 
BRANCH  26  27
ATOM     27  C   UNL A   1      31.208  27.661  25.376  1.00  0.00     0.012 A 
ATOM     28  C   UNL A   1      31.493  27.615  26.746  1.00  0.00     0.011 A 
ATOM     29  C   UNL A   1      31.246  28.901  24.726  1.00  0.00     0.130 A 
ATOM     30  C   UNL A   1      31.868  28.775  27.429  1.00  0.00     0.001 A 
ATOM     31  C   UNL A   1      31.635  30.056  25.396  1.00  0.00     0.040 A 
ATOM     32  F   UNL A   1      30.921  28.995  23.427  1.00  0.00    -0.206 F 
ATOM     33  C   UNL A   1      31.958  29.992  26.751  1.00  0.00     0.003 A 
ENDBRANCH  26  27
ENDBRANCH  18  19
ENDBRANCH  17  18
ENDBRANCH  15  17
ENDBRANCH   8  13
BRANCH  12  34
ATOM     34  O   UNL A   1      38.116  23.818  26.947  1.00  0.00    -0.507 OA
ATOM     35  H   UNL A   1      38.197  24.659  26.542  1.00  0.00     0.293 HD
ENDBRANCH  12  34
ENDBRANCH   5   7
ENDBRANCH   4   5
ENDBRANCH   3   4
ENDBRANCH   2   3
ENDBRANCH   1   2
BRANCH   1  36
ATOM     36  C   UNL A   1      40.106  26.143  28.292  1.00  0.00     0.188 C 
BRANCH  36  37
ATOM     37  C   UNL A   1      39.918  27.638  27.960  1.00  0.00     0.188 C 
BRANCH  37  38
ATOM     38  O   UNL A   1      39.178  28.342  28.930  1.00  0.00    -0.376 OA
BRANCH  38  39
ATOM     39  C   UNL A   1      38.062  29.103  28.494  1.00  0.00     0.202 C 
BRANCH  39  40
ATOM     40  C   UNL A   1      37.003  29.685  29.458  1.00  0.00     0.261 C 
BRANCH  40  41
ATOM     41  O   UNL A   1      36.763  29.004  30.701  1.00  0.00    -0.460 OA
BRANCH  41  42
ATOM     42  C   UNL A   1      37.100  29.658  31.836  1.00  0.00     0.338 C 
ATOM     43  O   UNL A   1      36.383  30.375  32.510  1.00  0.00    -0.246 OA
BRANCH  42  44
ATOM     44  C   UNL A   1      38.450  29.220  32.257  1.00  0.00     0.060 A 
ATOM     45  C   UNL A   1      39.477  30.171  32.306  1.00  0.00     0.016 A 
ATOM     46  C   UNL A   1      38.716  27.881  32.555  1.00  0.00     0.016 A 
ATOM     47  C   UNL A   1      40.781  29.779  32.612  1.00  0.00     0.010 A 
ATOM     48  C   UNL A   1      40.029  27.487  32.847  1.00  0.00     0.010 A 
ATOM     49  C   UNL A   1      41.075  28.428  32.841  1.00  0.00    -0.014 A 
BRANCH  49  50
ATOM     50  C   UNL A   1      42.497  28.003  32.928  1.00  0.00     0.031 A 
ATOM     51  C   UNL A   1      43.143  27.861  34.280  1.00  0.00     0.074 A 
ATOM     52  C   UNL A   1      43.191  27.683  31.821  1.00  0.00     0.049 A 
ATOM     53  N   UNL A   1      44.351  27.457  34.588  1.00  0.00    -0.248 NA
ATOM     54  C   UNL A   1      42.317  28.222  35.442  1.00  0.00     0.031 C 
ATOM     55  C   UNL A   1      42.675  27.754  30.457  1.00  0.00     0.029 A 
ATOM     56  N   UNL A   1      44.479  27.228  31.672  1.00  0.00    -0.354 N 
ATOM     57  C   UNL A   1      44.428  27.518  35.973  1.00  0.00     0.074 A 
ATOM     58  C   UNL A   1      43.162  28.033  36.445  1.00  0.00     0.031 C 
ATOM     59  C   UNL A   1      43.634  27.350  29.607  1.00  0.00     0.029 A 
ATOM     60  C   UNL A   1      44.841  27.018  30.365  1.00  0.00     0.049 A 
ATOM     61  H   UNL A   1      45.084  27.067  32.432  1.00  0.00     0.167 HD
ATOM     62  C   UNL A   1      45.459  27.163  36.777  1.00  0.00     0.037 A 
ATOM     63  C   UNL A   1      46.012  26.612  29.837  1.00  0.00     0.037 A 
ATOM     64  C   UNL A   1      46.716  26.641  36.306  1.00  0.00     0.049 A 
ATOM     65  C   UNL A   1      47.159  26.262  30.748  1.00  0.00     0.074 A 
ATOM     66  C   UNL A   1      47.804  26.215  37.049  1.00  0.00     0.029 A 
ATOM     67  N   UNL A   1      47.060  26.482  34.971  1.00  0.00    -0.354 N 
ATOM     68  N   UNL A   1      47.213  26.288  32.059  1.00  0.00    -0.248 NA
ATOM     69  C   UNL A   1      48.405  25.818  30.109  1.00  0.00     0.031 C 
ATOM     70  C   UNL A   1      48.831  25.871  36.167  1.00  0.00     0.029 A 
ATOM     71  C   UNL A   1      48.359  26.005  34.870  1.00  0.00     0.049 A 
ATOM     72  H   UNL A   1      46.471  26.681  34.208  1.00  0.00     0.167 HD
ATOM     73  C   UNL A   1      48.485  25.848  32.400  1.00  0.00     0.074 A 
ATOM     74  C   UNL A   1      49.165  25.539  31.160  1.00  0.00     0.031 C 
ATOM     75  C   UNL A   1      49.039  25.715  33.632  1.00  0.00     0.037 A 
BRANCH  62  76
ATOM     76  C   UNL A   1      45.291  27.347  38.259  1.00  0.00     0.064 A 
ATOM     77  C   UNL A   1      45.711  28.536  38.876  1.00  0.00     0.173 A 
ATOM     78  C   UNL A   1      44.785  26.328  39.081  1.00  0.00     0.173 A 
ATOM     79  F   UNL A   1      46.205  29.542  38.139  1.00  0.00    -0.203 F 
ATOM     80  C   UNL A   1      45.649  28.690  40.258  1.00  0.00     0.198 A 
ATOM     81  C   UNL A   1      44.693  26.498  40.461  1.00  0.00     0.198 A 
ATOM     82  F   UNL A   1      44.357  25.175  38.543  1.00  0.00    -0.203 F 
ATOM     83  F   UNL A   1      46.094  29.820  40.826  1.00  0.00    -0.200 F 
ATOM     84  C   UNL A   1      45.137  27.673  41.049  1.00  0.00     0.200 A 
ATOM     85  F   UNL A   1      44.174  25.525  41.222  1.00  0.00    -0.200 F 
ATOM     86  F   UNL A   1      45.068  27.827  42.378  1.00  0.00    -0.200 F 
ENDBRANCH  62  76
BRANCH  63  87
ATOM     87  C   UNL A   1      46.144  26.509  28.359  1.00  0.00     0.064 A 
ATOM     88  C   UNL A   1      45.954  25.285  27.700  1.00  0.00     0.173 A 
ATOM     89  C   UNL A   1      46.498  27.619  27.580  1.00  0.00     0.173 A 
ATOM     90  F   UNL A   1      45.606  24.194  28.398  1.00  0.00    -0.203 F 
ATOM     91  C   UNL A   1      46.146  25.168  26.325  1.00  0.00     0.198 A 
ATOM     92  C   UNL A   1      46.660  27.508  26.200  1.00  0.00     0.198 A 
ATOM     93  F   UNL A   1      46.660  28.819  28.159  1.00  0.00    -0.203 F 
ATOM     94  F   UNL A   1      45.999  23.977  25.729  1.00  0.00    -0.200 F 
ATOM     95  C   UNL A   1      46.497  26.281  25.576  1.00  0.00     0.200 A 
ATOM     96  F   UNL A   1      46.969  28.592  25.474  1.00  0.00    -0.200 F 
ATOM     97  F   UNL A   1      46.674  26.170  24.253  1.00  0.00    -0.200 F 
ENDBRANCH  63  87
BRANCH  75  98
ATOM     98  C   UNL A   1      50.452  25.205  33.710  1.00  0.00     0.064 A 
ATOM     99  C   UNL A   1      51.537  26.097  33.686  1.00  0.00     0.173 A 
ATOM    100  C   UNL A   1      50.740  23.832  33.760  1.00  0.00     0.173 A 
ATOM    101  F   UNL A   1      51.324  27.420  33.625  1.00  0.00    -0.203 F 
ATOM    102  C   UNL A   1      52.851  25.635  33.703  1.00  0.00     0.198 A 
ATOM    103  C   UNL A   1      52.054  23.375  33.816  1.00  0.00     0.198 A 
ATOM    104  F   UNL A   1      49.744  22.934  33.793  1.00  0.00    -0.203 F 
ATOM    105  F   UNL A   1      53.867  26.507  33.644  1.00  0.00    -0.200 F 
ATOM    106  C   UNL A   1      53.109  24.276  33.779  1.00  0.00     0.200 A 
ATOM    107  F   UNL A   1      52.301  22.061  33.919  1.00  0.00    -0.200 F 
ATOM    108  F   UNL A   1      54.373  23.833  33.822  1.00  0.00    -0.200 F 
ENDBRANCH  75  98
ENDBRANCH  49  50
ENDBRANCH  42  44
ENDBRANCH  41  42
ENDBRANCH  40  41
ENDBRANCH  39  40
ENDBRANCH  38  39
ENDBRANCH  37  38
ENDBRANCH  36  37
ENDBRANCH   1  36
TORSDOF 23
ENDMDL
