MODEL 1
REMARK VINA RESULT:     -10.9      0.000      0.000
REMARK SMILES CC(C)N(c1cc2c(cc1Cl)C=C(C(=O)OCCOCCOCCOC(=O)c1ccc(-c3c4nc(c(-c5c(F)c(F)c(F)c(F)c5F)c5ccc([nH]5)c(-c5c(F)c(F)c(F)c(F)c5F)c5nc(c(-c6c(F)c(F)c(F)c(F)c6F)c6ccc3[nH]6)C=C5)C=C4)cc1)[C@@H](C(F)(F)F)O2)C(C)C
REMARK SMILES IDX 20 1 19 2 18 3 17 4 16 5 14 6 15 7 13 8 5 9 6 10 10 11 7 12
REMARK SMILES IDX 9 13 11 14 8 15 96 16 12 17 91 18 4 19 2 20 1 21 3 22 97 23
REMARK SMILES IDX 98 24 99 25 92 26 93 27 94 28 95 29 21 30 22 31 23 32 24 33
REMARK SMILES IDX 25 34 26 35 27 36 28 37 29 38 90 39 30 40 89 41 31 42 32 43
REMARK SMILES IDX 33 44 83 45 34 46 88 47 82 48 84 49 35 50 87 51 81 52 80 53
REMARK SMILES IDX 36 55 68 56 48 57 67 58 49 59 52 60 66 61 85 62 50 63 51 64
REMARK SMILES IDX 65 66 86 67 53 68 37 69 38 70 46 71 39 72 40 73 44 74 47 75
REMARK SMILES IDX 41 76 42 77 45 78 43 79 69 80 70 81 78 82 71 83 72 84 76 85
REMARK SMILES IDX 79 86 73 87 74 88 77 89 75 90 54 91 55 92 63 93 56 94 57 95
REMARK SMILES IDX 61 96 64 97 58 98 59 99 62 100 60 101
REMARK H PARENT 84 54 52 65
REMARK Flexibility Score: inf
ROOT
ATOM      1  C   UNL A   1      34.797  32.088  27.673  1.00  0.00     0.188 C 
ENDROOT
BRANCH   1   2
ATOM      2  O   UNL A   1      35.105  30.715  27.545  1.00  0.00    -0.376 OA
BRANCH   2   3
ATOM      3  C   UNL A   1      34.099  29.759  27.254  1.00  0.00     0.202 C 
BRANCH   3   4
ATOM      4  C   UNL A   1      32.637  30.163  27.052  1.00  0.00     0.261 C 
BRANCH   4   5
ATOM      5  O   UNL A   1      31.754  29.065  26.790  1.00  0.00    -0.460 OA
BRANCH   5   6
ATOM      6  C   UNL A   1      31.420  28.908  25.488  1.00  0.00     0.338 C 
ATOM      7  O   UNL A   1      31.032  29.775  24.723  1.00  0.00    -0.246 OA
BRANCH   6   8
ATOM      8  C   UNL A   1      31.735  27.537  25.050  1.00  0.00     0.087 C 
ATOM      9  C   UNL A   1      33.336  22.749  25.058  1.00  0.00     0.060 A 
ATOM     10  C   UNL A   1      33.085  23.725  24.063  1.00  0.00     0.074 A 
ATOM     11  C   UNL A   1      32.905  23.066  26.367  1.00  0.00     0.065 A 
ATOM     12  C   UNL A   1      32.538  24.979  24.363  1.00  0.00     0.130 A 
ATOM     13  C   UNL A   1      32.317  24.306  26.658  1.00  0.00     0.034 A 
ATOM     14  Cl  UNL A   1      33.161  22.055  27.750  1.00  0.00    -0.082 Cl
ATOM     15  C   UNL A   1      32.176  25.275  25.669  1.00  0.00     0.019 A 
ATOM     16  O   UNL A   1      32.421  25.863  23.326  1.00  0.00    -0.475 OA
ATOM     17  C   UNL A   1      31.742  26.613  26.018  1.00  0.00     0.027 C 
ATOM     18  C   UNL A   1      32.059  27.248  23.609  1.00  0.00     0.316 C 
BRANCH   9  19
ATOM     19  N   UNL A   1      34.045  21.581  24.700  1.00  0.00    -0.365 N 
BRANCH  19  20
ATOM     20  C   UNL A   1      35.514  21.665  24.523  1.00  0.00     0.076 C 
ATOM     21  C   UNL A   1      35.931  22.748  23.528  1.00  0.00     0.030 C 
ATOM     22  C   UNL A   1      36.282  21.832  25.835  1.00  0.00     0.030 C 
ENDBRANCH  19  20
BRANCH  19  23
ATOM     23  C   UNL A   1      33.221  20.361  24.504  1.00  0.00     0.076 C 
ATOM     24  C   UNL A   1      32.388  20.398  23.226  1.00  0.00     0.030 C 
ATOM     25  C   UNL A   1      34.020  19.067  24.616  1.00  0.00     0.030 C 
ENDBRANCH  19  23
ENDBRANCH   9  19
BRANCH  18  26
ATOM     26  C   UNL A   1      33.163  28.169  23.067  1.00  0.00     0.430 C 
ATOM     27  F   UNL A   1      32.642  29.261  22.459  1.00  0.00    -0.167 F 
ATOM     28  F   UNL A   1      33.966  28.625  24.058  1.00  0.00    -0.167 F 
ATOM     29  F   UNL A   1      33.953  27.540  22.168  1.00  0.00    -0.167 F 
ENDBRANCH  18  26
ENDBRANCH   6   8
ENDBRANCH   5   6
ENDBRANCH   4   5
ENDBRANCH   3   4
ENDBRANCH   2   3
ENDBRANCH   1   2
BRANCH   1  30
ATOM     30  C   UNL A   1      35.712  33.051  28.461  1.00  0.00     0.188 C 
BRANCH  30  31
ATOM     31  O   UNL A   1      35.233  34.294  28.934  1.00  0.00    -0.376 OA
BRANCH  31  32
ATOM     32  C   UNL A   1      34.004  34.808  28.443  1.00  0.00     0.202 C 
BRANCH  32  33
ATOM     33  C   UNL A   1      33.137  35.727  29.307  1.00  0.00     0.261 C 
BRANCH  33  34
ATOM     34  O   UNL A   1      32.529  35.066  30.426  1.00  0.00    -0.460 OA
BRANCH  34  35
ATOM     35  C   UNL A   1      32.796  35.614  31.637  1.00  0.00     0.338 C 
ATOM     36  O   UNL A   1      32.127  36.432  32.248  1.00  0.00    -0.246 OA
BRANCH  35  37
ATOM     37  C   UNL A   1      33.951  34.916  32.231  1.00  0.00     0.060 A 
ATOM     38  C   UNL A   1      33.805  33.656  32.811  1.00  0.00     0.016 A 
ATOM     39  C   UNL A   1      35.203  35.544  32.189  1.00  0.00     0.016 A 
ATOM     40  C   UNL A   1      34.929  33.009  33.327  1.00  0.00     0.010 A 
ATOM     41  C   UNL A   1      36.322  34.904  32.720  1.00  0.00     0.010 A 
ATOM     42  C   UNL A   1      36.195  33.620  33.271  1.00  0.00    -0.014 A 
BRANCH  42  43
ATOM     43  C   UNL A   1      37.402  32.841  33.633  1.00  0.00     0.031 A 
ATOM     44  C   UNL A   1      37.969  31.792  32.731  1.00  0.00     0.074 A 
ATOM     45  C   UNL A   1      37.989  33.106  34.816  1.00  0.00     0.049 A 
ATOM     46  N   UNL A   1      39.076  31.105  32.866  1.00  0.00    -0.248 NA
ATOM     47  C   UNL A   1      37.197  31.461  31.524  1.00  0.00     0.031 C 
ATOM     48  C   UNL A   1      37.498  34.081  35.791  1.00  0.00     0.029 A 
ATOM     49  N   UNL A   1      39.120  32.593  35.393  1.00  0.00    -0.354 N 
ATOM     50  C   UNL A   1      39.153  30.283  31.752  1.00  0.00     0.074 A 
ATOM     51  C   UNL A   1      37.953  30.518  30.973  1.00  0.00     0.031 C 
ATOM     52  C   UNL A   1      38.338  34.114  36.836  1.00  0.00     0.029 A 
ATOM     53  C   UNL A   1      39.416  33.155  36.611  1.00  0.00     0.049 A 
ATOM     54  H   UNL A   1      39.670  31.891  34.976  1.00  0.00     0.167 HD
ATOM     55  C   UNL A   1      40.148  29.431  31.407  1.00  0.00     0.037 A 
ATOM     56  C   UNL A   1      40.445  32.931  37.449  1.00  0.00     0.037 A 
ATOM     57  C   UNL A   1      41.332  29.194  32.196  1.00  0.00     0.049 A 
ATOM     58  C   UNL A   1      41.513  31.950  37.056  1.00  0.00     0.074 A 
ATOM     59  C   UNL A   1      42.417  28.386  31.900  1.00  0.00     0.029 A 
ATOM     60  N   UNL A   1      41.581  29.751  33.443  1.00  0.00    -0.354 N 
ATOM     61  N   UNL A   1      41.625  31.248  35.956  1.00  0.00    -0.248 NA
ATOM     62  C   UNL A   1      42.604  31.738  38.018  1.00  0.00     0.031 C 
ATOM     63  C   UNL A   1      43.295  28.411  32.988  1.00  0.00     0.029 A 
ATOM     64  C   UNL A   1      42.786  29.278  33.941  1.00  0.00     0.049 A 
ATOM     65  H   UNL A   1      40.990  30.388  33.904  1.00  0.00     0.167 HD
ATOM     66  C   UNL A   1      42.804  30.526  36.081  1.00  0.00     0.074 A 
ATOM     67  C   UNL A   1      43.382  30.891  37.359  1.00  0.00     0.031 C 
ATOM     68  C   UNL A   1      43.353  29.641  35.215  1.00  0.00     0.037 A 
BRANCH  55  69
ATOM     69  C   UNL A   1      40.028  28.694  30.105  1.00  0.00     0.064 A 
ATOM     70  C   UNL A   1      40.568  29.220  28.921  1.00  0.00     0.173 A 
ATOM     71  C   UNL A   1      39.475  27.406  30.058  1.00  0.00     0.173 A 
ATOM     72  F   UNL A   1      41.108  30.448  28.914  1.00  0.00    -0.203 F 
ATOM     73  C   UNL A   1      40.552  28.486  27.738  1.00  0.00     0.198 A 
ATOM     74  C   UNL A   1      39.482  26.666  28.879  1.00  0.00     0.198 A 
ATOM     75  F   UNL A   1      38.957  26.852  31.165  1.00  0.00    -0.203 F 
ATOM     76  F   UNL A   1      41.061  29.015  26.617  1.00  0.00    -0.200 F 
ATOM     77  C   UNL A   1      40.020  27.205  27.720  1.00  0.00     0.200 A 
ATOM     78  F   UNL A   1      38.985  25.421  28.867  1.00  0.00    -0.200 F 
ATOM     79  F   UNL A   1      40.029  26.490  26.587  1.00  0.00    -0.200 F 
ENDBRANCH  55  69
BRANCH  56  80
ATOM     80  C   UNL A   1      40.530  33.691  38.720  1.00  0.00     0.064 A 
ATOM     81  C   UNL A   1      41.341  34.828  38.824  1.00  0.00     0.173 A 
ATOM     82  C   UNL A   1      39.781  33.315  39.845  1.00  0.00     0.173 A 
ATOM     83  F   UNL A   1      42.087  35.217  37.779  1.00  0.00    -0.203 F 
ATOM     84  C   UNL A   1      41.410  35.555  40.011  1.00  0.00     0.198 A 
ATOM     85  C   UNL A   1      39.830  34.058  41.022  1.00  0.00     0.198 A 
ATOM     86  F   UNL A   1      38.985  32.238  39.792  1.00  0.00    -0.203 F 
ATOM     87  F   UNL A   1      42.219  36.620  40.094  1.00  0.00    -0.200 F 
ATOM     88  C   UNL A   1      40.649  35.175  41.104  1.00  0.00     0.200 A 
ATOM     89  F   UNL A   1      39.081  33.697  42.072  1.00  0.00    -0.200 F 
ATOM     90  F   UNL A   1      40.706  35.881  42.241  1.00  0.00    -0.200 F 
ENDBRANCH  56  80
BRANCH  68  91
ATOM     91  C   UNL A   1      44.653  29.000  35.610  1.00  0.00     0.064 A 
ATOM     92  C   UNL A   1      44.687  27.759  36.262  1.00  0.00     0.173 A 
ATOM     93  C   UNL A   1      45.875  29.603  35.278  1.00  0.00     0.173 A 
ATOM     94  F   UNL A   1      43.546  27.150  36.616  1.00  0.00    -0.203 F 
ATOM     95  C   UNL A   1      45.900  27.151  36.581  1.00  0.00     0.198 A 
ATOM     96  C   UNL A   1      47.085  28.979  35.572  1.00  0.00     0.198 A 
ATOM     97  F   UNL A   1      45.898  30.788  34.649  1.00  0.00    -0.203 F 
ATOM     98  F   UNL A   1      45.909  25.983  37.237  1.00  0.00    -0.200 F 
ATOM     99  C   UNL A   1      47.096  27.757  36.227  1.00  0.00     0.200 A 
ATOM    100  F   UNL A   1      48.240  29.558  35.217  1.00  0.00    -0.200 F 
ATOM    101  F   UNL A   1      48.262  27.163  36.521  1.00  0.00    -0.200 F 
ENDBRANCH  68  91
ENDBRANCH  42  43
ENDBRANCH  35  37
ENDBRANCH  34  35
ENDBRANCH  33  34
ENDBRANCH  32  33
ENDBRANCH  31  32
ENDBRANCH  30  31
ENDBRANCH   1  30
TORSDOF 21
ENDMDL
MODEL 2
REMARK VINA RESULT:     -10.4      4.964      7.724
REMARK SMILES CC(C)N(c1cc2c(cc1Cl)C=C(C(=O)OCCOCCOCCOC(=O)c1ccc(-c3c4nc(c(-c5c(F)c(F)c(F)c(F)c5F)c5ccc([nH]5)c(-c5c(F)c(F)c(F)c(F)c5F)c5nc(c(-c6c(F)c(F)c(F)c(F)c6F)c6ccc3[nH]6)C=C5)C=C4)cc1)[C@@H](C(F)(F)F)O2)C(C)C
REMARK SMILES IDX 20 1 19 2 18 3 17 4 16 5 14 6 15 7 13 8 5 9 6 10 10 11 7 12
REMARK SMILES IDX 9 13 11 14 8 15 96 16 12 17 91 18 4 19 2 20 1 21 3 22 97 23
REMARK SMILES IDX 98 24 99 25 92 26 93 27 94 28 95 29 21 30 22 31 23 32 24 33
REMARK SMILES IDX 25 34 26 35 27 36 28 37 29 38 90 39 30 40 89 41 31 42 32 43
REMARK SMILES IDX 33 44 83 45 34 46 88 47 82 48 84 49 35 50 87 51 81 52 80 53
REMARK SMILES IDX 36 55 68 56 48 57 67 58 49 59 52 60 66 61 85 62 50 63 51 64
REMARK SMILES IDX 65 66 86 67 53 68 37 69 38 70 46 71 39 72 40 73 44 74 47 75
REMARK SMILES IDX 41 76 42 77 45 78 43 79 69 80 70 81 78 82 71 83 72 84 76 85
REMARK SMILES IDX 79 86 73 87 74 88 77 89 75 90 54 91 55 92 63 93 56 94 57 95
REMARK SMILES IDX 61 96 64 97 58 98 59 99 62 100 60 101
REMARK H PARENT 84 54 52 65
REMARK Flexibility Score: inf
ROOT
ATOM      1  C   UNL A   1      34.765  32.266  28.298  1.00  0.00     0.188 C 
ENDROOT
BRANCH   1   2
ATOM      2  O   UNL A   1      34.643  30.879  28.058  1.00  0.00    -0.376 OA
BRANCH   2   3
ATOM      3  C   UNL A   1      34.012  30.387  26.887  1.00  0.00     0.202 C 
BRANCH   3   4
ATOM      4  C   UNL A   1      32.504  30.519  26.668  1.00  0.00     0.261 C 
BRANCH   4   5
ATOM      5  O   UNL A   1      31.813  29.268  26.556  1.00  0.00    -0.460 OA
BRANCH   5   6
ATOM      6  C   UNL A   1      31.325  29.002  25.321  1.00  0.00     0.338 C 
ATOM      7  O   UNL A   1      30.757  29.782  24.576  1.00  0.00    -0.246 OA
BRANCH   6   8
ATOM      8  C   UNL A   1      31.709  27.639  24.913  1.00  0.00     0.087 C 
ATOM      9  C   UNL A   1      33.514  22.926  25.034  1.00  0.00     0.060 A 
ATOM     10  C   UNL A   1      33.244  23.875  24.018  1.00  0.00     0.074 A 
ATOM     11  C   UNL A   1      33.039  23.244  26.328  1.00  0.00     0.065 A 
ATOM     12  C   UNL A   1      32.636  25.109  24.285  1.00  0.00     0.130 A 
ATOM     13  C   UNL A   1      32.393  24.462  26.586  1.00  0.00     0.034 A 
ATOM     14  Cl  UNL A   1      33.308  22.266  27.732  1.00  0.00    -0.082 Cl
ATOM     15  C   UNL A   1      32.232  25.409  25.578  1.00  0.00     0.019 A 
ATOM     16  O   UNL A   1      32.505  25.971  23.232  1.00  0.00    -0.475 OA
ATOM     17  C   UNL A   1      31.733  26.732  25.896  1.00  0.00     0.027 C 
ATOM     18  C   UNL A   1      32.077  27.343  23.485  1.00  0.00     0.316 C 
BRANCH   9  19
ATOM     19  N   UNL A   1      34.280  21.784  24.711  1.00  0.00    -0.365 N 
BRANCH  19  20
ATOM     20  C   UNL A   1      35.757  21.873  24.788  1.00  0.00     0.076 C 
ATOM     21  C   UNL A   1      36.418  20.525  25.074  1.00  0.00     0.030 C 
ATOM     22  C   UNL A   1      36.399  22.525  23.563  1.00  0.00     0.030 C 
ENDBRANCH  19  20
BRANCH  19  23
ATOM     23  C   UNL A   1      33.508  20.588  24.288  1.00  0.00     0.076 C 
ATOM     24  C   UNL A   1      32.963  19.779  25.461  1.00  0.00     0.030 C 
ATOM     25  C   UNL A   1      32.419  20.901  23.267  1.00  0.00     0.030 C 
ENDBRANCH  19  23
ENDBRANCH   9  19
BRANCH  18  26
ATOM     26  C   UNL A   1      33.153  28.302  22.952  1.00  0.00     0.430 C 
ATOM     27  F   UNL A   1      32.599  29.367  22.325  1.00  0.00    -0.167 F 
ATOM     28  F   UNL A   1      33.920  28.799  23.952  1.00  0.00    -0.167 F 
ATOM     29  F   UNL A   1      33.981  27.697  22.072  1.00  0.00    -0.167 F 
ENDBRANCH  18  26
ENDBRANCH   6   8
ENDBRANCH   5   6
ENDBRANCH   4   5
ENDBRANCH   3   4
ENDBRANCH   2   3
ENDBRANCH   1   2
BRANCH   1  30
ATOM     30  C   UNL A   1      34.408  32.884  29.667  1.00  0.00     0.188 C 
BRANCH  30  31
ATOM     31  O   UNL A   1      35.013  34.081  30.111  1.00  0.00    -0.376 OA
BRANCH  31  32
ATOM     32  C   UNL A   1      35.151  34.327  31.502  1.00  0.00     0.202 C 
BRANCH  32  33
ATOM     33  C   UNL A   1      36.509  34.182  32.193  1.00  0.00     0.261 C 
BRANCH  33  34
ATOM     34  O   UNL A   1      36.585  33.068  33.093  1.00  0.00    -0.460 OA
BRANCH  34  35
ATOM     35  C   UNL A   1      36.490  31.847  32.512  1.00  0.00     0.338 C 
ATOM     36  O   UNL A   1      35.492  31.154  32.395  1.00  0.00    -0.246 OA
BRANCH  35  37
ATOM     37  C   UNL A   1      37.764  31.540  31.839  1.00  0.00     0.060 A 
ATOM     38  C   UNL A   1      38.893  31.174  32.573  1.00  0.00     0.016 A 
ATOM     39  C   UNL A   1      37.814  31.615  30.440  1.00  0.00     0.016 A 
ATOM     40  C   UNL A   1      40.071  30.851  31.897  1.00  0.00     0.010 A 
ATOM     41  C   UNL A   1      38.997  31.308  29.767  1.00  0.00     0.010 A 
ATOM     42  C   UNL A   1      40.126  30.901  30.492  1.00  0.00    -0.014 A 
BRANCH  42  43
ATOM     43  C   UNL A   1      41.311  30.362  29.785  1.00  0.00     0.031 A 
ATOM     44  C   UNL A   1      41.342  28.970  29.236  1.00  0.00     0.074 A 
ATOM     45  C   UNL A   1      42.379  31.169  29.644  1.00  0.00     0.049 A 
ATOM     46  N   UNL A   1      42.266  28.398  28.505  1.00  0.00    -0.248 NA
ATOM     47  C   UNL A   1      40.197  28.103  29.550  1.00  0.00     0.031 C 
ATOM     48  C   UNL A   1      42.472  32.530  30.174  1.00  0.00     0.029 A 
ATOM     49  N   UNL A   1      43.578  30.972  29.011  1.00  0.00    -0.354 N 
ATOM     50  C   UNL A   1      41.806  27.117  28.245  1.00  0.00     0.074 A 
ATOM     51  C   UNL A   1      40.541  26.975  28.939  1.00  0.00     0.031 C 
ATOM     52  C   UNL A   1      43.655  33.056  29.823  1.00  0.00     0.029 A 
ATOM     53  C   UNL A   1      44.407  32.066  29.057  1.00  0.00     0.049 A 
ATOM     54  H   UNL A   1      43.823  30.129  28.566  1.00  0.00     0.167 HD
ATOM     55  C   UNL A   1      42.380  26.160  27.475  1.00  0.00     0.037 A 
ATOM     56  C   UNL A   1      45.632  32.256  28.533  1.00  0.00     0.037 A 
ATOM     57  C   UNL A   1      43.646  26.307  26.799  1.00  0.00     0.049 A 
ATOM     58  C   UNL A   1      46.261  31.161  27.717  1.00  0.00     0.074 A 
ATOM     59  C   UNL A   1      44.282  25.408  25.958  1.00  0.00     0.029 A 
ATOM     60  N   UNL A   1      44.477  27.413  26.898  1.00  0.00    -0.354 N 
ATOM     61  N   UNL A   1      45.775  29.987  27.397  1.00  0.00    -0.248 NA
ATOM     62  C   UNL A   1      47.605  31.422  27.182  1.00  0.00     0.031 C 
ATOM     63  C   UNL A   1      45.518  25.948  25.592  1.00  0.00     0.029 A 
ATOM     64  C   UNL A   1      45.633  27.206  26.160  1.00  0.00     0.049 A 
ATOM     65  H   UNL A   1      44.276  28.225  27.416  1.00  0.00     0.167 HD
ATOM     66  C   UNL A   1      46.740  29.376  26.609  1.00  0.00     0.074 A 
ATOM     67  C   UNL A   1      47.834  30.319  26.484  1.00  0.00     0.031 C 
ATOM     68  C   UNL A   1      46.719  28.145  26.044  1.00  0.00     0.037 A 
BRANCH  55  69
ATOM     69  C   UNL A   1      41.645  24.865  27.293  1.00  0.00     0.064 A 
ATOM     70  C   UNL A   1      41.988  23.725  28.036  1.00  0.00     0.173 A 
ATOM     71  C   UNL A   1      40.519  24.790  26.459  1.00  0.00     0.173 A 
ATOM     72  F   UNL A   1      43.057  23.745  28.847  1.00  0.00    -0.203 F 
ATOM     73  C   UNL A   1      41.236  22.557  27.945  1.00  0.00     0.198 A 
ATOM     74  C   UNL A   1      39.755  23.628  26.389  1.00  0.00     0.198 A 
ATOM     75  F   UNL A   1      40.140  25.856  25.737  1.00  0.00    -0.203 F 
ATOM     76  F   UNL A   1      41.592  21.476  28.653  1.00  0.00    -0.200 F 
ATOM     77  C   UNL A   1      40.114  22.513  27.132  1.00  0.00     0.200 A 
ATOM     78  F   UNL A   1      38.660  23.593  25.618  1.00  0.00    -0.200 F 
ATOM     79  F   UNL A   1      39.375  21.396  27.066  1.00  0.00    -0.200 F 
ENDBRANCH  55  69
BRANCH  56  80
ATOM     80  C   UNL A   1      46.316  33.557  28.728  1.00  0.00     0.064 A 
ATOM     81  C   UNL A   1      47.147  33.772  29.835  1.00  0.00     0.173 A 
ATOM     82  C   UNL A   1      46.177  34.600  27.800  1.00  0.00     0.173 A 
ATOM     83  F   UNL A   1      47.298  32.810  30.758  1.00  0.00    -0.203 F 
ATOM     84  C   UNL A   1      47.806  34.988  30.013  1.00  0.00     0.198 A 
ATOM     85  C   UNL A   1      46.857  35.804  27.965  1.00  0.00     0.198 A 
ATOM     86  F   UNL A   1      45.398  34.438  26.721  1.00  0.00    -0.203 F 
ATOM     87  F   UNL A   1      48.569  35.180  31.097  1.00  0.00    -0.200 F 
ATOM     88  C   UNL A   1      47.667  35.998  29.075  1.00  0.00     0.200 A 
ATOM     89  F   UNL A   1      46.733  36.772  27.048  1.00  0.00    -0.200 F 
ATOM     90  F   UNL A   1      48.310  37.161  29.240  1.00  0.00    -0.200 F 
ENDBRANCH  56  80
BRANCH  68  91
ATOM     91  C   UNL A   1      47.913  27.737  25.229  1.00  0.00     0.064 A 
ATOM     92  C   UNL A   1      49.048  27.171  25.828  1.00  0.00     0.173 A 
ATOM     93  C   UNL A   1      47.897  27.854  23.831  1.00  0.00     0.173 A 
ATOM     94  F   UNL A   1      49.118  27.052  27.163  1.00  0.00    -0.203 F 
ATOM     95  C   UNL A   1      50.130  26.751  25.058  1.00  0.00     0.198 A 
ATOM     96  C   UNL A   1      48.969  27.407  23.062  1.00  0.00     0.198 A 
ATOM     97  F   UNL A   1      46.834  28.384  23.208  1.00  0.00    -0.203 F 
ATOM     98  F   UNL A   1      51.219  26.247  25.655  1.00  0.00    -0.200 F 
ATOM     99  C   UNL A   1      50.085  26.860  23.677  1.00  0.00     0.200 A 
ATOM    100  F   UNL A   1      48.918  27.500  21.726  1.00  0.00    -0.200 F 
ATOM    101  F   UNL A   1      51.121  26.441  22.936  1.00  0.00    -0.200 F 
ENDBRANCH  68  91
ENDBRANCH  42  43
ENDBRANCH  35  37
ENDBRANCH  34  35
ENDBRANCH  33  34
ENDBRANCH  32  33
ENDBRANCH  31  32
ENDBRANCH  30  31
ENDBRANCH   1  30
TORSDOF 21
ENDMDL
MODEL 3
REMARK VINA RESULT:     -10.4      5.455     10.848
REMARK SMILES CC(C)N(c1cc2c(cc1Cl)C=C(C(=O)OCCOCCOCCOC(=O)c1ccc(-c3c4nc(c(-c5c(F)c(F)c(F)c(F)c5F)c5ccc([nH]5)c(-c5c(F)c(F)c(F)c(F)c5F)c5nc(c(-c6c(F)c(F)c(F)c(F)c6F)c6ccc3[nH]6)C=C5)C=C4)cc1)[C@@H](C(F)(F)F)O2)C(C)C
REMARK SMILES IDX 20 1 19 2 18 3 17 4 16 5 14 6 15 7 13 8 5 9 6 10 10 11 7 12
REMARK SMILES IDX 9 13 11 14 8 15 96 16 12 17 91 18 4 19 2 20 1 21 3 22 97 23
REMARK SMILES IDX 98 24 99 25 92 26 93 27 94 28 95 29 21 30 22 31 23 32 24 33
REMARK SMILES IDX 25 34 26 35 27 36 28 37 29 38 90 39 30 40 89 41 31 42 32 43
REMARK SMILES IDX 33 44 83 45 34 46 88 47 82 48 84 49 35 50 87 51 81 52 80 53
REMARK SMILES IDX 36 55 68 56 48 57 67 58 49 59 52 60 66 61 85 62 50 63 51 64
REMARK SMILES IDX 65 66 86 67 53 68 37 69 38 70 46 71 39 72 40 73 44 74 47 75
REMARK SMILES IDX 41 76 42 77 45 78 43 79 69 80 70 81 78 82 71 83 72 84 76 85
REMARK SMILES IDX 79 86 73 87 74 88 77 89 75 90 54 91 55 92 63 93 56 94 57 95
REMARK SMILES IDX 61 96 64 97 58 98 59 99 62 100 60 101
REMARK H PARENT 84 54 52 65
REMARK Flexibility Score: inf
ROOT
ATOM      1  C   UNL A   1      43.893  20.031  25.443  1.00  0.00     0.188 C 
ENDROOT
BRANCH   1   2
ATOM      2  O   UNL A   1      42.522  20.351  25.565  1.00  0.00    -0.376 OA
BRANCH   2   3
ATOM      3  C   UNL A   1      42.045  21.159  26.628  1.00  0.00     0.202 C 
BRANCH   3   4
ATOM      4  C   UNL A   1      42.338  22.659  26.694  1.00  0.00     0.261 C 
BRANCH   4   5
ATOM      5  O   UNL A   1      41.773  23.319  27.834  1.00  0.00    -0.460 OA
BRANCH   5   6
ATOM      6  C   UNL A   1      40.575  23.908  27.609  1.00  0.00     0.338 C 
ATOM      7  O   UNL A   1      39.552  23.363  27.229  1.00  0.00    -0.246 OA
BRANCH   6   8
ATOM      8  C   UNL A   1      40.622  25.318  28.036  1.00  0.00     0.087 C 
ATOM      9  C   UNL A   1      39.269  29.812  29.896  1.00  0.00     0.060 A 
ATOM     10  C   UNL A   1      40.279  29.347  29.018  1.00  0.00     0.074 A 
ATOM     11  C   UNL A   1      38.529  28.818  30.578  1.00  0.00     0.065 A 
ATOM     12  C   UNL A   1      40.475  27.987  28.751  1.00  0.00     0.130 A 
ATOM     13  C   UNL A   1      38.755  27.453  30.341  1.00  0.00     0.034 A 
ATOM     14  Cl  UNL A   1      37.208  29.148  31.648  1.00  0.00    -0.082 Cl
ATOM     15  C   UNL A   1      39.693  27.041  29.399  1.00  0.00     0.019 A 
ATOM     16  O   UNL A   1      41.429  27.672  27.823  1.00  0.00    -0.475 OA
ATOM     17  C   UNL A   1      39.786  25.643  29.030  1.00  0.00     0.027 C 
ATOM     18  C   UNL A   1      41.534  26.297  27.349  1.00  0.00     0.316 C 
BRANCH   9  19
ATOM     19  N   UNL A   1      39.027  31.201  29.979  1.00  0.00    -0.365 N 
BRANCH  19  20
ATOM     20  C   UNL A   1      39.960  32.041  30.765  1.00  0.00     0.076 C 
ATOM     21  C   UNL A   1      40.036  33.480  30.257  1.00  0.00     0.030 C 
ATOM     22  C   UNL A   1      39.680  32.027  32.268  1.00  0.00     0.030 C 
ENDBRANCH  19  20
BRANCH  19  23
ATOM     23  C   UNL A   1      37.813  31.687  29.273  1.00  0.00     0.076 C 
ATOM     24  C   UNL A   1      37.336  30.741  28.176  1.00  0.00     0.030 C 
ATOM     25  C   UNL A   1      36.678  32.070  30.217  1.00  0.00     0.030 C 
ENDBRANCH  19  23
ENDBRANCH   9  19
BRANCH  18  26
ATOM     26  C   UNL A   1      41.353  26.285  25.822  1.00  0.00     0.430 C 
ATOM     27  F   UNL A   1      41.450  27.532  25.303  1.00  0.00    -0.167 F 
ATOM     28  F   UNL A   1      42.304  25.537  25.212  1.00  0.00    -0.167 F 
ATOM     29  F   UNL A   1      40.151  25.784  25.458  1.00  0.00    -0.167 F 
ENDBRANCH  18  26
ENDBRANCH   6   8
ENDBRANCH   5   6
ENDBRANCH   4   5
ENDBRANCH   3   4
ENDBRANCH   2   3
ENDBRANCH   1   2
BRANCH   1  30
ATOM     30  C   UNL A   1      44.778  20.665  24.349  1.00  0.00     0.188 C 
BRANCH  30  31
ATOM     31  O   UNL A   1      44.987  22.061  24.293  1.00  0.00    -0.376 OA
BRANCH  31  32
ATOM     32  C   UNL A   1      46.032  22.648  25.056  1.00  0.00     0.202 C 
BRANCH  32  33
ATOM     33  C   UNL A   1      45.890  24.063  25.621  1.00  0.00     0.261 C 
BRANCH  33  34
ATOM     34  O   UNL A   1      45.703  25.071  24.617  1.00  0.00    -0.460 OA
BRANCH  34  35
ATOM     35  C   UNL A   1      46.578  26.105  24.666  1.00  0.00     0.338 C 
ATOM     36  O   UNL A   1      47.529  26.311  23.930  1.00  0.00    -0.246 OA
BRANCH  35  37
ATOM     37  C   UNL A   1      46.091  27.094  25.645  1.00  0.00     0.060 A 
ATOM     38  C   UNL A   1      44.783  27.576  25.587  1.00  0.00     0.016 A 
ATOM     39  C   UNL A   1      46.971  27.533  26.643  1.00  0.00     0.016 A 
ATOM     40  C   UNL A   1      44.346  28.481  26.556  1.00  0.00     0.010 A 
ATOM     41  C   UNL A   1      46.538  28.451  27.600  1.00  0.00     0.010 A 
ATOM     42  C   UNL A   1      45.214  28.912  27.575  1.00  0.00    -0.014 A 
BRANCH  42  43
ATOM     43  C   UNL A   1      44.680  29.706  28.706  1.00  0.00     0.031 A 
ATOM     44  C   UNL A   1      44.306  29.078  30.011  1.00  0.00     0.074 A 
ATOM     45  C   UNL A   1      44.537  31.033  28.528  1.00  0.00     0.049 A 
ATOM     46  N   UNL A   1      43.927  29.658  31.121  1.00  0.00    -0.248 NA
ATOM     47  C   UNL A   1      44.357  27.610  30.084  1.00  0.00     0.031 C 
ATOM     48  C   UNL A   1      44.833  31.745  27.284  1.00  0.00     0.029 A 
ATOM     49  N   UNL A   1      44.120  32.016  29.387  1.00  0.00    -0.354 N 
ATOM     50  C   UNL A   1      43.721  28.636  32.035  1.00  0.00     0.074 A 
ATOM     51  C   UNL A   1      43.969  27.391  31.335  1.00  0.00     0.031 C 
ATOM     52  C   UNL A   1      44.612  33.055  27.467  1.00  0.00     0.029 A 
ATOM     53  C   UNL A   1      44.146  33.273  28.834  1.00  0.00     0.049 A 
ATOM     54  H   UNL A   1      43.830  31.839  30.311  1.00  0.00     0.167 HD
ATOM     55  C   UNL A   1      43.380  28.736  33.343  1.00  0.00     0.037 A 
ATOM     56  C   UNL A   1      43.840  34.468  29.370  1.00  0.00     0.037 A 
ATOM     57  C   UNL A   1      43.122  29.980  34.027  1.00  0.00     0.049 A 
ATOM     58  C   UNL A   1      43.427  34.544  30.814  1.00  0.00     0.074 A 
ATOM     59  C   UNL A   1      42.820  30.181  35.363  1.00  0.00     0.029 A 
ATOM     60  N   UNL A   1      43.121  31.232  33.427  1.00  0.00    -0.354 N 
ATOM     61  N   UNL A   1      43.328  33.580  31.695  1.00  0.00    -0.248 NA
ATOM     62  C   UNL A   1      43.092  35.875  31.338  1.00  0.00     0.031 C 
ATOM     63  C   UNL A   1      42.583  31.545  35.561  1.00  0.00     0.029 A 
ATOM     64  C   UNL A   1      42.791  32.204  34.360  1.00  0.00     0.049 A 
ATOM     65  H   UNL A   1      43.324  31.404  32.480  1.00  0.00     0.167 HD
ATOM     66  C   UNL A   1      42.940  34.186  32.881  1.00  0.00     0.074 A 
ATOM     67  C   UNL A   1      42.839  35.606  32.611  1.00  0.00     0.031 C 
ATOM     68  C   UNL A   1      42.688  33.614  34.083  1.00  0.00     0.037 A 
BRANCH  55  69
ATOM     69  C   UNL A   1      43.282  27.473  34.146  1.00  0.00     0.064 A 
ATOM     70  C   UNL A   1      42.036  26.910  34.464  1.00  0.00     0.173 A 
ATOM     71  C   UNL A   1      44.435  26.757  34.502  1.00  0.00     0.173 A 
ATOM     72  F   UNL A   1      40.904  27.555  34.146  1.00  0.00    -0.203 F 
ATOM     73  C   UNL A   1      41.950  25.682  35.113  1.00  0.00     0.198 A 
ATOM     74  C   UNL A   1      44.344  25.518  35.130  1.00  0.00     0.198 A 
ATOM     75  F   UNL A   1      45.650  27.245  34.209  1.00  0.00    -0.203 F 
ATOM     76  F   UNL A   1      40.749  25.171  35.420  1.00  0.00    -0.200 F 
ATOM     77  C   UNL A   1      43.103  24.981  35.435  1.00  0.00     0.200 A 
ATOM     78  F   UNL A   1      45.459  24.834  35.423  1.00  0.00    -0.200 F 
ATOM     79  F   UNL A   1      43.017  23.787  36.037  1.00  0.00    -0.200 F 
ENDBRANCH  55  69
BRANCH  56  80
ATOM     80  C   UNL A   1      43.964  35.693  28.542  1.00  0.00     0.064 A 
ATOM     81  C   UNL A   1      45.206  36.311  28.355  1.00  0.00     0.173 A 
ATOM     82  C   UNL A   1      42.849  36.252  27.898  1.00  0.00     0.173 A 
ATOM     83  F   UNL A   1      46.297  35.823  28.964  1.00  0.00    -0.203 F 
ATOM     84  C   UNL A   1      45.329  37.452  27.563  1.00  0.00     0.198 A 
ATOM     85  C   UNL A   1      42.978  37.375  27.085  1.00  0.00     0.198 A 
ATOM     86  F   UNL A   1      41.640  35.690  28.041  1.00  0.00    -0.203 F 
ATOM     87  F   UNL A   1      46.523  38.044  27.427  1.00  0.00    -0.200 F 
ATOM     88  C   UNL A   1      44.217  37.977  26.923  1.00  0.00     0.200 A 
ATOM     89  F   UNL A   1      41.905  37.870  26.455  1.00  0.00    -0.200 F 
ATOM     90  F   UNL A   1      44.338  39.066  26.152  1.00  0.00    -0.200 F 
ENDBRANCH  56  80
BRANCH  68  91
ATOM     91  C   UNL A   1      42.282  34.520  35.210  1.00  0.00     0.064 A 
ATOM     92  C   UNL A   1      43.235  35.110  36.053  1.00  0.00     0.173 A 
ATOM     93  C   UNL A   1      40.933  34.850  35.411  1.00  0.00     0.173 A 
ATOM     94  F   UNL A   1      44.536  34.814  35.912  1.00  0.00    -0.203 F 
ATOM     95  C   UNL A   1      42.851  35.987  37.065  1.00  0.00     0.198 A 
ATOM     96  C   UNL A   1      40.555  35.749  36.405  1.00  0.00     0.198 A 
ATOM     97  F   UNL A   1      39.982  34.317  34.629  1.00  0.00    -0.203 F 
ATOM     98  F   UNL A   1      43.775  36.511  37.882  1.00  0.00    -0.200 F 
ATOM     99  C   UNL A   1      41.514  36.313  37.233  1.00  0.00     0.200 A 
ATOM    100  F   UNL A   1      39.264  36.074  36.558  1.00  0.00    -0.200 F 
ATOM    101  F   UNL A   1      41.148  37.169  38.198  1.00  0.00    -0.200 F 
ENDBRANCH  68  91
ENDBRANCH  42  43
ENDBRANCH  35  37
ENDBRANCH  34  35
ENDBRANCH  33  34
ENDBRANCH  32  33
ENDBRANCH  31  32
ENDBRANCH  30  31
ENDBRANCH   1  30
TORSDOF 21
ENDMDL
