MODEL 1
REMARK VINA RESULT:     -11.2      0.000      0.000
REMARK SMILES CC1(C)CCC[C@@H]1NC(=O)CC1(C(=O)OCCOCCOCCOC(=O)c2ccc(-c3c4nc(c(-c5c(F)c(F)c(F)c(F)c5F)c5ccc([nH]5)c(-c5c(F)c(F)c(F)c(F)c5F)c5nc(c(-c6c(F)c(F)c(F)c(F)c6F)c6ccc3[nH]6)C=C5)C=C4)cc2)CCCCC1
REMARK SMILES IDX 19 1 18 2 17 3 16 4 15 5 13 6 14 7 12 8 90 9 94 10 91 11
REMARK SMILES IDX 93 12 92 13 11 14 9 15 8 16 10 18 7 19 1 20 2 21 3 22 4 23
REMARK SMILES IDX 5 24 6 25 20 26 21 27 22 28 23 29 24 30 25 31 26 32 27 33
REMARK SMILES IDX 28 34 89 35 29 36 88 37 30 38 31 39 32 40 82 41 33 42 87 43
REMARK SMILES IDX 81 44 83 45 34 46 86 47 80 48 79 49 35 51 67 52 47 53 66 54
REMARK SMILES IDX 48 55 51 56 65 57 84 58 49 59 50 60 64 62 85 63 52 64 36 65
REMARK SMILES IDX 37 66 45 67 38 68 39 69 43 70 46 71 40 72 41 73 44 74 42 75
REMARK SMILES IDX 68 76 69 77 77 78 70 79 71 80 75 81 78 82 72 83 73 84 76 85
REMARK SMILES IDX 74 86 53 87 54 88 62 89 55 90 56 91 60 92 63 93 57 94 58 95
REMARK SMILES IDX 61 96 59 97
REMARK H PARENT 8 17 83 50 51 61
REMARK Flexibility Score: inf
ROOT
ATOM      1  C   UNL A   1      40.036  22.705  27.234  1.00  0.00     0.188 C 
ENDROOT
BRANCH   1   2
ATOM      2  O   UNL A   1      38.720  23.233  27.147  1.00  0.00    -0.376 OA
BRANCH   2   3
ATOM      3  C   UNL A   1      38.205  23.547  25.856  1.00  0.00     0.202 C 
BRANCH   3   4
ATOM      4  C   UNL A   1      37.131  22.592  25.337  1.00  0.00     0.261 C 
BRANCH   4   5
ATOM      5  O   UNL A   1      35.815  23.115  25.607  1.00  0.00    -0.463 OA
BRANCH   5   6
ATOM      6  C   UNL A   1      34.835  22.846  24.711  1.00  0.00     0.312 C 
ATOM      7  O   UNL A   1      34.995  22.870  23.495  1.00  0.00    -0.252 OA
BRANCH   6   8
ATOM      8  C   UNL A   1      33.487  22.485  25.371  1.00  0.00     0.077 C 
ATOM      9  C   UNL A   1      33.707  21.099  26.022  1.00  0.00     0.019 C 
ATOM     10  C   UNL A   1      32.277  22.398  24.420  1.00  0.00     0.019 C 
ATOM     11  C   UNL A   1      33.793  19.981  24.968  1.00  0.00     0.001 C 
ATOM     12  C   UNL A   1      32.245  21.235  23.438  1.00  0.00     0.001 C 
ATOM     13  C   UNL A   1      32.530  19.910  24.119  1.00  0.00     0.000 C 
BRANCH   8  14
ATOM     14  C   UNL A   1      33.251  23.648  26.394  1.00  0.00     0.118 C 
BRANCH  14  15
ATOM     15  C   UNL A   1      31.814  23.918  26.801  1.00  0.00     0.221 C 
ATOM     16  N   UNL A   1      31.095  24.967  26.313  1.00  0.00    -0.353 N 
ATOM     17  H   UNL A   1      30.224  25.070  26.760  1.00  0.00     0.163 HD
ATOM     18  O   UNL A   1      31.259  23.188  27.626  1.00  0.00    -0.275 OA
BRANCH  16  19
ATOM     19  C   UNL A   1      31.324  25.977  25.276  1.00  0.00     0.087 C 
ATOM     20  C   UNL A   1      33.500  27.212  25.940  1.00  0.00     0.013 C 
ATOM     21  C   UNL A   1      31.981  27.301  25.787  1.00  0.00    -0.015 C 
ATOM     22  C   UNL A   1      31.401  27.792  27.129  1.00  0.00     0.013 C 
ATOM     23  C   UNL A   1      31.632  28.317  24.673  1.00  0.00     0.008 C 
ATOM     24  C   UNL A   1      30.345  27.830  24.025  1.00  0.00     0.003 C 
ATOM     25  C   UNL A   1      30.014  26.497  24.675  1.00  0.00     0.025 C 
ENDBRANCH  16  19
ENDBRANCH  14  15
ENDBRANCH   8  14
ENDBRANCH   6   8
ENDBRANCH   5   6
ENDBRANCH   4   5
ENDBRANCH   3   4
ENDBRANCH   2   3
ENDBRANCH   1   2
BRANCH   1  26
ATOM     26  C   UNL A   1      40.274  21.302  26.653  1.00  0.00     0.188 C 
BRANCH  26  27
ATOM     27  O   UNL A   1      41.280  21.124  25.670  1.00  0.00    -0.376 OA
BRANCH  27  28
ATOM     28  C   UNL A   1      42.597  20.894  26.158  1.00  0.00     0.202 C 
BRANCH  28  29
ATOM     29  C   UNL A   1      43.642  21.846  25.583  1.00  0.00     0.261 C 
BRANCH  29  30
ATOM     30  O   UNL A   1      43.009  22.928  24.872  1.00  0.00    -0.460 OA
BRANCH  30  31
ATOM     31  C   UNL A   1      43.732  24.068  24.860  1.00  0.00     0.338 C 
ATOM     32  O   UNL A   1      44.802  24.244  24.304  1.00  0.00    -0.246 OA
BRANCH  31  33
ATOM     33  C   UNL A   1      43.037  25.150  25.593  1.00  0.00     0.060 A 
ATOM     34  C   UNL A   1      43.360  26.495  25.391  1.00  0.00     0.016 A 
ATOM     35  C   UNL A   1      42.211  24.790  26.656  1.00  0.00     0.016 A 
ATOM     36  C   UNL A   1      42.969  27.458  26.322  1.00  0.00     0.010 A 
ATOM     37  C   UNL A   1      41.758  25.767  27.545  1.00  0.00     0.010 A 
ATOM     38  C   UNL A   1      42.183  27.100  27.424  1.00  0.00    -0.014 A 
BRANCH  38  39
ATOM     39  C   UNL A   1      41.862  28.075  28.500  1.00  0.00     0.031 A 
ATOM     40  C   UNL A   1      42.763  28.187  29.701  1.00  0.00     0.074 A 
ATOM     41  C   UNL A   1      40.765  28.849  28.422  1.00  0.00     0.049 A 
ATOM     42  N   UNL A   1      42.532  28.733  30.868  1.00  0.00    -0.248 NA
ATOM     43  C   UNL A   1      44.105  27.593  29.573  1.00  0.00     0.031 C 
ATOM     44  C   UNL A   1      39.851  28.915  27.283  1.00  0.00     0.029 A 
ATOM     45  N   UNL A   1      40.221  29.718  29.338  1.00  0.00    -0.354 N 
ATOM     46  C   UNL A   1      43.670  28.496  31.631  1.00  0.00     0.074 A 
ATOM     47  C   UNL A   1      44.599  27.770  30.792  1.00  0.00     0.031 C 
ATOM     48  C   UNL A   1      38.860  29.772  27.565  1.00  0.00     0.029 A 
ATOM     49  C   UNL A   1      39.016  30.239  28.939  1.00  0.00     0.049 A 
ATOM     50  H   UNL A   1      40.653  29.943  30.194  1.00  0.00     0.167 HD
ATOM     51  C   UNL A   1      43.902  28.842  32.920  1.00  0.00     0.037 A 
ATOM     52  C   UNL A   1      38.101  30.951  29.622  1.00  0.00     0.037 A 
ATOM     53  C   UNL A   1      42.988  29.604  33.732  1.00  0.00     0.049 A 
ATOM     54  C   UNL A   1      38.352  31.276  31.066  1.00  0.00     0.074 A 
ATOM     55  C   UNL A   1      43.130  30.013  35.046  1.00  0.00     0.029 A 
ATOM     56  N   UNL A   1      41.764  30.087  33.294  1.00  0.00    -0.354 N 
ATOM     57  N   UNL A   1      39.381  30.968  31.816  1.00  0.00    -0.248 NA
ATOM     58  C   UNL A   1      37.300  32.026  31.765  1.00  0.00     0.031 C 
ATOM     59  C   UNL A   1      41.975  30.713  35.415  1.00  0.00     0.029 A 
ATOM     60  C   UNL A   1      41.132  30.776  34.316  1.00  0.00     0.049 A 
ATOM     61  H   UNL A   1      41.397  29.959  32.389  1.00  0.00     0.167 HD
ATOM     62  C   UNL A   1      39.106  31.486  33.073  1.00  0.00     0.074 A 
ATOM     63  C   UNL A   1      37.820  32.148  32.979  1.00  0.00     0.031 C 
ATOM     64  C   UNL A   1      39.847  31.413  34.205  1.00  0.00     0.037 A 
BRANCH  51  65
ATOM     65  C   UNL A   1      45.173  28.358  33.556  1.00  0.00     0.064 A 
ATOM     66  C   UNL A   1      46.361  29.102  33.512  1.00  0.00     0.173 A 
ATOM     67  C   UNL A   1      45.184  27.147  34.267  1.00  0.00     0.173 A 
ATOM     68  F   UNL A   1      46.407  30.258  32.833  1.00  0.00    -0.203 F 
ATOM     69  C   UNL A   1      47.516  28.644  34.141  1.00  0.00     0.198 A 
ATOM     70  C   UNL A   1      46.334  26.704  34.915  1.00  0.00     0.198 A 
ATOM     71  F   UNL A   1      44.073  26.399  34.343  1.00  0.00    -0.203 F 
ATOM     72  F   UNL A   1      48.650  29.355  34.057  1.00  0.00    -0.200 F 
ATOM     73  C   UNL A   1      47.500  27.451  34.849  1.00  0.00     0.200 A 
ATOM     74  F   UNL A   1      46.312  25.555  35.605  1.00  0.00    -0.200 F 
ATOM     75  F   UNL A   1      48.611  27.017  35.461  1.00  0.00    -0.200 F 
ENDBRANCH  51  65
BRANCH  52  76
ATOM     76  C   UNL A   1      36.831  31.333  28.954  1.00  0.00     0.064 A 
ATOM     77  C   UNL A   1      35.818  30.392  28.736  1.00  0.00     0.173 A 
ATOM     78  C   UNL A   1      36.591  32.659  28.559  1.00  0.00     0.173 A 
ATOM     79  F   UNL A   1      36.014  29.108  29.070  1.00  0.00    -0.203 F 
ATOM     80  C   UNL A   1      34.610  30.762  28.150  1.00  0.00     0.198 A 
ATOM     81  C   UNL A   1      35.372  33.033  28.002  1.00  0.00     0.198 A 
ATOM     82  F   UNL A   1      37.531  33.596  28.746  1.00  0.00    -0.203 F 
ATOM     83  F   UNL A   1      33.666  29.838  27.925  1.00  0.00    -0.200 F 
ATOM     84  C   UNL A   1      34.383  32.084  27.794  1.00  0.00     0.200 A 
ATOM     85  F   UNL A   1      35.153  34.314  27.673  1.00  0.00    -0.200 F 
ATOM     86  F   UNL A   1      33.213  32.442  27.248  1.00  0.00    -0.200 F 
ENDBRANCH  52  76
BRANCH  64  87
ATOM     87  C   UNL A   1      39.283  32.078  35.425  1.00  0.00     0.064 A 
ATOM     88  C   UNL A   1      39.555  33.424  35.714  1.00  0.00     0.173 A 
ATOM     89  C   UNL A   1      38.458  31.366  36.308  1.00  0.00     0.173 A 
ATOM     90  F   UNL A   1      40.353  34.139  34.908  1.00  0.00    -0.203 F 
ATOM     91  C   UNL A   1      39.041  34.025  36.859  1.00  0.00     0.198 A 
ATOM     92  C   UNL A   1      37.928  31.977  37.440  1.00  0.00     0.198 A 
ATOM     93  F   UNL A   1      38.168  30.078  36.071  1.00  0.00    -0.203 F 
ATOM     94  F   UNL A   1      39.352  35.298  37.143  1.00  0.00    -0.200 F 
ATOM     95  C   UNL A   1      38.226  33.303  37.719  1.00  0.00     0.200 A 
ATOM     96  F   UNL A   1      37.134  31.282  38.266  1.00  0.00    -0.200 F 
ATOM     97  F   UNL A   1      37.736  33.883  38.823  1.00  0.00    -0.200 F 
ENDBRANCH  64  87
ENDBRANCH  38  39
ENDBRANCH  31  33
ENDBRANCH  30  31
ENDBRANCH  29  30
ENDBRANCH  28  29
ENDBRANCH  27  28
ENDBRANCH  26  27
ENDBRANCH   1  26
TORSDOF 20
ENDMDL
MODEL 2
REMARK VINA RESULT:     -11.0      4.607      7.088
REMARK SMILES CC1(C)CCC[C@@H]1NC(=O)CC1(C(=O)OCCOCCOCCOC(=O)c2ccc(-c3c4nc(c(-c5c(F)c(F)c(F)c(F)c5F)c5ccc([nH]5)c(-c5c(F)c(F)c(F)c(F)c5F)c5nc(c(-c6c(F)c(F)c(F)c(F)c6F)c6ccc3[nH]6)C=C5)C=C4)cc2)CCCCC1
REMARK SMILES IDX 19 1 18 2 17 3 16 4 15 5 13 6 14 7 12 8 90 9 94 10 91 11
REMARK SMILES IDX 93 12 92 13 11 14 9 15 8 16 10 18 7 19 1 20 2 21 3 22 4 23
REMARK SMILES IDX 5 24 6 25 20 26 21 27 22 28 23 29 24 30 25 31 26 32 27 33
REMARK SMILES IDX 28 34 89 35 29 36 88 37 30 38 31 39 32 40 82 41 33 42 87 43
REMARK SMILES IDX 81 44 83 45 34 46 86 47 80 48 79 49 35 51 67 52 47 53 66 54
REMARK SMILES IDX 48 55 51 56 65 57 84 58 49 59 50 60 64 62 85 63 52 64 36 65
REMARK SMILES IDX 37 66 45 67 38 68 39 69 43 70 46 71 40 72 41 73 44 74 42 75
REMARK SMILES IDX 68 76 69 77 77 78 70 79 71 80 75 81 78 82 72 83 73 84 76 85
REMARK SMILES IDX 74 86 53 87 54 88 62 89 55 90 56 91 60 92 63 93 57 94 58 95
REMARK SMILES IDX 61 96 59 97
REMARK H PARENT 8 17 83 50 51 61
REMARK Flexibility Score: inf
ROOT
ATOM      1  C   UNL A   1      39.276  23.207  26.850  1.00  0.00     0.188 C 
ENDROOT
BRANCH   1   2
ATOM      2  O   UNL A   1      38.234  22.748  25.998  1.00  0.00    -0.376 OA
BRANCH   2   3
ATOM      3  C   UNL A   1      37.181  23.651  25.677  1.00  0.00     0.202 C 
BRANCH   3   4
ATOM      4  C   UNL A   1      36.513  23.413  24.323  1.00  0.00     0.261 C 
BRANCH   4   5
ATOM      5  O   UNL A   1      35.700  22.222  24.363  1.00  0.00    -0.463 OA
BRANCH   5   6
ATOM      6  C   UNL A   1      34.829  22.090  25.392  1.00  0.00     0.312 C 
ATOM      7  O   UNL A   1      35.075  21.466  26.419  1.00  0.00    -0.252 OA
BRANCH   6   8
ATOM      8  C   UNL A   1      33.490  22.820  25.156  1.00  0.00     0.077 C 
ATOM      9  C   UNL A   1      32.408  21.716  25.192  1.00  0.00     0.019 C 
ATOM     10  C   UNL A   1      33.371  23.586  23.823  1.00  0.00     0.019 C 
ATOM     11  C   UNL A   1      32.453  20.832  23.933  1.00  0.00     0.001 C 
ATOM     12  C   UNL A   1      33.281  22.758  22.549  1.00  0.00     0.001 C 
ATOM     13  C   UNL A   1      32.252  21.650  22.663  1.00  0.00     0.000 C 
BRANCH   8  14
ATOM     14  C   UNL A   1      33.410  23.842  26.341  1.00  0.00     0.118 C 
BRANCH  14  15
ATOM     15  C   UNL A   1      32.022  24.220  26.824  1.00  0.00     0.221 C 
ATOM     16  N   UNL A   1      31.402  25.375  26.455  1.00  0.00    -0.353 N 
ATOM     17  H   UNL A   1      30.560  25.527  26.941  1.00  0.00     0.163 HD
ATOM     18  O   UNL A   1      31.417  23.480  27.605  1.00  0.00    -0.275 OA
BRANCH  16  19
ATOM     19  C   UNL A   1      31.705  26.444  25.499  1.00  0.00     0.087 C 
ATOM     20  C   UNL A   1      33.753  27.707  26.454  1.00  0.00     0.013 C 
ATOM     21  C   UNL A   1      32.257  27.758  26.142  1.00  0.00    -0.015 C 
ATOM     22  C   UNL A   1      31.520  28.161  27.435  1.00  0.00     0.013 C 
ATOM     23  C   UNL A   1      31.994  28.821  25.047  1.00  0.00     0.008 C 
ATOM     24  C   UNL A   1      30.801  28.330  24.241  1.00  0.00     0.003 C 
ATOM     25  C   UNL A   1      30.449  26.955  24.785  1.00  0.00     0.025 C 
ENDBRANCH  16  19
ENDBRANCH  14  15
ENDBRANCH   8  14
ENDBRANCH   6   8
ENDBRANCH   5   6
ENDBRANCH   4   5
ENDBRANCH   3   4
ENDBRANCH   2   3
ENDBRANCH   1   2
BRANCH   1  26
ATOM     26  C   UNL A   1      40.467  22.264  27.080  1.00  0.00     0.188 C 
BRANCH  26  27
ATOM     27  O   UNL A   1      40.825  21.344  26.062  1.00  0.00    -0.376 OA
BRANCH  27  28
ATOM     28  C   UNL A   1      40.826  19.970  26.433  1.00  0.00     0.202 C 
BRANCH  28  29
ATOM     29  C   UNL A   1      42.181  19.286  26.260  1.00  0.00     0.261 C 
BRANCH  29  30
ATOM     30  O   UNL A   1      42.670  19.457  24.915  1.00  0.00    -0.460 OA
BRANCH  30  31
ATOM     31  C   UNL A   1      44.015  19.414  24.816  1.00  0.00     0.338 C 
ATOM     32  O   UNL A   1      44.698  18.421  24.629  1.00  0.00    -0.246 OA
BRANCH  31  33
ATOM     33  C   UNL A   1      44.604  20.767  24.920  1.00  0.00     0.060 A 
ATOM     34  C   UNL A   1      45.359  21.153  26.030  1.00  0.00     0.016 A 
ATOM     35  C   UNL A   1      44.200  21.726  23.992  1.00  0.00     0.016 A 
ATOM     36  C   UNL A   1      45.596  22.505  26.283  1.00  0.00     0.010 A 
ATOM     37  C   UNL A   1      44.503  23.072  24.207  1.00  0.00     0.010 A 
ATOM     38  C   UNL A   1      45.149  23.482  25.386  1.00  0.00    -0.014 A 
BRANCH  38  39
ATOM     39  C   UNL A   1      45.271  24.932  25.691  1.00  0.00     0.031 A 
ATOM     40  C   UNL A   1      46.598  25.623  25.522  1.00  0.00     0.074 A 
ATOM     41  C   UNL A   1      44.212  25.633  26.134  1.00  0.00     0.049 A 
ATOM     42  N   UNL A   1      47.004  26.773  25.996  1.00  0.00    -0.248 NA
ATOM     43  C   UNL A   1      47.608  24.918  24.716  1.00  0.00     0.031 C 
ATOM     44  C   UNL A   1      42.849  25.122  26.262  1.00  0.00     0.029 A 
ATOM     45  N   UNL A   1      44.126  26.930  26.581  1.00  0.00    -0.354 N 
ATOM     46  C   UNL A   1      48.331  26.901  25.601  1.00  0.00     0.074 A 
ATOM     47  C   UNL A   1      48.659  25.719  24.833  1.00  0.00     0.031 C 
ATOM     48  C   UNL A   1      42.061  26.089  26.755  1.00  0.00     0.029 A 
ATOM     49  C   UNL A   1      42.885  27.252  27.069  1.00  0.00     0.049 A 
ATOM     50  H   UNL A   1      44.879  27.563  26.553  1.00  0.00     0.167 HD
ATOM     51  C   UNL A   1      49.195  27.909  25.873  1.00  0.00     0.037 A 
ATOM     52  C   UNL A   1      42.468  28.330  27.759  1.00  0.00     0.037 A 
ATOM     53  C   UNL A   1      48.844  29.102  26.599  1.00  0.00     0.049 A 
ATOM     54  C   UNL A   1      43.454  29.410  28.100  1.00  0.00     0.074 A 
ATOM     55  C   UNL A   1      49.641  30.186  26.923  1.00  0.00     0.029 A 
ATOM     56  N   UNL A   1      47.579  29.373  27.101  1.00  0.00    -0.354 N 
ATOM     57  N   UNL A   1      44.730  29.485  27.812  1.00  0.00    -0.248 NA
ATOM     58  C   UNL A   1      42.945  30.543  28.884  1.00  0.00     0.031 C 
ATOM     59  C   UNL A   1      48.868  31.097  27.653  1.00  0.00     0.029 A 
ATOM     60  C   UNL A   1      47.578  30.599  27.747  1.00  0.00     0.049 A 
ATOM     61  H   UNL A   1      46.798  28.781  27.013  1.00  0.00     0.167 HD
ATOM     62  C   UNL A   1      45.179  30.670  28.376  1.00  0.00     0.074 A 
ATOM     63  C   UNL A   1      44.031  31.294  29.004  1.00  0.00     0.031 C 
ATOM     64  C   UNL A   1      46.429  31.193  28.379  1.00  0.00     0.037 A 
BRANCH  51  65
ATOM     65  C   UNL A   1      50.619  27.749  25.428  1.00  0.00     0.064 A 
ATOM     66  C   UNL A   1      51.637  27.353  26.308  1.00  0.00     0.173 A 
ATOM     67  C   UNL A   1      50.959  27.949  24.080  1.00  0.00     0.173 A 
ATOM     68  F   UNL A   1      51.368  27.164  27.609  1.00  0.00    -0.203 F 
ATOM     69  C   UNL A   1      52.944  27.179  25.859  1.00  0.00     0.198 A 
ATOM     70  C   UNL A   1      52.262  27.751  23.630  1.00  0.00     0.198 A 
ATOM     71  F   UNL A   1      50.023  28.325  23.196  1.00  0.00    -0.203 F 
ATOM     72  F   UNL A   1      53.908  26.834  26.724  1.00  0.00    -0.200 F 
ATOM     73  C   UNL A   1      53.254  27.370  24.520  1.00  0.00     0.200 A 
ATOM     74  F   UNL A   1      52.555  27.927  22.334  1.00  0.00    -0.200 F 
ATOM     75  F   UNL A   1      54.511  27.193  24.088  1.00  0.00    -0.200 F 
ENDBRANCH  51  65
BRANCH  52  76
ATOM     76  C   UNL A   1      41.063  28.390  28.235  1.00  0.00     0.064 A 
ATOM     77  C   UNL A   1      40.710  27.928  29.508  1.00  0.00     0.173 A 
ATOM     78  C   UNL A   1      40.052  28.950  27.437  1.00  0.00     0.173 A 
ATOM     79  F   UNL A   1      41.636  27.358  30.293  1.00  0.00    -0.203 F 
ATOM     80  C   UNL A   1      39.399  28.026  29.968  1.00  0.00     0.198 A 
ATOM     81  C   UNL A   1      38.749  29.076  27.910  1.00  0.00     0.198 A 
ATOM     82  F   UNL A   1      40.341  29.405  26.209  1.00  0.00    -0.203 F 
ATOM     83  F   UNL A   1      39.079  27.550  31.180  1.00  0.00    -0.200 F 
ATOM     84  C   UNL A   1      38.422  28.610  29.175  1.00  0.00     0.200 A 
ATOM     85  F   UNL A   1      37.814  29.653  27.145  1.00  0.00    -0.200 F 
ATOM     86  F   UNL A   1      37.166  28.721  29.626  1.00  0.00    -0.200 F 
ENDBRANCH  52  76
BRANCH  64  87
ATOM     87  C   UNL A   1      46.610  32.507  29.076  1.00  0.00     0.064 A 
ATOM     88  C   UNL A   1      46.976  32.571  30.429  1.00  0.00     0.173 A 
ATOM     89  C   UNL A   1      46.424  33.713  28.384  1.00  0.00     0.173 A 
ATOM     90  F   UNL A   1      47.147  31.444  31.136  1.00  0.00    -0.203 F 
ATOM     91  C   UNL A   1      47.123  33.797  31.071  1.00  0.00     0.198 A 
ATOM     92  C   UNL A   1      46.594  34.937  29.023  1.00  0.00     0.198 A 
ATOM     93  F   UNL A   1      46.077  33.702  27.089  1.00  0.00    -0.203 F 
ATOM     94  F   UNL A   1      47.426  33.836  32.376  1.00  0.00    -0.200 F 
ATOM     95  C   UNL A   1      46.936  34.978  30.368  1.00  0.00     0.200 A 
ATOM     96  F   UNL A   1      46.421  36.078  28.342  1.00  0.00    -0.200 F 
ATOM     97  F   UNL A   1      47.074  36.158  30.988  1.00  0.00    -0.200 F 
ENDBRANCH  64  87
ENDBRANCH  38  39
ENDBRANCH  31  33
ENDBRANCH  30  31
ENDBRANCH  29  30
ENDBRANCH  28  29
ENDBRANCH  27  28
ENDBRANCH  26  27
ENDBRANCH   1  26
TORSDOF 20
ENDMDL
MODEL 3
REMARK VINA RESULT:     -10.4      1.559      7.373
REMARK SMILES CC1(C)CCC[C@@H]1NC(=O)CC1(C(=O)OCCOCCOCCOC(=O)c2ccc(-c3c4nc(c(-c5c(F)c(F)c(F)c(F)c5F)c5ccc([nH]5)c(-c5c(F)c(F)c(F)c(F)c5F)c5nc(c(-c6c(F)c(F)c(F)c(F)c6F)c6ccc3[nH]6)C=C5)C=C4)cc2)CCCCC1
REMARK SMILES IDX 19 1 18 2 17 3 16 4 15 5 13 6 14 7 12 8 90 9 94 10 91 11
REMARK SMILES IDX 93 12 92 13 11 14 9 15 8 16 10 18 7 19 1 20 2 21 3 22 4 23
REMARK SMILES IDX 5 24 6 25 20 26 21 27 22 28 23 29 24 30 25 31 26 32 27 33
REMARK SMILES IDX 28 34 89 35 29 36 88 37 30 38 31 39 32 40 82 41 33 42 87 43
REMARK SMILES IDX 81 44 83 45 34 46 86 47 80 48 79 49 35 51 67 52 47 53 66 54
REMARK SMILES IDX 48 55 51 56 65 57 84 58 49 59 50 60 64 62 85 63 52 64 36 65
REMARK SMILES IDX 37 66 45 67 38 68 39 69 43 70 46 71 40 72 41 73 44 74 42 75
REMARK SMILES IDX 68 76 69 77 77 78 70 79 71 80 75 81 78 82 72 83 73 84 76 85
REMARK SMILES IDX 74 86 53 87 54 88 62 89 55 90 56 91 60 92 63 93 57 94 58 95
REMARK SMILES IDX 61 96 59 97
REMARK H PARENT 8 17 83 50 51 61
REMARK Flexibility Score: inf
ROOT
ATOM      1  C   UNL A   1      40.482  20.890  26.476  1.00  0.00     0.188 C 
ENDROOT
BRANCH   1   2
ATOM      2  O   UNL A   1      39.409  21.729  26.883  1.00  0.00    -0.376 OA
BRANCH   2   3
ATOM      3  C   UNL A   1      39.484  23.117  26.570  1.00  0.00     0.202 C 
BRANCH   3   4
ATOM      4  C   UNL A   1      38.176  23.746  26.093  1.00  0.00     0.261 C 
BRANCH   4   5
ATOM      5  O   UNL A   1      37.092  22.801  26.204  1.00  0.00    -0.463 OA
BRANCH   5   6
ATOM      6  C   UNL A   1      36.556  22.322  25.055  1.00  0.00     0.312 C 
ATOM      7  O   UNL A   1      37.161  21.606  24.265  1.00  0.00    -0.252 OA
BRANCH   6   8
ATOM      8  C   UNL A   1      35.089  22.754  24.840  1.00  0.00     0.077 C 
ATOM      9  C   UNL A   1      34.548  23.087  26.251  1.00  0.00     0.019 C 
ATOM     10  C   UNL A   1      34.169  21.700  24.194  1.00  0.00     0.019 C 
ATOM     11  C   UNL A   1      34.330  21.817  27.092  1.00  0.00     0.001 C 
ATOM     12  C   UNL A   1      33.812  20.479  25.030  1.00  0.00     0.001 C 
ATOM     13  C   UNL A   1      33.350  20.860  26.423  1.00  0.00     0.000 C 
BRANCH   8  14
ATOM     14  C   UNL A   1      35.202  23.989  23.884  1.00  0.00     0.118 C 
BRANCH  14  15
ATOM     15  C   UNL A   1      33.943  24.394  23.140  1.00  0.00     0.221 C 
ATOM     16  N   UNL A   1      32.952  25.133  23.714  1.00  0.00    -0.353 N 
ATOM     17  H   UNL A   1      32.157  25.213  23.141  1.00  0.00     0.163 HD
ATOM     18  O   UNL A   1      33.771  24.032  21.973  1.00  0.00    -0.275 OA
BRANCH  16  19
ATOM     19  C   UNL A   1      32.803  25.833  24.994  1.00  0.00     0.087 C 
ATOM     20  C   UNL A   1      30.892  24.626  26.257  1.00  0.00     0.013 C 
ATOM     21  C   UNL A   1      31.336  25.899  25.534  1.00  0.00    -0.015 C 
ATOM     22  C   UNL A   1      30.295  26.205  24.439  1.00  0.00     0.013 C 
ATOM     23  C   UNL A   1      31.387  27.074  26.540  1.00  0.00     0.008 C 
ATOM     24  C   UNL A   1      32.499  28.001  26.073  1.00  0.00     0.003 C 
ATOM     25  C   UNL A   1      33.156  27.320  24.883  1.00  0.00     0.025 C 
ENDBRANCH  16  19
ENDBRANCH  14  15
ENDBRANCH   8  14
ENDBRANCH   6   8
ENDBRANCH   5   6
ENDBRANCH   4   5
ENDBRANCH   3   4
ENDBRANCH   2   3
ENDBRANCH   1   2
BRANCH   1  26
ATOM     26  C   UNL A   1      41.895  21.493  26.492  1.00  0.00     0.188 C 
BRANCH  26  27
ATOM     27  O   UNL A   1      42.746  21.285  25.377  1.00  0.00    -0.376 OA
BRANCH  27  28
ATOM     28  C   UNL A   1      43.972  22.008  25.383  1.00  0.00     0.202 C 
BRANCH  28  29
ATOM     29  C   UNL A   1      44.002  23.178  24.403  1.00  0.00     0.261 C 
BRANCH  29  30
ATOM     30  O   UNL A   1      43.417  24.354  24.996  1.00  0.00    -0.460 OA
BRANCH  30  31
ATOM     31  C   UNL A   1      44.323  25.279  25.377  1.00  0.00     0.338 C 
ATOM     32  O   UNL A   1      45.212  25.752  24.689  1.00  0.00    -0.246 OA
BRANCH  31  33
ATOM     33  C   UNL A   1      44.089  25.714  26.772  1.00  0.00     0.060 A 
ATOM     34  C   UNL A   1      43.346  24.938  27.666  1.00  0.00     0.016 A 
ATOM     35  C   UNL A   1      44.434  27.021  27.113  1.00  0.00     0.016 A 
ATOM     36  C   UNL A   1      42.837  25.507  28.834  1.00  0.00     0.010 A 
ATOM     37  C   UNL A   1      43.986  27.566  28.319  1.00  0.00     0.010 A 
ATOM     38  C   UNL A   1      43.131  26.835  29.161  1.00  0.00    -0.014 A 
BRANCH  38  39
ATOM     39  C   UNL A   1      42.498  27.508  30.327  1.00  0.00     0.031 A 
ATOM     40  C   UNL A   1      41.199  28.248  30.148  1.00  0.00     0.074 A 
ATOM     41  C   UNL A   1      43.081  27.478  31.539  1.00  0.00     0.049 A 
ATOM     42  N   UNL A   1      40.632  29.134  30.926  1.00  0.00    -0.248 NA
ATOM     43  C   UNL A   1      40.440  27.957  28.921  1.00  0.00     0.031 C 
ATOM     44  C   UNL A   1      44.289  26.730  31.882  1.00  0.00     0.029 A 
ATOM     45  N   UNL A   1      42.740  28.117  32.707  1.00  0.00    -0.354 N 
ATOM     46  C   UNL A   1      39.487  29.551  30.257  1.00  0.00     0.074 A 
ATOM     47  C   UNL A   1      39.429  28.810  29.016  1.00  0.00     0.031 C 
ATOM     48  C   UNL A   1      44.592  26.951  33.169  1.00  0.00     0.029 A 
ATOM     49  C   UNL A   1      43.657  27.933  33.711  1.00  0.00     0.049 A 
ATOM     50  H   UNL A   1      41.921  28.653  32.812  1.00  0.00     0.167 HD
ATOM     51  C   UNL A   1      38.580  30.482  30.644  1.00  0.00     0.037 A 
ATOM     52  C   UNL A   1      43.780  28.538  34.907  1.00  0.00     0.037 A 
ATOM     53  C   UNL A   1      38.624  31.180  31.903  1.00  0.00     0.049 A 
ATOM     54  C   UNL A   1      42.798  29.606  35.293  1.00  0.00     0.074 A 
ATOM     55  C   UNL A   1      37.751  32.136  32.395  1.00  0.00     0.029 A 
ATOM     56  N   UNL A   1      39.589  30.982  32.879  1.00  0.00    -0.354 N 
ATOM     57  N   UNL A   1      41.774  30.070  34.620  1.00  0.00    -0.248 NA
ATOM     58  C   UNL A   1      43.007  30.253  36.596  1.00  0.00     0.031 C 
ATOM     59  C   UNL A   1      38.210  32.542  33.653  1.00  0.00     0.029 A 
ATOM     60  C   UNL A   1      39.345  31.809  33.963  1.00  0.00     0.049 A 
ATOM     61  H   UNL A   1      40.339  30.347  32.811  1.00  0.00     0.167 HD
ATOM     62  C   UNL A   1      41.214  31.060  35.414  1.00  0.00     0.074 A 
ATOM     63  C   UNL A   1      41.999  31.114  36.630  1.00  0.00     0.031 C 
ATOM     64  C   UNL A   1      40.148  31.857  35.156  1.00  0.00     0.037 A 
BRANCH  51  65
ATOM     65  C   UNL A   1      37.489  30.839  29.677  1.00  0.00     0.064 A 
ATOM     66  C   UNL A   1      36.411  29.981  29.416  1.00  0.00     0.173 A 
ATOM     67  C   UNL A   1      37.501  32.090  29.039  1.00  0.00     0.173 A 
ATOM     68  F   UNL A   1      36.360  28.769  29.989  1.00  0.00    -0.203 F 
ATOM     69  C   UNL A   1      35.395  30.355  28.540  1.00  0.00     0.198 A 
ATOM     70  C   UNL A   1      36.471  32.470  28.182  1.00  0.00     0.198 A 
ATOM     71  F   UNL A   1      38.508  32.949  29.256  1.00  0.00    -0.203 F 
ATOM     72  F   UNL A   1      34.391  29.506  28.279  1.00  0.00    -0.200 F 
ATOM     73  C   UNL A   1      35.421  31.601  27.931  1.00  0.00     0.200 A 
ATOM     74  F   UNL A   1      36.495  33.678  27.602  1.00  0.00    -0.200 F 
ATOM     75  F   UNL A   1      34.436  31.962  27.095  1.00  0.00    -0.200 F 
ENDBRANCH  51  65
BRANCH  52  76
ATOM     76  C   UNL A   1      44.927  28.191  35.783  1.00  0.00     0.064 A 
ATOM     77  C   UNL A   1      44.822  27.179  36.744  1.00  0.00     0.173 A 
ATOM     78  C   UNL A   1      46.165  28.840  35.645  1.00  0.00     0.173 A 
ATOM     79  F   UNL A   1      43.652  26.551  36.930  1.00  0.00    -0.203 F 
ATOM     80  C   UNL A   1      45.914  26.825  37.534  1.00  0.00     0.198 A 
ATOM     81  C   UNL A   1      47.262  28.465  36.415  1.00  0.00     0.198 A 
ATOM     82  F   UNL A   1      46.314  29.817  34.740  1.00  0.00    -0.203 F 
ATOM     83  F   UNL A   1      45.782  25.872  38.467  1.00  0.00    -0.200 F 
ATOM     84  C   UNL A   1      47.136  27.459  37.361  1.00  0.00     0.200 A 
ATOM     85  F   UNL A   1      48.444  29.071  36.233  1.00  0.00    -0.200 F 
ATOM     86  F   UNL A   1      48.189  27.105  38.109  1.00  0.00    -0.200 F 
ENDBRANCH  52  76
BRANCH  64  87
ATOM     87  C   UNL A   1      39.771  32.845  36.218  1.00  0.00     0.064 A 
ATOM     88  C   UNL A   1      40.390  34.102  36.298  1.00  0.00     0.173 A 
ATOM     89  C   UNL A   1      38.779  32.536  37.160  1.00  0.00     0.173 A 
ATOM     90  F   UNL A   1      41.357  34.435  35.431  1.00  0.00    -0.203 F 
ATOM     91  C   UNL A   1      40.045  35.004  37.301  1.00  0.00     0.198 A 
ATOM     92  C   UNL A   1      38.421  33.449  38.147  1.00  0.00     0.198 A 
ATOM     93  F   UNL A   1      38.158  31.348  37.121  1.00  0.00    -0.203 F 
ATOM     94  F   UNL A   1      40.682  36.180  37.390  1.00  0.00    -0.200 F 
ATOM     95  C   UNL A   1      39.060  34.678  38.221  1.00  0.00     0.200 A 
ATOM     96  F   UNL A   1      37.463  33.138  39.031  1.00  0.00    -0.200 F 
ATOM     97  F   UNL A   1      38.732  35.547  39.189  1.00  0.00    -0.200 F 
ENDBRANCH  64  87
ENDBRANCH  38  39
ENDBRANCH  31  33
ENDBRANCH  30  31
ENDBRANCH  29  30
ENDBRANCH  28  29
ENDBRANCH  27  28
ENDBRANCH  26  27
ENDBRANCH   1  26
TORSDOF 20
ENDMDL
