MODEL 1
REMARK VINA RESULT:     -11.3      0.000      0.000
REMARK SMILES Cc1cc(Cl)cc2c1O[C@H](C(F)(F)F)C(C(=O)OCCOCCOCCOC(=O)c1ccc(-c3c4nc(c(-c5c(F)c(F)c(F)c(F)c5F)c5ccc([nH]5)c(-c5c(F)c(F)c(F)c(F)c5F)c5nc(c(-c6c(F)c(F)c(F)c(F)c6F)c6ccc3[nH]6)C=C5)C=C4)cc1)=C2
REMARK SMILES IDX 23 1 22 2 21 3 20 4 19 5 18 6 16 7 17 8 15 9 1 10 2 11 3 12
REMARK SMILES IDX 8 13 4 14 7 15 9 16 5 17 6 18 93 19 10 20 11 21 12 22 13 23
REMARK SMILES IDX 14 24 24 25 25 26 26 27 27 28 28 29 29 30 30 31 31 32 92 33
REMARK SMILES IDX 32 34 91 35 33 36 34 37 35 38 85 39 36 40 90 41 84 42 86 43
REMARK SMILES IDX 37 44 89 45 83 46 82 47 38 49 70 50 50 51 69 52 51 53 54 54
REMARK SMILES IDX 68 55 87 56 52 57 53 58 67 60 88 61 55 62 39 63 40 64 48 65
REMARK SMILES IDX 41 66 42 67 46 68 49 69 43 70 44 71 47 72 45 73 71 74 72 75
REMARK SMILES IDX 80 76 73 77 74 78 78 79 81 80 75 81 76 82 79 83 77 84 56 85
REMARK SMILES IDX 57 86 65 87 58 88 59 89 63 90 66 91 60 92 61 93 64 94 62 95
REMARK H PARENT 86 48 54 59
REMARK Flexibility Score: inf
ROOT
ATOM      1  C   UNL A   1      33.355  20.184  25.560  1.00  0.00     0.188 C 
ENDROOT
BRANCH   1   2
ATOM      2  C   UNL A   1      32.269  21.131  25.005  1.00  0.00     0.188 C 
BRANCH   2   3
ATOM      3  O   UNL A   1      32.628  22.386  24.441  1.00  0.00    -0.376 OA
BRANCH   3   4
ATOM      4  C   UNL A   1      32.426  22.637  23.057  1.00  0.00     0.202 C 
BRANCH   4   5
ATOM      5  C   UNL A   1      32.239  24.078  22.555  1.00  0.00     0.261 C 
BRANCH   5   6
ATOM      6  O   UNL A   1      32.979  25.071  23.281  1.00  0.00    -0.460 OA
BRANCH   6   7
ATOM      7  C   UNL A   1      33.259  26.206  22.597  1.00  0.00     0.338 C 
ATOM      8  O   UNL A   1      33.470  26.305  21.401  1.00  0.00    -0.246 OA
BRANCH   7   9
ATOM      9  C   UNL A   1      33.122  27.373  23.493  1.00  0.00     0.087 C 
ATOM     10  C   UNL A   1      31.403  31.321  26.258  1.00  0.00     0.048 C 
ATOM     11  C   UNL A   1      32.604  30.418  26.308  1.00  0.00    -0.007 A 
ATOM     12  C   UNL A   1      33.485  30.492  27.398  1.00  0.00     0.027 A 
ATOM     13  C   UNL A   1      32.819  29.447  25.316  1.00  0.00     0.131 A 
ATOM     14  C   UNL A   1      34.573  29.626  27.481  1.00  0.00     0.042 A 
ATOM     15  C   UNL A   1      33.888  28.551  25.430  1.00  0.00     0.019 A 
ATOM     16  O   UNL A   1      31.939  29.426  24.270  1.00  0.00    -0.475 OA
ATOM     17  Cl  UNL A   1      35.650  29.727  28.819  1.00  0.00    -0.084 Cl
ATOM     18  C   UNL A   1      34.779  28.657  26.503  1.00  0.00     0.032 A 
ATOM     19  C   UNL A   1      34.026  27.466  24.476  1.00  0.00     0.027 C 
ATOM     20  C   UNL A   1      32.017  28.368  23.276  1.00  0.00     0.316 C 
BRANCH  20  21
ATOM     21  C   UNL A   1      30.635  27.705  23.186  1.00  0.00     0.430 C 
ATOM     22  F   UNL A   1      30.468  26.785  24.166  1.00  0.00    -0.167 F 
ATOM     23  F   UNL A   1      29.634  28.605  23.325  1.00  0.00    -0.167 F 
ATOM     24  F   UNL A   1      30.455  27.076  22.002  1.00  0.00    -0.167 F 
ENDBRANCH  20  21
ENDBRANCH   7   9
ENDBRANCH   6   7
ENDBRANCH   5   6
ENDBRANCH   4   5
ENDBRANCH   3   4
ENDBRANCH   2   3
ENDBRANCH   1   2
BRANCH   1  25
ATOM     25  O   UNL A   1      34.573  20.228  24.859  1.00  0.00    -0.376 OA
BRANCH  25  26
ATOM     26  C   UNL A   1      35.650  20.992  25.374  1.00  0.00     0.202 C 
BRANCH  26  27
ATOM     27  C   UNL A   1      37.136  20.746  25.037  1.00  0.00     0.261 C 
BRANCH  27  28
ATOM     28  O   UNL A   1      38.081  21.780  25.325  1.00  0.00    -0.460 OA
BRANCH  28  29
ATOM     29  C   UNL A   1      39.122  21.452  26.127  1.00  0.00     0.338 C 
ATOM     30  O   UNL A   1      39.616  20.353  26.285  1.00  0.00    -0.246 OA
BRANCH  29  31
ATOM     31  C   UNL A   1      39.695  22.705  26.663  1.00  0.00     0.060 A 
ATOM     32  C   UNL A   1      39.220  23.930  26.175  1.00  0.00     0.016 A 
ATOM     33  C   UNL A   1      40.705  22.667  27.626  1.00  0.00     0.016 A 
ATOM     34  C   UNL A   1      39.775  25.126  26.633  1.00  0.00     0.010 A 
ATOM     35  C   UNL A   1      41.277  23.864  28.065  1.00  0.00     0.010 A 
ATOM     36  C   UNL A   1      40.836  25.095  27.548  1.00  0.00    -0.014 A 
BRANCH  36  37
ATOM     37  C   UNL A   1      41.611  26.324  27.839  1.00  0.00     0.031 A 
ATOM     38  C   UNL A   1      40.950  27.417  28.631  1.00  0.00     0.074 A 
ATOM     39  C   UNL A   1      42.875  26.474  27.405  1.00  0.00     0.049 A 
ATOM     40  N   UNL A   1      41.374  28.624  28.902  1.00  0.00    -0.248 NA
ATOM     41  C   UNL A   1      39.626  27.102  29.195  1.00  0.00     0.031 C 
ATOM     42  C   UNL A   1      43.646  25.463  26.688  1.00  0.00     0.029 A 
ATOM     43  N   UNL A   1      43.723  27.549  27.495  1.00  0.00    -0.354 N 
ATOM     44  C   UNL A   1      40.373  29.213  29.662  1.00  0.00     0.074 A 
ATOM     45  C   UNL A   1      39.307  28.242  29.790  1.00  0.00     0.031 C 
ATOM     46  C   UNL A   1      44.854  25.972  26.387  1.00  0.00     0.029 A 
ATOM     47  C   UNL A   1      44.921  27.357  26.851  1.00  0.00     0.049 A 
ATOM     48  H   UNL A   1      43.496  28.378  27.975  1.00  0.00     0.167 HD
ATOM     49  C   UNL A   1      40.347  30.451  30.207  1.00  0.00     0.037 A 
ATOM     50  C   UNL A   1      45.939  28.215  26.637  1.00  0.00     0.037 A 
ATOM     51  C   UNL A   1      41.401  31.420  30.064  1.00  0.00     0.049 A 
ATOM     52  C   UNL A   1      45.843  29.624  27.167  1.00  0.00     0.074 A 
ATOM     53  C   UNL A   1      41.459  32.712  30.556  1.00  0.00     0.029 A 
ATOM     54  N   UNL A   1      42.583  31.203  29.370  1.00  0.00    -0.354 N 
ATOM     55  N   UNL A   1      44.885  30.185  27.864  1.00  0.00    -0.248 NA
ATOM     56  C   UNL A   1      46.974  30.519  26.879  1.00  0.00     0.031 C 
ATOM     57  C   UNL A   1      42.653  33.292  30.121  1.00  0.00     0.029 A 
ATOM     58  C   UNL A   1      43.370  32.342  29.411  1.00  0.00     0.049 A 
ATOM     59  H   UNL A   1      42.827  30.363  28.917  1.00  0.00     0.167 HD
ATOM     60  C   UNL A   1      45.311  31.481  28.128  1.00  0.00     0.074 A 
ATOM     61  C   UNL A   1      46.618  31.621  27.522  1.00  0.00     0.031 C 
ATOM     62  C   UNL A   1      44.677  32.464  28.815  1.00  0.00     0.037 A 
BRANCH  49  63
ATOM     63  C   UNL A   1      39.129  30.842  30.992  1.00  0.00     0.064 A 
ATOM     64  C   UNL A   1      39.010  30.547  32.359  1.00  0.00     0.173 A 
ATOM     65  C   UNL A   1      38.095  31.573  30.386  1.00  0.00     0.173 A 
ATOM     66  F   UNL A   1      39.961  29.834  32.982  1.00  0.00    -0.203 F 
ATOM     67  C   UNL A   1      37.897  30.960  33.086  1.00  0.00     0.198 A 
ATOM     68  C   UNL A   1      36.998  32.009  31.123  1.00  0.00     0.198 A 
ATOM     69  F   UNL A   1      38.160  31.880  29.082  1.00  0.00    -0.203 F 
ATOM     70  F   UNL A   1      37.787  30.638  34.382  1.00  0.00    -0.200 F 
ATOM     71  C   UNL A   1      36.898  31.701  32.471  1.00  0.00     0.200 A 
ATOM     72  F   UNL A   1      36.041  32.735  30.530  1.00  0.00    -0.200 F 
ATOM     73  F   UNL A   1      35.836  32.113  33.177  1.00  0.00    -0.200 F 
ENDBRANCH  49  63
BRANCH  50  74
ATOM     74  C   UNL A   1      47.138  27.765  25.882  1.00  0.00     0.064 A 
ATOM     75  C   UNL A   1      48.283  27.315  26.553  1.00  0.00     0.173 A 
ATOM     76  C   UNL A   1      47.165  27.774  24.481  1.00  0.00     0.173 A 
ATOM     77  F   UNL A   1      48.318  27.317  27.894  1.00  0.00    -0.203 F 
ATOM     78  C   UNL A   1      49.412  26.897  25.850  1.00  0.00     0.198 A 
ATOM     79  C   UNL A   1      48.283  27.328  23.778  1.00  0.00     0.198 A 
ATOM     80  F   UNL A   1      46.098  28.203  23.790  1.00  0.00    -0.203 F 
ATOM     81  F   UNL A   1      50.507  26.508  26.518  1.00  0.00    -0.200 F 
ATOM     82  C   UNL A   1      49.408  26.894  24.464  1.00  0.00     0.200 A 
ATOM     83  F   UNL A   1      48.270  27.319  22.438  1.00  0.00    -0.200 F 
ATOM     84  F   UNL A   1      50.489  26.481  23.789  1.00  0.00    -0.200 F 
ENDBRANCH  50  74
BRANCH  62  85
ATOM     85  C   UNL A   1      45.405  33.767  29.000  1.00  0.00     0.064 A 
ATOM     86  C   UNL A   1      45.259  34.831  28.100  1.00  0.00     0.173 A 
ATOM     87  C   UNL A   1      46.218  33.968  30.127  1.00  0.00     0.173 A 
ATOM     88  F   UNL A   1      44.502  34.690  27.002  1.00  0.00    -0.203 F 
ATOM     89  C   UNL A   1      45.923  36.039  28.306  1.00  0.00     0.198 A 
ATOM     90  C   UNL A   1      46.852  35.186  30.348  1.00  0.00     0.198 A 
ATOM     91  F   UNL A   1      46.381  32.986  31.028  1.00  0.00    -0.203 F 
ATOM     92  F   UNL A   1      45.809  37.026  27.406  1.00  0.00    -0.200 F 
ATOM     93  C   UNL A   1      46.712  36.218  29.433  1.00  0.00     0.200 A 
ATOM     94  F   UNL A   1      47.598  35.363  31.447  1.00  0.00    -0.200 F 
ATOM     95  F   UNL A   1      47.342  37.384  29.634  1.00  0.00    -0.200 F 
ENDBRANCH  62  85
ENDBRANCH  36  37
ENDBRANCH  29  31
ENDBRANCH  28  29
ENDBRANCH  27  28
ENDBRANCH  26  27
ENDBRANCH  25  26
ENDBRANCH   1  25
TORSDOF 18
ENDMDL
MODEL 2
REMARK VINA RESULT:     -11.3      4.489     10.225
REMARK SMILES Cc1cc(Cl)cc2c1O[C@H](C(F)(F)F)C(C(=O)OCCOCCOCCOC(=O)c1ccc(-c3c4nc(c(-c5c(F)c(F)c(F)c(F)c5F)c5ccc([nH]5)c(-c5c(F)c(F)c(F)c(F)c5F)c5nc(c(-c6c(F)c(F)c(F)c(F)c6F)c6ccc3[nH]6)C=C5)C=C4)cc1)=C2
REMARK SMILES IDX 23 1 22 2 21 3 20 4 19 5 18 6 16 7 17 8 15 9 1 10 2 11 3 12
REMARK SMILES IDX 8 13 4 14 7 15 9 16 5 17 6 18 93 19 10 20 11 21 12 22 13 23
REMARK SMILES IDX 14 24 24 25 25 26 26 27 27 28 28 29 29 30 30 31 31 32 92 33
REMARK SMILES IDX 32 34 91 35 33 36 34 37 35 38 85 39 36 40 90 41 84 42 86 43
REMARK SMILES IDX 37 44 89 45 83 46 82 47 38 49 70 50 50 51 69 52 51 53 54 54
REMARK SMILES IDX 68 55 87 56 52 57 53 58 67 60 88 61 55 62 39 63 40 64 48 65
REMARK SMILES IDX 41 66 42 67 46 68 49 69 43 70 44 71 47 72 45 73 71 74 72 75
REMARK SMILES IDX 80 76 73 77 74 78 78 79 81 80 75 81 76 82 79 83 77 84 56 85
REMARK SMILES IDX 57 86 65 87 58 88 59 89 63 90 66 91 60 92 61 93 64 94 62 95
REMARK H PARENT 86 48 54 59
REMARK Flexibility Score: inf
ROOT
ATOM      1  C   UNL A   1      31.785  29.323  25.934  1.00  0.00     0.188 C 
ENDROOT
BRANCH   1   2
ATOM      2  C   UNL A   1      31.545  29.242  24.411  1.00  0.00     0.188 C 
BRANCH   2   3
ATOM      3  O   UNL A   1      30.298  28.786  23.903  1.00  0.00    -0.376 OA
BRANCH   3   4
ATOM      4  C   UNL A   1      30.189  27.497  23.313  1.00  0.00     0.202 C 
BRANCH   4   5
ATOM      5  C   UNL A   1      31.121  27.096  22.158  1.00  0.00     0.261 C 
BRANCH   5   6
ATOM      6  O   UNL A   1      31.422  25.694  22.085  1.00  0.00    -0.460 OA
BRANCH   6   7
ATOM      7  C   UNL A   1      32.702  25.389  21.764  1.00  0.00     0.338 C 
ATOM      8  O   UNL A   1      33.407  25.958  20.948  1.00  0.00    -0.246 OA
BRANCH   7   9
ATOM      9  C   UNL A   1      33.205  24.337  22.671  1.00  0.00     0.087 C 
ATOM     10  C   UNL A   1      35.126  21.691  26.607  1.00  0.00     0.048 C 
ATOM     11  C   UNL A   1      34.268  21.369  25.416  1.00  0.00    -0.007 A 
ATOM     12  C   UNL A   1      33.686  20.098  25.299  1.00  0.00     0.027 A 
ATOM     13  C   UNL A   1      33.977  22.348  24.450  1.00  0.00     0.131 A 
ATOM     14  C   UNL A   1      32.848  19.805  24.226  1.00  0.00     0.042 A 
ATOM     15  C   UNL A   1      33.098  22.060  23.400  1.00  0.00     0.019 A 
ATOM     16  O   UNL A   1      34.580  23.565  24.603  1.00  0.00    -0.475 OA
ATOM     17  Cl  UNL A   1      32.143  18.241  24.091  1.00  0.00    -0.084 Cl
ATOM     18  C   UNL A   1      32.551  20.778  23.276  1.00  0.00     0.032 A 
ATOM     19  C   UNL A   1      32.695  23.112  22.485  1.00  0.00     0.027 C 
ATOM     20  C   UNL A   1      34.224  24.667  23.724  1.00  0.00     0.316 C 
BRANCH  20  21
ATOM     21  C   UNL A   1      33.803  25.854  24.602  1.00  0.00     0.430 C 
ATOM     22  F   UNL A   1      32.491  25.777  24.932  1.00  0.00    -0.167 F 
ATOM     23  F   UNL A   1      34.493  25.890  25.765  1.00  0.00    -0.167 F 
ATOM     24  F   UNL A   1      33.996  27.037  23.976  1.00  0.00    -0.167 F 
ENDBRANCH  20  21
ENDBRANCH   7   9
ENDBRANCH   6   7
ENDBRANCH   5   6
ENDBRANCH   4   5
ENDBRANCH   3   4
ENDBRANCH   2   3
ENDBRANCH   1   2
BRANCH   1  25
ATOM     25  O   UNL A   1      32.287  30.560  26.375  1.00  0.00    -0.376 OA
BRANCH  25  26
ATOM     26  C   UNL A   1      31.407  31.662  26.519  1.00  0.00     0.202 C 
BRANCH  26  27
ATOM     27  C   UNL A   1      31.856  33.101  26.852  1.00  0.00     0.261 C 
BRANCH  27  28
ATOM     28  O   UNL A   1      32.125  33.433  28.217  1.00  0.00    -0.460 OA
BRANCH  28  29
ATOM     29  C   UNL A   1      33.043  34.403  28.442  1.00  0.00     0.338 C 
ATOM     30  O   UNL A   1      32.867  35.606  28.421  1.00  0.00    -0.246 OA
BRANCH  29  31
ATOM     31  C   UNL A   1      34.288  33.754  28.903  1.00  0.00     0.060 A 
ATOM     32  C   UNL A   1      34.209  32.492  29.508  1.00  0.00     0.016 A 
ATOM     33  C   UNL A   1      35.519  34.395  28.755  1.00  0.00     0.016 A 
ATOM     34  C   UNL A   1      35.365  31.876  29.991  1.00  0.00     0.010 A 
ATOM     35  C   UNL A   1      36.672  33.789  29.262  1.00  0.00     0.010 A 
ATOM     36  C   UNL A   1      36.595  32.542  29.908  1.00  0.00    -0.014 A 
BRANCH  36  37
ATOM     37  C   UNL A   1      37.775  32.033  30.647  1.00  0.00     0.031 A 
ATOM     38  C   UNL A   1      38.605  30.954  30.014  1.00  0.00     0.074 A 
ATOM     39  C   UNL A   1      38.101  32.514  31.860  1.00  0.00     0.049 A 
ATOM     40  N   UNL A   1      39.600  30.266  30.512  1.00  0.00    -0.248 NA
ATOM     41  C   UNL A   1      38.265  30.602  28.625  1.00  0.00     0.031 C 
ATOM     42  C   UNL A   1      37.417  33.604  32.548  1.00  0.00     0.029 A 
ATOM     43  N   UNL A   1      39.089  32.129  32.731  1.00  0.00    -0.354 N 
ATOM     44  C   UNL A   1      40.002  29.401  29.503  1.00  0.00     0.074 A 
ATOM     45  C   UNL A   1      39.129  29.630  28.372  1.00  0.00     0.031 C 
ATOM     46  C   UNL A   1      37.996  33.791  33.747  1.00  0.00     0.029 A 
ATOM     47  C   UNL A   1      39.060  32.805  33.926  1.00  0.00     0.049 A 
ATOM     48  H   UNL A   1      39.754  31.434  32.521  1.00  0.00     0.167 HD
ATOM     49  C   UNL A   1      41.011  28.499  29.519  1.00  0.00     0.037 A 
ATOM     50  C   UNL A   1      39.792  32.623  35.044  1.00  0.00     0.037 A 
ATOM     51  C   UNL A   1      41.866  28.263  30.652  1.00  0.00     0.049 A 
ATOM     52  C   UNL A   1      40.843  31.542  35.073  1.00  0.00     0.074 A 
ATOM     53  C   UNL A   1      42.901  27.353  30.777  1.00  0.00     0.029 A 
ATOM     54  N   UNL A   1      41.781  28.941  31.860  1.00  0.00    -0.354 N 
ATOM     55  N   UNL A   1      41.204  30.710  34.128  1.00  0.00    -0.248 NA
ATOM     56  C   UNL A   1      41.589  31.377  36.330  1.00  0.00     0.031 C 
ATOM     57  C   UNL A   1      43.410  27.447  32.075  1.00  0.00     0.029 A 
ATOM     58  C   UNL A   1      42.737  28.459  32.740  1.00  0.00     0.049 A 
ATOM     59  H   UNL A   1      41.138  29.659  32.062  1.00  0.00     0.167 HD
ATOM     60  C   UNL A   1      42.238  29.949  34.659  1.00  0.00     0.074 A 
ATOM     61  C   UNL A   1      42.453  30.425  36.009  1.00  0.00     0.031 C 
ATOM     62  C   UNL A   1      42.950  28.951  34.078  1.00  0.00     0.037 A 
BRANCH  49  63
ATOM     63  C   UNL A   1      41.234  27.681  28.282  1.00  0.00     0.064 A 
ATOM     64  C   UNL A   1      42.156  28.072  27.299  1.00  0.00     0.173 A 
ATOM     65  C   UNL A   1      40.563  26.461  28.104  1.00  0.00     0.173 A 
ATOM     66  F   UNL A   1      42.810  29.238  27.411  1.00  0.00    -0.203 F 
ATOM     67  C   UNL A   1      42.390  27.276  26.180  1.00  0.00     0.198 A 
ATOM     68  C   UNL A   1      40.821  25.655  26.999  1.00  0.00     0.198 A 
ATOM     69  F   UNL A   1      39.670  26.042  29.014  1.00  0.00    -0.203 F 
ATOM     70  F   UNL A   1      43.249  27.685  25.236  1.00  0.00    -0.200 F 
ATOM     71  C   UNL A   1      41.731  26.064  26.037  1.00  0.00     0.200 A 
ATOM     72  F   UNL A   1      40.192  24.479  26.869  1.00  0.00    -0.200 F 
ATOM     73  F   UNL A   1      41.971  25.292  24.969  1.00  0.00    -0.200 F 
ENDBRANCH  49  63
BRANCH  50  74
ATOM     74  C   UNL A   1      39.553  33.486  36.231  1.00  0.00     0.064 A 
ATOM     75  C   UNL A   1      40.189  34.728  36.357  1.00  0.00     0.173 A 
ATOM     76  C   UNL A   1      38.686  33.090  37.260  1.00  0.00     0.173 A 
ATOM     77  F   UNL A   1      41.051  35.138  35.415  1.00  0.00    -0.203 F 
ATOM     78  C   UNL A   1      39.972  35.539  37.470  1.00  0.00     0.198 A 
ATOM     79  C   UNL A   1      38.448  33.913  38.359  1.00  0.00     0.198 A 
ATOM     80  F   UNL A   1      38.059  31.906  37.192  1.00  0.00    -0.203 F 
ATOM     81  F   UNL A   1      40.624  36.704  37.584  1.00  0.00    -0.200 F 
ATOM     82  C   UNL A   1      39.095  35.135  38.465  1.00  0.00     0.200 A 
ATOM     83  F   UNL A   1      37.591  33.523  39.313  1.00  0.00    -0.200 F 
ATOM     84  F   UNL A   1      38.878  35.920  39.529  1.00  0.00    -0.200 F 
ENDBRANCH  50  74
BRANCH  62  85
ATOM     85  C   UNL A   1      44.066  28.335  34.874  1.00  0.00     0.064 A 
ATOM     86  C   UNL A   1      43.881  27.170  35.631  1.00  0.00     0.173 A 
ATOM     87  C   UNL A   1      45.354  28.892  34.833  1.00  0.00     0.173 A 
ATOM     88  F   UNL A   1      42.669  26.602  35.713  1.00  0.00    -0.203 F 
ATOM     89  C   UNL A   1      44.937  26.602  36.340  1.00  0.00     0.198 A 
ATOM     90  C   UNL A   1      46.414  28.303  35.514  1.00  0.00     0.198 A 
ATOM     91  F   UNL A   1      45.590  30.000  34.112  1.00  0.00    -0.203 F 
ATOM     92  F   UNL A   1      44.726  25.516  37.098  1.00  0.00    -0.200 F 
ATOM     93  C   UNL A   1      46.204  27.164  36.275  1.00  0.00     0.200 A 
ATOM     94  F   UNL A   1      47.641  28.837  35.434  1.00  0.00    -0.200 F 
ATOM     95  F   UNL A   1      47.221  26.609  36.950  1.00  0.00    -0.200 F 
ENDBRANCH  62  85
ENDBRANCH  36  37
ENDBRANCH  29  31
ENDBRANCH  28  29
ENDBRANCH  27  28
ENDBRANCH  26  27
ENDBRANCH  25  26
ENDBRANCH   1  25
TORSDOF 18
ENDMDL
MODEL 3
REMARK VINA RESULT:     -11.3      4.441      7.975
REMARK SMILES Cc1cc(Cl)cc2c1O[C@H](C(F)(F)F)C(C(=O)OCCOCCOCCOC(=O)c1ccc(-c3c4nc(c(-c5c(F)c(F)c(F)c(F)c5F)c5ccc([nH]5)c(-c5c(F)c(F)c(F)c(F)c5F)c5nc(c(-c6c(F)c(F)c(F)c(F)c6F)c6ccc3[nH]6)C=C5)C=C4)cc1)=C2
REMARK SMILES IDX 23 1 22 2 21 3 20 4 19 5 18 6 16 7 17 8 15 9 1 10 2 11 3 12
REMARK SMILES IDX 8 13 4 14 7 15 9 16 5 17 6 18 93 19 10 20 11 21 12 22 13 23
REMARK SMILES IDX 14 24 24 25 25 26 26 27 27 28 28 29 29 30 30 31 31 32 92 33
REMARK SMILES IDX 32 34 91 35 33 36 34 37 35 38 85 39 36 40 90 41 84 42 86 43
REMARK SMILES IDX 37 44 89 45 83 46 82 47 38 49 70 50 50 51 69 52 51 53 54 54
REMARK SMILES IDX 68 55 87 56 52 57 53 58 67 60 88 61 55 62 39 63 40 64 48 65
REMARK SMILES IDX 41 66 42 67 46 68 49 69 43 70 44 71 47 72 45 73 71 74 72 75
REMARK SMILES IDX 80 76 73 77 74 78 78 79 81 80 75 81 76 82 79 83 77 84 56 85
REMARK SMILES IDX 57 86 65 87 58 88 59 89 63 90 66 91 60 92 61 93 64 94 62 95
REMARK H PARENT 86 48 54 59
REMARK Flexibility Score: inf
ROOT
ATOM      1  C   UNL A   1      32.758  29.326  26.111  1.00  0.00     0.188 C 
ENDROOT
BRANCH   1   2
ATOM      2  C   UNL A   1      32.285  29.286  24.642  1.00  0.00     0.188 C 
BRANCH   2   3
ATOM      3  O   UNL A   1      30.909  29.101  24.335  1.00  0.00    -0.376 OA
BRANCH   3   4
ATOM      4  C   UNL A   1      30.459  27.887  23.746  1.00  0.00     0.202 C 
BRANCH   4   5
ATOM      5  C   UNL A   1      31.105  27.375  22.449  1.00  0.00     0.261 C 
BRANCH   5   6
ATOM      6  O   UNL A   1      31.417  25.973  22.442  1.00  0.00    -0.460 OA
BRANCH   6   7
ATOM      7  C   UNL A   1      32.643  25.651  21.966  1.00  0.00     0.338 C 
ATOM      8  O   UNL A   1      33.285  26.260  21.128  1.00  0.00    -0.246 OA
BRANCH   7   9
ATOM      9  C   UNL A   1      33.187  24.508  22.727  1.00  0.00     0.087 C 
ATOM     10  C   UNL A   1      35.383  21.474  26.215  1.00  0.00     0.048 C 
ATOM     11  C   UNL A   1      34.392  21.285  25.101  1.00  0.00    -0.007 A 
ATOM     12  C   UNL A   1      33.743  20.050  24.948  1.00  0.00     0.027 A 
ATOM     13  C   UNL A   1      34.047  22.351  24.252  1.00  0.00     0.131 A 
ATOM     14  C   UNL A   1      32.785  19.879  23.951  1.00  0.00     0.042 A 
ATOM     15  C   UNL A   1      33.052  22.184  23.283  1.00  0.00     0.019 A 
ATOM     16  O   UNL A   1      34.718  23.528  24.435  1.00  0.00    -0.475 OA
ATOM     17  Cl  UNL A   1      31.999  18.360  23.769  1.00  0.00    -0.084 Cl
ATOM     18  C   UNL A   1      32.437  20.938  23.117  1.00  0.00     0.032 A 
ATOM     19  C   UNL A   1      32.605  23.323  22.502  1.00  0.00     0.027 C 
ATOM     20  C   UNL A   1      34.325  24.712  23.688  1.00  0.00     0.316 C 
BRANCH  20  21
ATOM     21  C   UNL A   1      34.052  25.836  24.697  1.00  0.00     0.430 C 
ATOM     22  F   UNL A   1      34.313  27.052  24.159  1.00  0.00    -0.167 F 
ATOM     23  F   UNL A   1      32.758  25.857  25.090  1.00  0.00    -0.167 F 
ATOM     24  F   UNL A   1      34.813  25.711  25.808  1.00  0.00    -0.167 F 
ENDBRANCH  20  21
ENDBRANCH   7   9
ENDBRANCH   6   7
ENDBRANCH   5   6
ENDBRANCH   4   5
ENDBRANCH   3   4
ENDBRANCH   2   3
ENDBRANCH   1   2
BRANCH   1  25
ATOM     25  O   UNL A   1      33.023  30.618  26.598  1.00  0.00    -0.376 OA
BRANCH  25  26
ATOM     26  C   UNL A   1      31.953  31.531  26.779  1.00  0.00     0.202 C 
BRANCH  26  27
ATOM     27  C   UNL A   1      32.120  33.061  26.889  1.00  0.00     0.261 C 
BRANCH  27  28
ATOM     28  O   UNL A   1      32.420  33.623  28.170  1.00  0.00    -0.460 OA
BRANCH  28  29
ATOM     29  C   UNL A   1      33.553  34.359  28.265  1.00  0.00     0.338 C 
ATOM     30  O   UNL A   1      33.661  35.566  28.177  1.00  0.00    -0.246 OA
BRANCH  29  31
ATOM     31  C   UNL A   1      34.648  33.456  28.680  1.00  0.00     0.060 A 
ATOM     32  C   UNL A   1      34.331  32.291  29.392  1.00  0.00     0.016 A 
ATOM     33  C   UNL A   1      35.975  33.768  28.384  1.00  0.00     0.016 A 
ATOM     34  C   UNL A   1      35.349  31.445  29.834  1.00  0.00     0.010 A 
ATOM     35  C   UNL A   1      36.995  32.933  28.848  1.00  0.00     0.010 A 
ATOM     36  C   UNL A   1      36.688  31.785  29.600  1.00  0.00    -0.014 A 
BRANCH  36  37
ATOM     37  C   UNL A   1      37.779  31.052  30.285  1.00  0.00     0.031 A 
ATOM     38  C   UNL A   1      38.066  31.376  31.723  1.00  0.00     0.074 A 
ATOM     39  C   UNL A   1      38.508  30.122  29.643  1.00  0.00     0.049 A 
ATOM     40  N   UNL A   1      39.040  30.964  32.493  1.00  0.00    -0.248 NA
ATOM     41  C   UNL A   1      37.120  32.291  32.385  1.00  0.00     0.031 C 
ATOM     42  C   UNL A   1      38.284  29.672  28.272  1.00  0.00     0.029 A 
ATOM     43  N   UNL A   1      39.596  29.400  30.064  1.00  0.00    -0.354 N 
ATOM     44  C   UNL A   1      38.829  31.570  33.724  1.00  0.00     0.074 A 
ATOM     45  C   UNL A   1      37.649  32.397  33.595  1.00  0.00     0.031 C 
ATOM     46  C   UNL A   1      39.220  28.759  27.957  1.00  0.00     0.029 A 
ATOM     47  C   UNL A   1      40.132  28.596  29.088  1.00  0.00     0.049 A 
ATOM     48  H   UNL A   1      39.958  29.453  30.978  1.00  0.00     0.167 HD
ATOM     49  C   UNL A   1      39.553  31.443  34.860  1.00  0.00     0.037 A 
ATOM     50  C   UNL A   1      41.248  27.840  29.102  1.00  0.00     0.037 A 
ATOM     51  C   UNL A   1      40.736  30.633  34.979  1.00  0.00     0.049 A 
ATOM     52  C   UNL A   1      42.096  27.795  30.348  1.00  0.00     0.074 A 
ATOM     53  C   UNL A   1      41.555  30.458  36.081  1.00  0.00     0.029 A 
ATOM     54  N   UNL A   1      41.270  29.862  33.957  1.00  0.00    -0.354 N 
ATOM     55  N   UNL A   1      41.908  28.388  31.502  1.00  0.00    -0.248 NA
ATOM     56  C   UNL A   1      43.315  26.974  30.292  1.00  0.00     0.031 C 
ATOM     57  C   UNL A   1      42.611  29.621  35.711  1.00  0.00     0.029 A 
ATOM     58  C   UNL A   1      42.417  29.222  34.398  1.00  0.00     0.049 A 
ATOM     59  H   UNL A   1      40.891  29.782  33.051  1.00  0.00     0.167 HD
ATOM     60  C   UNL A   1      42.958  27.985  32.317  1.00  0.00     0.074 A 
ATOM     61  C   UNL A   1      43.778  27.090  31.528  1.00  0.00     0.031 C 
ATOM     62  C   UNL A   1      43.217  28.322  33.606  1.00  0.00     0.037 A 
BRANCH  49  63
ATOM     63  C   UNL A   1      39.102  32.218  36.064  1.00  0.00     0.064 A 
ATOM     64  C   UNL A   1      38.235  31.658  37.015  1.00  0.00     0.173 A 
ATOM     65  C   UNL A   1      39.589  33.513  36.301  1.00  0.00     0.173 A 
ATOM     66  F   UNL A   1      37.726  30.431  36.826  1.00  0.00    -0.203 F 
ATOM     67  C   UNL A   1      37.865  32.370  38.153  1.00  0.00     0.198 A 
ATOM     68  C   UNL A   1      39.240  34.209  37.455  1.00  0.00     0.198 A 
ATOM     69  F   UNL A   1      40.420  34.093  35.422  1.00  0.00    -0.203 F 
ATOM     70  F   UNL A   1      37.009  31.830  39.031  1.00  0.00    -0.200 F 
ATOM     71  C   UNL A   1      38.377  33.640  38.377  1.00  0.00     0.200 A 
ATOM     72  F   UNL A   1      39.745  35.431  37.675  1.00  0.00    -0.200 F 
ATOM     73  F   UNL A   1      38.034  34.316  39.482  1.00  0.00    -0.200 F 
ENDBRANCH  49  63
BRANCH  50  74
ATOM     74  C   UNL A   1      41.631  27.065  27.892  1.00  0.00     0.064 A 
ATOM     75  C   UNL A   1      42.431  27.637  26.895  1.00  0.00     0.173 A 
ATOM     76  C   UNL A   1      41.208  25.741  27.708  1.00  0.00     0.173 A 
ATOM     77  F   UNL A   1      42.835  28.912  27.009  1.00  0.00    -0.203 F 
ATOM     78  C   UNL A   1      42.789  26.917  25.756  1.00  0.00     0.198 A 
ATOM     79  C   UNL A   1      41.589  25.011  26.584  1.00  0.00     0.198 A 
ATOM     80  F   UNL A   1      40.433  25.149  28.629  1.00  0.00    -0.203 F 
ATOM     81  F   UNL A   1      43.523  27.502  24.800  1.00  0.00    -0.200 F 
ATOM     82  C   UNL A   1      42.376  25.602  25.606  1.00  0.00     0.200 A 
ATOM     83  F   UNL A   1      41.196  23.738  26.448  1.00  0.00    -0.200 F 
ATOM     84  F   UNL A   1      42.730  24.906  24.517  1.00  0.00    -0.200 F 
ENDBRANCH  50  74
BRANCH  62  85
ATOM     85  C   UNL A   1      44.405  27.683  34.269  1.00  0.00     0.064 A 
ATOM     86  C   UNL A   1      45.660  28.306  34.300  1.00  0.00     0.173 A 
ATOM     87  C   UNL A   1      44.268  26.452  34.930  1.00  0.00     0.173 A 
ATOM     88  F   UNL A   1      45.849  29.479  33.676  1.00  0.00    -0.203 F 
ATOM     89  C   UNL A   1      46.741  27.707  34.944  1.00  0.00     0.198 A 
ATOM     90  C   UNL A   1      45.340  25.873  35.601  1.00  0.00     0.198 A 
ATOM     91  F   UNL A   1      43.085  25.819  34.943  1.00  0.00    -0.203 F 
ATOM     92  F   UNL A   1      47.945  28.298  34.918  1.00  0.00    -0.200 F 
ATOM     93  C   UNL A   1      46.579  26.496  35.600  1.00  0.00     0.200 A 
ATOM     94  F   UNL A   1      45.176  24.712  36.250  1.00  0.00    -0.200 F 
ATOM     95  F   UNL A   1      47.618  25.927  36.227  1.00  0.00    -0.200 F 
ENDBRANCH  62  85
ENDBRANCH  36  37
ENDBRANCH  29  31
ENDBRANCH  28  29
ENDBRANCH  27  28
ENDBRANCH  26  27
ENDBRANCH  25  26
ENDBRANCH   1  25
TORSDOF 18
ENDMDL
