MODEL 1
REMARK VINA RESULT:     -11.4      0.000      0.000
REMARK SMILES Cc1cc(C(=O)Nc2c(Cl)cc(Cl)cc2C(=O)OCCOCCOCCOC(=O)c2ccc(-c3c4nc(c(-c5c(F)c(F)c(F)c(F)c5F)c5ccc([nH]5)c(-c5c(F)c(F)c(F)c(F)c5F)c5nc(c(-c6c(F)c(F)c(F)c(F)c6F)c6ccc3[nH]6)C=C5)C=C4)cc2)c(C)s1
REMARK SMILES IDX 22 1 21 2 20 3 19 4 18 5 16 6 17 7 15 8 8 9 9 10 10 11 11 12
REMARK SMILES IDX 14 13 12 14 13 15 7 16 5 17 6 18 4 20 1 21 2 22 3 23 95 24
REMARK SMILES IDX 93 25 94 26 23 27 24 28 25 29 26 30 27 31 28 32 29 33 30 34
REMARK SMILES IDX 31 35 92 36 32 37 91 38 33 39 34 40 35 41 85 42 36 43 90 44
REMARK SMILES IDX 84 45 86 46 37 47 89 48 83 49 82 50 38 52 70 53 50 54 69 55
REMARK SMILES IDX 51 56 54 57 68 58 87 59 52 60 53 61 67 63 88 64 55 65 39 66
REMARK SMILES IDX 40 67 48 68 41 69 42 70 46 71 49 72 43 73 44 74 47 75 45 76
REMARK SMILES IDX 71 77 72 78 80 79 73 80 74 81 78 82 81 83 75 84 76 85 79 86
REMARK SMILES IDX 77 87 56 88 57 89 65 90 58 91 59 92 63 93 66 94 60 95 61 96
REMARK SMILES IDX 64 97 62 98
REMARK H PARENT 7 19 86 51 54 62
REMARK Flexibility Score: inf
ROOT
ATOM      1  C   UNL A   1      40.562  20.831  26.719  1.00  0.00     0.188 C 
ENDROOT
BRANCH   1   2
ATOM      2  O   UNL A   1      39.977  21.804  25.862  1.00  0.00    -0.376 OA
BRANCH   2   3
ATOM      3  C   UNL A   1      38.563  21.962  25.815  1.00  0.00     0.202 C 
BRANCH   3   4
ATOM      4  C   UNL A   1      37.979  23.294  25.322  1.00  0.00     0.261 C 
BRANCH   4   5
ATOM      5  O   UNL A   1      36.551  23.421  25.476  1.00  0.00    -0.460 OA
BRANCH   5   6
ATOM      6  C   UNL A   1      35.815  22.925  24.455  1.00  0.00     0.340 C 
ATOM      7  O   UNL A   1      36.164  22.843  23.287  1.00  0.00    -0.246 OA
BRANCH   6   8
ATOM      8  C   UNL A   1      34.530  22.327  24.909  1.00  0.00     0.086 A 
ATOM      9  C   UNL A   1      33.423  23.032  25.423  1.00  0.00     0.075 A 
ATOM     10  C   UNL A   1      32.193  22.347  25.455  1.00  0.00     0.067 A 
ATOM     11  Cl  UNL A   1      30.674  23.179  25.486  1.00  0.00    -0.082 Cl
ATOM     12  C   UNL A   1      32.142  20.953  25.345  1.00  0.00     0.043 A 
ATOM     13  C   UNL A   1      34.477  20.925  24.803  1.00  0.00     0.038 A 
ATOM     14  C   UNL A   1      33.306  20.242  25.094  1.00  0.00     0.043 A 
ATOM     15  Cl  UNL A   1      33.295  18.525  25.100  1.00  0.00    -0.084 Cl
BRANCH   9  16
ATOM     16  N   UNL A   1      33.614  24.338  25.932  1.00  0.00    -0.320 N 
ATOM     17  C   UNL A   1      33.422  25.603  25.390  1.00  0.00     0.256 C 
ATOM     18  O   UNL A   1      33.789  26.549  26.091  1.00  0.00    -0.269 OA
ATOM     19  H   UNL A   1      33.950  24.354  26.858  1.00  0.00     0.170 HD
BRANCH  17  20
ATOM     20  C   UNL A   1      32.740  25.824  24.097  1.00  0.00     0.054 A 
ATOM     21  C   UNL A   1      32.677  25.588  20.309  1.00  0.00     0.056 C 
ATOM     22  C   UNL A   1      32.413  25.783  21.762  1.00  0.00     0.003 A 
ATOM     23  C   UNL A   1      33.000  25.158  22.841  1.00  0.00     0.029 A 
ATOM     24  S   UNL A   1      31.245  26.906  22.274  1.00  0.00    -0.145 S 
ATOM     25  C   UNL A   1      31.652  26.684  23.930  1.00  0.00     0.014 A 
ATOM     26  C   UNL A   1      30.839  27.449  24.926  1.00  0.00     0.057 C 
ENDBRANCH  17  20
ENDBRANCH   9  16
ENDBRANCH   6   8
ENDBRANCH   5   6
ENDBRANCH   4   5
ENDBRANCH   3   4
ENDBRANCH   2   3
ENDBRANCH   1   2
BRANCH   1  27
ATOM     27  C   UNL A   1      41.046  19.481  26.151  1.00  0.00     0.188 C 
BRANCH  27  28
ATOM     28  O   UNL A   1      42.226  19.579  25.389  1.00  0.00    -0.376 OA
BRANCH  28  29
ATOM     29  C   UNL A   1      43.257  20.426  25.872  1.00  0.00     0.202 C 
BRANCH  29  30
ATOM     30  C   UNL A   1      43.805  21.562  24.986  1.00  0.00     0.261 C 
BRANCH  30  31
ATOM     31  O   UNL A   1      43.089  22.807  24.992  1.00  0.00    -0.460 OA
BRANCH  31  32
ATOM     32  C   UNL A   1      43.809  23.946  25.012  1.00  0.00     0.338 C 
ATOM     33  O   UNL A   1      44.745  24.244  24.275  1.00  0.00    -0.246 OA
BRANCH  32  34
ATOM     34  C   UNL A   1      43.171  24.878  25.961  1.00  0.00     0.060 A 
ATOM     35  C   UNL A   1      43.601  26.212  26.003  1.00  0.00     0.016 A 
ATOM     36  C   UNL A   1      42.150  24.440  26.807  1.00  0.00     0.016 A 
ATOM     37  C   UNL A   1      43.025  27.106  26.911  1.00  0.00     0.010 A 
ATOM     38  C   UNL A   1      41.587  25.331  27.729  1.00  0.00     0.010 A 
ATOM     39  C   UNL A   1      42.041  26.661  27.804  1.00  0.00    -0.014 A 
BRANCH  39  40
ATOM     40  C   UNL A   1      41.605  27.529  28.927  1.00  0.00     0.031 A 
ATOM     41  C   UNL A   1      42.389  27.493  30.210  1.00  0.00     0.074 A 
ATOM     42  C   UNL A   1      40.535  28.336  28.815  1.00  0.00     0.049 A 
ATOM     43  N   UNL A   1      42.175  28.124  31.337  1.00  0.00    -0.248 NA
ATOM     44  C   UNL A   1      43.576  26.624  30.221  1.00  0.00     0.031 C 
ATOM     45  C   UNL A   1      39.716  28.493  27.617  1.00  0.00     0.029 A 
ATOM     46  N   UNL A   1      39.952  29.172  29.736  1.00  0.00    -0.354 N 
ATOM     47  C   UNL A   1      43.190  27.717  32.194  1.00  0.00     0.074 A 
ATOM     48  C   UNL A   1      44.005  26.769  31.466  1.00  0.00     0.031 C 
ATOM     49  C   UNL A   1      38.731  29.371  27.877  1.00  0.00     0.029 A 
ATOM     50  C   UNL A   1      38.829  29.809  29.268  1.00  0.00     0.049 A 
ATOM     51  H   UNL A   1      40.306  29.302  30.646  1.00  0.00     0.167 HD
ATOM     52  C   UNL A   1      43.424  28.103  33.471  1.00  0.00     0.037 A 
ATOM     53  C   UNL A   1      37.973  30.635  29.900  1.00  0.00     0.037 A 
ATOM     54  C   UNL A   1      42.613  29.047  34.195  1.00  0.00     0.049 A 
ATOM     55  C   UNL A   1      38.208  30.985  31.348  1.00  0.00     0.074 A 
ATOM     56  C   UNL A   1      42.792  29.532  35.478  1.00  0.00     0.029 A 
ATOM     57  N   UNL A   1      41.458  29.635  33.702  1.00  0.00    -0.354 N 
ATOM     58  N   UNL A   1      39.193  30.632  32.139  1.00  0.00    -0.248 NA
ATOM     59  C   UNL A   1      37.206  31.848  31.992  1.00  0.00     0.031 C 
ATOM     60  C   UNL A   1      41.710  30.366  35.785  1.00  0.00     0.029 A 
ATOM     61  C   UNL A   1      40.892  30.450  34.671  1.00  0.00     0.049 A 
ATOM     62  H   UNL A   1      41.093  29.496  32.798  1.00  0.00     0.167 HD
ATOM     63  C   UNL A   1      38.951  31.258  33.356  1.00  0.00     0.074 A 
ATOM     64  C   UNL A   1      37.728  32.018  33.199  1.00  0.00     0.031 C 
ATOM     65  C   UNL A   1      39.679  31.210  34.500  1.00  0.00     0.037 A 
BRANCH  52  66
ATOM     66  C   UNL A   1      44.585  27.469  34.181  1.00  0.00     0.064 A 
ATOM     67  C   UNL A   1      44.478  26.221  34.813  1.00  0.00     0.173 A 
ATOM     68  C   UNL A   1      45.830  28.117  34.215  1.00  0.00     0.173 A 
ATOM     69  F   UNL A   1      43.307  25.567  34.821  1.00  0.00    -0.203 F 
ATOM     70  C   UNL A   1      45.564  25.661  35.481  1.00  0.00     0.198 A 
ATOM     71  C   UNL A   1      46.922  27.540  34.858  1.00  0.00     0.198 A 
ATOM     72  F   UNL A   1      45.988  29.310  33.624  1.00  0.00    -0.203 F 
ATOM     73  F   UNL A   1      45.422  24.495  36.127  1.00  0.00    -0.200 F 
ATOM     74  C   UNL A   1      46.786  26.317  35.498  1.00  0.00     0.200 A 
ATOM     75  F   UNL A   1      48.104  28.170  34.862  1.00  0.00    -0.200 F 
ATOM     76  F   UNL A   1      47.830  25.776  36.141  1.00  0.00    -0.200 F 
ENDBRANCH  52  66
BRANCH  53  77
ATOM     77  C   UNL A   1      36.806  31.200  29.170  1.00  0.00     0.064 A 
ATOM     78  C   UNL A   1      35.711  30.392  28.831  1.00  0.00     0.173 A 
ATOM     79  C   UNL A   1      36.770  32.546  28.777  1.00  0.00     0.173 A 
ATOM     80  F   UNL A   1      35.713  29.091  29.158  1.00  0.00    -0.203 F 
ATOM     81  C   UNL A   1      34.632  30.905  28.115  1.00  0.00     0.198 A 
ATOM     82  C   UNL A   1      35.677  33.064  28.084  1.00  0.00     0.198 A 
ATOM     83  F   UNL A   1      37.795  33.359  29.069  1.00  0.00    -0.203 F 
ATOM     84  F   UNL A   1      33.621  30.099  27.763  1.00  0.00    -0.200 F 
ATOM     85  C   UNL A   1      34.613  32.242  27.748  1.00  0.00     0.200 A 
ATOM     86  F   UNL A   1      35.659  34.358  27.737  1.00  0.00    -0.200 F 
ATOM     87  F   UNL A   1      33.573  32.735  27.060  1.00  0.00    -0.200 F 
ENDBRANCH  53  77
BRANCH  65  88
ATOM     88  C   UNL A   1      39.205  32.039  35.661  1.00  0.00     0.064 A 
ATOM     89  C   UNL A   1      38.389  31.503  36.669  1.00  0.00     0.173 A 
ATOM     90  C   UNL A   1      39.610  33.376  35.790  1.00  0.00     0.173 A 
ATOM     91  F   UNL A   1      37.962  30.233  36.588  1.00  0.00    -0.203 F 
ATOM     92  C   UNL A   1      37.977  32.282  37.747  1.00  0.00     0.198 A 
ATOM     93  C   UNL A   1      39.223  34.142  36.885  1.00  0.00     0.198 A 
ATOM     94  F   UNL A   1      40.397  33.937  34.858  1.00  0.00    -0.203 F 
ATOM     95  F   UNL A   1      37.158  31.763  38.672  1.00  0.00    -0.200 F 
ATOM     96  C   UNL A   1      38.400  33.598  37.858  1.00  0.00     0.200 A 
ATOM     97  F   UNL A   1      39.647  35.409  36.999  1.00  0.00    -0.200 F 
ATOM     98  F   UNL A   1      38.010  34.344  38.902  1.00  0.00    -0.200 F 
ENDBRANCH  65  88
ENDBRANCH  39  40
ENDBRANCH  32  34
ENDBRANCH  31  32
ENDBRANCH  30  31
ENDBRANCH  29  30
ENDBRANCH  28  29
ENDBRANCH  27  28
ENDBRANCH   1  27
TORSDOF 19
ENDMDL
MODEL 2
REMARK VINA RESULT:     -11.3      1.187      2.168
REMARK SMILES Cc1cc(C(=O)Nc2c(Cl)cc(Cl)cc2C(=O)OCCOCCOCCOC(=O)c2ccc(-c3c4nc(c(-c5c(F)c(F)c(F)c(F)c5F)c5ccc([nH]5)c(-c5c(F)c(F)c(F)c(F)c5F)c5nc(c(-c6c(F)c(F)c(F)c(F)c6F)c6ccc3[nH]6)C=C5)C=C4)cc2)c(C)s1
REMARK SMILES IDX 22 1 21 2 20 3 19 4 18 5 16 6 17 7 15 8 8 9 9 10 10 11 11 12
REMARK SMILES IDX 14 13 12 14 13 15 7 16 5 17 6 18 4 20 1 21 2 22 3 23 95 24
REMARK SMILES IDX 93 25 94 26 23 27 24 28 25 29 26 30 27 31 28 32 29 33 30 34
REMARK SMILES IDX 31 35 92 36 32 37 91 38 33 39 34 40 35 41 85 42 36 43 90 44
REMARK SMILES IDX 84 45 86 46 37 47 89 48 83 49 82 50 38 52 70 53 50 54 69 55
REMARK SMILES IDX 51 56 54 57 68 58 87 59 52 60 53 61 67 63 88 64 55 65 39 66
REMARK SMILES IDX 40 67 48 68 41 69 42 70 46 71 49 72 43 73 44 74 47 75 45 76
REMARK SMILES IDX 71 77 72 78 80 79 73 80 74 81 78 82 81 83 75 84 76 85 79 86
REMARK SMILES IDX 77 87 56 88 57 89 65 90 58 91 59 92 63 93 66 94 60 95 61 96
REMARK SMILES IDX 64 97 62 98
REMARK H PARENT 7 19 86 51 54 62
REMARK Flexibility Score: inf
ROOT
ATOM      1  C   UNL A   1      40.828  20.907  27.004  1.00  0.00     0.188 C 
ENDROOT
BRANCH   1   2
ATOM      2  O   UNL A   1      40.027  21.611  26.062  1.00  0.00    -0.376 OA
BRANCH   2   3
ATOM      3  C   UNL A   1      38.873  22.325  26.492  1.00  0.00     0.202 C 
BRANCH   3   4
ATOM      4  C   UNL A   1      38.455  23.592  25.731  1.00  0.00     0.261 C 
BRANCH   4   5
ATOM      5  O   UNL A   1      37.051  23.910  25.814  1.00  0.00    -0.460 OA
BRANCH   5   6
ATOM      6  C   UNL A   1      36.326  23.610  24.712  1.00  0.00     0.340 C 
ATOM      7  O   UNL A   1      36.770  23.371  23.600  1.00  0.00    -0.246 OA
BRANCH   6   8
ATOM      8  C   UNL A   1      34.876  23.449  25.004  1.00  0.00     0.086 A 
ATOM      9  C   UNL A   1      33.815  23.743  24.123  1.00  0.00     0.075 A 
ATOM     10  C   UNL A   1      32.557  23.193  24.437  1.00  0.00     0.067 A 
ATOM     11  Cl  UNL A   1      31.331  22.949  23.238  1.00  0.00    -0.082 Cl
ATOM     12  C   UNL A   1      32.284  22.709  25.722  1.00  0.00     0.043 A 
ATOM     13  C   UNL A   1      34.597  22.965  26.295  1.00  0.00     0.038 A 
ATOM     14  C   UNL A   1      33.295  22.670  26.669  1.00  0.00     0.043 A 
ATOM     15  Cl  UNL A   1      32.951  22.219  28.290  1.00  0.00    -0.084 Cl
BRANCH   9  16
ATOM     16  N   UNL A   1      34.046  24.613  23.031  1.00  0.00    -0.320 N 
ATOM     17  C   UNL A   1      33.623  25.905  22.744  1.00  0.00     0.256 C 
ATOM     18  O   UNL A   1      33.938  26.339  21.634  1.00  0.00    -0.269 OA
ATOM     19  H   UNL A   1      34.624  24.225  22.335  1.00  0.00     0.170 HD
BRANCH  17  20
ATOM     20  C   UNL A   1      32.920  26.754  23.730  1.00  0.00     0.054 A 
ATOM     21  C   UNL A   1      32.500  28.050  27.273  1.00  0.00     0.056 C 
ATOM     22  C   UNL A   1      32.441  27.743  25.816  1.00  0.00     0.003 A 
ATOM     23  C   UNL A   1      33.423  27.228  24.999  1.00  0.00     0.029 A 
ATOM     24  S   UNL A   1      31.013  28.028  24.941  1.00  0.00    -0.145 S 
ATOM     25  C   UNL A   1      31.652  27.300  23.521  1.00  0.00     0.014 A 
ATOM     26  C   UNL A   1      30.773  27.315  22.309  1.00  0.00     0.057 C 
ENDBRANCH  17  20
ENDBRANCH   9  16
ENDBRANCH   6   8
ENDBRANCH   5   6
ENDBRANCH   4   5
ENDBRANCH   3   4
ENDBRANCH   2   3
ENDBRANCH   1   2
BRANCH   1  27
ATOM     27  C   UNL A   1      41.824  19.829  26.529  1.00  0.00     0.188 C 
BRANCH  27  28
ATOM     28  O   UNL A   1      42.712  20.280  25.534  1.00  0.00    -0.376 OA
BRANCH  28  29
ATOM     29  C   UNL A   1      43.404  21.496  25.767  1.00  0.00     0.202 C 
BRANCH  29  30
ATOM     30  C   UNL A   1      43.705  22.453  24.597  1.00  0.00     0.261 C 
BRANCH  30  31
ATOM     31  O   UNL A   1      43.229  23.803  24.709  1.00  0.00    -0.460 OA
BRANCH  31  32
ATOM     32  C   UNL A   1      44.093  24.740  25.147  1.00  0.00     0.338 C 
ATOM     33  O   UNL A   1      45.215  24.977  24.707  1.00  0.00    -0.246 OA
BRANCH  32  34
ATOM     34  C   UNL A   1      43.398  25.577  26.144  1.00  0.00     0.060 A 
ATOM     35  C   UNL A   1      43.700  26.944  26.217  1.00  0.00     0.016 A 
ATOM     36  C   UNL A   1      42.451  25.018  27.004  1.00  0.00     0.016 A 
ATOM     37  C   UNL A   1      43.070  27.751  27.169  1.00  0.00     0.010 A 
ATOM     38  C   UNL A   1      41.836  25.822  27.970  1.00  0.00     0.010 A 
ATOM     39  C   UNL A   1      42.162  27.187  28.076  1.00  0.00    -0.014 A 
BRANCH  39  40
ATOM     40  C   UNL A   1      41.680  27.975  29.238  1.00  0.00     0.031 A 
ATOM     41  C   UNL A   1      42.407  27.842  30.548  1.00  0.00     0.074 A 
ATOM     42  C   UNL A   1      40.619  28.795  29.138  1.00  0.00     0.049 A 
ATOM     43  N   UNL A   1      42.147  28.392  31.707  1.00  0.00    -0.248 NA
ATOM     44  C   UNL A   1      43.590  26.966  30.548  1.00  0.00     0.031 C 
ATOM     45  C   UNL A   1      39.854  29.043  27.920  1.00  0.00     0.029 A 
ATOM     46  N   UNL A   1      39.999  29.567  30.092  1.00  0.00    -0.354 N 
ATOM     47  C   UNL A   1      43.122  27.918  32.576  1.00  0.00     0.074 A 
ATOM     48  C   UNL A   1      43.964  27.019  31.817  1.00  0.00     0.031 C 
ATOM     49  C   UNL A   1      38.861  29.906  28.200  1.00  0.00     0.029 A 
ATOM     50  C   UNL A   1      38.900  30.243  29.622  1.00  0.00     0.049 A 
ATOM     51  H   UNL A   1      40.313  29.628  31.023  1.00  0.00     0.167 HD
ATOM     52  C   UNL A   1      43.301  28.210  33.886  1.00  0.00     0.037 A 
ATOM     53  C   UNL A   1      38.020  31.027  30.274  1.00  0.00     0.037 A 
ATOM     54  C   UNL A   1      42.463  29.104  34.640  1.00  0.00     0.049 A 
ATOM     55  C   UNL A   1      38.193  31.271  31.753  1.00  0.00     0.074 A 
ATOM     56  C   UNL A   1      42.587  29.494  35.962  1.00  0.00     0.029 A 
ATOM     57  N   UNL A   1      41.332  29.734  34.142  1.00  0.00    -0.354 N 
ATOM     58  N   UNL A   1      39.141  30.855  32.558  1.00  0.00    -0.248 NA
ATOM     59  C   UNL A   1      37.167  32.091  32.413  1.00  0.00     0.031 C 
ATOM     60  C   UNL A   1      41.497  30.311  36.281  1.00  0.00     0.029 A 
ATOM     61  C   UNL A   1      40.728  30.481  35.141  1.00  0.00     0.049 A 
ATOM     62  H   UNL A   1      41.007  29.662  33.215  1.00  0.00     0.167 HD
ATOM     63  C   UNL A   1      38.848  31.394  33.806  1.00  0.00     0.074 A 
ATOM     64  C   UNL A   1      37.636  32.171  33.650  1.00  0.00     0.031 C 
ATOM     65  C   UNL A   1      39.526  31.260  34.973  1.00  0.00     0.037 A 
BRANCH  52  66
ATOM     66  C   UNL A   1      44.428  27.518  34.598  1.00  0.00     0.064 A 
ATOM     67  C   UNL A   1      44.266  26.264  35.204  1.00  0.00     0.173 A 
ATOM     68  C   UNL A   1      45.696  28.118  34.660  1.00  0.00     0.173 A 
ATOM     69  F   UNL A   1      43.071  25.655  35.185  1.00  0.00    -0.203 F 
ATOM     70  C   UNL A   1      45.321  25.651  35.875  1.00  0.00     0.198 A 
ATOM     71  C   UNL A   1      46.757  27.488  35.305  1.00  0.00     0.198 A 
ATOM     72  F   UNL A   1      45.907  29.315  34.094  1.00  0.00    -0.203 F 
ATOM     73  F   UNL A   1      45.127  24.479  36.496  1.00  0.00    -0.200 F 
ATOM     74  C   UNL A   1      46.566  26.259  35.920  1.00  0.00     0.200 A 
ATOM     75  F   UNL A   1      47.962  28.072  35.336  1.00  0.00    -0.200 F 
ATOM     76  F   UNL A   1      47.581  25.667  36.565  1.00  0.00    -0.200 F 
ENDBRANCH  52  66
BRANCH  53  77
ATOM     77  C   UNL A   1      36.888  31.650  29.537  1.00  0.00     0.064 A 
ATOM     78  C   UNL A   1      36.875  33.026  29.268  1.00  0.00     0.173 A 
ATOM     79  C   UNL A   1      35.788  30.892  29.109  1.00  0.00     0.173 A 
ATOM     80  F   UNL A   1      37.889  33.798  29.684  1.00  0.00    -0.203 F 
ATOM     81  C   UNL A   1      35.801  33.622  28.612  1.00  0.00     0.198 A 
ATOM     82  C   UNL A   1      34.726  31.485  28.429  1.00  0.00     0.198 A 
ATOM     83  F   UNL A   1      35.746  29.573  29.350  1.00  0.00    -0.203 F 
ATOM     84  F   UNL A   1      35.793  34.946  28.409  1.00  0.00    -0.200 F 
ATOM     85  C   UNL A   1      34.730  32.850  28.187  1.00  0.00     0.200 A 
ATOM     86  F   UNL A   1      33.696  30.735  28.014  1.00  0.00    -0.200 F 
ATOM     87  F   UNL A   1      33.697  33.424  27.554  1.00  0.00    -0.200 F 
ENDBRANCH  53  77
BRANCH  65  88
ATOM     88  C   UNL A   1      39.004  32.006  36.169  1.00  0.00     0.064 A 
ATOM     89  C   UNL A   1      39.354  33.341  36.419  1.00  0.00     0.173 A 
ATOM     90  C   UNL A   1      38.107  31.388  37.054  1.00  0.00     0.173 A 
ATOM     91  F   UNL A   1      40.218  33.975  35.612  1.00  0.00    -0.203 F 
ATOM     92  C   UNL A   1      38.843  34.021  37.523  1.00  0.00     0.198 A 
ATOM     93  C   UNL A   1      37.574  32.079  38.137  1.00  0.00     0.198 A 
ATOM     94  F   UNL A   1      37.733  30.114  36.857  1.00  0.00    -0.203 F 
ATOM     95  F   UNL A   1      39.230  35.280  37.769  1.00  0.00    -0.200 F 
ATOM     96  C   UNL A   1      37.949  33.392  38.376  1.00  0.00     0.200 A 
ATOM     97  F   UNL A   1      36.696  31.475  38.951  1.00  0.00    -0.200 F 
ATOM     98  F   UNL A   1      37.452  34.051  39.433  1.00  0.00    -0.200 F 
ENDBRANCH  65  88
ENDBRANCH  39  40
ENDBRANCH  32  34
ENDBRANCH  31  32
ENDBRANCH  30  31
ENDBRANCH  29  30
ENDBRANCH  28  29
ENDBRANCH  27  28
ENDBRANCH   1  27
TORSDOF 19
ENDMDL
MODEL 3
REMARK VINA RESULT:     -11.1      3.345      8.680
REMARK SMILES Cc1cc(C(=O)Nc2c(Cl)cc(Cl)cc2C(=O)OCCOCCOCCOC(=O)c2ccc(-c3c4nc(c(-c5c(F)c(F)c(F)c(F)c5F)c5ccc([nH]5)c(-c5c(F)c(F)c(F)c(F)c5F)c5nc(c(-c6c(F)c(F)c(F)c(F)c6F)c6ccc3[nH]6)C=C5)C=C4)cc2)c(C)s1
REMARK SMILES IDX 22 1 21 2 20 3 19 4 18 5 16 6 17 7 15 8 8 9 9 10 10 11 11 12
REMARK SMILES IDX 14 13 12 14 13 15 7 16 5 17 6 18 4 20 1 21 2 22 3 23 95 24
REMARK SMILES IDX 93 25 94 26 23 27 24 28 25 29 26 30 27 31 28 32 29 33 30 34
REMARK SMILES IDX 31 35 92 36 32 37 91 38 33 39 34 40 35 41 85 42 36 43 90 44
REMARK SMILES IDX 84 45 86 46 37 47 89 48 83 49 82 50 38 52 70 53 50 54 69 55
REMARK SMILES IDX 51 56 54 57 68 58 87 59 52 60 53 61 67 63 88 64 55 65 39 66
REMARK SMILES IDX 40 67 48 68 41 69 42 70 46 71 49 72 43 73 44 74 47 75 45 76
REMARK SMILES IDX 71 77 72 78 80 79 73 80 74 81 78 82 81 83 75 84 76 85 79 86
REMARK SMILES IDX 77 87 56 88 57 89 65 90 58 91 59 92 63 93 66 94 60 95 61 96
REMARK SMILES IDX 64 97 62 98
REMARK H PARENT 7 19 86 51 54 62
REMARK Flexibility Score: inf
ROOT
ATOM      1  C   UNL A   1      33.493  28.541  25.678  1.00  0.00     0.188 C 
ENDROOT
BRANCH   1   2
ATOM      2  O   UNL A   1      33.890  27.845  24.503  1.00  0.00    -0.376 OA
BRANCH   2   3
ATOM      3  C   UNL A   1      34.328  28.564  23.356  1.00  0.00     0.202 C 
BRANCH   3   4
ATOM      4  C   UNL A   1      33.921  28.063  21.962  1.00  0.00     0.261 C 
BRANCH   4   5
ATOM      5  O   UNL A   1      33.989  26.633  21.792  1.00  0.00    -0.460 OA
BRANCH   5   6
ATOM      6  C   UNL A   1      32.877  26.060  21.274  1.00  0.00     0.340 C 
ATOM      7  O   UNL A   1      32.803  25.461  20.212  1.00  0.00    -0.246 OA
BRANCH   6   8
ATOM      8  C   UNL A   1      31.721  26.097  22.210  1.00  0.00     0.086 A 
ATOM      9  C   UNL A   1      31.222  25.009  22.954  1.00  0.00     0.075 A 
ATOM     10  C   UNL A   1      30.374  25.315  24.036  1.00  0.00     0.067 A 
ATOM     11  Cl  UNL A   1      30.148  24.229  25.367  1.00  0.00    -0.082 Cl
ATOM     12  C   UNL A   1      29.763  26.570  24.139  1.00  0.00     0.043 A 
ATOM     13  C   UNL A   1      31.103  27.357  22.314  1.00  0.00     0.038 A 
ATOM     14  C   UNL A   1      30.078  27.563  23.225  1.00  0.00     0.043 A 
ATOM     15  Cl  UNL A   1      29.236  29.059  23.241  1.00  0.00    -0.084 Cl
BRANCH   9  16
ATOM     16  N   UNL A   1      31.535  23.692  22.544  1.00  0.00    -0.320 N 
ATOM     17  C   UNL A   1      32.520  22.789  22.928  1.00  0.00     0.256 C 
ATOM     18  O   UNL A   1      32.567  21.740  22.282  1.00  0.00    -0.269 OA
ATOM     19  H   UNL A   1      30.934  23.344  21.845  1.00  0.00     0.170 HD
BRANCH  17  20
ATOM     20  C   UNL A   1      33.402  23.016  24.092  1.00  0.00     0.054 A 
ATOM     21  C   UNL A   1      36.720  24.137  25.558  1.00  0.00     0.056 C 
ATOM     22  C   UNL A   1      35.335  23.665  25.277  1.00  0.00     0.003 A 
ATOM     23  C   UNL A   1      34.550  23.891  24.168  1.00  0.00     0.029 A 
ATOM     24  S   UNL A   1      34.513  22.707  26.415  1.00  0.00    -0.145 S 
ATOM     25  C   UNL A   1      33.187  22.451  25.351  1.00  0.00     0.014 A 
ATOM     26  C   UNL A   1      32.043  21.651  25.890  1.00  0.00     0.057 C 
ENDBRANCH  17  20
ENDBRANCH   9  16
ENDBRANCH   6   8
ENDBRANCH   5   6
ENDBRANCH   4   5
ENDBRANCH   3   4
ENDBRANCH   2   3
ENDBRANCH   1   2
BRANCH   1  27
ATOM     27  C   UNL A   1      32.275  29.488  25.651  1.00  0.00     0.188 C 
BRANCH  27  28
ATOM     28  O   UNL A   1      32.360  30.543  26.579  1.00  0.00    -0.376 OA
BRANCH  28  29
ATOM     29  C   UNL A   1      31.441  31.616  26.446  1.00  0.00     0.202 C 
BRANCH  29  30
ATOM     30  C   UNL A   1      31.824  33.029  26.930  1.00  0.00     0.261 C 
BRANCH  30  31
ATOM     31  O   UNL A   1      33.219  33.371  26.927  1.00  0.00    -0.460 OA
BRANCH  31  32
ATOM     32  C   UNL A   1      33.729  33.939  28.037  1.00  0.00     0.338 C 
ATOM     33  O   UNL A   1      33.252  34.872  28.678  1.00  0.00    -0.246 OA
BRANCH  32  34
ATOM     34  C   UNL A   1      34.885  33.135  28.477  1.00  0.00     0.060 A 
ATOM     35  C   UNL A   1      34.679  31.809  28.885  1.00  0.00     0.016 A 
ATOM     36  C   UNL A   1      36.169  33.684  28.488  1.00  0.00     0.016 A 
ATOM     37  C   UNL A   1      35.757  31.037  29.327  1.00  0.00     0.010 A 
ATOM     38  C   UNL A   1      37.244  32.916  28.950  1.00  0.00     0.010 A 
ATOM     39  C   UNL A   1      37.039  31.598  29.397  1.00  0.00    -0.014 A 
BRANCH  39  40
ATOM     40  C   UNL A   1      38.134  30.873  30.092  1.00  0.00     0.031 A 
ATOM     41  C   UNL A   1      38.396  31.186  31.540  1.00  0.00     0.074 A 
ATOM     42  C   UNL A   1      38.883  29.956  29.456  1.00  0.00     0.049 A 
ATOM     43  N   UNL A   1      39.320  30.718  32.341  1.00  0.00    -0.248 NA
ATOM     44  C   UNL A   1      37.492  32.161  32.168  1.00  0.00     0.031 C 
ATOM     45  C   UNL A   1      38.706  29.534  28.070  1.00  0.00     0.029 A 
ATOM     46  N   UNL A   1      39.953  29.217  29.901  1.00  0.00    -0.354 N 
ATOM     47  C   UNL A   1      39.117  31.352  33.560  1.00  0.00     0.074 A 
ATOM     48  C   UNL A   1      37.999  32.254  33.388  1.00  0.00     0.031 C 
ATOM     49  C   UNL A   1      39.640  28.612  27.774  1.00  0.00     0.029 A 
ATOM     50  C   UNL A   1      40.500  28.406  28.939  1.00  0.00     0.049 A 
ATOM     51  H   UNL A   1      40.294  29.266  30.824  1.00  0.00     0.167 HD
ATOM     52  C   UNL A   1      39.800  31.194  34.719  1.00  0.00     0.037 A 
ATOM     53  C   UNL A   1      41.582  27.605  28.990  1.00  0.00     0.037 A 
ATOM     54  C   UNL A   1      40.912  30.297  34.890  1.00  0.00     0.049 A 
ATOM     55  C   UNL A   1      42.376  27.509  30.270  1.00  0.00     0.074 A 
ATOM     56  C   UNL A   1      41.642  30.036  36.036  1.00  0.00     0.029 A 
ATOM     57  N   UNL A   1      41.467  29.527  33.879  1.00  0.00    -0.354 N 
ATOM     58  N   UNL A   1      42.153  28.077  31.431  1.00  0.00    -0.248 NA
ATOM     59  C   UNL A   1      43.576  26.660  30.242  1.00  0.00     0.031 C 
ATOM     60  C   UNL A   1      42.677  29.156  35.704  1.00  0.00     0.029 A 
ATOM     61  C   UNL A   1      42.554  28.818  34.366  1.00  0.00     0.049 A 
ATOM     62  H   UNL A   1      41.136  29.487  32.952  1.00  0.00     0.167 HD
ATOM     63  C   UNL A   1      43.158  27.626  32.278  1.00  0.00     0.074 A 
ATOM     64  C   UNL A   1      43.990  26.731  31.499  1.00  0.00     0.031 C 
ATOM     65  C   UNL A   1      43.370  27.922  33.584  1.00  0.00     0.037 A 
BRANCH  52  66
ATOM     66  C   UNL A   1      39.384  32.044  35.886  1.00  0.00     0.064 A 
ATOM     67  C   UNL A   1      39.933  33.314  36.113  1.00  0.00     0.173 A 
ATOM     68  C   UNL A   1      38.406  31.582  36.781  1.00  0.00     0.173 A 
ATOM     69  F   UNL A   1      40.881  33.796  35.294  1.00  0.00    -0.203 F 
ATOM     70  C   UNL A   1      39.545  34.077  37.212  1.00  0.00     0.198 A 
ATOM     71  C   UNL A   1      37.998  32.360  37.861  1.00  0.00     0.198 A 
ATOM     72  F   UNL A   1      37.845  30.376  36.609  1.00  0.00    -0.203 F 
ATOM     73  F   UNL A   1      40.126  35.263  37.440  1.00  0.00    -0.200 F 
ATOM     74  C   UNL A   1      38.575  33.602  38.081  1.00  0.00     0.200 A 
ATOM     75  F   UNL A   1      37.051  31.905  38.693  1.00  0.00    -0.200 F 
ATOM     76  F   UNL A   1      38.201  34.338  39.137  1.00  0.00    -0.200 F 
ENDBRANCH  52  66
BRANCH  53  77
ATOM     77  C   UNL A   1      41.988  26.821  27.793  1.00  0.00     0.064 A 
ATOM     78  C   UNL A   1      41.443  25.553  27.546  1.00  0.00     0.173 A 
ATOM     79  C   UNL A   1      42.942  27.308  26.888  1.00  0.00     0.173 A 
ATOM     80  F   UNL A   1      40.550  25.031  28.400  1.00  0.00    -0.203 F 
ATOM     81  C   UNL A   1      41.846  24.797  26.448  1.00  0.00     0.198 A 
ATOM     82  C   UNL A   1      43.324  26.563  25.774  1.00  0.00     0.198 A 
ATOM     83  F   UNL A   1      43.501  28.512  27.083  1.00  0.00    -0.203 F 
ATOM     84  F   UNL A   1      41.344  23.569  26.262  1.00  0.00    -0.200 F 
ATOM     85  C   UNL A   1      42.782  25.305  25.560  1.00  0.00     0.200 A 
ATOM     86  F   UNL A   1      44.224  27.059  24.914  1.00  0.00    -0.200 F 
ATOM     87  F   UNL A   1      43.168  24.578  24.502  1.00  0.00    -0.200 F 
ENDBRANCH  53  77
BRANCH  65  88
ATOM     88  C   UNL A   1      44.517  27.240  34.276  1.00  0.00     0.064 A 
ATOM     89  C   UNL A   1      45.794  27.817  34.336  1.00  0.00     0.173 A 
ATOM     90  C   UNL A   1      44.323  26.011  34.925  1.00  0.00     0.173 A 
ATOM     91  F   UNL A   1      46.037  28.984  33.720  1.00  0.00    -0.203 F 
ATOM     92  C   UNL A   1      46.839  27.177  34.999  1.00  0.00     0.198 A 
ATOM     93  C   UNL A   1      45.361  25.390  35.614  1.00  0.00     0.198 A 
ATOM     94  F   UNL A   1      43.119  25.419  34.906  1.00  0.00    -0.203 F 
ATOM     95  F   UNL A   1      48.062  27.724  35.001  1.00  0.00    -0.200 F 
ATOM     96  C   UNL A   1      46.619  25.969  35.643  1.00  0.00     0.200 A 
ATOM     97  F   UNL A   1      45.142  24.231  36.251  1.00  0.00    -0.200 F 
ATOM     98  F   UNL A   1      47.624  25.359  36.289  1.00  0.00    -0.200 F 
ENDBRANCH  65  88
ENDBRANCH  39  40
ENDBRANCH  32  34
ENDBRANCH  31  32
ENDBRANCH  30  31
ENDBRANCH  29  30
ENDBRANCH  28  29
ENDBRANCH  27  28
ENDBRANCH   1  27
TORSDOF 19
ENDMDL
