MODEL 1
REMARK VINA RESULT:      -9.9      0.000      0.000
REMARK SMILES O=C(Cn1cnc2c(S)ncnc21)OCCOCCOCCOC(=O)c1ccc(-c2c3nc(c(-c4c(F)c(F)c(F)c(F)c4F)c4ccc([nH]4)c(-c4c(F)c(F)c(F)c(F)c4F)c4nc(c(-c5c(F)c(F)c(F)c(F)c5F)c5ccc2[nH]5)C=C4)C=C3)cc1
REMARK SMILES IDX 18 1 17 2 16 3 15 4 14 5 2 6 1 7 3 8 4 9 5 10 13 11 6 12
REMARK SMILES IDX 7 13 12 14 8 15 11 16 10 17 9 18 19 20 20 21 21 22 22 23
REMARK SMILES IDX 23 24 24 25 25 26 26 27 27 28 88 29 28 30 87 31 29 32 30 33
REMARK SMILES IDX 31 34 81 35 32 36 86 37 80 38 82 39 33 40 85 41 79 42 78 43
REMARK SMILES IDX 34 45 66 46 46 47 65 48 47 49 50 50 64 51 83 52 48 53 49 54
REMARK SMILES IDX 63 56 84 57 51 58 35 59 36 60 44 61 37 62 38 63 42 64 45 65
REMARK SMILES IDX 39 66 40 67 43 68 41 69 67 70 68 71 76 72 69 73 70 74 74 75
REMARK SMILES IDX 77 76 71 77 72 78 75 79 73 80 52 81 53 82 61 83 54 84 55 85
REMARK SMILES IDX 59 86 62 87 56 88 57 89 60 90 58 91
REMARK H PARENT 9 19 82 44 50 55
REMARK Flexibility Score: inf
ROOT
ATOM      1  C   UNL A   1      32.280  36.095  31.016  1.00  0.00     0.188 C 
ENDROOT
BRANCH   1   2
ATOM      2  O   UNL A   1      32.731  37.278  31.650  1.00  0.00    -0.376 OA
BRANCH   2   3
ATOM      3  C   UNL A   1      33.970  37.260  32.353  1.00  0.00     0.202 C 
BRANCH   3   4
ATOM      4  C   UNL A   1      34.179  36.249  33.485  1.00  0.00     0.261 C 
BRANCH   4   5
ATOM      5  O   UNL A   1      34.845  35.002  33.172  1.00  0.00    -0.462 OA
BRANCH   5   6
ATOM      6  C   UNL A   1      34.290  33.833  32.794  1.00  0.00     0.326 C 
ATOM      7  O   UNL A   1      33.238  33.461  33.314  1.00  0.00    -0.250 OA
BRANCH   6   8
ATOM      8  C   UNL A   1      35.045  32.907  31.886  1.00  0.00     0.247 C 
BRANCH   8   9
ATOM      9  N   UNL A   1      36.364  32.606  32.384  1.00  0.00    -0.304 N 
ATOM     10  C   UNL A   1      36.669  31.620  33.281  1.00  0.00     0.202 A 
ATOM     11  C   UNL A   1      37.532  33.222  32.033  1.00  0.00     0.164 A 
ATOM     12  N   UNL A   1      37.965  31.543  33.495  1.00  0.00    -0.232 NA
ATOM     13  C   UNL A   1      38.525  32.523  32.702  1.00  0.00     0.140 A 
ATOM     14  N   UNL A   1      37.694  34.260  31.197  1.00  0.00    -0.217 NA
ATOM     15  C   UNL A   1      39.832  32.936  32.436  1.00  0.00     0.124 A 
ATOM     16  C   UNL A   1      38.995  34.563  31.026  1.00  0.00     0.225 A 
ATOM     17  N   UNL A   1      40.061  33.965  31.583  1.00  0.00    -0.228 NA
BRANCH  15  18
ATOM     18  S   UNL A   1      41.209  32.119  33.158  1.00  0.00    -0.121 SA
ATOM     19  H   UNL A   1      42.073  33.042  33.660  1.00  0.00     0.110 HD
ENDBRANCH  15  18
ENDBRANCH   8   9
ENDBRANCH   6   8
ENDBRANCH   5   6
ENDBRANCH   4   5
ENDBRANCH   3   4
ENDBRANCH   2   3
ENDBRANCH   1   2
BRANCH   1  20
ATOM     20  C   UNL A   1      33.001  35.688  29.716  1.00  0.00     0.188 C 
BRANCH  20  21
ATOM     21  O   UNL A   1      32.981  34.349  29.247  1.00  0.00    -0.376 OA
BRANCH  21  22
ATOM     22  C   UNL A   1      33.603  33.958  28.028  1.00  0.00     0.202 C 
BRANCH  22  23
ATOM     23  C   UNL A   1      34.904  33.167  28.028  1.00  0.00     0.261 C 
BRANCH  23  24
ATOM     24  O   UNL A   1      34.744  31.889  28.635  1.00  0.00    -0.460 OA
BRANCH  24  25
ATOM     25  C   UNL A   1      35.637  30.965  28.231  1.00  0.00     0.338 C 
ATOM     26  O   UNL A   1      35.625  30.343  27.183  1.00  0.00    -0.246 OA
BRANCH  25  27
ATOM     27  C   UNL A   1      36.611  30.694  29.298  1.00  0.00     0.060 A 
ATOM     28  C   UNL A   1      37.870  31.263  29.101  1.00  0.00     0.016 A 
ATOM     29  C   UNL A   1      36.400  29.663  30.225  1.00  0.00     0.016 A 
ATOM     30  C   UNL A   1      38.963  30.588  29.583  1.00  0.00     0.010 A 
ATOM     31  C   UNL A   1      37.502  28.992  30.718  1.00  0.00     0.010 A 
ATOM     32  C   UNL A   1      38.761  29.388  30.273  1.00  0.00    -0.014 A 
BRANCH  32  33
ATOM     33  C   UNL A   1      39.906  28.499  30.318  1.00  0.00     0.031 A 
ATOM     34  C   UNL A   1      40.595  28.389  31.616  1.00  0.00     0.074 A 
ATOM     35  C   UNL A   1      40.364  27.875  29.217  1.00  0.00     0.049 A 
ATOM     36  N   UNL A   1      41.809  28.727  31.902  1.00  0.00    -0.248 NA
ATOM     37  C   UNL A   1      39.806  27.896  32.749  1.00  0.00     0.031 C 
ATOM     38  C   UNL A   1      39.688  27.686  27.930  1.00  0.00     0.029 A 
ATOM     39  N   UNL A   1      41.536  27.198  29.060  1.00  0.00    -0.354 N 
ATOM     40  C   UNL A   1      41.996  28.355  33.226  1.00  0.00     0.074 A 
ATOM     41  C   UNL A   1      40.710  27.936  33.727  1.00  0.00     0.031 C 
ATOM     42  C   UNL A   1      40.370  26.770  27.206  1.00  0.00     0.029 A 
ATOM     43  C   UNL A   1      41.584  26.414  27.921  1.00  0.00     0.049 A 
ATOM     44  H   UNL A   1      42.282  27.261  29.700  1.00  0.00     0.167 HD
ATOM     45  C   UNL A   1      43.234  28.246  33.773  1.00  0.00     0.037 A 
ATOM     46  C   UNL A   1      42.518  25.478  27.637  1.00  0.00     0.037 A 
ATOM     47  C   UNL A   1      44.224  28.987  33.043  1.00  0.00     0.049 A 
ATOM     48  C   UNL A   1      43.729  25.780  28.439  1.00  0.00     0.074 A 
ATOM     49  C   UNL A   1      44.416  30.324  32.751  1.00  0.00     0.029 A 
ATOM     50  N   UNL A   1      45.099  28.304  32.237  1.00  0.00    -0.354 N 
ATOM     51  N   UNL A   1      44.529  26.787  28.227  1.00  0.00    -0.248 NA
ATOM     52  C   UNL A   1      43.881  25.127  29.731  1.00  0.00     0.031 C 
ATOM     53  C   UNL A   1      45.074  30.350  31.488  1.00  0.00     0.029 A 
ATOM     54  C   UNL A   1      45.235  29.026  31.080  1.00  0.00     0.049 A 
ATOM     55  H   UNL A   1      45.546  27.454  32.452  1.00  0.00     0.167 HD
ATOM     56  C   UNL A   1      44.992  27.142  29.484  1.00  0.00     0.074 A 
ATOM     57  C   UNL A   1      44.669  26.012  30.343  1.00  0.00     0.031 C 
ATOM     58  C   UNL A   1      45.340  28.430  29.768  1.00  0.00     0.037 A 
BRANCH  45  59
ATOM     59  C   UNL A   1      43.584  27.223  34.814  1.00  0.00     0.064 A 
ATOM     60  C   UNL A   1      43.958  27.637  36.105  1.00  0.00     0.173 A 
ATOM     61  C   UNL A   1      43.826  25.866  34.508  1.00  0.00     0.173 A 
ATOM     62  F   UNL A   1      43.812  28.917  36.481  1.00  0.00    -0.203 F 
ATOM     63  C   UNL A   1      44.568  26.763  37.009  1.00  0.00     0.198 A 
ATOM     64  C   UNL A   1      44.381  24.984  35.431  1.00  0.00     0.198 A 
ATOM     65  F   UNL A   1      43.632  25.376  33.276  1.00  0.00    -0.203 F 
ATOM     66  F   UNL A   1      45.008  27.225  38.186  1.00  0.00    -0.200 F 
ATOM     67  C   UNL A   1      44.776  25.437  36.671  1.00  0.00     0.200 A 
ATOM     68  F   UNL A   1      44.595  23.709  35.077  1.00  0.00    -0.200 F 
ATOM     69  F   UNL A   1      45.401  24.610  37.518  1.00  0.00    -0.200 F 
ENDBRANCH  45  59
BRANCH  46  70
ATOM     70  C   UNL A   1      42.323  24.188  26.937  1.00  0.00     0.064 A 
ATOM     71  C   UNL A   1      43.199  23.783  25.917  1.00  0.00     0.173 A 
ATOM     72  C   UNL A   1      41.438  23.207  27.429  1.00  0.00     0.173 A 
ATOM     73  F   UNL A   1      44.106  24.641  25.426  1.00  0.00    -0.203 F 
ATOM     74  C   UNL A   1      43.206  22.472  25.436  1.00  0.00     0.198 A 
ATOM     75  C   UNL A   1      41.435  21.903  26.937  1.00  0.00     0.198 A 
ATOM     76  F   UNL A   1      40.625  23.463  28.463  1.00  0.00    -0.203 F 
ATOM     77  F   UNL A   1      44.102  22.104  24.510  1.00  0.00    -0.200 F 
ATOM     78  C   UNL A   1      42.329  21.531  25.950  1.00  0.00     0.200 A 
ATOM     79  F   UNL A   1      40.603  20.996  27.468  1.00  0.00    -0.200 F 
ATOM     80  F   UNL A   1      42.373  20.260  25.530  1.00  0.00    -0.200 F 
ENDBRANCH  46  70
BRANCH  58  81
ATOM     81  C   UNL A   1      45.547  29.364  28.613  1.00  0.00     0.064 A 
ATOM     82  C   UNL A   1      44.504  30.076  27.999  1.00  0.00     0.173 A 
ATOM     83  C   UNL A   1      46.858  29.651  28.207  1.00  0.00     0.173 A 
ATOM     84  F   UNL A   1      43.236  29.928  28.407  1.00  0.00    -0.203 F 
ATOM     85  C   UNL A   1      44.763  30.999  26.986  1.00  0.00     0.198 A 
ATOM     86  C   UNL A   1      47.115  30.598  27.221  1.00  0.00     0.198 A 
ATOM     87  F   UNL A   1      47.896  29.043  28.806  1.00  0.00    -0.203 F 
ATOM     88  F   UNL A   1      43.751  31.658  26.403  1.00  0.00    -0.200 F 
ATOM     89  C   UNL A   1      46.068  31.263  26.603  1.00  0.00     0.200 A 
ATOM     90  F   UNL A   1      48.381  30.887  26.887  1.00  0.00    -0.200 F 
ATOM     91  F   UNL A   1      46.319  32.179  25.657  1.00  0.00    -0.200 F 
ENDBRANCH  58  81
ENDBRANCH  32  33
ENDBRANCH  25  27
ENDBRANCH  24  25
ENDBRANCH  23  24
ENDBRANCH  22  23
ENDBRANCH  21  22
ENDBRANCH  20  21
ENDBRANCH   1  20
TORSDOF 19
ENDMDL
MODEL 2
REMARK VINA RESULT:      -9.7      4.645     11.468
REMARK SMILES O=C(Cn1cnc2c(S)ncnc21)OCCOCCOCCOC(=O)c1ccc(-c2c3nc(c(-c4c(F)c(F)c(F)c(F)c4F)c4ccc([nH]4)c(-c4c(F)c(F)c(F)c(F)c4F)c4nc(c(-c5c(F)c(F)c(F)c(F)c5F)c5ccc2[nH]5)C=C4)C=C3)cc1
REMARK SMILES IDX 18 1 17 2 16 3 15 4 14 5 2 6 1 7 3 8 4 9 5 10 13 11 6 12
REMARK SMILES IDX 7 13 12 14 8 15 11 16 10 17 9 18 19 20 20 21 21 22 22 23
REMARK SMILES IDX 23 24 24 25 25 26 26 27 27 28 88 29 28 30 87 31 29 32 30 33
REMARK SMILES IDX 31 34 81 35 32 36 86 37 80 38 82 39 33 40 85 41 79 42 78 43
REMARK SMILES IDX 34 45 66 46 46 47 65 48 47 49 50 50 64 51 83 52 48 53 49 54
REMARK SMILES IDX 63 56 84 57 51 58 35 59 36 60 44 61 37 62 38 63 42 64 45 65
REMARK SMILES IDX 39 66 40 67 43 68 41 69 67 70 68 71 76 72 69 73 70 74 74 75
REMARK SMILES IDX 77 76 71 77 72 78 75 79 73 80 52 81 53 82 61 83 54 84 55 85
REMARK SMILES IDX 59 86 62 87 56 88 57 89 60 90 58 91
REMARK H PARENT 9 19 82 44 50 55
REMARK Flexibility Score: inf
ROOT
ATOM      1  C   UNL A   1      43.638  18.780  25.129  1.00  0.00     0.188 C 
ENDROOT
BRANCH   1   2
ATOM      2  O   UNL A   1      44.997  19.080  25.393  1.00  0.00    -0.376 OA
BRANCH   2   3
ATOM      3  C   UNL A   1      45.801  19.630  24.353  1.00  0.00     0.202 C 
BRANCH   3   4
ATOM      4  C   UNL A   1      46.404  21.027  24.526  1.00  0.00     0.261 C 
BRANCH   4   5
ATOM      5  O   UNL A   1      45.573  22.172  24.218  1.00  0.00    -0.462 OA
BRANCH   5   6
ATOM      6  C   UNL A   1      44.401  22.527  24.784  1.00  0.00     0.326 C 
ATOM      7  O   UNL A   1      43.362  22.456  24.129  1.00  0.00    -0.250 OA
BRANCH   6   8
ATOM      8  C   UNL A   1      44.392  23.181  26.135  1.00  0.00     0.247 C 
BRANCH   8   9
ATOM      9  N   UNL A   1      44.914  24.524  26.097  1.00  0.00    -0.304 N 
ATOM     10  C   UNL A   1      44.426  25.545  25.328  1.00  0.00     0.202 A 
ATOM     11  C   UNL A   1      45.954  25.020  26.831  1.00  0.00     0.164 A 
ATOM     12  N   UNL A   1      45.065  26.672  25.556  1.00  0.00    -0.232 NA
ATOM     13  C   UNL A   1      46.011  26.369  26.513  1.00  0.00     0.140 A 
ATOM     14  N   UNL A   1      46.736  24.359  27.698  1.00  0.00    -0.217 NA
ATOM     15  C   UNL A   1      46.968  27.109  27.209  1.00  0.00     0.124 A 
ATOM     16  C   UNL A   1      47.618  25.180  28.300  1.00  0.00     0.225 A 
ATOM     17  N   UNL A   1      47.774  26.501  28.115  1.00  0.00    -0.228 NA
BRANCH  15  18
ATOM     18  S   UNL A   1      47.132  28.841  26.966  1.00  0.00    -0.121 SA
ATOM     19  H   UNL A   1      46.117  29.287  26.178  1.00  0.00     0.110 HD
ENDBRANCH  15  18
ENDBRANCH   8   9
ENDBRANCH   6   8
ENDBRANCH   5   6
ENDBRANCH   4   5
ENDBRANCH   3   4
ENDBRANCH   2   3
ENDBRANCH   1   2
BRANCH   1  20
ATOM     20  C   UNL A   1      42.599  19.351  26.113  1.00  0.00     0.188 C 
BRANCH  20  21
ATOM     21  O   UNL A   1      41.208  19.153  25.917  1.00  0.00    -0.376 OA
BRANCH  21  22
ATOM     22  C   UNL A   1      40.248  20.175  26.165  1.00  0.00     0.202 C 
BRANCH  22  23
ATOM     23  C   UNL A   1      40.528  21.289  27.164  1.00  0.00     0.261 C 
BRANCH  23  24
ATOM     24  O   UNL A   1      40.890  22.503  26.513  1.00  0.00    -0.460 OA
BRANCH  24  25
ATOM     25  C   UNL A   1      40.191  23.581  26.916  1.00  0.00     0.338 C 
ATOM     26  O   UNL A   1      39.003  23.628  27.180  1.00  0.00    -0.246 OA
BRANCH  25  27
ATOM     27  C   UNL A   1      41.041  24.781  26.888  1.00  0.00     0.060 A 
ATOM     28  C   UNL A   1      41.741  25.030  28.069  1.00  0.00     0.016 A 
ATOM     29  C   UNL A   1      40.869  25.767  25.905  1.00  0.00     0.016 A 
ATOM     30  C   UNL A   1      41.982  26.337  28.409  1.00  0.00     0.010 A 
ATOM     31  C   UNL A   1      41.121  27.081  26.246  1.00  0.00     0.010 A 
ATOM     32  C   UNL A   1      41.544  27.348  27.546  1.00  0.00    -0.014 A 
BRANCH  32  33
ATOM     33  C   UNL A   1      41.375  28.653  28.155  1.00  0.00     0.031 A 
ATOM     34  C   UNL A   1      42.491  29.600  27.989  1.00  0.00     0.074 A 
ATOM     35  C   UNL A   1      40.296  28.953  28.902  1.00  0.00     0.049 A 
ATOM     36  N   UNL A   1      43.242  30.113  28.908  1.00  0.00    -0.248 NA
ATOM     37  C   UNL A   1      42.851  29.971  26.617  1.00  0.00     0.031 C 
ATOM     38  C   UNL A   1      39.016  28.241  28.981  1.00  0.00     0.029 A 
ATOM     39  N   UNL A   1      40.103  30.038  29.704  1.00  0.00    -0.354 N 
ATOM     40  C   UNL A   1      44.087  30.995  28.248  1.00  0.00     0.074 A 
ATOM     41  C   UNL A   1      43.870  30.801  26.835  1.00  0.00     0.031 C 
ATOM     42  C   UNL A   1      38.116  29.025  29.617  1.00  0.00     0.029 A 
ATOM     43  C   UNL A   1      38.789  30.221  30.095  1.00  0.00     0.049 A 
ATOM     44  H   UNL A   1      40.834  30.637  29.980  1.00  0.00     0.167 HD
ATOM     45  C   UNL A   1      44.781  31.955  28.910  1.00  0.00     0.037 A 
ATOM     46  C   UNL A   1      38.283  31.323  30.694  1.00  0.00     0.037 A 
ATOM     47  C   UNL A   1      44.930  31.660  30.308  1.00  0.00     0.049 A 
ATOM     48  C   UNL A   1      39.404  32.057  31.330  1.00  0.00     0.074 A 
ATOM     49  C   UNL A   1      45.541  30.652  31.028  1.00  0.00     0.029 A 
ATOM     50  N   UNL A   1      44.156  32.343  31.212  1.00  0.00    -0.354 N 
ATOM     51  N   UNL A   1      40.050  31.655  32.388  1.00  0.00    -0.248 NA
ATOM     52  C   UNL A   1      40.051  33.118  30.571  1.00  0.00     0.031 C 
ATOM     53  C   UNL A   1      44.772  30.511  32.219  1.00  0.00     0.029 A 
ATOM     54  C   UNL A   1      43.731  31.437  32.150  1.00  0.00     0.049 A 
ATOM     55  H   UNL A   1      43.946  33.304  31.191  1.00  0.00     0.167 HD
ATOM     56  C   UNL A   1      41.346  32.116  32.208  1.00  0.00     0.074 A 
ATOM     57  C   UNL A   1      41.253  33.112  31.151  1.00  0.00     0.031 C 
ATOM     58  C   UNL A   1      42.411  31.446  32.734  1.00  0.00     0.037 A 
BRANCH  45  59
ATOM     59  C   UNL A   1      45.076  33.305  28.325  1.00  0.00     0.064 A 
ATOM     60  C   UNL A   1      46.409  33.706  28.122  1.00  0.00     0.173 A 
ATOM     61  C   UNL A   1      44.103  34.322  28.211  1.00  0.00     0.173 A 
ATOM     62  F   UNL A   1      47.414  32.826  28.252  1.00  0.00    -0.203 F 
ATOM     63  C   UNL A   1      46.744  35.037  27.864  1.00  0.00     0.198 A 
ATOM     64  C   UNL A   1      44.435  35.637  27.897  1.00  0.00     0.198 A 
ATOM     65  F   UNL A   1      42.814  34.101  28.504  1.00  0.00    -0.203 F 
ATOM     66  F   UNL A   1      48.032  35.396  27.786  1.00  0.00    -0.200 F 
ATOM     67  C   UNL A   1      45.757  36.001  27.750  1.00  0.00     0.200 A 
ATOM     68  F   UNL A   1      43.466  36.560  27.813  1.00  0.00    -0.200 F 
ATOM     69  F   UNL A   1      46.079  37.284  27.548  1.00  0.00    -0.200 F 
ENDBRANCH  45  59
BRANCH  46  70
ATOM     70  C   UNL A   1      36.941  31.920  30.506  1.00  0.00     0.064 A 
ATOM     71  C   UNL A   1      36.027  31.987  31.570  1.00  0.00     0.173 A 
ATOM     72  C   UNL A   1      36.623  32.675  29.359  1.00  0.00     0.173 A 
ATOM     73  F   UNL A   1      36.277  31.338  32.716  1.00  0.00    -0.203 F 
ATOM     74  C   UNL A   1      34.879  32.779  31.499  1.00  0.00     0.198 A 
ATOM     75  C   UNL A   1      35.468  33.452  29.283  1.00  0.00     0.198 A 
ATOM     76  F   UNL A   1      37.471  32.753  28.324  1.00  0.00    -0.203 F 
ATOM     77  F   UNL A   1      34.065  32.872  32.560  1.00  0.00    -0.200 F 
ATOM     78  C   UNL A   1      34.603  33.516  30.359  1.00  0.00     0.200 A 
ATOM     79  F   UNL A   1      35.233  34.185  28.186  1.00  0.00    -0.200 F 
ATOM     80  F   UNL A   1      33.532  34.319  30.312  1.00  0.00    -0.200 F 
ENDBRANCH  46  70
BRANCH  58  81
ATOM     81  C   UNL A   1      42.131  30.421  33.793  1.00  0.00     0.064 A 
ATOM     82  C   UNL A   1      41.707  29.112  33.509  1.00  0.00     0.173 A 
ATOM     83  C   UNL A   1      42.434  30.731  35.126  1.00  0.00     0.173 A 
ATOM     84  F   UNL A   1      41.498  28.716  32.246  1.00  0.00    -0.203 F 
ATOM     85  C   UNL A   1      41.546  28.172  34.526  1.00  0.00     0.198 A 
ATOM     86  C   UNL A   1      42.307  29.780  36.134  1.00  0.00     0.198 A 
ATOM     87  F   UNL A   1      42.903  31.950  35.443  1.00  0.00    -0.203 F 
ATOM     88  F   UNL A   1      41.127  26.932  34.235  1.00  0.00    -0.200 F 
ATOM     89  C   UNL A   1      41.853  28.505  35.836  1.00  0.00     0.200 A 
ATOM     90  F   UNL A   1      42.650  30.091  37.392  1.00  0.00    -0.200 F 
ATOM     91  F   UNL A   1      41.736  27.589  36.808  1.00  0.00    -0.200 F 
ENDBRANCH  58  81
ENDBRANCH  32  33
ENDBRANCH  25  27
ENDBRANCH  24  25
ENDBRANCH  23  24
ENDBRANCH  22  23
ENDBRANCH  21  22
ENDBRANCH  20  21
ENDBRANCH   1  20
TORSDOF 19
ENDMDL
MODEL 3
REMARK VINA RESULT:      -9.7      5.076     10.501
REMARK SMILES O=C(Cn1cnc2c(S)ncnc21)OCCOCCOCCOC(=O)c1ccc(-c2c3nc(c(-c4c(F)c(F)c(F)c(F)c4F)c4ccc([nH]4)c(-c4c(F)c(F)c(F)c(F)c4F)c4nc(c(-c5c(F)c(F)c(F)c(F)c5F)c5ccc2[nH]5)C=C4)C=C3)cc1
REMARK SMILES IDX 18 1 17 2 16 3 15 4 14 5 2 6 1 7 3 8 4 9 5 10 13 11 6 12
REMARK SMILES IDX 7 13 12 14 8 15 11 16 10 17 9 18 19 20 20 21 21 22 22 23
REMARK SMILES IDX 23 24 24 25 25 26 26 27 27 28 88 29 28 30 87 31 29 32 30 33
REMARK SMILES IDX 31 34 81 35 32 36 86 37 80 38 82 39 33 40 85 41 79 42 78 43
REMARK SMILES IDX 34 45 66 46 46 47 65 48 47 49 50 50 64 51 83 52 48 53 49 54
REMARK SMILES IDX 63 56 84 57 51 58 35 59 36 60 44 61 37 62 38 63 42 64 45 65
REMARK SMILES IDX 39 66 40 67 43 68 41 69 67 70 68 71 76 72 69 73 70 74 74 75
REMARK SMILES IDX 77 76 71 77 72 78 75 79 73 80 52 81 53 82 61 83 54 84 55 85
REMARK SMILES IDX 59 86 62 87 56 88 57 89 60 90 58 91
REMARK H PARENT 9 19 82 44 50 55
REMARK Flexibility Score: inf
ROOT
ATOM      1  C   UNL A   1      38.691  21.816  25.766  1.00  0.00     0.188 C 
ENDROOT
BRANCH   1   2
ATOM      2  O   UNL A   1      37.708  22.834  25.722  1.00  0.00    -0.376 OA
BRANCH   2   3
ATOM      3  C   UNL A   1      36.336  22.470  25.600  1.00  0.00     0.202 C 
BRANCH   3   4
ATOM      4  C   UNL A   1      35.969  21.103  25.015  1.00  0.00     0.261 C 
BRANCH   4   5
ATOM      5  O   UNL A   1      34.567  20.795  24.824  1.00  0.00    -0.462 OA
BRANCH   5   6
ATOM      6  C   UNL A   1      33.537  21.055  25.655  1.00  0.00     0.326 C 
ATOM      7  O   UNL A   1      33.590  20.683  26.826  1.00  0.00    -0.250 OA
BRANCH   6   8
ATOM      8  C   UNL A   1      32.261  21.624  25.106  1.00  0.00     0.247 C 
BRANCH   8   9
ATOM      9  N   UNL A   1      31.952  22.915  25.668  1.00  0.00    -0.304 N 
ATOM     10  C   UNL A   1      31.197  23.134  26.787  1.00  0.00     0.202 A 
ATOM     11  C   UNL A   1      32.374  24.130  25.209  1.00  0.00     0.164 A 
ATOM     12  N   UNL A   1      31.143  24.413  27.094  1.00  0.00    -0.232 NA
ATOM     13  C   UNL A   1      31.896  25.051  26.130  1.00  0.00     0.140 A 
ATOM     14  N   UNL A   1      33.117  24.384  24.122  1.00  0.00    -0.217 NA
ATOM     15  C   UNL A   1      32.271  26.376  25.902  1.00  0.00     0.124 A 
ATOM     16  C   UNL A   1      33.409  25.694  24.011  1.00  0.00     0.225 A 
ATOM     17  N   UNL A   1      33.040  26.693  24.831  1.00  0.00    -0.228 NA
BRANCH  15  18
ATOM     18  S   UNL A   1      31.797  27.658  27.006  1.00  0.00    -0.121 SA
ATOM     19  H   UNL A   1      30.479  27.525  27.316  1.00  0.00     0.110 HD
ENDBRANCH  15  18
ENDBRANCH   8   9
ENDBRANCH   6   8
ENDBRANCH   5   6
ENDBRANCH   4   5
ENDBRANCH   3   4
ENDBRANCH   2   3
ENDBRANCH   1   2
BRANCH   1  20
ATOM     20  C   UNL A   1      39.820  21.987  26.801  1.00  0.00     0.188 C 
BRANCH  20  21
ATOM     21  O   UNL A   1      40.482  20.865  27.365  1.00  0.00    -0.376 OA
BRANCH  21  22
ATOM     22  C   UNL A   1      40.907  19.756  26.581  1.00  0.00     0.202 C 
BRANCH  22  23
ATOM     23  C   UNL A   1      42.378  19.545  26.251  1.00  0.00     0.261 C 
BRANCH  23  24
ATOM     24  O   UNL A   1      42.853  20.513  25.320  1.00  0.00    -0.460 OA
BRANCH  24  25
ATOM     25  C   UNL A   1      44.193  20.547  25.188  1.00  0.00     0.338 C 
ATOM     26  O   UNL A   1      44.958  19.601  25.231  1.00  0.00    -0.246 OA
BRANCH  25  27
ATOM     27  C   UNL A   1      44.662  21.938  25.098  1.00  0.00     0.060 A 
ATOM     28  C   UNL A   1      45.579  22.312  26.080  1.00  0.00     0.016 A 
ATOM     29  C   UNL A   1      43.970  22.886  24.329  1.00  0.00     0.016 A 
ATOM     30  C   UNL A   1      45.561  23.613  26.514  1.00  0.00     0.010 A 
ATOM     31  C   UNL A   1      43.962  24.197  24.761  1.00  0.00     0.010 A 
ATOM     32  C   UNL A   1      44.652  24.503  25.932  1.00  0.00    -0.014 A 
BRANCH  32  33
ATOM     33  C   UNL A   1      44.333  25.673  26.727  1.00  0.00     0.031 A 
ATOM     34  C   UNL A   1      45.343  26.746  26.745  1.00  0.00     0.074 A 
ATOM     35  C   UNL A   1      43.216  25.739  27.475  1.00  0.00     0.049 A 
ATOM     36  N   UNL A   1      46.018  27.185  27.756  1.00  0.00    -0.248 NA
ATOM     37  C   UNL A   1      45.683  27.361  25.459  1.00  0.00     0.031 C 
ATOM     38  C   UNL A   1      42.020  24.893  27.402  1.00  0.00     0.029 A 
ATOM     39  N   UNL A   1      42.893  26.659  28.427  1.00  0.00    -0.354 N 
ATOM     40  C   UNL A   1      46.773  28.242  27.266  1.00  0.00     0.074 A 
ATOM     41  C   UNL A   1      46.602  28.249  25.834  1.00  0.00     0.031 C 
ATOM     42  C   UNL A   1      41.030  25.470  28.120  1.00  0.00     0.029 A 
ATOM     43  C   UNL A   1      41.561  26.640  28.798  1.00  0.00     0.049 A 
ATOM     44  H   UNL A   1      43.550  27.281  28.816  1.00  0.00     0.167 HD
ATOM     45  C   UNL A   1      47.349  29.155  28.091  1.00  0.00     0.037 A 
ATOM     46  C   UNL A   1      40.929  27.577  29.542  1.00  0.00     0.037 A 
ATOM     47  C   UNL A   1      47.506  28.663  29.431  1.00  0.00     0.049 A 
ATOM     48  C   UNL A   1      41.954  28.316  30.319  1.00  0.00     0.074 A 
ATOM     49  C   UNL A   1      48.210  27.624  30.007  1.00  0.00     0.029 A 
ATOM     50  N   UNL A   1      46.648  29.112  30.403  1.00  0.00    -0.354 N 
ATOM     51  N   UNL A   1      42.622  27.824  31.324  1.00  0.00    -0.248 NA
ATOM     52  C   UNL A   1      42.494  29.543  29.754  1.00  0.00     0.031 C 
ATOM     53  C   UNL A   1      47.442  27.220  31.137  1.00  0.00     0.029 A 
ATOM     54  C   UNL A   1      46.308  28.032  31.177  1.00  0.00     0.049 A 
ATOM     55  H   UNL A   1      46.336  30.037  30.522  1.00  0.00     0.167 HD
ATOM     56  C   UNL A   1      43.863  28.440  31.259  1.00  0.00     0.074 A 
ATOM     57  C   UNL A   1      43.679  29.573  30.365  1.00  0.00     0.031 C 
ATOM     58  C   UNL A   1      44.985  27.811  31.711  1.00  0.00     0.037 A 
BRANCH  45  59
ATOM     59  C   UNL A   1      47.505  30.603  27.729  1.00  0.00     0.064 A 
ATOM     60  C   UNL A   1      46.368  31.379  27.436  1.00  0.00     0.173 A 
ATOM     61  C   UNL A   1      48.749  31.183  27.397  1.00  0.00     0.173 A 
ATOM     62  F   UNL A   1      45.137  30.902  27.672  1.00  0.00    -0.203 F 
ATOM     63  C   UNL A   1      46.472  32.627  26.818  1.00  0.00     0.198 A 
ATOM     64  C   UNL A   1      48.851  32.451  26.834  1.00  0.00     0.198 A 
ATOM     65  F   UNL A   1      49.896  30.500  27.508  1.00  0.00    -0.203 F 
ATOM     66  F   UNL A   1      45.362  33.284  26.457  1.00  0.00    -0.200 F 
ATOM     67  C   UNL A   1      47.713  33.163  26.519  1.00  0.00     0.200 A 
ATOM     68  F   UNL A   1      50.061  32.943  26.532  1.00  0.00    -0.200 F 
ATOM     69  F   UNL A   1      47.811  34.338  25.886  1.00  0.00    -0.200 F 
ENDBRANCH  45  59
BRANCH  46  70
ATOM     70  C   UNL A   1      39.533  28.052  29.403  1.00  0.00     0.064 A 
ATOM     71  C   UNL A   1      38.697  28.167  30.525  1.00  0.00     0.173 A 
ATOM     72  C   UNL A   1      39.073  28.655  28.215  1.00  0.00     0.173 A 
ATOM     73  F   UNL A   1      39.081  27.664  31.708  1.00  0.00    -0.203 F 
ATOM     74  C   UNL A   1      37.487  28.863  30.468  1.00  0.00     0.198 A 
ATOM     75  C   UNL A   1      37.858  29.334  28.155  1.00  0.00     0.198 A 
ATOM     76  F   UNL A   1      39.835  28.682  27.112  1.00  0.00    -0.203 F 
ATOM     77  F   UNL A   1      36.748  29.010  31.576  1.00  0.00    -0.200 F 
ATOM     78  C   UNL A   1      37.071  29.451  29.285  1.00  0.00     0.200 A 
ATOM     79  F   UNL A   1      37.485  29.926  27.012  1.00  0.00    -0.200 F 
ATOM     80  F   UNL A   1      35.938  30.165  29.243  1.00  0.00    -0.200 F 
ENDBRANCH  46  70
BRANCH  58  81
ATOM     81  C   UNL A   1      44.801  26.610  32.591  1.00  0.00     0.064 A 
ATOM     82  C   UNL A   1      44.672  26.688  33.988  1.00  0.00     0.173 A 
ATOM     83  C   UNL A   1      44.613  25.358  31.990  1.00  0.00     0.173 A 
ATOM     84  F   UNL A   1      44.738  27.868  34.620  1.00  0.00    -0.203 F 
ATOM     85  C   UNL A   1      44.414  25.550  34.751  1.00  0.00     0.198 A 
ATOM     86  C   UNL A   1      44.321  24.230  32.751  1.00  0.00     0.198 A 
ATOM     87  F   UNL A   1      44.665  25.239  30.653  1.00  0.00    -0.203 F 
ATOM     88  F   UNL A   1      44.307  25.644  36.084  1.00  0.00    -0.200 F 
ATOM     89  C   UNL A   1      44.232  24.324  34.130  1.00  0.00     0.200 A 
ATOM     90  F   UNL A   1      44.098  23.055  32.144  1.00  0.00    -0.200 F 
ATOM     91  F   UNL A   1      43.945  23.237  34.861  1.00  0.00    -0.200 F 
ENDBRANCH  58  81
ENDBRANCH  32  33
ENDBRANCH  25  27
ENDBRANCH  24  25
ENDBRANCH  23  24
ENDBRANCH  22  23
ENDBRANCH  21  22
ENDBRANCH  20  21
ENDBRANCH   1  20
TORSDOF 19
ENDMDL
