MODEL 1
REMARK VINA RESULT:     -11.1      0.000      0.000
REMARK SMILES N#C/C(=C\c1ccc(Oc2ccccc2Cl)c([N+](=O)[O-])c1)C(=O)OCCOCCOCCOC(=O)c1ccc(-c2c3nc(c(-c4c(F)c(F)c(F)c(F)c4F)c4ccc([nH]4)c(-c4c(F)c(F)c(F)c(F)c4F)c4nc(c(-c5c(F)c(F)c(F)c(F)c5F)c5ccc2[nH]5)C=C4)C=C3)cc1
REMARK SMILES IDX 28 1 27 2 26 3 25 4 24 5 22 6 23 7 3 8 4 9 2 10 1 11 5 12
REMARK SMILES IDX 6 13 21 14 7 15 17 16 8 17 18 18 19 19 20 20 9 21 10 22
REMARK SMILES IDX 11 23 15 24 12 25 14 26 16 27 13 28 29 29 30 30 31 31 32 32
REMARK SMILES IDX 33 33 34 34 35 35 36 36 37 37 98 38 38 39 97 40 39 41 40 42
REMARK SMILES IDX 41 43 91 44 42 45 96 46 90 47 92 48 43 49 95 50 89 51 88 52
REMARK SMILES IDX 44 54 76 55 56 56 75 57 57 58 60 59 74 60 93 61 58 62 59 63
REMARK SMILES IDX 73 65 94 66 61 67 45 68 46 69 54 70 47 71 48 72 52 73 55 74
REMARK SMILES IDX 49 75 50 76 53 77 51 78 77 79 78 80 86 81 79 82 80 83 84 84
REMARK SMILES IDX 87 85 81 86 82 87 85 88 83 89 62 90 63 91 71 92 64 93 65 94
REMARK SMILES IDX 69 95 72 96 66 97 67 98 70 99 68 100
REMARK H PARENT 92 53 60 64
REMARK Flexibility Score: inf
ROOT
ATOM      1  C   UNL A   1      41.073  20.559  27.113  1.00  0.00     0.188 C 
ENDROOT
BRANCH   1   2
ATOM      2  O   UNL A   1      40.007  20.724  26.194  1.00  0.00    -0.376 OA
BRANCH   2   3
ATOM      3  C   UNL A   1      39.427  19.614  25.526  1.00  0.00     0.202 C 
BRANCH   3   4
ATOM      4  C   UNL A   1      38.022  19.705  24.920  1.00  0.00     0.261 C 
BRANCH   4   5
ATOM      5  O   UNL A   1      37.285  20.842  25.386  1.00  0.00    -0.459 OA
BRANCH   5   6
ATOM      6  C   UNL A   1      35.948  20.780  25.177  1.00  0.00     0.348 C 
ATOM      7  O   UNL A   1      35.320  19.790  24.836  1.00  0.00    -0.245 OA
BRANCH   6   8
ATOM      8  C   UNL A   1      35.290  22.053  25.553  1.00  0.00     0.138 C 
ATOM      9  C   UNL A   1      35.566  23.166  24.830  1.00  0.00     0.035 C 
BRANCH   8  10
ATOM     10  C   UNL A   1      33.952  21.921  26.261  1.00  0.00     0.107 C 
ATOM     11  N   UNL A   1      32.842  21.812  26.848  1.00  0.00    -0.192 NA
ENDBRANCH   8  10
BRANCH   9  12
ATOM     12  C   UNL A   1      34.622  24.297  24.681  1.00  0.00    -0.017 A 
ATOM     13  C   UNL A   1      34.500  25.224  25.722  1.00  0.00     0.012 A 
ATOM     14  C   UNL A   1      33.952  24.562  23.485  1.00  0.00     0.098 A 
ATOM     15  C   UNL A   1      33.757  26.403  25.549  1.00  0.00     0.055 A 
ATOM     16  C   UNL A   1      33.305  25.796  23.285  1.00  0.00     0.312 A 
ATOM     17  C   UNL A   1      33.151  26.720  24.322  1.00  0.00     0.204 A 
BRANCH  16  18
ATOM     18  N   UNL A   1      32.978  26.088  21.902  1.00  0.00     0.066 N 
ATOM     19  O   UNL A   1      31.871  25.720  21.490  1.00  0.00    -0.258 OA
ATOM     20  O   UNL A   1      33.796  26.767  21.264  1.00  0.00    -0.258 OA
ENDBRANCH  16  18
BRANCH  17  21
ATOM     21  O   UNL A   1      32.502  27.935  24.361  1.00  0.00    -0.449 OA
BRANCH  21  22
ATOM     22  C   UNL A   1      31.227  28.083  23.878  1.00  0.00     0.146 A 
ATOM     23  C   UNL A   1      31.036  29.157  23.001  1.00  0.00     0.049 A 
ATOM     24  C   UNL A   1      30.138  27.285  24.246  1.00  0.00     0.083 A 
ATOM     25  C   UNL A   1      29.792  29.367  22.409  1.00  0.00     0.004 A 
ATOM     26  C   UNL A   1      28.900  27.479  23.628  1.00  0.00     0.024 A 
ATOM     27  Cl  UNL A   1      30.269  26.045  25.440  1.00  0.00    -0.080 Cl
ATOM     28  C   UNL A   1      28.731  28.512  22.702  1.00  0.00     0.002 A 
ENDBRANCH  21  22
ENDBRANCH  17  21
ENDBRANCH   9  12
ENDBRANCH   6   8
ENDBRANCH   5   6
ENDBRANCH   4   5
ENDBRANCH   3   4
ENDBRANCH   2   3
ENDBRANCH   1   2
BRANCH   1  29
ATOM     29  C   UNL A   1      42.395  19.889  26.679  1.00  0.00     0.188 C 
BRANCH  29  30
ATOM     30  O   UNL A   1      42.945  20.235  25.439  1.00  0.00    -0.376 OA
BRANCH  30  31
ATOM     31  C   UNL A   1      44.253  20.773  25.403  1.00  0.00     0.202 C 
BRANCH  31  32
ATOM     32  C   UNL A   1      44.750  21.969  26.251  1.00  0.00     0.261 C 
BRANCH  32  33
ATOM     33  O   UNL A   1      44.767  23.282  25.668  1.00  0.00    -0.460 OA
BRANCH  33  34
ATOM     34  C   UNL A   1      43.601  23.712  25.118  1.00  0.00     0.338 C 
ATOM     35  O   UNL A   1      43.019  23.222  24.159  1.00  0.00    -0.246 OA
BRANCH  34  36
ATOM     36  C   UNL A   1      42.987  24.731  25.998  1.00  0.00     0.060 A 
ATOM     37  C   UNL A   1      43.504  26.039  26.009  1.00  0.00     0.016 A 
ATOM     38  C   UNL A   1      41.921  24.394  26.830  1.00  0.00     0.016 A 
ATOM     39  C   UNL A   1      42.969  27.004  26.866  1.00  0.00     0.010 A 
ATOM     40  C   UNL A   1      41.408  25.353  27.711  1.00  0.00     0.010 A 
ATOM     41  C   UNL A   1      41.948  26.654  27.757  1.00  0.00    -0.014 A 
BRANCH  41  42
ATOM     42  C   UNL A   1      41.569  27.565  28.868  1.00  0.00     0.031 A 
ATOM     43  C   UNL A   1      42.369  27.510  30.142  1.00  0.00     0.074 A 
ATOM     44  C   UNL A   1      40.531  28.414  28.768  1.00  0.00     0.049 A 
ATOM     45  N   UNL A   1      42.167  28.115  31.285  1.00  0.00    -0.248 NA
ATOM     46  C   UNL A   1      43.557  26.642  30.123  1.00  0.00     0.031 C 
ATOM     47  C   UNL A   1      39.709  28.609  27.578  1.00  0.00     0.029 A 
ATOM     48  N   UNL A   1      39.983  29.263  29.701  1.00  0.00    -0.354 N 
ATOM     49  C   UNL A   1      43.191  27.692  32.122  1.00  0.00     0.074 A 
ATOM     50  C   UNL A   1      43.995  26.755  31.368  1.00  0.00     0.031 C 
ATOM     51  C   UNL A   1      38.747  29.506  27.857  1.00  0.00     0.029 A 
ATOM     52  C   UNL A   1      38.863  29.920  29.255  1.00  0.00     0.049 A 
ATOM     53  H   UNL A   1      40.358  29.386  30.602  1.00  0.00     0.167 HD
ATOM     54  C   UNL A   1      43.441  28.055  33.403  1.00  0.00     0.037 A 
ATOM     55  C   UNL A   1      38.015  30.738  29.910  1.00  0.00     0.037 A 
ATOM     56  C   UNL A   1      42.642  28.989  34.152  1.00  0.00     0.049 A 
ATOM     57  C   UNL A   1      38.268  31.064  31.363  1.00  0.00     0.074 A 
ATOM     58  C   UNL A   1      42.828  29.437  35.448  1.00  0.00     0.029 A 
ATOM     59  N   UNL A   1      41.498  29.611  33.675  1.00  0.00    -0.354 N 
ATOM     60  N   UNL A   1      39.246  30.675  32.145  1.00  0.00    -0.248 NA
ATOM     61  C   UNL A   1      37.294  31.947  32.024  1.00  0.00     0.031 C 
ATOM     62  C   UNL A   1      41.762  30.278  35.778  1.00  0.00     0.029 A 
ATOM     63  C   UNL A   1      40.949  30.412  34.664  1.00  0.00     0.049 A 
ATOM     64  H   UNL A   1      41.130  29.499  32.769  1.00  0.00     0.167 HD
ATOM     65  C   UNL A   1      39.027  31.294  33.370  1.00  0.00     0.074 A 
ATOM     66  C   UNL A   1      37.828  32.091  33.227  1.00  0.00     0.031 C 
ATOM     67  C   UNL A   1      39.759  31.211  34.511  1.00  0.00     0.037 A 
BRANCH  54  68
ATOM     68  C   UNL A   1      44.610  27.409  34.092  1.00  0.00     0.064 A 
ATOM     69  C   UNL A   1      45.891  27.981  34.072  1.00  0.00     0.173 A 
ATOM     70  C   UNL A   1      44.436  26.219  34.813  1.00  0.00     0.173 A 
ATOM     71  F   UNL A   1      46.117  29.111  33.387  1.00  0.00    -0.203 F 
ATOM     72  C   UNL A   1      46.960  27.367  34.723  1.00  0.00     0.198 A 
ATOM     73  C   UNL A   1      45.497  25.627  35.491  1.00  0.00     0.198 A 
ATOM     74  F   UNL A   1      43.230  25.632  34.870  1.00  0.00    -0.203 F 
ATOM     75  F   UNL A   1      48.186  27.904  34.648  1.00  0.00    -0.200 F 
ATOM     76  C   UNL A   1      46.760  26.197  35.439  1.00  0.00     0.200 A 
ATOM     77  F   UNL A   1      45.298  24.505  36.196  1.00  0.00    -0.200 F 
ATOM     78  F   UNL A   1      47.786  25.614  36.073  1.00  0.00    -0.200 F 
ENDBRANCH  54  68
BRANCH  55  79
ATOM     79  C   UNL A   1      36.833  31.305  29.205  1.00  0.00     0.064 A 
ATOM     80  C   UNL A   1      35.729  30.503  28.883  1.00  0.00     0.173 A 
ATOM     81  C   UNL A   1      36.796  32.651  28.811  1.00  0.00     0.173 A 
ATOM     82  F   UNL A   1      35.730  29.201  29.206  1.00  0.00    -0.203 F 
ATOM     83  C   UNL A   1      34.643  31.020  28.179  1.00  0.00     0.198 A 
ATOM     84  C   UNL A   1      35.696  33.174  28.135  1.00  0.00     0.198 A 
ATOM     85  F   UNL A   1      37.832  33.460  29.081  1.00  0.00    -0.203 F 
ATOM     86  F   UNL A   1      33.626  30.217  27.836  1.00  0.00    -0.200 F 
ATOM     87  C   UNL A   1      34.623  32.357  27.813  1.00  0.00     0.200 A 
ATOM     88  F   UNL A   1      35.678  34.469  27.788  1.00  0.00    -0.200 F 
ATOM     89  F   UNL A   1      33.579  32.854  27.136  1.00  0.00    -0.200 F 
ENDBRANCH  55  79
BRANCH  67  90
ATOM     90  C   UNL A   1      39.315  32.037  35.686  1.00  0.00     0.064 A 
ATOM     91  C   UNL A   1      39.732  33.365  35.861  1.00  0.00     0.173 A 
ATOM     92  C   UNL A   1      38.420  31.504  36.628  1.00  0.00     0.173 A 
ATOM     93  F   UNL A   1      40.595  33.922  34.998  1.00  0.00    -0.203 F 
ATOM     94  C   UNL A   1      39.293  34.117  36.949  1.00  0.00     0.198 A 
ATOM     95  C   UNL A   1      37.955  32.270  37.694  1.00  0.00     0.198 A 
ATOM     96  F   UNL A   1      37.980  30.243  36.505  1.00  0.00    -0.203 F 
ATOM     97  F   UNL A   1      39.745  35.367  37.123  1.00  0.00    -0.200 F 
ATOM     98  C   UNL A   1      38.399  33.572  37.859  1.00  0.00     0.200 A 
ATOM     99  F   UNL A   1      37.077  31.747  38.561  1.00  0.00    -0.200 F 
ATOM    100  F   UNL A   1      37.970  34.301  38.898  1.00  0.00    -0.200 F 
ENDBRANCH  67  90
ENDBRANCH  41  42
ENDBRANCH  34  36
ENDBRANCH  33  34
ENDBRANCH  32  33
ENDBRANCH  31  32
ENDBRANCH  30  31
ENDBRANCH  29  30
ENDBRANCH   1  29
TORSDOF 22
ENDMDL
MODEL 2
REMARK VINA RESULT:     -10.6      5.443     12.379
REMARK SMILES N#C/C(=C\c1ccc(Oc2ccccc2Cl)c([N+](=O)[O-])c1)C(=O)OCCOCCOCCOC(=O)c1ccc(-c2c3nc(c(-c4c(F)c(F)c(F)c(F)c4F)c4ccc([nH]4)c(-c4c(F)c(F)c(F)c(F)c4F)c4nc(c(-c5c(F)c(F)c(F)c(F)c5F)c5ccc2[nH]5)C=C4)C=C3)cc1
REMARK SMILES IDX 28 1 27 2 26 3 25 4 24 5 22 6 23 7 3 8 4 9 2 10 1 11 5 12
REMARK SMILES IDX 6 13 21 14 7 15 17 16 8 17 18 18 19 19 20 20 9 21 10 22
REMARK SMILES IDX 11 23 15 24 12 25 14 26 16 27 13 28 29 29 30 30 31 31 32 32
REMARK SMILES IDX 33 33 34 34 35 35 36 36 37 37 98 38 38 39 97 40 39 41 40 42
REMARK SMILES IDX 41 43 91 44 42 45 96 46 90 47 92 48 43 49 95 50 89 51 88 52
REMARK SMILES IDX 44 54 76 55 56 56 75 57 57 58 60 59 74 60 93 61 58 62 59 63
REMARK SMILES IDX 73 65 94 66 61 67 45 68 46 69 54 70 47 71 48 72 52 73 55 74
REMARK SMILES IDX 49 75 50 76 53 77 51 78 77 79 78 80 86 81 79 82 80 83 84 84
REMARK SMILES IDX 87 85 81 86 82 87 85 88 83 89 62 90 63 91 71 92 64 93 65 94
REMARK SMILES IDX 69 95 72 96 66 97 67 98 70 99 68 100
REMARK H PARENT 92 53 60 64
REMARK Flexibility Score: inf
ROOT
ATOM      1  C   UNL A   1      34.385  34.413  31.942  1.00  0.00     0.188 C 
ENDROOT
BRANCH   1   2
ATOM      2  O   UNL A   1      35.718  34.128  31.556  1.00  0.00    -0.376 OA
BRANCH   2   3
ATOM      3  C   UNL A   1      36.812  34.402  32.417  1.00  0.00     0.202 C 
BRANCH   3   4
ATOM      4  C   UNL A   1      36.650  34.348  33.940  1.00  0.00     0.261 C 
BRANCH   4   5
ATOM      5  O   UNL A   1      37.846  34.710  34.643  1.00  0.00    -0.459 OA
BRANCH   5   6
ATOM      6  C   UNL A   1      38.136  33.933  35.713  1.00  0.00     0.348 C 
ATOM      7  O   UNL A   1      37.909  34.204  36.881  1.00  0.00    -0.245 OA
BRANCH   6   8
ATOM      8  C   UNL A   1      38.652  32.611  35.286  1.00  0.00     0.138 C 
ATOM      9  C   UNL A   1      39.828  32.558  34.613  1.00  0.00     0.035 C 
BRANCH   8  10
ATOM     10  C   UNL A   1      38.203  31.425  36.124  1.00  0.00     0.107 C 
ATOM     11  N   UNL A   1      37.831  30.441  36.819  1.00  0.00    -0.192 NA
ENDBRANCH   8  10
BRANCH   9  12
ATOM     12  C   UNL A   1      40.731  31.384  34.640  1.00  0.00    -0.017 A 
ATOM     13  C   UNL A   1      41.572  31.197  35.742  1.00  0.00     0.012 A 
ATOM     14  C   UNL A   1      40.676  30.375  33.676  1.00  0.00     0.098 A 
ATOM     15  C   UNL A   1      42.307  30.009  35.889  1.00  0.00     0.055 A 
ATOM     16  C   UNL A   1      41.327  29.145  33.891  1.00  0.00     0.312 A 
ATOM     17  C   UNL A   1      42.192  28.952  34.972  1.00  0.00     0.204 A 
BRANCH  16  18
ATOM     18  N   UNL A   1      40.895  28.073  33.014  1.00  0.00     0.066 N 
ATOM     19  O   UNL A   1      41.513  27.923  31.953  1.00  0.00    -0.258 OA
ATOM     20  O   UNL A   1      39.998  27.330  33.439  1.00  0.00    -0.258 OA
ENDBRANCH  16  18
BRANCH  17  21
ATOM     21  O   UNL A   1      42.972  27.872  35.322  1.00  0.00    -0.449 OA
BRANCH  21  22
ATOM     22  C   UNL A   1      43.674  27.158  34.384  1.00  0.00     0.146 A 
ATOM     23  C   UNL A   1      43.400  25.786  34.343  1.00  0.00     0.049 A 
ATOM     24  C   UNL A   1      44.651  27.697  33.541  1.00  0.00     0.083 A 
ATOM     25  C   UNL A   1      44.018  24.976  33.392  1.00  0.00     0.004 A 
ATOM     26  C   UNL A   1      45.246  26.889  32.568  1.00  0.00     0.024 A 
ATOM     27  Cl  UNL A   1      45.149  29.347  33.648  1.00  0.00    -0.080 Cl
ATOM     28  C   UNL A   1      44.920  25.533  32.487  1.00  0.00     0.002 A 
ENDBRANCH  21  22
ENDBRANCH  17  21
ENDBRANCH   9  12
ENDBRANCH   6   8
ENDBRANCH   5   6
ENDBRANCH   4   5
ENDBRANCH   3   4
ENDBRANCH   2   3
ENDBRANCH   1   2
BRANCH   1  29
ATOM     29  C   UNL A   1      33.444  35.208  31.009  1.00  0.00     0.188 C 
BRANCH  29  30
ATOM     30  O   UNL A   1      33.851  35.444  29.692  1.00  0.00    -0.376 OA
BRANCH  30  31
ATOM     31  C   UNL A   1      33.477  34.519  28.689  1.00  0.00     0.202 C 
BRANCH  31  32
ATOM     32  C   UNL A   1      34.333  33.318  28.218  1.00  0.00     0.261 C 
BRANCH  32  33
ATOM     33  O   UNL A   1      34.380  32.132  29.028  1.00  0.00    -0.460 OA
BRANCH  33  34
ATOM     34  C   UNL A   1      34.417  30.948  28.361  1.00  0.00     0.338 C 
ATOM     35  O   UNL A   1      33.559  30.504  27.610  1.00  0.00    -0.246 OA
BRANCH  34  36
ATOM     36  C   UNL A   1      35.770  30.359  28.476  1.00  0.00     0.060 A 
ATOM     37  C   UNL A   1      36.194  29.834  29.710  1.00  0.00     0.016 A 
ATOM     38  C   UNL A   1      36.629  30.347  27.379  1.00  0.00     0.016 A 
ATOM     39  C   UNL A   1      37.484  29.315  29.852  1.00  0.00     0.010 A 
ATOM     40  C   UNL A   1      37.931  29.857  27.533  1.00  0.00     0.010 A 
ATOM     41  C   UNL A   1      38.377  29.367  28.776  1.00  0.00    -0.014 A 
BRANCH  41  42
ATOM     42  C   UNL A   1      39.824  29.100  28.982  1.00  0.00     0.031 A 
ATOM     43  C   UNL A   1      40.672  30.184  29.591  1.00  0.00     0.074 A 
ATOM     44  C   UNL A   1      40.388  27.932  28.625  1.00  0.00     0.049 A 
ATOM     45  N   UNL A   1      41.968  30.236  29.765  1.00  0.00    -0.248 NA
ATOM     46  C   UNL A   1      39.954  31.380  30.061  1.00  0.00     0.031 C 
ATOM     47  C   UNL A   1      39.678  26.782  28.078  1.00  0.00     0.029 A 
ATOM     48  N   UNL A   1      41.704  27.534  28.659  1.00  0.00    -0.354 N 
ATOM     49  C   UNL A   1      42.222  31.471  30.349  1.00  0.00     0.074 A 
ATOM     50  C   UNL A   1      40.950  32.150  30.472  1.00  0.00     0.031 C 
ATOM     51  C   UNL A   1      40.568  25.810  27.807  1.00  0.00     0.029 A 
ATOM     52  C   UNL A   1      41.914  26.286  28.127  1.00  0.00     0.049 A 
ATOM     53  H   UNL A   1      42.427  28.091  29.028  1.00  0.00     0.167 HD
ATOM     54  C   UNL A   1      43.407  31.989  30.750  1.00  0.00     0.037 A 
ATOM     55  C   UNL A   1      43.062  25.617  27.901  1.00  0.00     0.037 A 
ATOM     56  C   UNL A   1      44.671  31.312  30.629  1.00  0.00     0.049 A 
ATOM     57  C   UNL A   1      44.380  26.250  28.282  1.00  0.00     0.074 A 
ATOM     58  C   UNL A   1      45.924  31.746  31.028  1.00  0.00     0.029 A 
ATOM     59  N   UNL A   1      44.846  30.060  30.059  1.00  0.00    -0.354 N 
ATOM     60  N   UNL A   1      44.613  27.409  28.849  1.00  0.00    -0.248 NA
ATOM     61  C   UNL A   1      45.596  25.476  27.989  1.00  0.00     0.031 C 
ATOM     62  C   UNL A   1      46.863  30.788  30.639  1.00  0.00     0.029 A 
ATOM     63  C   UNL A   1      46.190  29.722  30.064  1.00  0.00     0.049 A 
ATOM     64  H   UNL A   1      44.122  29.495  29.702  1.00  0.00     0.167 HD
ATOM     65  C   UNL A   1      45.991  27.485  29.016  1.00  0.00     0.074 A 
ATOM     66  C   UNL A   1      46.542  26.252  28.497  1.00  0.00     0.031 C 
ATOM     67  C   UNL A   1      46.731  28.487  29.554  1.00  0.00     0.037 A 
BRANCH  54  68
ATOM     68  C   UNL A   1      43.399  33.377  31.326  1.00  0.00     0.064 A 
ATOM     69  C   UNL A   1      43.349  34.518  30.511  1.00  0.00     0.173 A 
ATOM     70  C   UNL A   1      43.406  33.565  32.716  1.00  0.00     0.173 A 
ATOM     71  F   UNL A   1      43.353  34.397  29.175  1.00  0.00    -0.203 F 
ATOM     72  C   UNL A   1      43.337  35.796  31.068  1.00  0.00     0.198 A 
ATOM     73  C   UNL A   1      43.359  34.841  33.269  1.00  0.00     0.198 A 
ATOM     74  F   UNL A   1      43.449  32.509  33.542  1.00  0.00    -0.203 F 
ATOM     75  F   UNL A   1      43.341  36.873  30.269  1.00  0.00    -0.200 F 
ATOM     76  C   UNL A   1      43.333  35.956  32.445  1.00  0.00     0.200 A 
ATOM     77  F   UNL A   1      43.339  34.993  34.600  1.00  0.00    -0.200 F 
ATOM     78  F   UNL A   1      43.311  37.185  32.978  1.00  0.00    -0.200 F 
ENDBRANCH  54  68
BRANCH  55  79
ATOM     79  C   UNL A   1      43.028  24.270  27.270  1.00  0.00     0.064 A 
ATOM     80  C   UNL A   1      43.310  24.101  25.907  1.00  0.00     0.173 A 
ATOM     81  C   UNL A   1      42.682  23.128  28.008  1.00  0.00     0.173 A 
ATOM     82  F   UNL A   1      43.611  25.166  25.149  1.00  0.00    -0.203 F 
ATOM     83  C   UNL A   1      43.230  22.848  25.303  1.00  0.00     0.198 A 
ATOM     84  C   UNL A   1      42.633  21.870  27.410  1.00  0.00     0.198 A 
ATOM     85  F   UNL A   1      42.389  23.233  29.313  1.00  0.00    -0.203 F 
ATOM     86  F   UNL A   1      43.450  22.725  23.987  1.00  0.00    -0.200 F 
ATOM     87  C   UNL A   1      42.900  21.732  26.057  1.00  0.00     0.200 A 
ATOM     88  F   UNL A   1      42.319  20.793  28.143  1.00  0.00    -0.200 F 
ATOM     89  F   UNL A   1      42.823  20.527  25.476  1.00  0.00    -0.200 F 
ENDBRANCH  55  79
BRANCH  67  90
ATOM     90  C   UNL A   1      48.217  28.279  29.658  1.00  0.00     0.064 A 
ATOM     91  C   UNL A   1      48.808  27.688  30.784  1.00  0.00     0.173 A 
ATOM     92  C   UNL A   1      49.057  28.636  28.590  1.00  0.00     0.173 A 
ATOM     93  F   UNL A   1      48.055  27.338  31.837  1.00  0.00    -0.203 F 
ATOM     94  C   UNL A   1      50.186  27.489  30.849  1.00  0.00     0.198 A 
ATOM     95  C   UNL A   1      50.428  28.402  28.644  1.00  0.00     0.198 A 
ATOM     96  F   UNL A   1      48.544  29.195  27.483  1.00  0.00    -0.203 F 
ATOM     97  F   UNL A   1      50.734  26.969  31.956  1.00  0.00    -0.200 F 
ATOM     98  C   UNL A   1      50.993  27.838  29.777  1.00  0.00     0.200 A 
ATOM     99  F   UNL A   1      51.203  28.722  27.598  1.00  0.00    -0.200 F 
ATOM    100  F   UNL A   1      52.316  27.635  29.838  1.00  0.00    -0.200 F 
ENDBRANCH  67  90
ENDBRANCH  41  42
ENDBRANCH  34  36
ENDBRANCH  33  34
ENDBRANCH  32  33
ENDBRANCH  31  32
ENDBRANCH  30  31
ENDBRANCH  29  30
ENDBRANCH   1  29
TORSDOF 22
ENDMDL
MODEL 3
REMARK VINA RESULT:     -10.3      5.544     12.541
REMARK SMILES N#C/C(=C\c1ccc(Oc2ccccc2Cl)c([N+](=O)[O-])c1)C(=O)OCCOCCOCCOC(=O)c1ccc(-c2c3nc(c(-c4c(F)c(F)c(F)c(F)c4F)c4ccc([nH]4)c(-c4c(F)c(F)c(F)c(F)c4F)c4nc(c(-c5c(F)c(F)c(F)c(F)c5F)c5ccc2[nH]5)C=C4)C=C3)cc1
REMARK SMILES IDX 28 1 27 2 26 3 25 4 24 5 22 6 23 7 3 8 4 9 2 10 1 11 5 12
REMARK SMILES IDX 6 13 21 14 7 15 17 16 8 17 18 18 19 19 20 20 9 21 10 22
REMARK SMILES IDX 11 23 15 24 12 25 14 26 16 27 13 28 29 29 30 30 31 31 32 32
REMARK SMILES IDX 33 33 34 34 35 35 36 36 37 37 98 38 38 39 97 40 39 41 40 42
REMARK SMILES IDX 41 43 91 44 42 45 96 46 90 47 92 48 43 49 95 50 89 51 88 52
REMARK SMILES IDX 44 54 76 55 56 56 75 57 57 58 60 59 74 60 93 61 58 62 59 63
REMARK SMILES IDX 73 65 94 66 61 67 45 68 46 69 54 70 47 71 48 72 52 73 55 74
REMARK SMILES IDX 49 75 50 76 53 77 51 78 77 79 78 80 86 81 79 82 80 83 84 84
REMARK SMILES IDX 87 85 81 86 82 87 85 88 83 89 62 90 63 91 71 92 64 93 65 94
REMARK SMILES IDX 69 95 72 96 66 97 67 98 70 99 68 100
REMARK H PARENT 92 53 60 64
REMARK Flexibility Score: inf
ROOT
ATOM      1  C   UNL A   1      34.544  34.572  32.302  1.00  0.00     0.188 C 
ENDROOT
BRANCH   1   2
ATOM      2  O   UNL A   1      35.809  34.249  31.753  1.00  0.00    -0.376 OA
BRANCH   2   3
ATOM      3  C   UNL A   1      36.978  34.214  32.557  1.00  0.00     0.202 C 
BRANCH   3   4
ATOM      4  C   UNL A   1      36.882  34.161  34.086  1.00  0.00     0.261 C 
BRANCH   4   5
ATOM      5  O   UNL A   1      37.981  34.811  34.738  1.00  0.00    -0.459 OA
BRANCH   5   6
ATOM      6  C   UNL A   1      38.593  34.073  35.694  1.00  0.00     0.348 C 
ATOM      7  O   UNL A   1      38.891  34.454  36.815  1.00  0.00    -0.245 OA
BRANCH   6   8
ATOM      8  C   UNL A   1      38.744  32.664  35.264  1.00  0.00     0.138 C 
ATOM      9  C   UNL A   1      39.757  32.344  34.421  1.00  0.00     0.035 C 
BRANCH   8  10
ATOM     10  C   UNL A   1      38.198  31.618  36.224  1.00  0.00     0.107 C 
ATOM     11  N   UNL A   1      37.746  30.751  37.019  1.00  0.00    -0.192 NA
ENDBRANCH   8  10
BRANCH   9  12
ATOM     12  C   UNL A   1      40.385  31.005  34.371  1.00  0.00    -0.017 A 
ATOM     13  C   UNL A   1      40.083  30.150  33.305  1.00  0.00     0.012 A 
ATOM     14  C   UNL A   1      41.381  30.610  35.267  1.00  0.00     0.098 A 
ATOM     15  C   UNL A   1      40.791  28.951  33.124  1.00  0.00     0.055 A 
ATOM     16  C   UNL A   1      42.159  29.464  35.012  1.00  0.00     0.312 A 
ATOM     17  C   UNL A   1      41.853  28.587  33.968  1.00  0.00     0.204 A 
BRANCH  16  18
ATOM     18  N   UNL A   1      43.375  29.375  35.798  1.00  0.00     0.066 N 
ATOM     19  O   UNL A   1      43.262  29.034  36.981  1.00  0.00    -0.258 OA
ATOM     20  O   UNL A   1      44.445  29.556  35.198  1.00  0.00    -0.258 OA
ENDBRANCH  16  18
BRANCH  17  21
ATOM     21  O   UNL A   1      42.429  27.393  33.594  1.00  0.00    -0.449 OA
BRANCH  21  22
ATOM     22  C   UNL A   1      42.777  26.442  34.519  1.00  0.00     0.146 A 
ATOM     23  C   UNL A   1      41.753  26.044  35.388  1.00  0.00     0.049 A 
ATOM     24  C   UNL A   1      44.063  25.913  34.673  1.00  0.00     0.083 A 
ATOM     25  C   UNL A   1      41.983  25.045  36.331  1.00  0.00     0.004 A 
ATOM     26  C   UNL A   1      44.282  24.890  35.599  1.00  0.00     0.024 A 
ATOM     27  Cl  UNL A   1      45.404  26.473  33.742  1.00  0.00    -0.080 Cl
ATOM     28  C   UNL A   1      43.240  24.449  36.419  1.00  0.00     0.002 A 
ENDBRANCH  21  22
ENDBRANCH  17  21
ENDBRANCH   9  12
ENDBRANCH   6   8
ENDBRANCH   5   6
ENDBRANCH   4   5
ENDBRANCH   3   4
ENDBRANCH   2   3
ENDBRANCH   1   2
BRANCH   1  29
ATOM     29  C   UNL A   1      33.444  35.219  31.432  1.00  0.00     0.188 C 
BRANCH  29  30
ATOM     30  O   UNL A   1      33.737  35.518  30.097  1.00  0.00    -0.376 OA
BRANCH  30  31
ATOM     31  C   UNL A   1      33.351  34.598  29.094  1.00  0.00     0.202 C 
BRANCH  31  32
ATOM     32  C   UNL A   1      34.264  33.508  28.484  1.00  0.00     0.261 C 
BRANCH  32  33
ATOM     33  O   UNL A   1      34.356  32.228  29.132  1.00  0.00    -0.460 OA
BRANCH  33  34
ATOM     34  C   UNL A   1      34.438  31.144  28.316  1.00  0.00     0.338 C 
ATOM     35  O   UNL A   1      33.639  30.820  27.447  1.00  0.00    -0.246 OA
BRANCH  34  36
ATOM     36  C   UNL A   1      35.773  30.521  28.457  1.00  0.00     0.060 A 
ATOM     37  C   UNL A   1      36.193  30.063  29.718  1.00  0.00     0.016 A 
ATOM     38  C   UNL A   1      36.619  30.410  27.355  1.00  0.00     0.016 A 
ATOM     39  C   UNL A   1      37.467  29.512  29.883  1.00  0.00     0.010 A 
ATOM     40  C   UNL A   1      37.906  29.889  27.529  1.00  0.00     0.010 A 
ATOM     41  C   UNL A   1      38.349  29.466  28.798  1.00  0.00    -0.014 A 
BRANCH  41  42
ATOM     42  C   UNL A   1      39.790  29.165  29.008  1.00  0.00     0.031 A 
ATOM     43  C   UNL A   1      40.659  30.227  29.627  1.00  0.00     0.074 A 
ATOM     44  C   UNL A   1      40.330  27.988  28.645  1.00  0.00     0.049 A 
ATOM     45  N   UNL A   1      41.955  30.249  29.807  1.00  0.00    -0.248 NA
ATOM     46  C   UNL A   1      39.965  31.435  30.102  1.00  0.00     0.031 C 
ATOM     47  C   UNL A   1      39.596  26.857  28.088  1.00  0.00     0.029 A 
ATOM     48  N   UNL A   1      41.636  27.561  28.681  1.00  0.00    -0.354 N 
ATOM     49  C   UNL A   1      42.233  31.474  30.399  1.00  0.00     0.074 A 
ATOM     50  C   UNL A   1      40.977  32.180  30.522  1.00  0.00     0.031 C 
ATOM     51  C   UNL A   1      40.466  25.867  27.814  1.00  0.00     0.029 A 
ATOM     52  C   UNL A   1      41.820  26.311  28.143  1.00  0.00     0.049 A 
ATOM     53  H   UNL A   1      42.369  28.099  29.057  1.00  0.00     0.167 HD
ATOM     54  C   UNL A   1      43.428  31.963  30.809  1.00  0.00     0.037 A 
ATOM     55  C   UNL A   1      42.955  25.619  27.917  1.00  0.00     0.037 A 
ATOM     56  C   UNL A   1      44.678  31.259  30.688  1.00  0.00     0.049 A 
ATOM     57  C   UNL A   1      44.285  26.220  28.307  1.00  0.00     0.074 A 
ATOM     58  C   UNL A   1      45.938  31.663  31.095  1.00  0.00     0.029 A 
ATOM     59  N   UNL A   1      44.827  30.008  30.111  1.00  0.00    -0.354 N 
ATOM     60  N   UNL A   1      44.541  27.370  28.882  1.00  0.00    -0.248 NA
ATOM     61  C   UNL A   1      45.485  25.421  28.014  1.00  0.00     0.031 C 
ATOM     62  C   UNL A   1      46.857  30.687  30.703  1.00  0.00     0.029 A 
ATOM     63  C   UNL A   1      46.164  29.640  30.118  1.00  0.00     0.049 A 
ATOM     64  H   UNL A   1      44.093  29.461  29.747  1.00  0.00     0.167 HD
ATOM     65  C   UNL A   1      45.919  27.415  29.055  1.00  0.00     0.074 A 
ATOM     66  C   UNL A   1      46.446  26.173  28.530  1.00  0.00     0.031 C 
ATOM     67  C   UNL A   1      46.679  28.397  29.603  1.00  0.00     0.037 A 
BRANCH  54  68
ATOM     68  C   UNL A   1      43.448  33.348  31.393  1.00  0.00     0.064 A 
ATOM     69  C   UNL A   1      43.411  33.569  32.778  1.00  0.00     0.173 A 
ATOM     70  C   UNL A   1      43.540  34.468  30.554  1.00  0.00     0.173 A 
ATOM     71  F   UNL A   1      43.310  32.534  33.626  1.00  0.00    -0.203 F 
ATOM     72  C   UNL A   1      43.437  34.861  33.299  1.00  0.00     0.198 A 
ATOM     73  C   UNL A   1      43.599  35.756  31.078  1.00  0.00     0.198 A 
ATOM     74  F   UNL A   1      43.582  34.314  29.222  1.00  0.00    -0.203 F 
ATOM     75  F   UNL A   1      43.349  35.051  34.623  1.00  0.00    -0.200 F 
ATOM     76  C   UNL A   1      43.539  35.952  32.449  1.00  0.00     0.200 A 
ATOM     77  F   UNL A   1      43.715  36.807  30.256  1.00  0.00    -0.200 F 
ATOM     78  F   UNL A   1      43.574  37.194  32.951  1.00  0.00    -0.200 F 
ENDBRANCH  54  68
BRANCH  55  79
ATOM     79  C   UNL A   1      42.894  24.277  27.276  1.00  0.00     0.064 A 
ATOM     80  C   UNL A   1      42.563  23.134  28.019  1.00  0.00     0.173 A 
ATOM     81  C   UNL A   1      43.194  24.104  25.917  1.00  0.00     0.173 A 
ATOM     82  F   UNL A   1      42.303  23.240  29.331  1.00  0.00    -0.203 F 
ATOM     83  C   UNL A   1      42.554  21.870  27.432  1.00  0.00     0.198 A 
ATOM     84  C   UNL A   1      43.153  22.844  25.324  1.00  0.00     0.198 A 
ATOM     85  F   UNL A   1      43.529  25.161  25.162  1.00  0.00    -0.203 F 
ATOM     86  F   UNL A   1      42.290  20.789  28.179  1.00  0.00    -0.200 F 
ATOM     87  C   UNL A   1      42.840  21.727  26.083  1.00  0.00     0.200 A 
ATOM     88  F   UNL A   1      43.425  22.710  24.018  1.00  0.00    -0.200 F 
ATOM     89  F   UNL A   1      42.831  20.511  25.519  1.00  0.00    -0.200 F 
ENDBRANCH  55  79
BRANCH  67  90
ATOM     90  C   UNL A   1      48.159  28.155  29.711  1.00  0.00     0.064 A 
ATOM     91  C   UNL A   1      48.726  27.492  30.809  1.00  0.00     0.173 A 
ATOM     92  C   UNL A   1      49.018  28.554  28.674  1.00  0.00     0.173 A 
ATOM     93  F   UNL A   1      47.955  27.099  31.833  1.00  0.00    -0.203 F 
ATOM     94  C   UNL A   1      50.099  27.264  30.878  1.00  0.00     0.198 A 
ATOM     95  C   UNL A   1      50.385  28.292  28.730  1.00  0.00     0.198 A 
ATOM     96  F   UNL A   1      48.530  29.183  27.594  1.00  0.00    -0.203 F 
ATOM     97  F   UNL A   1      50.625  26.674  31.961  1.00  0.00    -0.200 F 
ATOM     98  C   UNL A   1      50.926  27.656  29.836  1.00  0.00     0.200 A 
ATOM     99  F   UNL A   1      51.178  28.655  27.712  1.00  0.00    -0.200 F 
ATOM    100  F   UNL A   1      52.244  27.425  29.900  1.00  0.00    -0.200 F 
ENDBRANCH  67  90
ENDBRANCH  41  42
ENDBRANCH  34  36
ENDBRANCH  33  34
ENDBRANCH  32  33
ENDBRANCH  31  32
ENDBRANCH  30  31
ENDBRANCH  29  30
ENDBRANCH   1  29
TORSDOF 22
ENDMDL
