MODEL 1
REMARK VINA RESULT:     -12.3      0.000      0.000
REMARK SMILES Cc1coc2c(C)c3oc(=O)c(CCC(=O)N[C@H](CC(C)C)C(=O)OCCOCCOCCOC(=O)c4ccc(-c5c6nc(c(-c7c(F)c(F)c(F)c(F)c7F)c7ccc([nH]7)c(-c7c(F)c(F)c(F)c(F)c7F)c7nc(c(-c8c(F)c(F)c(F)c(F)c8F)c8ccc5[nH]8)C=C7)C=C6)cc4)c(C)c3cc12
REMARK SMILES IDX 29 1 28 2 27 3 26 4 25 5 23 6 24 7 18 8 17 9 15 10 16 11
REMARK SMILES IDX 14 13 13 14 12 15 1 16 2 17 3 18 104 19 4 20 5 21 103 22
REMARK SMILES IDX 6 23 102 24 7 25 8 26 100 27 9 28 101 29 10 30 11 31 19 32
REMARK SMILES IDX 20 33 21 34 22 35 30 36 31 37 32 38 33 39 34 40 35 41 36 42
REMARK SMILES IDX 37 43 38 44 99 45 39 46 98 47 40 48 41 49 42 50 92 51 43 52
REMARK SMILES IDX 97 53 91 54 93 55 44 56 96 57 90 58 89 59 45 61 77 62 57 63
REMARK SMILES IDX 76 64 58 65 61 66 75 67 94 68 59 69 60 70 74 72 95 73 62 74
REMARK SMILES IDX 46 75 47 76 55 77 48 78 49 79 53 80 56 81 50 82 51 83 54 84
REMARK SMILES IDX 52 85 78 86 79 87 87 88 80 89 81 90 85 91 88 92 82 93 83 94
REMARK SMILES IDX 86 95 84 96 63 97 64 98 72 99 65 100 66 101 70 102 73 103
REMARK SMILES IDX 67 104 68 105 71 106 69 107
REMARK H PARENT 17 12 93 60 61 71
REMARK Flexibility Score: inf
ROOT
ATOM      1  C   UNL A   1      34.062  31.942  27.663  1.00  0.00     0.188 C 
ENDROOT
BRANCH   1   2
ATOM      2  O   UNL A   1      34.147  30.550  27.854  1.00  0.00    -0.376 OA
BRANCH   2   3
ATOM      3  C   UNL A   1      33.570  29.735  26.846  1.00  0.00     0.202 C 
BRANCH   3   4
ATOM      4  C   UNL A   1      32.269  30.163  26.121  1.00  0.00     0.261 C 
BRANCH   4   5
ATOM      5  O   UNL A   1      31.479  29.102  25.535  1.00  0.00    -0.462 OA
BRANCH   5   6
ATOM      6  C   UNL A   1      31.532  29.001  24.180  1.00  0.00     0.328 C 
ATOM      7  O   UNL A   1      32.594  29.014  23.557  1.00  0.00    -0.250 OA
BRANCH   6   8
ATOM      8  C   UNL A   1      30.163  28.713  23.470  1.00  0.00     0.192 C 
BRANCH   8   9
ATOM      9  N   UNL A   1      30.327  27.337  22.960  1.00  0.00    -0.343 N 
ATOM     10  C   UNL A   1      30.429  26.122  23.546  1.00  0.00     0.221 C 
ATOM     11  O   UNL A   1      30.908  25.215  22.858  1.00  0.00    -0.275 OA
ATOM     12  H   UNL A   1      30.374  27.295  21.978  1.00  0.00     0.164 HD
BRANCH  10  13
ATOM     13  C   UNL A   1      29.907  25.817  24.936  1.00  0.00     0.105 C 
BRANCH  13  14
ATOM     14  C   UNL A   1      30.829  25.340  26.070  1.00  0.00     0.053 C 
BRANCH  14  15
ATOM     15  C   UNL A   1      31.988  24.406  25.784  1.00  0.00     0.042 A 
ATOM     16  C   UNL A   1      38.863  24.366  26.487  1.00  0.00     0.048 C 
ATOM     17  C   UNL A   1      38.069  23.221  25.980  1.00  0.00    -0.005 A 
ATOM     18  C   UNL A   1      38.481  21.918  25.794  1.00  0.00     0.199 A 
ATOM     19  C   UNL A   1      36.681  23.224  25.661  1.00  0.00     0.024 A 
ATOM     20  O   UNL A   1      37.442  21.127  25.415  1.00  0.00    -0.464 OA
ATOM     21  C   UNL A   1      36.330  21.917  25.357  1.00  0.00     0.140 A 
ATOM     22  C   UNL A   1      35.681  24.206  25.681  1.00  0.00     0.024 A 
ATOM     23  C   UNL A   1      35.021  21.480  25.114  1.00  0.00     0.036 A 
ATOM     24  C   UNL A   1      34.343  23.843  25.498  1.00  0.00     0.022 A 
ATOM     25  C   UNL A   1      34.704  20.033  24.880  1.00  0.00     0.052 C 
ATOM     26  C   UNL A   1      34.044  22.502  25.234  1.00  0.00     0.145 A 
ATOM     27  C   UNL A   1      33.264  24.829  25.689  1.00  0.00    -0.030 A 
ATOM     28  O   UNL A   1      32.686  22.114  25.180  1.00  0.00    -0.422 OA
ATOM     29  C   UNL A   1      33.669  26.278  25.813  1.00  0.00     0.046 C 
ATOM     30  C   UNL A   1      31.642  22.978  25.493  1.00  0.00     0.339 A 
ATOM     31  O   UNL A   1      30.486  22.573  25.518  1.00  0.00    -0.246 OA
ENDBRANCH  14  15
ENDBRANCH  13  14
ENDBRANCH  10  13
ENDBRANCH   8   9
BRANCH   8  32
ATOM     32  C   UNL A   1      29.738  29.675  22.339  1.00  0.00     0.040 C 
BRANCH  32  33
ATOM     33  C   UNL A   1      28.211  29.926  22.218  1.00  0.00    -0.015 C 
ATOM     34  C   UNL A   1      27.337  29.013  23.089  1.00  0.00     0.007 C 
ATOM     35  C   UNL A   1      27.833  31.369  22.562  1.00  0.00     0.007 C 
ENDBRANCH  32  33
ENDBRANCH   8  32
ENDBRANCH   6   8
ENDBRANCH   5   6
ENDBRANCH   4   5
ENDBRANCH   3   4
ENDBRANCH   2   3
ENDBRANCH   1   2
BRANCH   1  36
ATOM     36  C   UNL A   1      35.345  32.703  27.988  1.00  0.00     0.188 C 
BRANCH  36  37
ATOM     37  O   UNL A   1      35.319  33.934  28.704  1.00  0.00    -0.376 OA
BRANCH  37  38
ATOM     38  C   UNL A   1      34.394  34.168  29.760  1.00  0.00     0.202 C 
BRANCH  38  39
ATOM     39  C   UNL A   1      34.677  33.627  31.160  1.00  0.00     0.261 C 
BRANCH  39  40
ATOM     40  O   UNL A   1      34.781  32.220  31.225  1.00  0.00    -0.460 OA
BRANCH  40  41
ATOM     41  C   UNL A   1      35.854  31.798  31.931  1.00  0.00     0.338 C 
ATOM     42  O   UNL A   1      36.066  31.916  33.118  1.00  0.00    -0.246 OA
BRANCH  41  43
ATOM     43  C   UNL A   1      36.793  31.189  30.984  1.00  0.00     0.060 A 
ATOM     44  C   UNL A   1      36.632  29.825  30.736  1.00  0.00     0.016 A 
ATOM     45  C   UNL A   1      37.960  31.888  30.653  1.00  0.00     0.016 A 
ATOM     46  C   UNL A   1      37.758  29.101  30.434  1.00  0.00     0.010 A 
ATOM     47  C   UNL A   1      39.086  31.163  30.378  1.00  0.00     0.010 A 
ATOM     48  C   UNL A   1      38.983  29.777  30.393  1.00  0.00    -0.014 A 
BRANCH  48  49
ATOM     49  C   UNL A   1      40.190  28.990  30.352  1.00  0.00     0.031 A 
ATOM     50  C   UNL A   1      40.824  28.887  31.676  1.00  0.00     0.074 A 
ATOM     51  C   UNL A   1      40.608  28.402  29.215  1.00  0.00     0.049 A 
ATOM     52  N   UNL A   1      41.912  29.461  32.059  1.00  0.00    -0.248 NA
ATOM     53  C   UNL A   1      40.065  28.244  32.760  1.00  0.00     0.031 C 
ATOM     54  C   UNL A   1      39.882  28.268  27.945  1.00  0.00     0.029 A 
ATOM     55  N   UNL A   1      41.761  27.719  28.976  1.00  0.00    -0.354 N 
ATOM     56  C   UNL A   1      42.093  29.059  33.377  1.00  0.00     0.074 A 
ATOM     57  C   UNL A   1      40.842  28.503  33.811  1.00  0.00     0.031 C 
ATOM     58  C   UNL A   1      40.514  27.367  27.156  1.00  0.00     0.029 A 
ATOM     59  C   UNL A   1      41.758  26.978  27.797  1.00  0.00     0.049 A 
ATOM     60  H   UNL A   1      42.533  27.747  29.587  1.00  0.00     0.167 HD
ATOM     61  C   UNL A   1      43.353  28.923  33.868  1.00  0.00     0.037 A 
ATOM     62  C   UNL A   1      42.707  26.082  27.430  1.00  0.00     0.037 A 
ATOM     63  C   UNL A   1      44.298  29.621  33.031  1.00  0.00     0.049 A 
ATOM     64  C   UNL A   1      43.931  26.421  28.192  1.00  0.00     0.074 A 
ATOM     65  C   UNL A   1      44.623  30.937  32.785  1.00  0.00     0.029 A 
ATOM     66  N   UNL A   1      44.758  28.881  31.975  1.00  0.00    -0.354 N 
ATOM     67  N   UNL A   1      44.628  27.505  27.990  1.00  0.00    -0.248 NA
ATOM     68  C   UNL A   1      44.201  25.727  29.446  1.00  0.00     0.031 C 
ATOM     69  C   UNL A   1      45.118  30.977  31.447  1.00  0.00     0.029 A 
ATOM     70  C   UNL A   1      45.126  29.683  30.930  1.00  0.00     0.049 A 
ATOM     71  H   UNL A   1      44.816  27.898  31.968  1.00  0.00     0.167 HD
ATOM     72  C   UNL A   1      45.090  27.852  29.244  1.00  0.00     0.074 A 
ATOM     73  C   UNL A   1      44.954  26.648  30.054  1.00  0.00     0.031 C 
ATOM     74  C   UNL A   1      45.228  29.166  29.584  1.00  0.00     0.037 A 
BRANCH  61  75
ATOM     75  C   UNL A   1      43.788  27.770  34.749  1.00  0.00     0.064 A 
ATOM     76  C   UNL A   1      43.680  26.456  34.246  1.00  0.00     0.173 A 
ATOM     77  C   UNL A   1      44.003  27.865  36.142  1.00  0.00     0.173 A 
ATOM     78  F   UNL A   1      43.439  26.241  32.944  1.00  0.00    -0.203 F 
ATOM     79  C   UNL A   1      43.726  25.337  35.083  1.00  0.00     0.198 A 
ATOM     80  C   UNL A   1      44.101  26.745  36.965  1.00  0.00     0.198 A 
ATOM     81  F   UNL A   1      44.011  29.033  36.793  1.00  0.00    -0.203 F 
ATOM     82  F   UNL A   1      43.502  24.118  34.576  1.00  0.00    -0.200 F 
ATOM     83  C   UNL A   1      43.936  25.482  36.441  1.00  0.00     0.200 A 
ATOM     84  F   UNL A   1      44.275  26.912  38.284  1.00  0.00    -0.200 F 
ATOM     85  F   UNL A   1      43.929  24.417  37.252  1.00  0.00    -0.200 F 
ENDBRANCH  61  75
BRANCH  62  86
ATOM     86  C   UNL A   1      42.585  24.786  26.716  1.00  0.00     0.064 A 
ATOM     87  C   UNL A   1      43.214  24.605  25.468  1.00  0.00     0.173 A 
ATOM     88  C   UNL A   1      42.167  23.619  27.380  1.00  0.00     0.173 A 
ATOM     89  F   UNL A   1      43.657  25.663  24.775  1.00  0.00    -0.203 F 
ATOM     90  C   UNL A   1      43.484  23.331  24.959  1.00  0.00     0.198 A 
ATOM     91  C   UNL A   1      42.433  22.348  26.866  1.00  0.00     0.198 A 
ATOM     92  F   UNL A   1      41.593  23.685  28.589  1.00  0.00    -0.203 F 
ATOM     93  F   UNL A   1      44.174  23.202  23.817  1.00  0.00    -0.200 F 
ATOM     94  C   UNL A   1      43.114  22.204  25.670  1.00  0.00     0.200 A 
ATOM     95  F   UNL A   1      42.096  21.260  27.575  1.00  0.00    -0.200 F 
ATOM     96  F   UNL A   1      43.453  20.984  25.229  1.00  0.00    -0.200 F 
ENDBRANCH  62  86
BRANCH  74  97
ATOM     97  C   UNL A   1      45.333  30.155  28.463  1.00  0.00     0.064 A 
ATOM     98  C   UNL A   1      44.240  30.800  27.862  1.00  0.00     0.173 A 
ATOM     99  C   UNL A   1      46.617  30.530  28.047  1.00  0.00     0.173 A 
ATOM    100  F   UNL A   1      42.986  30.546  28.258  1.00  0.00    -0.203 F 
ATOM    101  C   UNL A   1      44.430  31.758  26.867  1.00  0.00     0.198 A 
ATOM    102  C   UNL A   1      46.805  31.513  27.082  1.00  0.00     0.198 A 
ATOM    103  F   UNL A   1      47.696  29.968  28.615  1.00  0.00    -0.203 F 
ATOM    104  F   UNL A   1      43.373  32.353  26.295  1.00  0.00    -0.200 F 
ATOM    105  C   UNL A   1      45.713  32.121  26.486  1.00  0.00     0.200 A 
ATOM    106  F   UNL A   1      48.048  31.888  26.749  1.00  0.00    -0.200 F 
ATOM    107  F   UNL A   1      45.898  33.072  25.561  1.00  0.00    -0.200 F 
ENDBRANCH  74  97
ENDBRANCH  48  49
ENDBRANCH  41  43
ENDBRANCH  40  41
ENDBRANCH  39  40
ENDBRANCH  38  39
ENDBRANCH  37  38
ENDBRANCH  36  37
ENDBRANCH   1  36
TORSDOF 23
ENDMDL
MODEL 2
REMARK VINA RESULT:     -12.3      2.484      3.777
REMARK SMILES Cc1coc2c(C)c3oc(=O)c(CCC(=O)N[C@H](CC(C)C)C(=O)OCCOCCOCCOC(=O)c4ccc(-c5c6nc(c(-c7c(F)c(F)c(F)c(F)c7F)c7ccc([nH]7)c(-c7c(F)c(F)c(F)c(F)c7F)c7nc(c(-c8c(F)c(F)c(F)c(F)c8F)c8ccc5[nH]8)C=C7)C=C6)cc4)c(C)c3cc12
REMARK SMILES IDX 29 1 28 2 27 3 26 4 25 5 23 6 24 7 18 8 17 9 15 10 16 11
REMARK SMILES IDX 14 13 13 14 12 15 1 16 2 17 3 18 104 19 4 20 5 21 103 22
REMARK SMILES IDX 6 23 102 24 7 25 8 26 100 27 9 28 101 29 10 30 11 31 19 32
REMARK SMILES IDX 20 33 21 34 22 35 30 36 31 37 32 38 33 39 34 40 35 41 36 42
REMARK SMILES IDX 37 43 38 44 99 45 39 46 98 47 40 48 41 49 42 50 92 51 43 52
REMARK SMILES IDX 97 53 91 54 93 55 44 56 96 57 90 58 89 59 45 61 77 62 57 63
REMARK SMILES IDX 76 64 58 65 61 66 75 67 94 68 59 69 60 70 74 72 95 73 62 74
REMARK SMILES IDX 46 75 47 76 55 77 48 78 49 79 53 80 56 81 50 82 51 83 54 84
REMARK SMILES IDX 52 85 78 86 79 87 87 88 80 89 81 90 85 91 88 92 82 93 83 94
REMARK SMILES IDX 86 95 84 96 63 97 64 98 72 99 65 100 66 101 70 102 73 103
REMARK SMILES IDX 67 104 68 105 71 106 69 107
REMARK H PARENT 17 12 93 60 61 71
REMARK Flexibility Score: inf
ROOT
ATOM      1  C   UNL A   1      34.195  31.789  28.374  1.00  0.00     0.188 C 
ENDROOT
BRANCH   1   2
ATOM      2  O   UNL A   1      34.462  30.851  27.360  1.00  0.00    -0.376 OA
BRANCH   2   3
ATOM      3  C   UNL A   1      33.426  29.929  27.061  1.00  0.00     0.202 C 
BRANCH   3   4
ATOM      4  C   UNL A   1      32.184  30.362  26.241  1.00  0.00     0.261 C 
BRANCH   4   5
ATOM      5  O   UNL A   1      31.420  29.302  25.621  1.00  0.00    -0.462 OA
BRANCH   5   6
ATOM      6  C   UNL A   1      31.506  29.223  24.266  1.00  0.00     0.328 C 
ATOM      7  O   UNL A   1      32.577  29.309  23.664  1.00  0.00    -0.250 OA
BRANCH   6   8
ATOM      8  C   UNL A   1      30.171  28.861  23.525  1.00  0.00     0.192 C 
BRANCH   8   9
ATOM      9  N   UNL A   1      30.506  27.611  22.812  1.00  0.00    -0.343 N 
ATOM     10  C   UNL A   1      30.689  26.327  23.198  1.00  0.00     0.221 C 
ATOM     11  O   UNL A   1      31.302  25.597  22.413  1.00  0.00    -0.275 OA
ATOM     12  H   UNL A   1      30.623  27.741  21.844  1.00  0.00     0.164 HD
BRANCH  10  13
ATOM     13  C   UNL A   1      30.109  25.746  24.471  1.00  0.00     0.105 C 
BRANCH  13  14
ATOM     14  C   UNL A   1      30.936  25.610  25.761  1.00  0.00     0.053 C 
BRANCH  14  15
ATOM     15  C   UNL A   1      32.221  24.807  25.775  1.00  0.00     0.042 A 
ATOM     16  C   UNL A   1      34.263  18.338  24.454  1.00  0.00     0.048 C 
ATOM     17  C   UNL A   1      35.179  19.443  24.826  1.00  0.00    -0.005 A 
ATOM     18  C   UNL A   1      36.556  19.468  24.745  1.00  0.00     0.199 A 
ATOM     19  C   UNL A   1      34.806  20.745  25.266  1.00  0.00     0.024 A 
ATOM     20  O   UNL A   1      37.042  20.694  25.075  1.00  0.00    -0.464 OA
ATOM     21  C   UNL A   1      35.971  21.489  25.369  1.00  0.00     0.140 A 
ATOM     22  C   UNL A   1      33.577  21.374  25.506  1.00  0.00     0.024 A 
ATOM     23  C   UNL A   1      36.017  22.862  25.651  1.00  0.00     0.036 A 
ATOM     24  C   UNL A   1      33.533  22.752  25.744  1.00  0.00     0.022 A 
ATOM     25  C   UNL A   1      37.310  23.622  25.659  1.00  0.00     0.052 C 
ATOM     26  C   UNL A   1      34.739  23.460  25.799  1.00  0.00     0.145 A 
ATOM     27  C   UNL A   1      32.243  23.460  25.825  1.00  0.00    -0.030 A 
ATOM     28  O   UNL A   1      34.688  24.868  25.908  1.00  0.00    -0.422 OA
ATOM     29  C   UNL A   1      30.997  22.613  25.916  1.00  0.00     0.046 C 
ATOM     30  C   UNL A   1      33.498  25.586  25.845  1.00  0.00     0.339 A 
ATOM     31  O   UNL A   1      33.510  26.811  25.855  1.00  0.00    -0.246 OA
ENDBRANCH  14  15
ENDBRANCH  13  14
ENDBRANCH  10  13
ENDBRANCH   8   9
BRANCH   8  32
ATOM     32  C   UNL A   1      29.595  29.914  22.554  1.00  0.00     0.040 C 
BRANCH  32  33
ATOM     33  C   UNL A   1      28.051  30.074  22.586  1.00  0.00    -0.015 C 
ATOM     34  C   UNL A   1      27.291  28.871  23.162  1.00  0.00     0.007 C 
ATOM     35  C   UNL A   1      27.613  31.304  23.383  1.00  0.00     0.007 C 
ENDBRANCH  32  33
ENDBRANCH   8  32
ENDBRANCH   6   8
ENDBRANCH   5   6
ENDBRANCH   4   5
ENDBRANCH   3   4
ENDBRANCH   2   3
ENDBRANCH   1   2
BRANCH   1  36
ATOM     36  C   UNL A   1      34.657  33.210  28.057  1.00  0.00     0.188 C 
BRANCH  36  37
ATOM     37  O   UNL A   1      34.666  34.229  29.052  1.00  0.00    -0.376 OA
BRANCH  37  38
ATOM     38  C   UNL A   1      33.743  35.312  29.024  1.00  0.00     0.202 C 
BRANCH  38  39
ATOM     39  C   UNL A   1      32.962  35.686  30.282  1.00  0.00     0.261 C 
BRANCH  39  40
ATOM     40  O   UNL A   1      33.229  34.859  31.395  1.00  0.00    -0.460 OA
BRANCH  40  41
ATOM     41  C   UNL A   1      34.011  35.454  32.324  1.00  0.00     0.338 C 
ATOM     42  O   UNL A   1      34.045  36.624  32.639  1.00  0.00    -0.246 OA
BRANCH  41  43
ATOM     43  C   UNL A   1      34.891  34.425  32.885  1.00  0.00     0.060 A 
ATOM     44  C   UNL A   1      36.080  34.868  33.465  1.00  0.00     0.016 A 
ATOM     45  C   UNL A   1      34.673  33.088  32.527  1.00  0.00     0.016 A 
ATOM     46  C   UNL A   1      37.164  34.027  33.405  1.00  0.00     0.010 A 
ATOM     47  C   UNL A   1      35.758  32.261  32.443  1.00  0.00     0.010 A 
ATOM     48  C   UNL A   1      37.001  32.789  32.772  1.00  0.00    -0.014 A 
BRANCH  48  49
ATOM     49  C   UNL A   1      38.184  32.026  32.462  1.00  0.00     0.031 A 
ATOM     50  C   UNL A   1      38.999  31.766  33.659  1.00  0.00     0.074 A 
ATOM     51  C   UNL A   1      38.431  31.588  31.212  1.00  0.00     0.049 A 
ATOM     52  N   UNL A   1      40.135  32.300  33.952  1.00  0.00    -0.248 NA
ATOM     53  C   UNL A   1      38.397  30.987  34.752  1.00  0.00     0.031 C 
ATOM     54  C   UNL A   1      37.531  31.605  30.052  1.00  0.00     0.029 A 
ATOM     55  N   UNL A   1      39.534  30.951  30.730  1.00  0.00    -0.354 N 
ATOM     56  C   UNL A   1      40.499  31.740  35.170  1.00  0.00     0.074 A 
ATOM     57  C   UNL A   1      39.318  31.122  35.706  1.00  0.00     0.031 C 
ATOM     58  C   UNL A   1      38.038  30.815  29.076  1.00  0.00     0.029 A 
ATOM     59  C   UNL A   1      39.357  30.362  29.481  1.00  0.00     0.049 A 
ATOM     60  H   UNL A   1      40.385  30.911  31.224  1.00  0.00     0.167 HD
ATOM     61  C   UNL A   1      41.814  31.556  35.457  1.00  0.00     0.037 A 
ATOM     62  C   UNL A   1      40.237  29.528  28.874  1.00  0.00     0.037 A 
ATOM     63  C   UNL A   1      42.636  32.362  34.587  1.00  0.00     0.049 A 
ATOM     64  C   UNL A   1      41.560  29.783  29.490  1.00  0.00     0.074 A 
ATOM     65  C   UNL A   1      42.933  33.702  34.463  1.00  0.00     0.029 A 
ATOM     66  N   UNL A   1      42.935  31.763  33.393  1.00  0.00    -0.354 N 
ATOM     67  N   UNL A   1      42.229  30.890  29.327  1.00  0.00    -0.248 NA
ATOM     68  C   UNL A   1      42.000  28.942  30.597  1.00  0.00     0.031 C 
ATOM     69  C   UNL A   1      43.233  33.913  33.083  1.00  0.00     0.029 A 
ATOM     70  C   UNL A   1      43.157  32.693  32.414  1.00  0.00     0.049 A 
ATOM     71  H   UNL A   1      42.984  30.789  33.256  1.00  0.00     0.167 HD
ATOM     72  C   UNL A   1      42.867  31.084  30.536  1.00  0.00     0.074 A 
ATOM     73  C   UNL A   1      42.839  29.787  31.202  1.00  0.00     0.031 C 
ATOM     74  C   UNL A   1      43.063  32.347  31.013  1.00  0.00     0.037 A 
BRANCH  61  75
ATOM     75  C   UNL A   1      42.362  30.308  36.117  1.00  0.00     0.064 A 
ATOM     76  C   UNL A   1      43.425  30.438  37.034  1.00  0.00     0.173 A 
ATOM     77  C   UNL A   1      42.113  28.991  35.668  1.00  0.00     0.173 A 
ATOM     78  F   UNL A   1      43.778  31.645  37.503  1.00  0.00    -0.203 F 
ATOM     79  C   UNL A   1      44.208  29.346  37.421  1.00  0.00     0.198 A 
ATOM     80  C   UNL A   1      42.862  27.897  36.096  1.00  0.00     0.198 A 
ATOM     81  F   UNL A   1      41.220  28.711  34.712  1.00  0.00    -0.203 F 
ATOM     82  F   UNL A   1      45.279  29.539  38.202  1.00  0.00    -0.200 F 
ATOM     83  C   UNL A   1      43.926  28.077  36.952  1.00  0.00     0.200 A 
ATOM     84  F   UNL A   1      42.589  26.680  35.604  1.00  0.00    -0.200 F 
ATOM     85  F   UNL A   1      44.705  27.038  37.279  1.00  0.00    -0.200 F 
ENDBRANCH  61  75
BRANCH  62  86
ATOM     86  C   UNL A   1      40.005  28.330  28.030  1.00  0.00     0.064 A 
ATOM     87  C   UNL A   1      40.714  28.167  26.822  1.00  0.00     0.173 A 
ATOM     88  C   UNL A   1      39.374  27.183  28.542  1.00  0.00     0.173 A 
ATOM     89  F   UNL A   1      41.359  29.206  26.273  1.00  0.00    -0.203 F 
ATOM     90  C   UNL A   1      40.854  26.916  26.214  1.00  0.00     0.198 A 
ATOM     91  C   UNL A   1      39.509  25.935  27.928  1.00  0.00     0.198 A 
ATOM     92  F   UNL A   1      38.706  27.226  29.702  1.00  0.00    -0.203 F 
ATOM     93  F   UNL A   1      41.621  26.787  25.122  1.00  0.00    -0.200 F 
ATOM     94  C   UNL A   1      40.270  25.798  26.780  1.00  0.00     0.200 A 
ATOM     95  F   UNL A   1      38.964  24.851  28.498  1.00  0.00    -0.200 F 
ATOM     96  F   UNL A   1      40.479  24.584  26.250  1.00  0.00    -0.200 F 
ENDBRANCH  62  86
BRANCH  74  97
ATOM     97  C   UNL A   1      43.015  33.469  30.020  1.00  0.00     0.064 A 
ATOM     98  C   UNL A   1      41.870  34.229  29.729  1.00  0.00     0.173 A 
ATOM     99  C   UNL A   1      44.217  33.844  29.406  1.00  0.00     0.173 A 
ATOM    100  F   UNL A   1      40.701  33.975  30.331  1.00  0.00    -0.203 F 
ATOM    101  C   UNL A   1      41.928  35.300  28.838  1.00  0.00     0.198 A 
ATOM    102  C   UNL A   1      44.279  34.935  28.548  1.00  0.00     0.198 A 
ATOM    103  F   UNL A   1      45.346  33.170  29.678  1.00  0.00    -0.203 F 
ATOM    104  F   UNL A   1      40.821  36.005  28.561  1.00  0.00    -0.200 F 
ATOM    105  C   UNL A   1      43.135  35.658  28.257  1.00  0.00     0.200 A 
ATOM    106  F   UNL A   1      45.457  35.301  28.023  1.00  0.00    -0.200 F 
ATOM    107  F   UNL A   1      43.199  36.713  27.433  1.00  0.00    -0.200 F 
ENDBRANCH  74  97
ENDBRANCH  48  49
ENDBRANCH  41  43
ENDBRANCH  40  41
ENDBRANCH  39  40
ENDBRANCH  38  39
ENDBRANCH  37  38
ENDBRANCH  36  37
ENDBRANCH   1  36
TORSDOF 23
ENDMDL
MODEL 3
REMARK VINA RESULT:     -11.5      2.828      8.399
REMARK SMILES Cc1coc2c(C)c3oc(=O)c(CCC(=O)N[C@H](CC(C)C)C(=O)OCCOCCOCCOC(=O)c4ccc(-c5c6nc(c(-c7c(F)c(F)c(F)c(F)c7F)c7ccc([nH]7)c(-c7c(F)c(F)c(F)c(F)c7F)c7nc(c(-c8c(F)c(F)c(F)c(F)c8F)c8ccc5[nH]8)C=C7)C=C6)cc4)c(C)c3cc12
REMARK SMILES IDX 29 1 28 2 27 3 26 4 25 5 23 6 24 7 18 8 17 9 15 10 16 11
REMARK SMILES IDX 14 13 13 14 12 15 1 16 2 17 3 18 104 19 4 20 5 21 103 22
REMARK SMILES IDX 6 23 102 24 7 25 8 26 100 27 9 28 101 29 10 30 11 31 19 32
REMARK SMILES IDX 20 33 21 34 22 35 30 36 31 37 32 38 33 39 34 40 35 41 36 42
REMARK SMILES IDX 37 43 38 44 99 45 39 46 98 47 40 48 41 49 42 50 92 51 43 52
REMARK SMILES IDX 97 53 91 54 93 55 44 56 96 57 90 58 89 59 45 61 77 62 57 63
REMARK SMILES IDX 76 64 58 65 61 66 75 67 94 68 59 69 60 70 74 72 95 73 62 74
REMARK SMILES IDX 46 75 47 76 55 77 48 78 49 79 53 80 56 81 50 82 51 83 54 84
REMARK SMILES IDX 52 85 78 86 79 87 87 88 80 89 81 90 85 91 88 92 82 93 83 94
REMARK SMILES IDX 86 95 84 96 63 97 64 98 72 99 65 100 66 101 70 102 73 103
REMARK SMILES IDX 67 104 68 105 71 106 69 107
REMARK H PARENT 17 12 93 60 61 71
REMARK Flexibility Score: inf
ROOT
ATOM      1  C   UNL A   1      38.832  22.938  26.453  1.00  0.00     0.188 C 
ENDROOT
BRANCH   1   2
ATOM      2  O   UNL A   1      37.543  22.724  25.931  1.00  0.00    -0.376 OA
BRANCH   2   3
ATOM      3  C   UNL A   1      36.839  23.872  25.486  1.00  0.00     0.202 C 
BRANCH   3   4
ATOM      4  C   UNL A   1      35.394  23.762  24.940  1.00  0.00     0.261 C 
BRANCH   4   5
ATOM      5  O   UNL A   1      34.567  24.943  25.060  1.00  0.00    -0.462 OA
BRANCH   5   6
ATOM      6  C   UNL A   1      34.181  25.520  23.890  1.00  0.00     0.328 C 
ATOM      7  O   UNL A   1      34.239  24.930  22.811  1.00  0.00    -0.250 OA
BRANCH   6   8
ATOM      8  C   UNL A   1      33.512  26.933  24.022  1.00  0.00     0.192 C 
BRANCH   8   9
ATOM      9  N   UNL A   1      32.775  27.080  22.751  1.00  0.00    -0.343 N 
ATOM     10  C   UNL A   1      31.476  27.288  22.433  1.00  0.00     0.221 C 
ATOM     11  O   UNL A   1      31.140  27.013  21.277  1.00  0.00    -0.275 OA
ATOM     12  H   UNL A   1      33.357  27.010  21.960  1.00  0.00     0.164 HD
BRANCH  10  13
ATOM     13  C   UNL A   1      30.474  27.914  23.381  1.00  0.00     0.105 C 
BRANCH  13  14
ATOM     14  C   UNL A   1      29.791  27.109  24.499  1.00  0.00     0.053 C 
BRANCH  14  15
ATOM     15  C   UNL A   1      30.431  25.849  25.047  1.00  0.00     0.042 A 
ATOM     16  C   UNL A   1      32.536  19.702  22.693  1.00  0.00     0.048 C 
ATOM     17  C   UNL A   1      32.702  20.162  24.093  1.00  0.00    -0.005 A 
ATOM     18  C   UNL A   1      33.481  19.600  25.083  1.00  0.00     0.199 A 
ATOM     19  C   UNL A   1      32.149  21.339  24.673  1.00  0.00     0.024 A 
ATOM     20  O   UNL A   1      33.463  20.363  26.209  1.00  0.00    -0.464 OA
ATOM     21  C   UNL A   1      32.670  21.445  25.954  1.00  0.00     0.140 A 
ATOM     22  C   UNL A   1      31.318  22.360  24.193  1.00  0.00     0.024 A 
ATOM     23  C   UNL A   1      32.469  22.538  26.807  1.00  0.00     0.036 A 
ATOM     24  C   UNL A   1      31.108  23.508  24.963  1.00  0.00     0.022 A 
ATOM     25  C   UNL A   1      33.137  22.626  28.147  1.00  0.00     0.052 C 
ATOM     26  C   UNL A   1      31.691  23.578  26.233  1.00  0.00     0.145 A 
ATOM     27  C   UNL A   1      30.383  24.665  24.407  1.00  0.00    -0.030 A 
ATOM     28  O   UNL A   1      31.589  24.788  26.955  1.00  0.00    -0.422 OA
ATOM     29  C   UNL A   1      29.653  24.456  23.102  1.00  0.00     0.046 C 
ATOM     30  C   UNL A   1      31.038  25.945  26.413  1.00  0.00     0.339 A 
ATOM     31  O   UNL A   1      31.051  26.994  27.045  1.00  0.00    -0.246 OA
ENDBRANCH  14  15
ENDBRANCH  13  14
ENDBRANCH  10  13
ENDBRANCH   8   9
BRANCH   8  32
ATOM     32  C   UNL A   1      34.448  28.137  24.263  1.00  0.00     0.040 C 
BRANCH  32  33
ATOM     33  C   UNL A   1      34.087  29.026  25.483  1.00  0.00    -0.015 C 
ATOM     34  C   UNL A   1      32.687  29.653  25.432  1.00  0.00     0.007 C 
ATOM     35  C   UNL A   1      34.189  28.262  26.805  1.00  0.00     0.007 C 
ENDBRANCH  32  33
ENDBRANCH   8  32
ENDBRANCH   6   8
ENDBRANCH   5   6
ENDBRANCH   4   5
ENDBRANCH   3   4
ENDBRANCH   2   3
ENDBRANCH   1   2
BRANCH   1  36
ATOM     36  C   UNL A   1      39.771  21.740  26.328  1.00  0.00     0.188 C 
BRANCH  36  37
ATOM     37  O   UNL A   1      40.445  21.202  27.462  1.00  0.00    -0.376 OA
BRANCH  37  38
ATOM     38  C   UNL A   1      41.768  20.684  27.371  1.00  0.00     0.202 C 
BRANCH  38  39
ATOM     39  C   UNL A   1      42.414  20.466  26.005  1.00  0.00     0.261 C 
BRANCH  39  40
ATOM     40  O   UNL A   1      43.825  20.432  26.032  1.00  0.00    -0.460 OA
BRANCH  40  41
ATOM     41  C   UNL A   1      44.390  20.875  24.886  1.00  0.00     0.338 C 
ATOM     42  O   UNL A   1      44.614  20.254  23.871  1.00  0.00    -0.246 OA
BRANCH  41  43
ATOM     43  C   UNL A   1      44.751  22.282  25.087  1.00  0.00     0.060 A 
ATOM     44  C   UNL A   1      45.580  22.564  26.173  1.00  0.00     0.016 A 
ATOM     45  C   UNL A   1      44.010  23.266  24.421  1.00  0.00     0.016 A 
ATOM     46  C   UNL A   1      45.428  23.785  26.782  1.00  0.00     0.010 A 
ATOM     47  C   UNL A   1      43.840  24.472  25.043  1.00  0.00     0.010 A 
ATOM     48  C   UNL A   1      44.460  24.659  26.273  1.00  0.00    -0.014 A 
BRANCH  48  49
ATOM     49  C   UNL A   1      44.105  25.811  27.062  1.00  0.00     0.031 A 
ATOM     50  C   UNL A   1      45.106  26.884  26.947  1.00  0.00     0.074 A 
ATOM     51  C   UNL A   1      42.954  25.860  27.759  1.00  0.00     0.049 A 
ATOM     52  N   UNL A   1      45.946  27.258  27.850  1.00  0.00    -0.248 NA
ATOM     53  C   UNL A   1      45.345  27.470  25.619  1.00  0.00     0.031 C 
ATOM     54  C   UNL A   1      41.820  24.928  27.700  1.00  0.00     0.029 A 
ATOM     55  N   UNL A   1      42.515  26.815  28.625  1.00  0.00    -0.354 N 
ATOM     56  C   UNL A   1      46.669  28.293  27.271  1.00  0.00     0.074 A 
ATOM     57  C   UNL A   1      46.411  28.233  25.860  1.00  0.00     0.031 C 
ATOM     58  C   UNL A   1      40.750  25.480  28.320  1.00  0.00     0.029 A 
ATOM     59  C   UNL A   1      41.163  26.725  28.943  1.00  0.00     0.049 A 
ATOM     60  H   UNL A   1      43.106  27.511  28.994  1.00  0.00     0.167 HD
ATOM     61  C   UNL A   1      47.143  29.298  28.053  1.00  0.00     0.037 A 
ATOM     62  C   UNL A   1      40.456  27.652  29.635  1.00  0.00     0.037 A 
ATOM     63  C   UNL A   1      47.152  28.896  29.438  1.00  0.00     0.049 A 
ATOM     64  C   UNL A   1      41.438  28.450  30.406  1.00  0.00     0.074 A 
ATOM     65  C   UNL A   1      47.901  28.043  30.220  1.00  0.00     0.029 A 
ATOM     66  N   UNL A   1      45.965  29.112  30.088  1.00  0.00    -0.354 N 
ATOM     67  N   UNL A   1      42.124  27.974  31.407  1.00  0.00    -0.248 NA
ATOM     68  C   UNL A   1      41.935  29.699  29.841  1.00  0.00     0.031 C 
ATOM     69  C   UNL A   1      47.033  27.602  31.264  1.00  0.00     0.029 A 
ATOM     70  C   UNL A   1      45.797  28.230  31.119  1.00  0.00     0.049 A 
ATOM     71  H   UNL A   1      45.317  29.811  29.843  1.00  0.00     0.167 HD
ATOM     72  C   UNL A   1      43.345  28.612  31.317  1.00  0.00     0.074 A 
ATOM     73  C   UNL A   1      43.113  29.773  30.466  1.00  0.00     0.031 C 
ATOM     74  C   UNL A   1      44.489  27.958  31.671  1.00  0.00     0.037 A 
BRANCH  61  75
ATOM     75  C   UNL A   1      47.091  30.760  27.661  1.00  0.00     0.064 A 
ATOM     76  C   UNL A   1      45.838  31.338  27.368  1.00  0.00     0.173 A 
ATOM     77  C   UNL A   1      48.213  31.522  27.262  1.00  0.00     0.173 A 
ATOM     78  F   UNL A   1      44.701  30.691  27.667  1.00  0.00    -0.203 F 
ATOM     79  C   UNL A   1      45.724  32.549  26.680  1.00  0.00     0.198 A 
ATOM     80  C   UNL A   1      48.094  32.755  26.623  1.00  0.00     0.198 A 
ATOM     81  F   UNL A   1      49.466  31.067  27.360  1.00  0.00    -0.203 F 
ATOM     82  F   UNL A   1      44.514  32.999  26.321  1.00  0.00    -0.200 F 
ATOM     83  C   UNL A   1      46.851  33.256  26.308  1.00  0.00     0.200 A 
ATOM     84  F   UNL A   1      49.203  33.408  26.245  1.00  0.00    -0.200 F 
ATOM     85  F   UNL A   1      46.747  34.391  25.604  1.00  0.00    -0.200 F 
ENDBRANCH  61  75
BRANCH  62  86
ATOM     86  C   UNL A   1      39.055  28.114  29.473  1.00  0.00     0.064 A 
ATOM     87  C   UNL A   1      38.247  28.334  30.606  1.00  0.00     0.173 A 
ATOM     88  C   UNL A   1      38.602  28.676  28.265  1.00  0.00     0.173 A 
ATOM     89  F   UNL A   1      38.612  27.847  31.801  1.00  0.00    -0.203 F 
ATOM     90  C   UNL A   1      37.105  29.139  30.551  1.00  0.00     0.198 A 
ATOM     91  C   UNL A   1      37.457  29.475  28.212  1.00  0.00     0.198 A 
ATOM     92  F   UNL A   1      39.318  28.554  27.140  1.00  0.00    -0.203 F 
ATOM     93  F   UNL A   1      36.422  29.406  31.673  1.00  0.00    -0.200 F 
ATOM     94  C   UNL A   1      36.724  29.727  29.359  1.00  0.00     0.200 A 
ATOM     95  F   UNL A   1      37.111  30.064  27.058  1.00  0.00    -0.200 F 
ATOM     96  F   UNL A   1      35.684  30.572  29.322  1.00  0.00    -0.200 F 
ENDBRANCH  62  86
BRANCH  74  97
ATOM     97  C   UNL A   1      44.346  26.772  32.575  1.00  0.00     0.064 A 
ATOM     98  C   UNL A   1      44.330  25.435  32.142  1.00  0.00     0.173 A 
ATOM     99  C   UNL A   1      44.318  27.008  33.956  1.00  0.00     0.173 A 
ATOM    100  F   UNL A   1      44.426  25.130  30.842  1.00  0.00    -0.203 F 
ATOM    101  C   UNL A   1      44.259  24.386  33.057  1.00  0.00     0.198 A 
ATOM    102  C   UNL A   1      44.286  25.959  34.866  1.00  0.00     0.198 A 
ATOM    103  F   UNL A   1      44.366  28.266  34.422  1.00  0.00    -0.203 F 
ATOM    104  F   UNL A   1      44.230  23.116  32.624  1.00  0.00    -0.200 F 
ATOM    105  C   UNL A   1      44.248  24.649  34.419  1.00  0.00     0.200 A 
ATOM    106  F   UNL A   1      44.317  26.219  36.181  1.00  0.00    -0.200 F 
ATOM    107  F   UNL A   1      44.223  23.640  35.299  1.00  0.00    -0.200 F 
ENDBRANCH  74  97
ENDBRANCH  48  49
ENDBRANCH  41  43
ENDBRANCH  40  41
ENDBRANCH  39  40
ENDBRANCH  38  39
ENDBRANCH  37  38
ENDBRANCH  36  37
ENDBRANCH   1  36
TORSDOF 23
ENDMDL
