MODEL 1
REMARK VINA RESULT:     -10.3      0.000      0.000
REMARK SMILES O=C(Cc1cc[nH]n1)Nc1nc(CC(=O)OCCOCCOCCOC(=O)c2ccc(-c3c4nc(c(-c5c(F)c(F)c(F)c(F)c5F)c5ccc([nH]5)c(-c5c(F)c(F)c(F)c(F)c5F)c5nc(c(-c6c(F)c(F)c(F)c(F)c6F)c6ccc3[nH]6)C=C5)C=C4)cc2)cs1
REMARK SMILES IDX 20 1 19 2 18 3 17 4 16 5 14 6 15 7 13 8 12 9 10 10 11 11
REMARK SMILES IDX 92 12 91 13 9 14 1 15 2 16 3 18 4 19 5 20 8 21 6 22 7 23
REMARK SMILES IDX 21 25 22 26 23 27 24 28 25 29 26 30 27 31 28 32 29 33 90 34
REMARK SMILES IDX 30 35 89 36 31 37 32 38 33 39 83 40 34 41 88 42 82 43 84 44
REMARK SMILES IDX 35 45 87 46 81 47 80 48 36 50 68 51 48 52 67 53 49 54 52 55
REMARK SMILES IDX 66 56 85 57 50 58 51 59 65 61 86 62 53 63 37 64 38 65 46 66
REMARK SMILES IDX 39 67 40 68 44 69 47 70 41 71 42 72 45 73 43 74 69 75 70 76
REMARK SMILES IDX 78 77 71 78 72 79 76 80 79 81 73 82 74 83 77 84 75 85 54 86
REMARK SMILES IDX 55 87 63 88 56 89 57 90 61 91 64 92 58 93 59 94 62 95 60 96
REMARK H PARENT 9 17 7 24 84 49 52 60
REMARK Flexibility Score: inf
ROOT
ATOM      1  C   UNL A   1      32.709  27.292  26.470  1.00  0.00     0.188 C 
ENDROOT
BRANCH   1   2
ATOM      2  O   UNL A   1      32.141  25.987  26.423  1.00  0.00    -0.376 OA
BRANCH   2   3
ATOM      3  C   UNL A   1      32.975  24.880  26.105  1.00  0.00     0.202 C 
BRANCH   3   4
ATOM      4  C   UNL A   1      32.292  23.628  25.536  1.00  0.00     0.261 C 
BRANCH   4   5
ATOM      5  O   UNL A   1      31.625  23.795  24.259  1.00  0.00    -0.463 OA
BRANCH   5   6
ATOM      6  C   UNL A   1      32.276  23.310  23.172  1.00  0.00     0.311 C 
ATOM      7  O   UNL A   1      32.241  22.123  22.844  1.00  0.00    -0.252 OA
BRANCH   6   8
ATOM      8  C   UNL A   1      33.066  24.288  22.328  1.00  0.00     0.179 C 
BRANCH   8   9
ATOM      9  C   UNL A   1      32.780  25.760  22.330  1.00  0.00     0.065 A 
ATOM     10  C   UNL A   1      31.381  27.480  22.248  1.00  0.00     0.189 A 
ATOM     11  N   UNL A   1      31.510  26.204  21.973  1.00  0.00    -0.224 NA
ATOM     12  S   UNL A   1      32.794  28.281  22.768  1.00  0.00    -0.105 S 
ATOM     13  C   UNL A   1      33.559  26.751  22.908  1.00  0.00     0.093 A 
BRANCH  10  14
ATOM     14  N   UNL A   1      30.265  28.265  22.244  1.00  0.00    -0.302 N 
ATOM     15  O   UNL A   1      29.165  27.124  23.935  1.00  0.00    -0.274 OA
ATOM     16  C   UNL A   1      29.207  28.014  23.085  1.00  0.00     0.232 C 
ATOM     17  H   UNL A   1      30.216  29.028  21.624  1.00  0.00     0.172 HD
BRANCH  16  18
ATOM     18  C   UNL A   1      27.988  28.893  22.865  1.00  0.00     0.158 C 
BRANCH  18  19
ATOM     19  C   UNL A   1      28.201  30.255  22.278  1.00  0.00     0.071 A 
ATOM     20  C   UNL A   1      28.432  31.444  23.017  1.00  0.00     0.045 A 
ATOM     21  N   UNL A   1      28.151  30.506  20.960  1.00  0.00    -0.180 NA
ATOM     22  C   UNL A   1      28.564  32.434  22.076  1.00  0.00     0.105 A 
ATOM     23  N   UNL A   1      28.424  31.823  20.867  1.00  0.00    -0.285 N 
ATOM     24  H   UNL A   1      28.512  32.297  20.009  1.00  0.00     0.189 HD
ENDBRANCH  18  19
ENDBRANCH  16  18
ENDBRANCH  10  14
ENDBRANCH   8   9
ENDBRANCH   6   8
ENDBRANCH   5   6
ENDBRANCH   4   5
ENDBRANCH   3   4
ENDBRANCH   2   3
ENDBRANCH   1   2
BRANCH   1  25
ATOM     25  C   UNL A   1      32.335  28.230  27.626  1.00  0.00     0.188 C 
BRANCH  25  26
ATOM     26  O   UNL A   1      31.399  29.218  27.252  1.00  0.00    -0.376 OA
BRANCH  26  27
ATOM     27  C   UNL A   1      31.833  30.163  26.298  1.00  0.00     0.202 C 
BRANCH  27  28
ATOM     28  C   UNL A   1      31.869  31.580  26.875  1.00  0.00     0.261 C 
BRANCH  28  29
ATOM     29  O   UNL A   1      33.089  32.309  26.636  1.00  0.00    -0.460 OA
BRANCH  29  30
ATOM     30  C   UNL A   1      33.622  32.970  27.683  1.00  0.00     0.338 C 
ATOM     31  O   UNL A   1      33.108  33.887  28.317  1.00  0.00    -0.246 OA
BRANCH  30  32
ATOM     32  C   UNL A   1      34.867  32.285  28.083  1.00  0.00     0.060 A 
ATOM     33  C   UNL A   1      34.846  30.900  28.300  1.00  0.00     0.016 A 
ATOM     34  C   UNL A   1      36.045  33.009  28.273  1.00  0.00     0.016 A 
ATOM     35  C   UNL A   1      35.995  30.241  28.744  1.00  0.00     0.010 A 
ATOM     36  C   UNL A   1      37.188  32.352  28.738  1.00  0.00     0.010 A 
ATOM     37  C   UNL A   1      37.160  30.971  29.011  1.00  0.00    -0.014 A 
BRANCH  37  38
ATOM     38  C   UNL A   1      38.274  30.350  29.770  1.00  0.00     0.031 A 
ATOM     39  C   UNL A   1      38.481  30.766  31.201  1.00  0.00     0.074 A 
ATOM     40  C   UNL A   1      39.083  29.430  29.217  1.00  0.00     0.049 A 
ATOM     41  N   UNL A   1      39.434  30.446  32.038  1.00  0.00    -0.248 NA
ATOM     42  C   UNL A   1      37.469  31.676  31.762  1.00  0.00     0.031 C 
ATOM     43  C   UNL A   1      38.957  28.896  27.863  1.00  0.00     0.029 A 
ATOM     44  N   UNL A   1      40.184  28.791  29.732  1.00  0.00    -0.354 N 
ATOM     45  C   UNL A   1      39.148  31.128  33.214  1.00  0.00     0.074 A 
ATOM     46  C   UNL A   1      37.950  31.902  32.974  1.00  0.00     0.031 C 
ATOM     47  C   UNL A   1      39.951  28.015  27.650  1.00  0.00     0.029 A 
ATOM     48  C   UNL A   1      40.806  27.958  28.835  1.00  0.00     0.049 A 
ATOM     49  H   UNL A   1      40.499  28.919  30.656  1.00  0.00     0.167 HD
ATOM     50  C   UNL A   1      39.818  31.104  34.392  1.00  0.00     0.037 A 
ATOM     51  C   UNL A   1      41.949  27.253  28.951  1.00  0.00     0.037 A 
ATOM     52  C   UNL A   1      41.011  30.336  34.628  1.00  0.00     0.049 A 
ATOM     53  C   UNL A   1      42.729  27.311  30.243  1.00  0.00     0.074 A 
ATOM     54  C   UNL A   1      41.765  30.244  35.784  1.00  0.00     0.029 A 
ATOM     55  N   UNL A   1      41.630  29.530  33.682  1.00  0.00    -0.354 N 
ATOM     56  N   UNL A   1      42.454  27.955  31.351  1.00  0.00    -0.248 NA
ATOM     57  C   UNL A   1      43.980  26.540  30.295  1.00  0.00     0.031 C 
ATOM     58  C   UNL A   1      42.871  29.427  35.521  1.00  0.00     0.029 A 
ATOM     59  C   UNL A   1      42.769  28.955  34.223  1.00  0.00     0.049 A 
ATOM     60  H   UNL A   1      41.306  29.388  32.763  1.00  0.00     0.167 HD
ATOM     61  C   UNL A   1      43.471  27.635  32.244  1.00  0.00     0.074 A 
ATOM     62  C   UNL A   1      44.367  26.735  31.547  1.00  0.00     0.031 C 
ATOM     63  C   UNL A   1      43.643  28.045  33.525  1.00  0.00     0.037 A 
BRANCH  50  64
ATOM     64  C   UNL A   1      39.291  31.970  35.500  1.00  0.00     0.064 A 
ATOM     65  C   UNL A   1      39.612  33.334  35.594  1.00  0.00     0.173 A 
ATOM     66  C   UNL A   1      38.446  31.429  36.483  1.00  0.00     0.173 A 
ATOM     67  F   UNL A   1      40.429  33.898  34.692  1.00  0.00    -0.203 F 
ATOM     68  C   UNL A   1      39.140  34.112  36.648  1.00  0.00     0.198 A 
ATOM     69  C   UNL A   1      37.946  32.218  37.515  1.00  0.00     0.198 A 
ATOM     70  F   UNL A   1      38.103  30.133  36.441  1.00  0.00    -0.203 F 
ATOM     71  F   UNL A   1      39.513  35.394  36.752  1.00  0.00    -0.200 F 
ATOM     72  C   UNL A   1      38.303  33.555  37.604  1.00  0.00     0.200 A 
ATOM     73  F   UNL A   1      37.127  31.682  38.430  1.00  0.00    -0.200 F 
ATOM     74  F   UNL A   1      37.848  34.305  38.617  1.00  0.00    -0.200 F 
ENDBRANCH  50  64
BRANCH  51  75
ATOM     75  C   UNL A   1      42.437  26.430  27.811  1.00  0.00     0.064 A 
ATOM     76  C   UNL A   1      43.330  26.959  26.870  1.00  0.00     0.173 A 
ATOM     77  C   UNL A   1      42.003  25.109  27.628  1.00  0.00     0.173 A 
ATOM     78  F   UNL A   1      43.749  28.228  26.984  1.00  0.00    -0.203 F 
ATOM     79  C   UNL A   1      43.758  26.204  25.778  1.00  0.00     0.198 A 
ATOM     80  C   UNL A   1      42.455  24.344  26.553  1.00  0.00     0.198 A 
ATOM     81  F   UNL A   1      41.143  24.556  28.496  1.00  0.00    -0.203 F 
ATOM     82  F   UNL A   1      44.570  26.752  24.865  1.00  0.00    -0.200 F 
ATOM     83  C   UNL A   1      43.325  24.896  25.625  1.00  0.00     0.200 A 
ATOM     84  F   UNL A   1      42.042  23.077  26.414  1.00  0.00    -0.200 F 
ATOM     85  F   UNL A   1      43.739  24.169  24.577  1.00  0.00    -0.200 F 
ENDBRANCH  51  75
BRANCH  63  86
ATOM     86  C   UNL A   1      44.808  27.476  34.288  1.00  0.00     0.064 A 
ATOM     87  C   UNL A   1      44.718  26.268  34.995  1.00  0.00     0.173 A 
ATOM     88  C   UNL A   1      46.048  28.135  34.273  1.00  0.00     0.173 A 
ATOM     89  F   UNL A   1      43.554  25.603  35.051  1.00  0.00    -0.203 F 
ATOM     90  C   UNL A   1      45.816  25.758  35.685  1.00  0.00     0.198 A 
ATOM     91  C   UNL A   1      47.153  27.604  34.934  1.00  0.00     0.198 A 
ATOM     92  F   UNL A   1      46.194  29.288  33.604  1.00  0.00    -0.203 F 
ATOM     93  F   UNL A   1      45.692  24.630  36.397  1.00  0.00    -0.200 F 
ATOM     94  C   UNL A   1      47.034  26.422  35.647  1.00  0.00     0.200 A 
ATOM     95  F   UNL A   1      48.333  28.238  34.881  1.00  0.00    -0.200 F 
ATOM     96  F   UNL A   1      48.090  25.924  36.304  1.00  0.00    -0.200 F 
ENDBRANCH  63  86
ENDBRANCH  37  38
ENDBRANCH  30  32
ENDBRANCH  29  30
ENDBRANCH  28  29
ENDBRANCH  27  28
ENDBRANCH  26  27
ENDBRANCH  25  26
ENDBRANCH   1  25
TORSDOF 21
ENDMDL
MODEL 2
REMARK VINA RESULT:     -10.2      4.675      9.851
REMARK SMILES O=C(Cc1cc[nH]n1)Nc1nc(CC(=O)OCCOCCOCCOC(=O)c2ccc(-c3c4nc(c(-c5c(F)c(F)c(F)c(F)c5F)c5ccc([nH]5)c(-c5c(F)c(F)c(F)c(F)c5F)c5nc(c(-c6c(F)c(F)c(F)c(F)c6F)c6ccc3[nH]6)C=C5)C=C4)cc2)cs1
REMARK SMILES IDX 20 1 19 2 18 3 17 4 16 5 14 6 15 7 13 8 12 9 10 10 11 11
REMARK SMILES IDX 92 12 91 13 9 14 1 15 2 16 3 18 4 19 5 20 8 21 6 22 7 23
REMARK SMILES IDX 21 25 22 26 23 27 24 28 25 29 26 30 27 31 28 32 29 33 90 34
REMARK SMILES IDX 30 35 89 36 31 37 32 38 33 39 83 40 34 41 88 42 82 43 84 44
REMARK SMILES IDX 35 45 87 46 81 47 80 48 36 50 68 51 48 52 67 53 49 54 52 55
REMARK SMILES IDX 66 56 85 57 50 58 51 59 65 61 86 62 53 63 37 64 38 65 46 66
REMARK SMILES IDX 39 67 40 68 44 69 47 70 41 71 42 72 45 73 43 74 69 75 70 76
REMARK SMILES IDX 78 77 71 78 72 79 76 80 79 81 73 82 74 83 77 84 75 85 54 86
REMARK SMILES IDX 55 87 63 88 56 89 57 90 61 91 64 92 58 93 59 94 62 95 60 96
REMARK H PARENT 9 17 7 24 84 49 52 60
REMARK Flexibility Score: inf
ROOT
ATOM      1  C   UNL A   1      36.263  22.582  25.664  1.00  0.00     0.188 C 
ENDROOT
BRANCH   1   2
ATOM      2  O   UNL A   1      35.277  23.477  26.169  1.00  0.00    -0.376 OA
BRANCH   2   3
ATOM      3  C   UNL A   1      34.185  22.954  26.915  1.00  0.00     0.202 C 
BRANCH   3   4
ATOM      4  C   UNL A   1      33.912  21.447  26.797  1.00  0.00     0.261 C 
BRANCH   4   5
ATOM      5  O   UNL A   1      32.827  21.067  25.912  1.00  0.00    -0.463 OA
BRANCH   5   6
ATOM      6  C   UNL A   1      33.169  20.775  24.632  1.00  0.00     0.311 C 
ATOM      7  O   UNL A   1      34.025  19.939  24.341  1.00  0.00    -0.252 OA
BRANCH   6   8
ATOM      8  C   UNL A   1      32.446  21.511  23.524  1.00  0.00     0.179 C 
BRANCH   8   9
ATOM      9  C   UNL A   1      32.668  22.969  23.253  1.00  0.00     0.065 A 
ATOM     10  C   UNL A   1      32.101  25.104  23.455  1.00  0.00     0.189 A 
ATOM     11  N   UNL A   1      31.652  23.875  23.541  1.00  0.00    -0.224 NA
ATOM     12  S   UNL A   1      33.686  25.282  22.853  1.00  0.00    -0.105 S 
ATOM     13  C   UNL A   1      33.884  23.582  22.988  1.00  0.00     0.093 A 
BRANCH  10  14
ATOM     14  N   UNL A   1      31.515  26.276  23.837  1.00  0.00    -0.302 N 
ATOM     15  O   UNL A   1      30.903  26.941  21.703  1.00  0.00    -0.274 OA
ATOM     16  C   UNL A   1      30.968  27.138  22.916  1.00  0.00     0.232 C 
ATOM     17  H   UNL A   1      31.482  26.508  24.792  1.00  0.00     0.172 HD
BRANCH  16  18
ATOM     18  C   UNL A   1      30.477  28.458  23.485  1.00  0.00     0.158 C 
BRANCH  18  19
ATOM     19  C   UNL A   1      29.287  29.101  22.841  1.00  0.00     0.071 A 
ATOM     20  C   UNL A   1      29.325  30.218  21.968  1.00  0.00     0.045 A 
ATOM     21  N   UNL A   1      28.023  28.703  23.064  1.00  0.00    -0.180 NA
ATOM     22  C   UNL A   1      28.017  30.459  21.631  1.00  0.00     0.105 A 
ATOM     23  N   UNL A   1      27.283  29.512  22.280  1.00  0.00    -0.285 N 
ATOM     24  H   UNL A   1      26.307  29.428  22.185  1.00  0.00     0.189 HD
ENDBRANCH  18  19
ENDBRANCH  16  18
ENDBRANCH  10  14
ENDBRANCH   8   9
ENDBRANCH   6   8
ENDBRANCH   5   6
ENDBRANCH   4   5
ENDBRANCH   3   4
ENDBRANCH   2   3
ENDBRANCH   1   2
BRANCH   1  25
ATOM     25  C   UNL A   1      37.746  22.955  25.789  1.00  0.00     0.188 C 
BRANCH  25  26
ATOM     26  O   UNL A   1      38.591  21.829  25.892  1.00  0.00    -0.376 OA
BRANCH  26  27
ATOM     27  C   UNL A   1      38.184  20.674  25.191  1.00  0.00     0.202 C 
BRANCH  27  28
ATOM     28  C   UNL A   1      39.169  19.518  25.379  1.00  0.00     0.261 C 
BRANCH  28  29
ATOM     29  O   UNL A   1      40.059  19.647  26.507  1.00  0.00    -0.460 OA
BRANCH  29  30
ATOM     30  C   UNL A   1      41.380  19.551  26.258  1.00  0.00     0.338 C 
ATOM     31  O   UNL A   1      41.977  18.584  25.798  1.00  0.00    -0.246 OA
BRANCH  30  32
ATOM     32  C   UNL A   1      41.987  20.883  26.450  1.00  0.00     0.060 A 
ATOM     33  C   UNL A   1      42.318  21.305  27.745  1.00  0.00     0.016 A 
ATOM     34  C   UNL A   1      42.203  21.727  25.359  1.00  0.00     0.016 A 
ATOM     35  C   UNL A   1      42.832  22.586  27.958  1.00  0.00     0.010 A 
ATOM     36  C   UNL A   1      42.697  23.017  25.575  1.00  0.00     0.010 A 
ATOM     37  C   UNL A   1      42.980  23.467  26.879  1.00  0.00    -0.014 A 
BRANCH  37  38
ATOM     38  C   UNL A   1      43.221  24.911  27.121  1.00  0.00     0.031 A 
ATOM     39  C   UNL A   1      44.567  25.480  26.761  1.00  0.00     0.074 A 
ATOM     40  C   UNL A   1      42.273  25.711  27.640  1.00  0.00     0.049 A 
ATOM     41  N   UNL A   1      45.053  26.678  26.964  1.00  0.00    -0.248 NA
ATOM     42  C   UNL A   1      45.494  24.563  26.078  1.00  0.00     0.031 C 
ATOM     43  C   UNL A   1      40.913  25.302  27.978  1.00  0.00     0.029 A 
ATOM     44  N   UNL A   1      42.323  27.040  27.983  1.00  0.00    -0.354 N 
ATOM     45  C   UNL A   1      46.344  26.653  26.453  1.00  0.00     0.074 A 
ATOM     46  C   UNL A   1      46.577  25.314  25.956  1.00  0.00     0.031 C 
ATOM     47  C   UNL A   1      40.257  26.358  28.491  1.00  0.00     0.029 A 
ATOM     48  C   UNL A   1      41.165  27.503  28.557  1.00  0.00     0.049 A 
ATOM     49  H   UNL A   1      43.114  27.607  27.833  1.00  0.00     0.167 HD
ATOM     50  C   UNL A   1      47.252  27.657  26.393  1.00  0.00     0.037 A 
ATOM     51  C   UNL A   1      40.883  28.705  29.098  1.00  0.00     0.037 A 
ATOM     52  C   UNL A   1      47.019  28.988  26.889  1.00  0.00     0.049 A 
ATOM     53  C   UNL A   1      41.940  29.783  29.102  1.00  0.00     0.074 A 
ATOM     54  C   UNL A   1      47.872  30.076  26.877  1.00  0.00     0.029 A 
ATOM     55  N   UNL A   1      45.843  29.408  27.496  1.00  0.00    -0.354 N 
ATOM     56  N   UNL A   1      43.158  29.756  28.617  1.00  0.00    -0.248 NA
ATOM     57  C   UNL A   1      41.578  31.062  29.731  1.00  0.00     0.031 C 
ATOM     58  C   UNL A   1      47.235  31.139  27.527  1.00  0.00     0.029 A 
ATOM     59  C   UNL A   1      45.958  30.734  27.882  1.00  0.00     0.049 A 
ATOM     60  H   UNL A   1      45.046  28.847  27.631  1.00  0.00     0.167 HD
ATOM     61  C   UNL A   1      43.690  31.020  28.843  1.00  0.00     0.074 A 
ATOM     62  C   UNL A   1      42.660  31.792  29.506  1.00  0.00     0.031 C 
ATOM     63  C   UNL A   1      44.919  31.498  28.525  1.00  0.00     0.037 A 
BRANCH  50  64
ATOM     64  C   UNL A   1      48.595  27.336  25.803  1.00  0.00     0.064 A 
ATOM     65  C   UNL A   1      48.842  27.428  24.424  1.00  0.00     0.173 A 
ATOM     66  C   UNL A   1      49.656  26.933  26.631  1.00  0.00     0.173 A 
ATOM     67  F   UNL A   1      47.860  27.791  23.585  1.00  0.00    -0.203 F 
ATOM     68  C   UNL A   1      50.085  27.094  23.893  1.00  0.00     0.198 A 
ATOM     69  C   UNL A   1      50.907  26.634  26.101  1.00  0.00     0.198 A 
ATOM     70  F   UNL A   1      49.477  26.831  27.956  1.00  0.00    -0.203 F 
ATOM     71  F   UNL A   1      50.277  27.128  22.567  1.00  0.00    -0.200 F 
ATOM     72  C   UNL A   1      51.118  26.703  24.732  1.00  0.00     0.200 A 
ATOM     73  F   UNL A   1      51.908  26.270  26.914  1.00  0.00    -0.200 F 
ATOM     74  F   UNL A   1      52.314  26.383  24.220  1.00  0.00    -0.200 F 
ENDBRANCH  50  64
BRANCH  51  75
ATOM     75  C   UNL A   1      39.542  28.960  29.690  1.00  0.00     0.064 A 
ATOM     76  C   UNL A   1      38.506  29.508  28.921  1.00  0.00     0.173 A 
ATOM     77  C   UNL A   1      39.275  28.685  31.040  1.00  0.00     0.173 A 
ATOM     78  F   UNL A   1      38.720  29.819  27.633  1.00  0.00    -0.203 F 
ATOM     79  C   UNL A   1      37.260  29.786  29.481  1.00  0.00     0.198 A 
ATOM     80  C   UNL A   1      38.020  28.935  31.592  1.00  0.00     0.198 A 
ATOM     81  F   UNL A   1      40.234  28.167  31.822  1.00  0.00    -0.203 F 
ATOM     82  F   UNL A   1      36.305  30.357  28.736  1.00  0.00    -0.200 F 
ATOM     83  C   UNL A   1      37.017  29.492  30.815  1.00  0.00     0.200 A 
ATOM     84  F   UNL A   1      37.786  28.640  32.878  1.00  0.00    -0.200 F 
ATOM     85  F   UNL A   1      35.818  29.757  31.353  1.00  0.00    -0.200 F 
ENDBRANCH  51  75
BRANCH  63  86
ATOM     86  C   UNL A   1      45.202  32.944  28.826  1.00  0.00     0.064 A 
ATOM     87  C   UNL A   1      45.845  33.348  30.006  1.00  0.00     0.173 A 
ATOM     88  C   UNL A   1      44.859  33.938  27.896  1.00  0.00     0.173 A 
ATOM     89  F   UNL A   1      46.185  32.441  30.935  1.00  0.00    -0.203 F 
ATOM     90  C   UNL A   1      46.105  34.694  30.256  1.00  0.00     0.198 A 
ATOM     91  C   UNL A   1      45.152  35.278  28.132  1.00  0.00     0.198 A 
ATOM     92  F   UNL A   1      44.252  33.608  26.746  1.00  0.00    -0.203 F 
ATOM     93  F   UNL A   1      46.672  35.061  31.413  1.00  0.00    -0.200 F 
ATOM     94  C   UNL A   1      45.765  35.657  29.316  1.00  0.00     0.200 A 
ATOM     95  F   UNL A   1      44.839  36.204  27.215  1.00  0.00    -0.200 F 
ATOM     96  F   UNL A   1      46.025  36.949  29.555  1.00  0.00    -0.200 F 
ENDBRANCH  63  86
ENDBRANCH  37  38
ENDBRANCH  30  32
ENDBRANCH  29  30
ENDBRANCH  28  29
ENDBRANCH  27  28
ENDBRANCH  26  27
ENDBRANCH  25  26
ENDBRANCH   1  25
TORSDOF 21
ENDMDL
MODEL 3
REMARK VINA RESULT:     -10.2      0.575      7.293
REMARK SMILES O=C(Cc1cc[nH]n1)Nc1nc(CC(=O)OCCOCCOCCOC(=O)c2ccc(-c3c4nc(c(-c5c(F)c(F)c(F)c(F)c5F)c5ccc([nH]5)c(-c5c(F)c(F)c(F)c(F)c5F)c5nc(c(-c6c(F)c(F)c(F)c(F)c6F)c6ccc3[nH]6)C=C5)C=C4)cc2)cs1
REMARK SMILES IDX 20 1 19 2 18 3 17 4 16 5 14 6 15 7 13 8 12 9 10 10 11 11
REMARK SMILES IDX 92 12 91 13 9 14 1 15 2 16 3 18 4 19 5 20 8 21 6 22 7 23
REMARK SMILES IDX 21 25 22 26 23 27 24 28 25 29 26 30 27 31 28 32 29 33 90 34
REMARK SMILES IDX 30 35 89 36 31 37 32 38 33 39 83 40 34 41 88 42 82 43 84 44
REMARK SMILES IDX 35 45 87 46 81 47 80 48 36 50 68 51 48 52 67 53 49 54 52 55
REMARK SMILES IDX 66 56 85 57 50 58 51 59 65 61 86 62 53 63 37 64 38 65 46 66
REMARK SMILES IDX 39 67 40 68 44 69 47 70 41 71 42 72 45 73 43 74 69 75 70 76
REMARK SMILES IDX 78 77 71 78 72 79 76 80 79 81 73 82 74 83 77 84 75 85 54 86
REMARK SMILES IDX 55 87 63 88 56 89 57 90 61 91 64 92 58 93 59 94 62 95 60 96
REMARK H PARENT 9 17 7 24 84 49 52 60
REMARK Flexibility Score: inf
ROOT
ATOM      1  C   UNL A   1      32.813  27.159  26.373  1.00  0.00     0.188 C 
ENDROOT
BRANCH   1   2
ATOM      2  O   UNL A   1      32.883  25.739  26.450  1.00  0.00    -0.376 OA
BRANCH   2   3
ATOM      3  C   UNL A   1      33.832  25.050  25.646  1.00  0.00     0.202 C 
BRANCH   3   4
ATOM      4  C   UNL A   1      33.354  23.775  24.934  1.00  0.00     0.261 C 
BRANCH   4   5
ATOM      5  O   UNL A   1      32.333  23.960  23.921  1.00  0.00    -0.463 OA
BRANCH   5   6
ATOM      6  C   UNL A   1      32.655  23.565  22.663  1.00  0.00     0.311 C 
ATOM      7  O   UNL A   1      32.791  22.383  22.346  1.00  0.00    -0.252 OA
BRANCH   6   8
ATOM      8  C   UNL A   1      32.840  24.640  21.612  1.00  0.00     0.179 C 
BRANCH   8   9
ATOM      9  C   UNL A   1      32.613  26.093  21.904  1.00  0.00     0.065 A 
ATOM     10  C   UNL A   1      31.282  27.842  22.205  1.00  0.00     0.189 A 
ATOM     11  N   UNL A   1      31.351  26.639  21.688  1.00  0.00    -0.224 NA
ATOM     12  S   UNL A   1      32.741  28.482  22.812  1.00  0.00    -0.105 S 
ATOM     13  C   UNL A   1      33.449  26.929  22.629  1.00  0.00     0.093 A 
BRANCH  10  14
ATOM     14  N   UNL A   1      30.198  28.650  22.394  1.00  0.00    -0.302 N 
ATOM     15  O   UNL A   1      28.942  27.094  23.563  1.00  0.00    -0.274 OA
ATOM     16  C   UNL A   1      29.076  28.205  23.050  1.00  0.00     0.232 C 
ATOM     17  H   UNL A   1      30.222  29.573  22.052  1.00  0.00     0.172 HD
BRANCH  16  18
ATOM     18  C   UNL A   1      27.909  29.177  23.059  1.00  0.00     0.158 C 
BRANCH  18  19
ATOM     19  C   UNL A   1      28.040  30.439  22.264  1.00  0.00     0.071 A 
ATOM     20  C   UNL A   1      27.865  31.754  22.769  1.00  0.00     0.045 A 
ATOM     21  N   UNL A   1      28.300  30.457  20.946  1.00  0.00    -0.180 NA
ATOM     22  C   UNL A   1      28.076  32.584  21.696  1.00  0.00     0.105 A 
ATOM     23  N   UNL A   1      28.364  31.769  20.643  1.00  0.00    -0.285 N 
ATOM     24  H   UNL A   1      28.597  32.106  19.748  1.00  0.00     0.189 HD
ENDBRANCH  18  19
ENDBRANCH  16  18
ENDBRANCH  10  14
ENDBRANCH   8   9
ENDBRANCH   6   8
ENDBRANCH   5   6
ENDBRANCH   4   5
ENDBRANCH   3   4
ENDBRANCH   2   3
ENDBRANCH   1   2
BRANCH   1  25
ATOM     25  C   UNL A   1      32.373  27.954  27.611  1.00  0.00     0.188 C 
BRANCH  25  26
ATOM     26  O   UNL A   1      31.470  28.995  27.305  1.00  0.00    -0.376 OA
BRANCH  26  27
ATOM     27  C   UNL A   1      31.842  29.859  26.254  1.00  0.00     0.202 C 
BRANCH  27  28
ATOM     28  C   UNL A   1      32.009  31.302  26.735  1.00  0.00     0.261 C 
BRANCH  28  29
ATOM     29  O   UNL A   1      33.339  31.843  26.603  1.00  0.00    -0.460 OA
BRANCH  29  30
ATOM     30  C   UNL A   1      33.775  32.643  27.595  1.00  0.00     0.338 C 
ATOM     31  O   UNL A   1      33.167  33.572  28.117  1.00  0.00    -0.246 OA
BRANCH  30  32
ATOM     32  C   UNL A   1      35.051  32.103  28.103  1.00  0.00     0.060 A 
ATOM     33  C   UNL A   1      35.124  30.752  28.473  1.00  0.00     0.016 A 
ATOM     34  C   UNL A   1      36.166  32.931  28.244  1.00  0.00     0.016 A 
ATOM     35  C   UNL A   1      36.301  30.235  29.018  1.00  0.00     0.010 A 
ATOM     36  C   UNL A   1      37.337  32.418  28.811  1.00  0.00     0.010 A 
ATOM     37  C   UNL A   1      37.400  31.077  29.234  1.00  0.00    -0.014 A 
BRANCH  37  38
ATOM     38  C   UNL A   1      38.528  30.628  30.088  1.00  0.00     0.031 A 
ATOM     39  C   UNL A   1      39.512  29.647  29.512  1.00  0.00     0.074 A 
ATOM     40  C   UNL A   1      38.691  31.081  31.344  1.00  0.00     0.049 A 
ATOM     41  N   UNL A   1      40.517  29.033  30.083  1.00  0.00    -0.248 NA
ATOM     42  C   UNL A   1      39.331  29.309  28.091  1.00  0.00     0.031 C 
ATOM     43  C   UNL A   1      37.847  32.075  32.002  1.00  0.00     0.029 A 
ATOM     44  N   UNL A   1      39.626  30.748  32.293  1.00  0.00    -0.354 N 
ATOM     45  C   UNL A   1      41.074  28.226  29.100  1.00  0.00     0.074 A 
ATOM     46  C   UNL A   1      40.278  28.404  27.904  1.00  0.00     0.031 C 
ATOM     47  C   UNL A   1      38.296  32.265  33.255  1.00  0.00     0.029 A 
ATOM     48  C   UNL A   1      39.431  31.375  33.500  1.00  0.00     0.049 A 
ATOM     49  H   UNL A   1      40.365  30.120  32.126  1.00  0.00     0.167 HD
ATOM     50  C   UNL A   1      42.157  27.416  29.181  1.00  0.00     0.037 A 
ATOM     51  C   UNL A   1      40.079  31.224  34.672  1.00  0.00     0.037 A 
ATOM     52  C   UNL A   1      42.945  27.237  30.372  1.00  0.00     0.049 A 
ATOM     53  C   UNL A   1      41.227  30.249  34.766  1.00  0.00     0.074 A 
ATOM     54  C   UNL A   1      44.060  26.440  30.559  1.00  0.00     0.029 A 
ATOM     55  N   UNL A   1      42.695  27.865  31.584  1.00  0.00    -0.354 N 
ATOM     56  N   UNL A   1      41.751  29.489  33.834  1.00  0.00    -0.248 NA
ATOM     57  C   UNL A   1      41.873  30.112  36.079  1.00  0.00     0.031 C 
ATOM     58  C   UNL A   1      44.450  26.541  31.899  1.00  0.00     0.029 A 
ATOM     59  C   UNL A   1      43.621  27.454  32.530  1.00  0.00     0.049 A 
ATOM     60  H   UNL A   1      41.966  28.507  31.748  1.00  0.00     0.167 HD
ATOM     61  C   UNL A   1      42.810  28.819  34.435  1.00  0.00     0.074 A 
ATOM     62  C   UNL A   1      42.857  29.266  35.811  1.00  0.00     0.031 C 
ATOM     63  C   UNL A   1      43.669  27.920  33.893  1.00  0.00     0.037 A 
BRANCH  50  64
ATOM     64  C   UNL A   1      42.522  26.630  27.954  1.00  0.00     0.064 A 
ATOM     65  C   UNL A   1      41.989  25.357  27.701  1.00  0.00     0.173 A 
ATOM     66  C   UNL A   1      43.417  27.163  27.012  1.00  0.00     0.173 A 
ATOM     67  F   UNL A   1      41.142  24.793  28.577  1.00  0.00    -0.203 F 
ATOM     68  C   UNL A   1      42.366  24.631  26.574  1.00  0.00     0.198 A 
ATOM     69  C   UNL A   1      43.765  26.450  25.868  1.00  0.00     0.198 A 
ATOM     70  F   UNL A   1      43.956  28.377  27.201  1.00  0.00    -0.203 F 
ATOM     71  F   UNL A   1      41.893  23.392  26.388  1.00  0.00    -0.200 F 
ATOM     72  C   UNL A   1      43.248  25.180  25.656  1.00  0.00     0.200 A 
ATOM     73  F   UNL A   1      44.607  26.987  24.975  1.00  0.00    -0.200 F 
ATOM     74  F   UNL A   1      43.610  24.481  24.571  1.00  0.00    -0.200 F 
ENDBRANCH  50  64
BRANCH  51  75
ATOM     75  C   UNL A   1      39.658  32.012  35.863  1.00  0.00     0.064 A 
ATOM     76  C   UNL A   1      40.378  33.143  36.270  1.00  0.00     0.173 A 
ATOM     77  C   UNL A   1      38.544  31.637  36.629  1.00  0.00     0.173 A 
ATOM     78  F   UNL A   1      41.470  33.524  35.589  1.00  0.00    -0.203 F 
ATOM     79  C   UNL A   1      40.011  33.860  37.408  1.00  0.00     0.198 A 
ATOM     80  C   UNL A   1      38.160  32.373  37.749  1.00  0.00     0.198 A 
ATOM     81  F   UNL A   1      37.825  30.559  36.287  1.00  0.00    -0.203 F 
ATOM     82  F   UNL A   1      40.748  34.906  37.804  1.00  0.00    -0.200 F 
ATOM     83  C   UNL A   1      38.898  33.478  38.142  1.00  0.00     0.200 A 
ATOM     84  F   UNL A   1      37.078  32.007  38.450  1.00  0.00    -0.200 F 
ATOM     85  F   UNL A   1      38.544  34.170  39.235  1.00  0.00    -0.200 F 
ENDBRANCH  51  75
BRANCH  63  86
ATOM     86  C   UNL A   1      44.779  27.404  34.767  1.00  0.00     0.064 A 
ATOM     87  C   UNL A   1      46.007  28.072  34.885  1.00  0.00     0.173 A 
ATOM     88  C   UNL A   1      44.591  26.241  35.531  1.00  0.00     0.173 A 
ATOM     89  F   UNL A   1      46.245  29.182  34.170  1.00  0.00    -0.203 F 
ATOM     90  C   UNL A   1      47.015  27.577  35.710  1.00  0.00     0.198 A 
ATOM     91  C   UNL A   1      45.587  25.769  36.381  1.00  0.00     0.198 A 
ATOM     92  F   UNL A   1      43.433  25.568  35.464  1.00  0.00    -0.203 F 
ATOM     93  F   UNL A   1      48.199  28.203  35.767  1.00  0.00    -0.200 F 
ATOM     94  C   UNL A   1      46.802  26.431  36.463  1.00  0.00     0.200 A 
ATOM     95  F   UNL A   1      45.372  24.672  37.121  1.00  0.00    -0.200 F 
ATOM     96  F   UNL A   1      47.769  25.963  37.263  1.00  0.00    -0.200 F 
ENDBRANCH  63  86
ENDBRANCH  37  38
ENDBRANCH  30  32
ENDBRANCH  29  30
ENDBRANCH  28  29
ENDBRANCH  27  28
ENDBRANCH  26  27
ENDBRANCH  25  26
ENDBRANCH   1  25
TORSDOF 21
ENDMDL
