MODEL 1
REMARK VINA RESULT:     -10.7      0.000      0.000
REMARK SMILES CC(C)(C)C(=O)NCC(=O)Nc1cc(Cl)ccc1C(=O)OCCOCCOCCOC(=O)c1ccc(-c2c3nc(c(-c4c(F)c(F)c(F)c(F)c4F)c4ccc([nH]4)c(-c4c(F)c(F)c(F)c(F)c4F)c4nc(c(-c5c(F)c(F)c(F)c(F)c5F)c5ccc2[nH]5)C=C4)C=C3)cc1
REMARK SMILES IDX 25 1 24 2 23 3 22 4 21 5 19 6 20 7 18 8 12 9 13 10 14 11
REMARK SMILES IDX 17 12 15 13 16 14 11 15 9 16 10 17 8 19 7 20 5 21 6 22 2 24
REMARK SMILES IDX 1 25 3 26 4 27 26 28 27 29 28 30 29 31 30 32 31 33 32 34
REMARK SMILES IDX 33 35 34 36 95 37 35 38 94 39 36 40 37 41 38 42 88 43 39 44
REMARK SMILES IDX 93 45 87 46 89 47 40 48 92 49 86 50 85 51 41 53 73 54 53 55
REMARK SMILES IDX 72 56 54 57 57 58 71 59 90 60 55 61 56 62 70 64 91 65 58 66
REMARK SMILES IDX 42 67 43 68 51 69 44 70 45 71 49 72 52 73 46 74 47 75 50 76
REMARK SMILES IDX 48 77 74 78 75 79 83 80 76 81 77 82 81 83 84 84 78 85 79 86
REMARK SMILES IDX 82 87 80 88 59 89 60 90 68 91 61 92 62 93 66 94 69 95 63 96
REMARK SMILES IDX 64 97 67 98 65 99
REMARK H PARENT 11 18 7 23 89 52 57 63
REMARK Flexibility Score: inf
ROOT
ATOM      1  C   UNL A   1      39.928  22.538  26.856  1.00  0.00     0.188 C 
ENDROOT
BRANCH   1   2
ATOM      2  O   UNL A   1      39.043  22.021  25.871  1.00  0.00    -0.376 OA
BRANCH   2   3
ATOM      3  C   UNL A   1      37.682  22.424  25.839  1.00  0.00     0.202 C 
BRANCH   3   4
ATOM      4  C   UNL A   1      36.963  22.473  24.484  1.00  0.00     0.261 C 
BRANCH   4   5
ATOM      5  O   UNL A   1      35.532  22.636  24.552  1.00  0.00    -0.460 OA
BRANCH   5   6
ATOM      6  C   UNL A   1      35.003  23.368  23.543  1.00  0.00     0.340 C 
ATOM      7  O   UNL A   1      35.357  23.327  22.374  1.00  0.00    -0.246 OA
BRANCH   6   8
ATOM      8  C   UNL A   1      33.840  24.206  23.959  1.00  0.00     0.083 A 
ATOM      9  C   UNL A   1      32.473  23.928  23.736  1.00  0.00     0.057 A 
ATOM     10  C   UNL A   1      31.541  24.651  24.486  1.00  0.00     0.047 A 
ATOM     11  C   UNL A   1      31.921  25.758  25.250  1.00  0.00     0.043 A 
ATOM     12  C   UNL A   1      34.205  25.361  24.684  1.00  0.00     0.019 A 
ATOM     13  Cl  UNL A   1      30.749  26.629  26.156  1.00  0.00    -0.084 Cl
ATOM     14  C   UNL A   1      33.245  26.158  25.295  1.00  0.00     0.021 A 
BRANCH   9  15
ATOM     15  N   UNL A   1      32.065  22.912  22.852  1.00  0.00    -0.324 N 
ATOM     16  C   UNL A   1      32.168  21.547  22.844  1.00  0.00     0.243 C 
ATOM     17  O   UNL A   1      31.777  20.997  21.802  1.00  0.00    -0.273 OA
ATOM     18  H   UNL A   1      31.600  23.262  22.059  1.00  0.00     0.170 HD
BRANCH  16  19
ATOM     19  C   UNL A   1      32.418  20.641  24.082  1.00  0.00     0.216 C 
BRANCH  19  20
ATOM     20  N   UNL A   1      33.744  20.226  24.489  1.00  0.00    -0.347 N 
ATOM     21  C   UNL A   1      34.374  19.034  24.626  1.00  0.00     0.225 C 
ATOM     22  O   UNL A   1      35.569  19.120  24.932  1.00  0.00    -0.275 OA
ATOM     23  H   UNL A   1      34.322  20.987  24.720  1.00  0.00     0.164 HD
BRANCH  21  24
ATOM     24  C   UNL A   1      33.730  17.662  24.358  1.00  0.00     0.041 C 
ATOM     25  C   UNL A   1      32.560  17.474  25.356  1.00  0.00     0.021 C 
ATOM     26  C   UNL A   1      34.774  16.572  24.628  1.00  0.00     0.021 C 
ATOM     27  C   UNL A   1      33.124  17.482  22.968  1.00  0.00     0.021 C 
ENDBRANCH  21  24
ENDBRANCH  19  20
ENDBRANCH  16  19
ENDBRANCH   9  15
ENDBRANCH   6   8
ENDBRANCH   5   6
ENDBRANCH   4   5
ENDBRANCH   3   4
ENDBRANCH   2   3
ENDBRANCH   1   2
BRANCH   1  28
ATOM     28  C   UNL A   1      41.198  21.776  27.283  1.00  0.00     0.188 C 
BRANCH  28  29
ATOM     29  O   UNL A   1      41.678  20.841  26.338  1.00  0.00    -0.376 OA
BRANCH  29  30
ATOM     30  C   UNL A   1      42.007  19.554  26.838  1.00  0.00     0.202 C 
BRANCH  30  31
ATOM     31  C   UNL A   1      42.925  18.703  25.946  1.00  0.00     0.261 C 
BRANCH  31  32
ATOM     32  O   UNL A   1      43.180  19.222  24.626  1.00  0.00    -0.460 OA
BRANCH  32  33
ATOM     33  C   UNL A   1      44.464  19.449  24.291  1.00  0.00     0.338 C 
ATOM     34  O   UNL A   1      45.206  18.696  23.666  1.00  0.00    -0.246 OA
BRANCH  33  35
ATOM     35  C   UNL A   1      44.797  20.847  24.621  1.00  0.00     0.060 A 
ATOM     36  C   UNL A   1      45.362  21.121  25.870  1.00  0.00     0.016 A 
ATOM     37  C   UNL A   1      44.548  21.888  23.724  1.00  0.00     0.016 A 
ATOM     38  C   UNL A   1      45.652  22.433  26.246  1.00  0.00     0.010 A 
ATOM     39  C   UNL A   1      44.825  23.208  24.106  1.00  0.00     0.010 A 
ATOM     40  C   UNL A   1      45.353  23.490  25.379  1.00  0.00    -0.014 A 
BRANCH  40  41
ATOM     41  C   UNL A   1      45.451  24.890  25.870  1.00  0.00     0.031 A 
ATOM     42  C   UNL A   1      46.782  25.590  25.811  1.00  0.00     0.074 A 
ATOM     43  C   UNL A   1      44.367  25.549  26.319  1.00  0.00     0.049 A 
ATOM     44  N   UNL A   1      47.108  26.797  26.198  1.00  0.00    -0.248 NA
ATOM     45  C   UNL A   1      47.898  24.822  25.234  1.00  0.00     0.031 C 
ATOM     46  C   UNL A   1      43.014  25.003  26.388  1.00  0.00     0.029 A 
ATOM     47  N   UNL A   1      44.240  26.827  26.805  1.00  0.00    -0.354 N 
ATOM     48  C   UNL A   1      48.462  26.932  25.916  1.00  0.00     0.074 A 
ATOM     49  C   UNL A   1      48.905  25.674  25.353  1.00  0.00     0.031 C 
ATOM     50  C   UNL A   1      42.192  25.937  26.897  1.00  0.00     0.029 A 
ATOM     51  C   UNL A   1      42.966  27.135  27.217  1.00  0.00     0.049 A 
ATOM     52  H   UNL A   1      44.990  27.463  26.855  1.00  0.00     0.167 HD
ATOM     53  C   UNL A   1      49.262  28.010  26.097  1.00  0.00     0.037 A 
ATOM     54  C   UNL A   1      42.486  28.252  27.802  1.00  0.00     0.037 A 
ATOM     55  C   UNL A   1      48.824  29.262  26.657  1.00  0.00     0.049 A 
ATOM     56  C   UNL A   1      43.416  29.412  28.059  1.00  0.00     0.074 A 
ATOM     57  C   UNL A   1      49.561  30.413  26.879  1.00  0.00     0.029 A 
ATOM     58  N   UNL A   1      47.533  29.526  27.087  1.00  0.00    -0.354 N 
ATOM     59  N   UNL A   1      44.688  29.537  27.771  1.00  0.00    -0.248 NA
ATOM     60  C   UNL A   1      42.834  30.592  28.716  1.00  0.00     0.031 C 
ATOM     61  C   UNL A   1      48.728  31.357  27.489  1.00  0.00     0.029 A 
ATOM     62  C   UNL A   1      47.457  30.815  27.592  1.00  0.00     0.049 A 
ATOM     63  H   UNL A   1      46.782  28.892  27.042  1.00  0.00     0.167 HD
ATOM     64  C   UNL A   1      45.050  30.816  28.179  1.00  0.00     0.074 A 
ATOM     65  C   UNL A   1      43.857  31.435  28.717  1.00  0.00     0.031 C 
ATOM     66  C   UNL A   1      46.260  31.424  28.112  1.00  0.00     0.037 A 
BRANCH  53  67
ATOM     67  C   UNL A   1      50.704  27.878  25.703  1.00  0.00     0.064 A 
ATOM     68  C   UNL A   1      51.705  27.614  26.649  1.00  0.00     0.173 A 
ATOM     69  C   UNL A   1      51.084  27.973  24.355  1.00  0.00     0.173 A 
ATOM     70  F   UNL A   1      51.398  27.530  27.953  1.00  0.00    -0.203 F 
ATOM     71  C   UNL A   1      53.036  27.472  26.263  1.00  0.00     0.198 A 
ATOM     72  C   UNL A   1      52.410  27.801  23.969  1.00  0.00     0.198 A 
ATOM     73  F   UNL A   1      50.165  28.221  23.410  1.00  0.00    -0.203 F 
ATOM     74  F   UNL A   1      53.981  27.263  27.190  1.00  0.00    -0.200 F 
ATOM     75  C   UNL A   1      53.386  27.556  24.923  1.00  0.00     0.200 A 
ATOM     76  F   UNL A   1      52.745  27.871  22.673  1.00  0.00    -0.200 F 
ATOM     77  F   UNL A   1      54.665  27.408  24.553  1.00  0.00    -0.200 F 
ENDBRANCH  53  67
BRANCH  54  78
ATOM     78  C   UNL A   1      41.056  28.333  28.205  1.00  0.00     0.064 A 
ATOM     79  C   UNL A   1      40.091  28.882  27.349  1.00  0.00     0.173 A 
ATOM     80  C   UNL A   1      40.634  27.910  29.474  1.00  0.00     0.173 A 
ATOM     81  F   UNL A   1      40.449  29.328  26.136  1.00  0.00    -0.203 F 
ATOM     82  C   UNL A   1      38.766  29.030  27.755  1.00  0.00     0.198 A 
ATOM     83  C   UNL A   1      39.303  28.029  29.868  1.00  0.00     0.198 A 
ATOM     84  F   UNL A   1      41.516  27.383  30.335  1.00  0.00    -0.203 F 
ATOM     85  F   UNL A   1      37.879  29.615  26.939  1.00  0.00    -0.200 F 
ATOM     86  C   UNL A   1      38.373  28.600  29.013  1.00  0.00     0.200 A 
ATOM     87  F   UNL A   1      38.924  27.604  31.082  1.00  0.00    -0.200 F 
ATOM     88  F   UNL A   1      37.100  28.748  29.406  1.00  0.00    -0.200 F 
ENDBRANCH  54  78
BRANCH  66  89
ATOM     89  C   UNL A   1      46.343  32.849  28.585  1.00  0.00     0.064 A 
ATOM     90  C   UNL A   1      46.102  33.932  27.726  1.00  0.00     0.173 A 
ATOM     91  C   UNL A   1      46.649  33.132  29.926  1.00  0.00     0.173 A 
ATOM     92  F   UNL A   1      45.817  33.716  26.433  1.00  0.00    -0.203 F 
ATOM     93  C   UNL A   1      46.201  35.244  28.182  1.00  0.00     0.198 A 
ATOM     94  C   UNL A   1      46.714  34.445  30.386  1.00  0.00     0.198 A 
ATOM     95  F   UNL A   1      46.878  32.135  30.793  1.00  0.00    -0.203 F 
ATOM     96  F   UNL A   1      46.026  36.262  27.328  1.00  0.00    -0.200 F 
ATOM     97  C   UNL A   1      46.501  35.500  29.512  1.00  0.00     0.200 A 
ATOM     98  F   UNL A   1      46.987  34.689  31.675  1.00  0.00    -0.200 F 
ATOM     99  F   UNL A   1      46.595  36.763  29.949  1.00  0.00    -0.200 F 
ENDBRANCH  66  89
ENDBRANCH  40  41
ENDBRANCH  33  35
ENDBRANCH  32  33
ENDBRANCH  31  32
ENDBRANCH  30  31
ENDBRANCH  29  30
ENDBRANCH  28  29
ENDBRANCH   1  28
TORSDOF 21
ENDMDL
MODEL 2
REMARK VINA RESULT:     -10.6      4.676      7.653
REMARK SMILES CC(C)(C)C(=O)NCC(=O)Nc1cc(Cl)ccc1C(=O)OCCOCCOCCOC(=O)c1ccc(-c2c3nc(c(-c4c(F)c(F)c(F)c(F)c4F)c4ccc([nH]4)c(-c4c(F)c(F)c(F)c(F)c4F)c4nc(c(-c5c(F)c(F)c(F)c(F)c5F)c5ccc2[nH]5)C=C4)C=C3)cc1
REMARK SMILES IDX 25 1 24 2 23 3 22 4 21 5 19 6 20 7 18 8 12 9 13 10 14 11
REMARK SMILES IDX 17 12 15 13 16 14 11 15 9 16 10 17 8 19 7 20 5 21 6 22 2 24
REMARK SMILES IDX 1 25 3 26 4 27 26 28 27 29 28 30 29 31 30 32 31 33 32 34
REMARK SMILES IDX 33 35 34 36 95 37 35 38 94 39 36 40 37 41 38 42 88 43 39 44
REMARK SMILES IDX 93 45 87 46 89 47 40 48 92 49 86 50 85 51 41 53 73 54 53 55
REMARK SMILES IDX 72 56 54 57 57 58 71 59 90 60 55 61 56 62 70 64 91 65 58 66
REMARK SMILES IDX 42 67 43 68 51 69 44 70 45 71 49 72 52 73 46 74 47 75 50 76
REMARK SMILES IDX 48 77 74 78 75 79 83 80 76 81 77 82 81 83 84 84 78 85 79 86
REMARK SMILES IDX 82 87 80 88 59 89 60 90 68 91 61 92 62 93 66 94 69 95 63 96
REMARK SMILES IDX 64 97 67 98 65 99
REMARK H PARENT 11 18 7 23 89 52 57 63
REMARK Flexibility Score: inf
ROOT
ATOM      1  C   UNL A   1      44.847  19.340  24.330  1.00  0.00     0.188 C 
ENDROOT
BRANCH   1   2
ATOM      2  O   UNL A   1      43.966  18.309  24.754  1.00  0.00    -0.376 OA
BRANCH   2   3
ATOM      3  C   UNL A   1      43.191  18.459  25.934  1.00  0.00     0.202 C 
BRANCH   3   4
ATOM      4  C   UNL A   1      41.744  18.953  25.806  1.00  0.00     0.261 C 
BRANCH   4   5
ATOM      5  O   UNL A   1      41.559  20.371  25.987  1.00  0.00    -0.460 OA
BRANCH   5   6
ATOM      6  C   UNL A   1      41.063  20.723  27.196  1.00  0.00     0.340 C 
ATOM      7  O   UNL A   1      40.973  19.986  28.168  1.00  0.00    -0.246 OA
BRANCH   6   8
ATOM      8  C   UNL A   1      40.698  22.166  27.297  1.00  0.00     0.083 A 
ATOM      9  C   UNL A   1      39.625  22.816  26.645  1.00  0.00     0.057 A 
ATOM     10  C   UNL A   1      39.251  24.074  27.125  1.00  0.00     0.047 A 
ATOM     11  C   UNL A   1      40.040  24.766  28.050  1.00  0.00     0.043 A 
ATOM     12  C   UNL A   1      41.518  22.897  28.182  1.00  0.00     0.019 A 
ATOM     13  Cl  UNL A   1      39.554  26.314  28.615  1.00  0.00    -0.084 Cl
ATOM     14  C   UNL A   1      41.212  24.208  28.528  1.00  0.00     0.021 A 
BRANCH   9  15
ATOM     15  N   UNL A   1      38.912  22.191  25.607  1.00  0.00    -0.324 N 
ATOM     16  C   UNL A   1      37.591  22.121  25.254  1.00  0.00     0.243 C 
ATOM     17  O   UNL A   1      37.338  21.352  24.312  1.00  0.00    -0.273 OA
ATOM     18  H   UNL A   1      39.495  21.690  24.992  1.00  0.00     0.170 HD
BRANCH  16  19
ATOM     19  C   UNL A   1      36.474  23.109  25.692  1.00  0.00     0.216 C 
BRANCH  19  20
ATOM     20  N   UNL A   1      35.574  22.830  26.791  1.00  0.00    -0.347 N 
ATOM     21  C   UNL A   1      34.250  23.012  27.013  1.00  0.00     0.225 C 
ATOM     22  O   UNL A   1      33.843  22.549  28.086  1.00  0.00    -0.275 OA
ATOM     23  H   UNL A   1      36.030  22.410  27.554  1.00  0.00     0.164 HD
BRANCH  21  24
ATOM     24  C   UNL A   1      33.270  23.658  26.018  1.00  0.00     0.041 C 
ATOM     25  C   UNL A   1      31.921  23.884  26.745  1.00  0.00     0.021 C 
ATOM     26  C   UNL A   1      33.036  22.682  24.859  1.00  0.00     0.021 C 
ATOM     27  C   UNL A   1      33.687  25.026  25.482  1.00  0.00     0.021 C 
ENDBRANCH  21  24
ENDBRANCH  19  20
ENDBRANCH  16  19
ENDBRANCH   9  15
ENDBRANCH   6   8
ENDBRANCH   5   6
ENDBRANCH   4   5
ENDBRANCH   3   4
ENDBRANCH   2   3
ENDBRANCH   1   2
BRANCH   1  28
ATOM     28  C   UNL A   1      46.198  19.587  25.029  1.00  0.00     0.188 C 
BRANCH  28  29
ATOM     29  O   UNL A   1      46.592  20.942  25.102  1.00  0.00    -0.376 OA
BRANCH  29  30
ATOM     30  C   UNL A   1      45.688  21.891  24.557  1.00  0.00     0.202 C 
BRANCH  30  31
ATOM     31  C   UNL A   1      46.280  23.270  24.226  1.00  0.00     0.261 C 
BRANCH  31  32
ATOM     32  O   UNL A   1      45.438  24.403  24.511  1.00  0.00    -0.460 OA
BRANCH  32  33
ATOM     33  C   UNL A   1      46.050  25.569  24.794  1.00  0.00     0.338 C 
ATOM     34  O   UNL A   1      47.036  26.039  24.232  1.00  0.00    -0.246 OA
BRANCH  33  35
ATOM     35  C   UNL A   1      45.227  26.309  25.768  1.00  0.00     0.060 A 
ATOM     36  C   UNL A   1      45.273  27.707  25.755  1.00  0.00     0.016 A 
ATOM     37  C   UNL A   1      44.426  25.646  26.700  1.00  0.00     0.016 A 
ATOM     38  C   UNL A   1      44.549  28.451  26.687  1.00  0.00     0.010 A 
ATOM     39  C   UNL A   1      43.709  26.392  27.647  1.00  0.00     0.010 A 
ATOM     40  C   UNL A   1      43.788  27.796  27.663  1.00  0.00    -0.014 A 
BRANCH  40  41
ATOM     41  C   UNL A   1      43.206  28.579  28.785  1.00  0.00     0.031 A 
ATOM     42  C   UNL A   1      44.050  28.842  30.003  1.00  0.00     0.074 A 
ATOM     43  C   UNL A   1      41.964  29.091  28.707  1.00  0.00     0.049 A 
ATOM     44  N   UNL A   1      43.748  29.480  31.105  1.00  0.00    -0.248 NA
ATOM     45  C   UNL A   1      45.424  28.313  29.972  1.00  0.00     0.031 C 
ATOM     46  C   UNL A   1      41.060  28.946  27.569  1.00  0.00     0.029 A 
ATOM     47  N   UNL A   1      41.249  29.834  29.613  1.00  0.00    -0.354 N 
ATOM     48  C   UNL A   1      44.889  29.428  31.897  1.00  0.00     0.074 A 
ATOM     49  C   UNL A   1      45.879  28.668  31.163  1.00  0.00     0.031 C 
ATOM     50  C   UNL A   1      39.904  29.575  27.848  1.00  0.00     0.029 A 
ATOM     51  C   UNL A   1      39.977  30.139  29.194  1.00  0.00     0.049 A 
ATOM     52  H   UNL A   1      41.613  30.122  30.481  1.00  0.00     0.167 HD
ATOM     53  C   UNL A   1      45.098  29.972  33.119  1.00  0.00     0.037 A 
ATOM     54  C   UNL A   1      38.980  30.784  29.834  1.00  0.00     0.037 A 
ATOM     55  C   UNL A   1      44.114  30.728  33.851  1.00  0.00     0.049 A 
ATOM     56  C   UNL A   1      39.215  31.318  31.225  1.00  0.00     0.074 A 
ATOM     57  C   UNL A   1      44.233  31.321  35.097  1.00  0.00     0.029 A 
ATOM     58  N   UNL A   1      42.828  30.991  33.405  1.00  0.00    -0.354 N 
ATOM     59  N   UNL A   1      40.302  31.279  31.957  1.00  0.00    -0.248 NA
ATOM     60  C   UNL A   1      38.083  31.995  31.874  1.00  0.00     0.031 C 
ATOM     61  C   UNL A   1      43.003  31.901  35.426  1.00  0.00     0.029 A 
ATOM     62  C   UNL A   1      42.136  31.721  34.359  1.00  0.00     0.049 A 
ATOM     63  H   UNL A   1      42.461  30.702  32.539  1.00  0.00     0.167 HD
ATOM     64  C   UNL A   1      39.996  31.954  33.134  1.00  0.00     0.074 A 
ATOM     65  C   UNL A   1      38.627  32.407  33.010  1.00  0.00     0.031 C 
ATOM     66  C   UNL A   1      40.779  32.179  34.219  1.00  0.00     0.037 A 
BRANCH  53  67
ATOM     67  C   UNL A   1      46.439  29.755  33.756  1.00  0.00     0.064 A 
ATOM     68  C   UNL A   1      47.513  30.629  33.529  1.00  0.00     0.173 A 
ATOM     69  C   UNL A   1      46.641  28.684  34.640  1.00  0.00     0.173 A 
ATOM     70  F   UNL A   1      47.378  31.659  32.680  1.00  0.00    -0.203 F 
ATOM     71  C   UNL A   1      48.745  30.425  34.146  1.00  0.00     0.198 A 
ATOM     72  C   UNL A   1      47.864  28.500  35.278  1.00  0.00     0.198 A 
ATOM     73  F   UNL A   1      45.645  27.821  34.894  1.00  0.00    -0.203 F 
ATOM     74  F   UNL A   1      49.769  31.248  33.881  1.00  0.00    -0.200 F 
ATOM     75  C   UNL A   1      48.917  29.367  35.027  1.00  0.00     0.200 A 
ATOM     76  F   UNL A   1      48.024  27.485  36.138  1.00  0.00    -0.200 F 
ATOM     77  F   UNL A   1      50.099  29.180  35.628  1.00  0.00    -0.200 F 
ENDBRANCH  53  67
BRANCH  54  78
ATOM     78  C   UNL A   1      37.653  30.953  29.180  1.00  0.00     0.064 A 
ATOM     79  C   UNL A   1      36.776  29.870  29.028  1.00  0.00     0.173 A 
ATOM     80  C   UNL A   1      37.258  32.190  28.650  1.00  0.00     0.173 A 
ATOM     81  F   UNL A   1      37.120  28.660  29.492  1.00  0.00    -0.203 F 
ATOM     82  C   UNL A   1      35.569  30.010  28.346  1.00  0.00     0.198 A 
ATOM     83  C   UNL A   1      36.037  32.337  27.997  1.00  0.00     0.198 A 
ATOM     84  F   UNL A   1      38.061  33.258  28.763  1.00  0.00    -0.203 F 
ATOM     85  F   UNL A   1      34.779  28.944  28.162  1.00  0.00    -0.200 F 
ATOM     86  C   UNL A   1      35.198  31.245  27.835  1.00  0.00     0.200 A 
ATOM     87  F   UNL A   1      35.678  33.534  27.512  1.00  0.00    -0.200 F 
ATOM     88  F   UNL A   1      34.039  31.378  27.175  1.00  0.00    -0.200 F 
ENDBRANCH  54  78
BRANCH  66  89
ATOM     89  C   UNL A   1      40.191  32.995  35.336  1.00  0.00     0.064 A 
ATOM     90  C   UNL A   1      40.310  34.393  35.377  1.00  0.00     0.173 A 
ATOM     91  C   UNL A   1      39.479  32.368  36.370  1.00  0.00     0.173 A 
ATOM     92  F   UNL A   1      40.991  35.040  34.419  1.00  0.00    -0.203 F 
ATOM     93  C   UNL A   1      39.772  35.126  36.431  1.00  0.00     0.198 A 
ATOM     94  C   UNL A   1      38.913  33.109  37.405  1.00  0.00     0.198 A 
ATOM     95  F   UNL A   1      39.325  31.035  36.376  1.00  0.00    -0.203 F 
ATOM     96  F   UNL A   1      39.951  36.454  36.479  1.00  0.00    -0.200 F 
ATOM     97  C   UNL A   1      39.069  34.486  37.440  1.00  0.00     0.200 A 
ATOM     98  F   UNL A   1      38.220  32.489  38.371  1.00  0.00    -0.200 F 
ATOM     99  F   UNL A   1      38.551  35.195  38.453  1.00  0.00    -0.200 F 
ENDBRANCH  66  89
ENDBRANCH  40  41
ENDBRANCH  33  35
ENDBRANCH  32  33
ENDBRANCH  31  32
ENDBRANCH  30  31
ENDBRANCH  29  30
ENDBRANCH  28  29
ENDBRANCH   1  28
TORSDOF 21
ENDMDL
MODEL 3
REMARK VINA RESULT:     -10.5      5.225      8.110
REMARK SMILES CC(C)(C)C(=O)NCC(=O)Nc1cc(Cl)ccc1C(=O)OCCOCCOCCOC(=O)c1ccc(-c2c3nc(c(-c4c(F)c(F)c(F)c(F)c4F)c4ccc([nH]4)c(-c4c(F)c(F)c(F)c(F)c4F)c4nc(c(-c5c(F)c(F)c(F)c(F)c5F)c5ccc2[nH]5)C=C4)C=C3)cc1
REMARK SMILES IDX 25 1 24 2 23 3 22 4 21 5 19 6 20 7 18 8 12 9 13 10 14 11
REMARK SMILES IDX 17 12 15 13 16 14 11 15 9 16 10 17 8 19 7 20 5 21 6 22 2 24
REMARK SMILES IDX 1 25 3 26 4 27 26 28 27 29 28 30 29 31 30 32 31 33 32 34
REMARK SMILES IDX 33 35 34 36 95 37 35 38 94 39 36 40 37 41 38 42 88 43 39 44
REMARK SMILES IDX 93 45 87 46 89 47 40 48 92 49 86 50 85 51 41 53 73 54 53 55
REMARK SMILES IDX 72 56 54 57 57 58 71 59 90 60 55 61 56 62 70 64 91 65 58 66
REMARK SMILES IDX 42 67 43 68 51 69 44 70 45 71 49 72 52 73 46 74 47 75 50 76
REMARK SMILES IDX 48 77 74 78 75 79 83 80 76 81 77 82 81 83 84 84 78 85 79 86
REMARK SMILES IDX 82 87 80 88 59 89 60 90 68 91 61 92 62 93 66 94 69 95 63 96
REMARK SMILES IDX 64 97 67 98 65 99
REMARK H PARENT 11 18 7 23 89 52 57 63
REMARK Flexibility Score: inf
ROOT
ATOM      1  C   UNL A   1      39.669  22.167  26.769  1.00  0.00     0.188 C 
ENDROOT
BRANCH   1   2
ATOM      2  O   UNL A   1      38.874  21.714  25.681  1.00  0.00    -0.376 OA
BRANCH   2   3
ATOM      3  C   UNL A   1      37.519  22.119  25.558  1.00  0.00     0.202 C 
BRANCH   3   4
ATOM      4  C   UNL A   1      37.173  23.600  25.765  1.00  0.00     0.261 C 
BRANCH   4   5
ATOM      5  O   UNL A   1      36.055  24.085  24.994  1.00  0.00    -0.460 OA
BRANCH   5   6
ATOM      6  C   UNL A   1      34.842  23.749  25.493  1.00  0.00     0.340 C 
ATOM      7  O   UNL A   1      34.468  23.944  26.641  1.00  0.00    -0.246 OA
BRANCH   6   8
ATOM      8  C   UNL A   1      33.914  23.177  24.475  1.00  0.00     0.083 A 
ATOM      9  C   UNL A   1      33.527  23.771  23.253  1.00  0.00     0.057 A 
ATOM     10  C   UNL A   1      32.929  22.943  22.299  1.00  0.00     0.047 A 
ATOM     11  C   UNL A   1      32.516  21.645  22.615  1.00  0.00     0.043 A 
ATOM     12  C   UNL A   1      33.439  21.888  24.802  1.00  0.00     0.019 A 
ATOM     13  Cl  UNL A   1      31.778  20.655  21.420  1.00  0.00    -0.084 Cl
ATOM     14  C   UNL A   1      32.708  21.139  23.889  1.00  0.00     0.021 A 
BRANCH   9  15
ATOM     15  N   UNL A   1      33.802  25.122  22.975  1.00  0.00    -0.324 N 
ATOM     16  C   UNL A   1      33.034  26.234  22.758  1.00  0.00     0.243 C 
ATOM     17  O   UNL A   1      33.664  27.250  22.418  1.00  0.00    -0.273 OA
ATOM     18  H   UNL A   1      34.766  25.311  22.926  1.00  0.00     0.170 HD
BRANCH  16  19
ATOM     19  C   UNL A   1      31.552  26.421  23.187  1.00  0.00     0.216 C 
BRANCH  19  20
ATOM     20  N   UNL A   1      31.057  26.005  24.483  1.00  0.00    -0.347 N 
ATOM     21  C   UNL A   1      31.144  26.496  25.743  1.00  0.00     0.225 C 
ATOM     22  O   UNL A   1      30.494  25.863  26.583  1.00  0.00    -0.275 OA
ATOM     23  H   UNL A   1      30.537  25.172  24.437  1.00  0.00     0.164 HD
BRANCH  21  24
ATOM     24  C   UNL A   1      31.905  27.774  26.140  1.00  0.00     0.041 C 
ATOM     25  C   UNL A   1      33.423  27.473  26.070  1.00  0.00     0.021 C 
ATOM     26  C   UNL A   1      31.548  28.124  27.589  1.00  0.00     0.021 C 
ATOM     27  C   UNL A   1      31.678  28.981  25.232  1.00  0.00     0.021 C 
ENDBRANCH  21  24
ENDBRANCH  19  20
ENDBRANCH  16  19
ENDBRANCH   9  15
ENDBRANCH   6   8
ENDBRANCH   5   6
ENDBRANCH   4   5
ENDBRANCH   3   4
ENDBRANCH   2   3
ENDBRANCH   1   2
BRANCH   1  28
ATOM     28  C   UNL A   1      40.993  21.473  27.148  1.00  0.00     0.188 C 
BRANCH  28  29
ATOM     29  O   UNL A   1      41.667  20.850  26.074  1.00  0.00    -0.376 OA
BRANCH  29  30
ATOM     30  C   UNL A   1      43.043  21.169  25.925  1.00  0.00     0.202 C 
BRANCH  30  31
ATOM     31  C   UNL A   1      43.388  22.133  24.779  1.00  0.00     0.261 C 
BRANCH  31  32
ATOM     32  O   UNL A   1      43.047  23.516  24.994  1.00  0.00    -0.460 OA
BRANCH  32  33
ATOM     33  C   UNL A   1      44.058  24.367  25.248  1.00  0.00     0.338 C 
ATOM     34  O   UNL A   1      45.025  24.600  24.527  1.00  0.00    -0.246 OA
BRANCH  33  35
ATOM     35  C   UNL A   1      43.729  25.143  26.458  1.00  0.00     0.060 A 
ATOM     36  C   UNL A   1      42.828  24.596  27.377  1.00  0.00     0.016 A 
ATOM     37  C   UNL A   1      44.282  26.404  26.689  1.00  0.00     0.016 A 
ATOM     38  C   UNL A   1      42.449  25.312  28.513  1.00  0.00     0.010 A 
ATOM     39  C   UNL A   1      43.891  27.131  27.823  1.00  0.00     0.010 A 
ATOM     40  C   UNL A   1      42.952  26.600  28.726  1.00  0.00    -0.014 A 
BRANCH  40  41
ATOM     41  C   UNL A   1      42.376  27.442  29.808  1.00  0.00     0.031 A 
ATOM     42  C   UNL A   1      43.037  27.441  31.160  1.00  0.00     0.074 A 
ATOM     43  C   UNL A   1      41.311  28.232  29.583  1.00  0.00     0.049 A 
ATOM     44  N   UNL A   1      42.701  28.078  32.253  1.00  0.00    -0.248 NA
ATOM     45  C   UNL A   1      44.243  26.608  31.296  1.00  0.00     0.031 C 
ATOM     46  C   UNL A   1      40.605  28.358  28.311  1.00  0.00     0.029 A 
ATOM     47  N   UNL A   1      40.635  29.077  30.429  1.00  0.00    -0.354 N 
ATOM     48  C   UNL A   1      43.649  27.721  33.204  1.00  0.00     0.074 A 
ATOM     49  C   UNL A   1      44.556  26.789  32.570  1.00  0.00     0.031 C 
ATOM     50  C   UNL A   1      39.588  29.225  28.460  1.00  0.00     0.029 A 
ATOM     51  C   UNL A   1      39.553  29.691  29.845  1.00  0.00     0.049 A 
ATOM     52  H   UNL A   1      40.900  29.230  31.364  1.00  0.00     0.167 HD
ATOM     53  C   UNL A   1      43.762  28.142  34.487  1.00  0.00     0.037 A 
ATOM     54  C   UNL A   1      38.630  30.518  30.377  1.00  0.00     0.037 A 
ATOM     55  C   UNL A   1      42.861  29.069  35.121  1.00  0.00     0.049 A 
ATOM     56  C   UNL A   1      38.737  30.914  31.829  1.00  0.00     0.074 A 
ATOM     57  C   UNL A   1      42.894  29.557  36.417  1.00  0.00     0.029 A 
ATOM     58  N   UNL A   1      41.761  29.647  34.505  1.00  0.00    -0.354 N 
ATOM     59  N   UNL A   1      39.647  30.587  32.714  1.00  0.00    -0.248 NA
ATOM     60  C   UNL A   1      37.690  31.805  32.351  1.00  0.00     0.031 C 
ATOM     61  C   UNL A   1      41.786  30.392  36.599  1.00  0.00     0.029 A 
ATOM     62  C   UNL A   1      41.096  30.471  35.400  1.00  0.00     0.049 A 
ATOM     63  H   UNL A   1      41.492  29.495  33.571  1.00  0.00     0.167 HD
ATOM     64  C   UNL A   1      39.302  31.257  33.883  1.00  0.00     0.074 A 
ATOM     65  C   UNL A   1      38.110  32.022  33.589  1.00  0.00     0.031 C 
ATOM     66  C   UNL A   1      39.919  31.239  35.091  1.00  0.00     0.037 A 
BRANCH  53  67
ATOM     67  C   UNL A   1      44.893  27.587  35.302  1.00  0.00     0.064 A 
ATOM     68  C   UNL A   1      44.760  26.395  36.031  1.00  0.00     0.173 A 
ATOM     69  C   UNL A   1      46.139  28.232  35.321  1.00  0.00     0.173 A 
ATOM     70  F   UNL A   1      43.585  25.748  36.059  1.00  0.00    -0.203 F 
ATOM     71  C   UNL A   1      45.828  25.882  36.764  1.00  0.00     0.198 A 
ATOM     72  C   UNL A   1      47.212  27.700  36.031  1.00  0.00     0.198 A 
ATOM     73  F   UNL A   1      46.319  29.374  34.639  1.00  0.00    -0.203 F 
ATOM     74  F   UNL A   1      45.665  24.765  37.486  1.00  0.00    -0.200 F 
ATOM     75  C   UNL A   1      47.054  26.529  36.756  1.00  0.00     0.200 A 
ATOM     76  F   UNL A   1      48.400  28.321  36.013  1.00  0.00    -0.200 F 
ATOM     77  F   UNL A   1      48.082  26.028  37.453  1.00  0.00    -0.200 F 
ENDBRANCH  53  67
BRANCH  54  78
ATOM     78  C   UNL A   1      37.506  31.025  29.542  1.00  0.00     0.064 A 
ATOM     79  C   UNL A   1      37.495  32.343  29.064  1.00  0.00     0.173 A 
ATOM     80  C   UNL A   1      36.398  30.217  29.250  1.00  0.00     0.173 A 
ATOM     81  F   UNL A   1      38.518  33.164  29.342  1.00  0.00    -0.203 F 
ATOM     82  C   UNL A   1      36.407  32.841  28.350  1.00  0.00     0.198 A 
ATOM     83  C   UNL A   1      35.325  30.706  28.508  1.00  0.00     0.198 A 
ATOM     84  F   UNL A   1      36.355  28.950  29.687  1.00  0.00    -0.203 F 
ATOM     85  F   UNL A   1      36.396  34.122  27.959  1.00  0.00    -0.200 F 
ATOM     86  C   UNL A   1      35.325  32.021  28.069  1.00  0.00     0.200 A 
ATOM     87  F   UNL A   1      34.285  29.908  28.230  1.00  0.00    -0.200 F 
ATOM     88  F   UNL A   1      34.276  32.502  27.386  1.00  0.00    -0.200 F 
ENDBRANCH  54  78
BRANCH  66  89
ATOM     89  C   UNL A   1      39.345  32.115  36.171  1.00  0.00     0.064 A 
ATOM     90  C   UNL A   1      39.823  33.413  36.407  1.00  0.00     0.173 A 
ATOM     91  C   UNL A   1      38.284  31.653  36.966  1.00  0.00     0.173 A 
ATOM     92  F   UNL A   1      40.843  33.898  35.682  1.00  0.00    -0.203 F 
ATOM     93  C   UNL A   1      39.288  34.199  37.423  1.00  0.00     0.198 A 
ATOM     94  C   UNL A   1      37.729  32.456  37.959  1.00  0.00     0.198 A 
ATOM     95  F   UNL A   1      37.781  30.424  36.776  1.00  0.00    -0.203 F 
ATOM     96  F   UNL A   1      39.803  35.412  37.669  1.00  0.00    -0.200 F 
ATOM     97  C   UNL A   1      38.238  33.724  38.195  1.00  0.00     0.200 A 
ATOM     98  F   UNL A   1      36.704  32.000  38.692  1.00  0.00    -0.200 F 
ATOM     99  F   UNL A   1      37.724  34.483  39.172  1.00  0.00    -0.200 F 
ENDBRANCH  66  89
ENDBRANCH  40  41
ENDBRANCH  33  35
ENDBRANCH  32  33
ENDBRANCH  31  32
ENDBRANCH  30  31
ENDBRANCH  29  30
ENDBRANCH  28  29
ENDBRANCH   1  28
TORSDOF 21
ENDMDL
