MODEL 1
REMARK VINA RESULT:     -11.9      0.000      0.000
REMARK SMILES O=C(OCCOCCOCCOC(=O)[C@@H](Cc1ccc(O)cc1)Nc1c2ccccc2nc2ccccc12)c1ccc(-c2c3nc(c(-c4c(F)c(F)c(F)c(F)c4F)c4ccc([nH]4)c(-c4c(F)c(F)c(F)c(F)c4F)c4nc(c(-c5c(F)c(F)c(F)c(F)c5F)c5ccc2[nH]5)C=C4)C=C3)cc1
REMARK SMILES IDX 8 1 7 2 6 3 5 4 4 5 3 6 2 7 1 8 39 9 40 10 101 11 41 12
REMARK SMILES IDX 100 13 42 14 43 15 44 16 94 17 45 18 99 19 93 20 95 21 46 22
REMARK SMILES IDX 98 23 92 24 91 25 47 27 79 28 59 29 78 30 60 31 63 32 77 33
REMARK SMILES IDX 96 34 61 35 62 36 76 38 97 39 64 40 48 41 49 42 57 43 50 44
REMARK SMILES IDX 51 45 55 46 58 47 52 48 53 49 56 50 54 51 80 52 81 53 89 54
REMARK SMILES IDX 82 55 83 56 87 57 90 58 84 59 85 60 88 61 86 62 65 63 66 64
REMARK SMILES IDX 74 65 67 66 68 67 72 68 75 69 69 70 70 71 73 72 71 73 9 74
REMARK SMILES IDX 10 75 11 76 12 77 13 78 14 79 15 80 16 81 17 82 18 83 23 84
REMARK SMILES IDX 19 85 22 86 20 87 21 88 24 90 25 92 26 93 38 94 27 95 31 96
REMARK SMILES IDX 33 97 37 98 28 99 30 100 32 101 34 102 36 103 29 104 35 105
REMARK H PARENT 95 26 63 37 21 89 24 91
REMARK Flexibility Score: inf
ROOT
ATOM      1  C   UNL A   1      30.283  27.948  23.216  1.00  0.00     0.188 C 
ENDROOT
BRANCH   1   2
ATOM      2  C   UNL A   1      30.973  29.312  23.299  1.00  0.00     0.188 C 
BRANCH   2   3
ATOM      3  O   UNL A   1      31.248  29.672  24.663  1.00  0.00    -0.376 OA
BRANCH   3   4
ATOM      4  C   UNL A   1      30.701  30.943  25.028  1.00  0.00     0.202 C 
BRANCH   4   5
ATOM      5  C   UNL A   1      31.153  31.468  26.397  1.00  0.00     0.261 C 
BRANCH   5   6
ATOM      6  O   UNL A   1      32.546  31.232  26.654  1.00  0.00    -0.460 OA
BRANCH   6   7
ATOM      7  C   UNL A   1      33.426  31.957  27.386  1.00  0.00     0.338 C 
ATOM      8  O   UNL A   1      33.131  33.127  27.631  1.00  0.00    -0.246 OA
BRANCH   7   9
ATOM      9  C   UNL A   1      34.740  31.457  27.920  1.00  0.00     0.060 A 
ATOM     10  C   UNL A   1      35.040  30.145  28.280  1.00  0.00     0.016 A 
ATOM     11  C   UNL A   1      35.779  32.407  28.031  1.00  0.00     0.016 A 
ATOM     12  C   UNL A   1      36.296  29.800  28.785  1.00  0.00     0.010 A 
ATOM     13  C   UNL A   1      37.051  32.065  28.514  1.00  0.00     0.010 A 
ATOM     14  C   UNL A   1      37.306  30.755  28.915  1.00  0.00    -0.014 A 
BRANCH  14  15
ATOM     15  C   UNL A   1      38.549  30.349  29.604  1.00  0.00     0.031 A 
ATOM     16  C   UNL A   1      38.669  30.648  31.065  1.00  0.00     0.074 A 
ATOM     17  C   UNL A   1      39.474  29.607  28.967  1.00  0.00     0.049 A 
ATOM     18  N   UNL A   1      39.590  30.277  31.913  1.00  0.00    -0.248 NA
ATOM     19  C   UNL A   1      37.616  31.497  31.646  1.00  0.00     0.031 C 
ATOM     20  C   UNL A   1      39.449  29.292  27.546  1.00  0.00     0.029 A 
ATOM     21  N   UNL A   1      40.568  28.925  29.439  1.00  0.00    -0.354 N 
ATOM     22  C   UNL A   1      39.270  30.908  33.105  1.00  0.00     0.074 A 
ATOM     23  C   UNL A   1      38.034  31.628  32.896  1.00  0.00     0.031 C 
ATOM     24  C   UNL A   1      40.384  28.364  27.284  1.00  0.00     0.029 A 
ATOM     25  C   UNL A   1      41.113  28.064  28.511  1.00  0.00     0.049 A 
ATOM     26  H   UNL A   1      40.927  29.039  30.349  1.00  0.00     0.167 HD
ATOM     27  C   UNL A   1      39.992  30.931  34.248  1.00  0.00     0.037 A 
ATOM     28  C   UNL A   1      42.070  27.127  28.664  1.00  0.00     0.037 A 
ATOM     29  C   UNL A   1      41.231  30.221  34.417  1.00  0.00     0.049 A 
ATOM     30  C   UNL A   1      42.784  27.075  29.993  1.00  0.00     0.074 A 
ATOM     31  C   UNL A   1      42.106  30.244  35.486  1.00  0.00     0.029 A 
ATOM     32  N   UNL A   1      41.767  29.353  33.474  1.00  0.00    -0.354 N 
ATOM     33  N   UNL A   1      42.509  27.709  31.108  1.00  0.00    -0.248 NA
ATOM     34  C   UNL A   1      43.982  26.224  30.068  1.00  0.00     0.031 C 
ATOM     35  C   UNL A   1      43.192  29.419  35.173  1.00  0.00     0.029 A 
ATOM     36  C   UNL A   1      42.967  28.840  33.933  1.00  0.00     0.049 A 
ATOM     37  H   UNL A   1      41.354  29.137  32.607  1.00  0.00     0.167 HD
ATOM     38  C   UNL A   1      43.526  27.384  31.993  1.00  0.00     0.074 A 
ATOM     39  C   UNL A   1      44.368  26.416  31.322  1.00  0.00     0.031 C 
ATOM     40  C   UNL A   1      43.780  27.883  33.229  1.00  0.00     0.037 A 
BRANCH  27  41
ATOM     41  C   UNL A   1      39.524  31.852  35.331  1.00  0.00     0.064 A 
ATOM     42  C   UNL A   1      38.645  31.440  36.343  1.00  0.00     0.173 A 
ATOM     43  C   UNL A   1      39.946  33.192  35.332  1.00  0.00     0.173 A 
ATOM     44  F   UNL A   1      38.184  30.181  36.363  1.00  0.00    -0.203 F 
ATOM     45  C   UNL A   1      38.192  32.341  37.305  1.00  0.00     0.198 A 
ATOM     46  C   UNL A   1      39.511  34.081  36.309  1.00  0.00     0.198 A 
ATOM     47  F   UNL A   1      40.776  33.639  34.377  1.00  0.00    -0.203 F 
ATOM     48  F   UNL A   1      37.311  31.940  38.232  1.00  0.00    -0.200 F 
ATOM     49  C   UNL A   1      38.629  33.658  37.291  1.00  0.00     0.200 A 
ATOM     50  F   UNL A   1      39.936  35.352  36.292  1.00  0.00    -0.200 F 
ATOM     51  F   UNL A   1      38.188  34.522  38.214  1.00  0.00    -0.200 F 
ENDBRANCH  27  41
BRANCH  28  52
ATOM     52  C   UNL A   1      42.430  26.176  27.570  1.00  0.00     0.064 A 
ATOM     53  C   UNL A   1      41.838  24.902  27.513  1.00  0.00     0.173 A 
ATOM     54  C   UNL A   1      43.394  26.475  26.596  1.00  0.00     0.173 A 
ATOM     55  F   UNL A   1      40.922  24.548  28.428  1.00  0.00    -0.203 F 
ATOM     56  C   UNL A   1      42.220  23.962  26.554  1.00  0.00     0.198 A 
ATOM     57  C   UNL A   1      43.742  25.552  25.609  1.00  0.00     0.198 A 
ATOM     58  F   UNL A   1      44.011  27.665  26.606  1.00  0.00    -0.203 F 
ATOM     59  F   UNL A   1      41.690  22.732  26.578  1.00  0.00    -0.200 F 
ATOM     60  C   UNL A   1      43.167  24.291  25.597  1.00  0.00     0.200 A 
ATOM     61  F   UNL A   1      44.654  25.877  24.684  1.00  0.00    -0.200 F 
ATOM     62  F   UNL A   1      43.539  23.387  24.682  1.00  0.00    -0.200 F 
ENDBRANCH  28  52
BRANCH  40  63
ATOM     63  C   UNL A   1      45.035  27.419  33.904  1.00  0.00     0.064 A 
ATOM     64  C   UNL A   1      46.246  28.107  33.730  1.00  0.00     0.173 A 
ATOM     65  C   UNL A   1      45.017  26.323  34.778  1.00  0.00     0.173 A 
ATOM     66  F   UNL A   1      46.313  29.156  32.897  1.00  0.00    -0.203 F 
ATOM     67  C   UNL A   1      47.400  27.700  34.392  1.00  0.00     0.198 A 
ATOM     68  C   UNL A   1      46.166  25.936  35.459  1.00  0.00     0.198 A 
ATOM     69  F   UNL A   1      43.880  25.641  34.983  1.00  0.00    -0.203 F 
ATOM     70  F   UNL A   1      48.554  28.347  34.181  1.00  0.00    -0.200 F 
ATOM     71  C   UNL A   1      47.358  26.620  35.261  1.00  0.00     0.200 A 
ATOM     72  F   UNL A   1      46.121  24.902  36.310  1.00  0.00    -0.200 F 
ATOM     73  F   UNL A   1      48.467  26.235  35.906  1.00  0.00    -0.200 F 
ENDBRANCH  40  63
ENDBRANCH  14  15
ENDBRANCH   7   9
ENDBRANCH   6   7
ENDBRANCH   5   6
ENDBRANCH   4   5
ENDBRANCH   3   4
ENDBRANCH   2   3
ENDBRANCH   1   2
BRANCH   1  74
ATOM     74  O   UNL A   1      30.593  27.200  22.040  1.00  0.00    -0.376 OA
BRANCH  74  75
ATOM     75  C   UNL A   1      31.954  26.818  21.842  1.00  0.00     0.202 C 
BRANCH  75  76
ATOM     76  C   UNL A   1      32.150  25.636  20.890  1.00  0.00     0.261 C 
BRANCH  76  77
ATOM     77  O   UNL A   1      33.086  24.702  21.445  1.00  0.00    -0.462 OA
BRANCH  77  78
ATOM     78  C   UNL A   1      32.775  24.149  22.649  1.00  0.00     0.328 C 
ATOM     79  O   UNL A   1      31.730  23.567  22.882  1.00  0.00    -0.250 OA
BRANCH  78  80
ATOM     80  C   UNL A   1      33.933  24.282  23.662  1.00  0.00     0.194 C 
BRANCH  80  81
ATOM     81  C   UNL A   1      34.173  25.722  24.159  1.00  0.00     0.072 C 
BRANCH  81  82
ATOM     82  C   UNL A   1      33.370  26.260  25.330  1.00  0.00    -0.045 A 
ATOM     83  C   UNL A   1      33.830  27.334  26.103  1.00  0.00     0.007 A 
ATOM     84  C   UNL A   1      32.077  25.774  25.576  1.00  0.00     0.007 A 
ATOM     85  C   UNL A   1      33.002  27.958  27.041  1.00  0.00     0.046 A 
ATOM     86  C   UNL A   1      31.249  26.385  26.520  1.00  0.00     0.046 A 
ATOM     87  C   UNL A   1      31.708  27.489  27.224  1.00  0.00     0.115 A 
BRANCH  87  88
ATOM     88  O   UNL A   1      30.843  28.103  28.077  1.00  0.00    -0.508 OA
ATOM     89  H   UNL A   1      29.931  27.890  28.054  1.00  0.00     0.293 HD
ENDBRANCH  87  88
ENDBRANCH  81  82
ENDBRANCH  80  81
BRANCH  80  90
ATOM     90  N   UNL A   1      33.796  23.361  24.814  1.00  0.00    -0.371 N 
ATOM     91  H   UNL A   1      33.101  23.514  25.493  1.00  0.00     0.161 HD
BRANCH  90  92
ATOM     92  C   UNL A   1      34.674  22.260  24.927  1.00  0.00     0.054 A 
ATOM     93  C   UNL A   1      34.224  20.928  24.694  1.00  0.00     0.024 A 
ATOM     94  C   UNL A   1      36.027  22.479  25.313  1.00  0.00     0.024 A 
ATOM     95  C   UNL A   1      32.900  20.574  24.327  1.00  0.00     0.012 A 
ATOM     96  C   UNL A   1      35.177  19.895  24.804  1.00  0.00     0.073 A 
ATOM     97  C   UNL A   1      36.870  21.355  25.391  1.00  0.00     0.073 A 
ATOM     98  C   UNL A   1      36.572  23.747  25.643  1.00  0.00     0.012 A 
ATOM     99  C   UNL A   1      32.531  19.246  24.100  1.00  0.00     0.001 A 
ATOM    100  C   UNL A   1      34.792  18.583  24.560  1.00  0.00     0.029 A 
ATOM    101  N   UNL A   1      36.456  20.110  25.128  1.00  0.00    -0.248 NA
ATOM    102  C   UNL A   1      38.196  21.528  25.766  1.00  0.00     0.029 A 
ATOM    103  C   UNL A   1      37.898  23.894  26.044  1.00  0.00     0.001 A 
ATOM    104  C   UNL A   1      33.484  18.246  24.216  1.00  0.00     0.002 A 
ATOM    105  C   UNL A   1      38.717  22.780  26.097  1.00  0.00     0.002 A 
ENDBRANCH  90  92
ENDBRANCH  80  90
ENDBRANCH  78  80
ENDBRANCH  77  78
ENDBRANCH  76  77
ENDBRANCH  75  76
ENDBRANCH  74  75
ENDBRANCH   1  74
TORSDOF 22
ENDMDL
MODEL 2
REMARK VINA RESULT:     -11.6      1.837      7.470
REMARK SMILES O=C(OCCOCCOCCOC(=O)[C@@H](Cc1ccc(O)cc1)Nc1c2ccccc2nc2ccccc12)c1ccc(-c2c3nc(c(-c4c(F)c(F)c(F)c(F)c4F)c4ccc([nH]4)c(-c4c(F)c(F)c(F)c(F)c4F)c4nc(c(-c5c(F)c(F)c(F)c(F)c5F)c5ccc2[nH]5)C=C4)C=C3)cc1
REMARK SMILES IDX 8 1 7 2 6 3 5 4 4 5 3 6 2 7 1 8 39 9 40 10 101 11 41 12
REMARK SMILES IDX 100 13 42 14 43 15 44 16 94 17 45 18 99 19 93 20 95 21 46 22
REMARK SMILES IDX 98 23 92 24 91 25 47 27 79 28 59 29 78 30 60 31 63 32 77 33
REMARK SMILES IDX 96 34 61 35 62 36 76 38 97 39 64 40 48 41 49 42 57 43 50 44
REMARK SMILES IDX 51 45 55 46 58 47 52 48 53 49 56 50 54 51 80 52 81 53 89 54
REMARK SMILES IDX 82 55 83 56 87 57 90 58 84 59 85 60 88 61 86 62 65 63 66 64
REMARK SMILES IDX 74 65 67 66 68 67 72 68 75 69 69 70 70 71 73 72 71 73 9 74
REMARK SMILES IDX 10 75 11 76 12 77 13 78 14 79 15 80 16 81 17 82 18 83 23 84
REMARK SMILES IDX 19 85 22 86 20 87 21 88 24 90 25 92 26 93 38 94 27 95 31 96
REMARK SMILES IDX 33 97 37 98 28 99 30 100 32 101 34 102 36 103 29 104 35 105
REMARK H PARENT 95 26 63 37 21 89 24 91
REMARK Flexibility Score: inf
ROOT
ATOM      1  C   UNL A   1      31.745  28.188  27.622  1.00  0.00     0.188 C 
ENDROOT
BRANCH   1   2
ATOM      2  C   UNL A   1      32.850  29.145  27.168  1.00  0.00     0.188 C 
BRANCH   2   3
ATOM      3  O   UNL A   1      32.296  30.354  26.623  1.00  0.00    -0.376 OA
BRANCH   3   4
ATOM      4  C   UNL A   1      32.826  31.536  27.232  1.00  0.00     0.202 C 
BRANCH   4   5
ATOM      5  C   UNL A   1      31.862  32.730  27.265  1.00  0.00     0.261 C 
BRANCH   5   6
ATOM      6  O   UNL A   1      32.539  33.992  27.370  1.00  0.00    -0.460 OA
BRANCH   6   7
ATOM      7  C   UNL A   1      33.077  34.597  28.456  1.00  0.00     0.338 C 
ATOM      8  O   UNL A   1      32.609  35.686  28.789  1.00  0.00    -0.246 OA
BRANCH   7   9
ATOM      9  C   UNL A   1      34.207  34.057  29.288  1.00  0.00     0.060 A 
ATOM     10  C   UNL A   1      35.561  34.352  29.135  1.00  0.00     0.016 A 
ATOM     11  C   UNL A   1      33.855  33.196  30.351  1.00  0.00     0.016 A 
ATOM     12  C   UNL A   1      36.528  33.772  29.959  1.00  0.00     0.010 A 
ATOM     13  C   UNL A   1      34.817  32.628  31.199  1.00  0.00     0.010 A 
ATOM     14  C   UNL A   1      36.166  32.901  30.989  1.00  0.00    -0.014 A 
BRANCH  14  15
ATOM     15  C   UNL A   1      37.253  32.206  31.712  1.00  0.00     0.031 A 
ATOM     16  C   UNL A   1      38.168  31.325  30.920  1.00  0.00     0.074 A 
ATOM     17  C   UNL A   1      37.495  32.475  33.008  1.00  0.00     0.049 A 
ATOM     18  N   UNL A   1      39.264  30.722  31.294  1.00  0.00    -0.248 NA
ATOM     19  C   UNL A   1      37.784  31.074  29.522  1.00  0.00     0.031 C 
ATOM     20  C   UNL A   1      36.645  33.298  33.856  1.00  0.00     0.029 A 
ATOM     21  N   UNL A   1      38.556  32.152  33.816  1.00  0.00    -0.354 N 
ATOM     22  C   UNL A   1      39.658  29.963  30.203  1.00  0.00     0.074 A 
ATOM     23  C   UNL A   1      38.728  30.232  29.129  1.00  0.00     0.031 C 
ATOM     24  C   UNL A   1      37.280  33.541  35.014  1.00  0.00     0.029 A 
ATOM     25  C   UNL A   1      38.560  32.840  35.010  1.00  0.00     0.049 A 
ATOM     26  H   UNL A   1      39.246  31.494  33.568  1.00  0.00     0.167 HD
ATOM     27  C   UNL A   1      40.671  29.069  30.141  1.00  0.00     0.037 A 
ATOM     28  C   UNL A   1      39.511  32.907  35.962  1.00  0.00     0.037 A 
ATOM     29  C   UNL A   1      41.566  28.807  31.235  1.00  0.00     0.049 A 
ATOM     30  C   UNL A   1      40.707  31.996  35.816  1.00  0.00     0.074 A 
ATOM     31  C   UNL A   1      42.565  27.858  31.332  1.00  0.00     0.029 A 
ATOM     32  N   UNL A   1      41.560  29.512  32.432  1.00  0.00    -0.354 N 
ATOM     33  N   UNL A   1      41.052  31.240  34.801  1.00  0.00    -0.248 NA
ATOM     34  C   UNL A   1      41.610  31.896  36.972  1.00  0.00     0.031 C 
ATOM     35  C   UNL A   1      43.138  27.963  32.604  1.00  0.00     0.029 A 
ATOM     36  C   UNL A   1      42.534  29.013  33.278  1.00  0.00     0.049 A 
ATOM     37  H   UNL A   1      40.952  30.257  32.646  1.00  0.00     0.167 HD
ATOM     38  C   UNL A   1      42.173  30.535  35.215  1.00  0.00     0.074 A 
ATOM     39  C   UNL A   1      42.510  31.027  36.535  1.00  0.00     0.031 C 
ATOM     40  C   UNL A   1      42.832  29.527  34.590  1.00  0.00     0.037 A 
BRANCH  27  41
ATOM     41  C   UNL A   1      40.763  28.230  28.904  1.00  0.00     0.064 A 
ATOM     42  C   UNL A   1      41.534  28.606  27.796  1.00  0.00     0.173 A 
ATOM     43  C   UNL A   1      40.033  27.033  28.822  1.00  0.00     0.173 A 
ATOM     44  F   UNL A   1      42.220  29.758  27.810  1.00  0.00    -0.203 F 
ATOM     45  C   UNL A   1      41.555  27.823  26.643  1.00  0.00     0.198 A 
ATOM     46  C   UNL A   1      40.076  26.242  27.679  1.00  0.00     0.198 A 
ATOM     47  F   UNL A   1      39.268  26.637  29.851  1.00  0.00    -0.203 F 
ATOM     48  F   UNL A   1      42.256  28.226  25.574  1.00  0.00    -0.200 F 
ATOM     49  C   UNL A   1      40.832  26.640  26.587  1.00  0.00     0.200 A 
ATOM     50  F   UNL A   1      39.376  25.100  27.630  1.00  0.00    -0.200 F 
ATOM     51  F   UNL A   1      40.850  25.892  25.476  1.00  0.00    -0.200 F 
ENDBRANCH  27  41
BRANCH  28  52
ATOM     52  C   UNL A   1      39.401  33.833  37.129  1.00  0.00     0.064 A 
ATOM     53  C   UNL A   1      39.981  35.113  37.078  1.00  0.00     0.173 A 
ATOM     54  C   UNL A   1      38.775  33.464  38.329  1.00  0.00     0.173 A 
ATOM     55  F   UNL A   1      40.611  35.518  35.964  1.00  0.00    -0.203 F 
ATOM     56  C   UNL A   1      39.968  35.965  38.184  1.00  0.00     0.198 A 
ATOM     57  C   UNL A   1      38.723  34.334  39.420  1.00  0.00     0.198 A 
ATOM     58  F   UNL A   1      38.221  32.250  38.451  1.00  0.00    -0.203 F 
ATOM     59  F   UNL A   1      40.598  37.146  38.123  1.00  0.00    -0.200 F 
ATOM     60  C   UNL A   1      39.332  35.577  39.352  1.00  0.00     0.200 A 
ATOM     61  F   UNL A   1      38.102  33.956  40.545  1.00  0.00    -0.200 F 
ATOM     62  F   UNL A   1      39.327  36.391  40.416  1.00  0.00    -0.200 F 
ENDBRANCH  28  52
BRANCH  40  63
ATOM     63  C   UNL A   1      43.948  28.873  35.347  1.00  0.00     0.064 A 
ATOM     64  C   UNL A   1      45.274  29.313  35.204  1.00  0.00     0.173 A 
ATOM     65  C   UNL A   1      43.686  27.848  36.267  1.00  0.00     0.173 A 
ATOM     66  F   UNL A   1      45.572  30.286  34.330  1.00  0.00    -0.203 F 
ATOM     67  C   UNL A   1      46.301  28.732  35.941  1.00  0.00     0.198 A 
ATOM     68  C   UNL A   1      44.713  27.289  37.021  1.00  0.00     0.198 A 
ATOM     69  F   UNL A   1      42.433  27.402  36.444  1.00  0.00    -0.203 F 
ATOM     70  F   UNL A   1      47.565  29.140  35.760  1.00  0.00    -0.200 F 
ATOM     71  C   UNL A   1      46.019  27.726  36.854  1.00  0.00     0.200 A 
ATOM     72  F   UNL A   1      44.438  26.328  37.914  1.00  0.00    -0.200 F 
ATOM     73  F   UNL A   1      47.008  27.176  37.570  1.00  0.00    -0.200 F 
ENDBRANCH  40  63
ENDBRANCH  14  15
ENDBRANCH   7   9
ENDBRANCH   6   7
ENDBRANCH   5   6
ENDBRANCH   4   5
ENDBRANCH   3   4
ENDBRANCH   2   3
ENDBRANCH   1   2
BRANCH   1  74
ATOM     74  O   UNL A   1      31.099  27.485  26.560  1.00  0.00    -0.376 OA
BRANCH  74  75
ATOM     75  C   UNL A   1      31.389  26.094  26.419  1.00  0.00     0.202 C 
BRANCH  75  76
ATOM     76  C   UNL A   1      30.434  25.336  25.494  1.00  0.00     0.261 C 
BRANCH  76  77
ATOM     77  O   UNL A   1      30.900  23.995  25.289  1.00  0.00    -0.462 OA
BRANCH  77  78
ATOM     78  C   UNL A   1      31.057  23.580  24.002  1.00  0.00     0.328 C 
ATOM     79  O   UNL A   1      30.223  23.737  23.129  1.00  0.00    -0.250 OA
BRANCH  78  80
ATOM     80  C   UNL A   1      32.449  22.953  23.763  1.00  0.00     0.194 C 
BRANCH  80  81
ATOM     81  C   UNL A   1      33.397  23.829  22.919  1.00  0.00     0.072 C 
BRANCH  81  82
ATOM     82  C   UNL A   1      33.290  25.342  22.989  1.00  0.00    -0.045 A 
ATOM     83  C   UNL A   1      32.369  26.049  22.204  1.00  0.00     0.007 A 
ATOM     84  C   UNL A   1      34.025  26.054  23.948  1.00  0.00     0.007 A 
ATOM     85  C   UNL A   1      32.129  27.409  22.419  1.00  0.00     0.046 A 
ATOM     86  C   UNL A   1      33.799  27.415  24.160  1.00  0.00     0.046 A 
ATOM     87  C   UNL A   1      32.833  28.075  23.413  1.00  0.00     0.115 A 
BRANCH  87  88
ATOM     88  O   UNL A   1      32.588  29.382  23.704  1.00  0.00    -0.508 OA
ATOM     89  H   UNL A   1      32.297  29.966  23.031  1.00  0.00     0.293 HD
ENDBRANCH  87  88
ENDBRANCH  81  82
ENDBRANCH  80  81
BRANCH  80  90
ATOM     90  N   UNL A   1      33.117  22.544  25.020  1.00  0.00    -0.371 N 
ATOM     91  H   UNL A   1      32.850  22.943  25.878  1.00  0.00     0.161 HD
BRANCH  90  92
ATOM     92  C   UNL A   1      34.142  21.573  24.973  1.00  0.00     0.054 A 
ATOM     93  C   UNL A   1      33.852  20.203  24.710  1.00  0.00     0.024 A 
ATOM     94  C   UNL A   1      35.489  21.963  25.225  1.00  0.00     0.024 A 
ATOM     95  C   UNL A   1      32.555  19.683  24.466  1.00  0.00     0.012 A 
ATOM     96  C   UNL A   1      34.942  19.311  24.657  1.00  0.00     0.073 A 
ATOM     97  C   UNL A   1      36.479  20.966  25.146  1.00  0.00     0.073 A 
ATOM     98  C   UNL A   1      35.891  23.279  25.570  1.00  0.00     0.012 A 
ATOM     99  C   UNL A   1      32.345  18.328  24.200  1.00  0.00     0.001 A 
ATOM    100  C   UNL A   1      34.712  17.969  24.377  1.00  0.00     0.029 A 
ATOM    101  N   UNL A   1      36.209  19.689  24.855  1.00  0.00    -0.248 NA
ATOM    102  C   UNL A   1      37.803  21.307  25.388  1.00  0.00     0.029 A 
ATOM    103  C   UNL A   1      37.222  23.593  25.836  1.00  0.00     0.001 A 
ATOM    104  C   UNL A   1      33.430  17.467  24.154  1.00  0.00     0.002 A 
ATOM    105  C   UNL A   1      38.185  22.604  25.736  1.00  0.00     0.002 A 
ENDBRANCH  90  92
ENDBRANCH  80  90
ENDBRANCH  78  80
ENDBRANCH  77  78
ENDBRANCH  76  77
ENDBRANCH  75  76
ENDBRANCH  74  75
ENDBRANCH   1  74
TORSDOF 22
ENDMDL
MODEL 3
REMARK VINA RESULT:     -11.5      1.804      7.606
REMARK SMILES O=C(OCCOCCOCCOC(=O)[C@@H](Cc1ccc(O)cc1)Nc1c2ccccc2nc2ccccc12)c1ccc(-c2c3nc(c(-c4c(F)c(F)c(F)c(F)c4F)c4ccc([nH]4)c(-c4c(F)c(F)c(F)c(F)c4F)c4nc(c(-c5c(F)c(F)c(F)c(F)c5F)c5ccc2[nH]5)C=C4)C=C3)cc1
REMARK SMILES IDX 8 1 7 2 6 3 5 4 4 5 3 6 2 7 1 8 39 9 40 10 101 11 41 12
REMARK SMILES IDX 100 13 42 14 43 15 44 16 94 17 45 18 99 19 93 20 95 21 46 22
REMARK SMILES IDX 98 23 92 24 91 25 47 27 79 28 59 29 78 30 60 31 63 32 77 33
REMARK SMILES IDX 96 34 61 35 62 36 76 38 97 39 64 40 48 41 49 42 57 43 50 44
REMARK SMILES IDX 51 45 55 46 58 47 52 48 53 49 56 50 54 51 80 52 81 53 89 54
REMARK SMILES IDX 82 55 83 56 87 57 90 58 84 59 85 60 88 61 86 62 65 63 66 64
REMARK SMILES IDX 74 65 67 66 68 67 72 68 75 69 69 70 70 71 73 72 71 73 9 74
REMARK SMILES IDX 10 75 11 76 12 77 13 78 14 79 15 80 16 81 17 82 18 83 23 84
REMARK SMILES IDX 19 85 22 86 20 87 21 88 24 90 25 92 26 93 38 94 27 95 31 96
REMARK SMILES IDX 33 97 37 98 28 99 30 100 32 101 34 102 36 103 29 104 35 105
REMARK H PARENT 95 26 63 37 21 89 24 91
REMARK Flexibility Score: inf
ROOT
ATOM      1  C   UNL A   1      31.752  28.203  27.657  1.00  0.00     0.188 C 
ENDROOT
BRANCH   1   2
ATOM      2  C   UNL A   1      32.779  29.123  26.993  1.00  0.00     0.188 C 
BRANCH   2   3
ATOM      3  O   UNL A   1      32.169  30.346  26.549  1.00  0.00    -0.376 OA
BRANCH   3   4
ATOM      4  C   UNL A   1      32.730  31.508  27.168  1.00  0.00     0.202 C 
BRANCH   4   5
ATOM      5  C   UNL A   1      31.792  32.721  27.228  1.00  0.00     0.261 C 
BRANCH   5   6
ATOM      6  O   UNL A   1      32.496  33.967  27.338  1.00  0.00    -0.460 OA
BRANCH   6   7
ATOM      7  C   UNL A   1      33.036  34.563  28.428  1.00  0.00     0.338 C 
ATOM      8  O   UNL A   1      32.569  35.649  28.771  1.00  0.00    -0.246 OA
BRANCH   7   9
ATOM      9  C   UNL A   1      34.168  34.015  29.253  1.00  0.00     0.060 A 
ATOM     10  C   UNL A   1      35.524  34.287  29.079  1.00  0.00     0.016 A 
ATOM     11  C   UNL A   1      33.815  33.174  30.331  1.00  0.00     0.016 A 
ATOM     12  C   UNL A   1      36.492  33.701  29.899  1.00  0.00     0.010 A 
ATOM     13  C   UNL A   1      34.779  32.601  31.174  1.00  0.00     0.010 A 
ATOM     14  C   UNL A   1      36.130  32.850  30.944  1.00  0.00    -0.014 A 
BRANCH  14  15
ATOM     15  C   UNL A   1      37.214  32.147  31.662  1.00  0.00     0.031 A 
ATOM     16  C   UNL A   1      38.122  31.263  30.866  1.00  0.00     0.074 A 
ATOM     17  C   UNL A   1      37.461  32.411  32.958  1.00  0.00     0.049 A 
ATOM     18  N   UNL A   1      39.216  30.653  31.236  1.00  0.00    -0.248 NA
ATOM     19  C   UNL A   1      37.734  31.018  29.467  1.00  0.00     0.031 C 
ATOM     20  C   UNL A   1      36.617  33.235  33.811  1.00  0.00     0.029 A 
ATOM     21  N   UNL A   1      38.522  32.079  33.763  1.00  0.00    -0.354 N 
ATOM     22  C   UNL A   1      39.603  29.895  30.141  1.00  0.00     0.074 A 
ATOM     23  C   UNL A   1      38.672  30.172  29.071  1.00  0.00     0.031 C 
ATOM     24  C   UNL A   1      37.256  33.472  34.969  1.00  0.00     0.029 A 
ATOM     25  C   UNL A   1      38.532  32.764  34.959  1.00  0.00     0.049 A 
ATOM     26  H   UNL A   1      39.207  31.419  33.512  1.00  0.00     0.167 HD
ATOM     27  C   UNL A   1      40.611  28.995  30.074  1.00  0.00     0.037 A 
ATOM     28  C   UNL A   1      39.486  32.823  35.910  1.00  0.00     0.037 A 
ATOM     29  C   UNL A   1      41.507  28.726  31.166  1.00  0.00     0.049 A 
ATOM     30  C   UNL A   1      40.676  31.905  35.757  1.00  0.00     0.074 A 
ATOM     31  C   UNL A   1      42.501  27.771  31.257  1.00  0.00     0.029 A 
ATOM     32  N   UNL A   1      41.508  29.427  32.364  1.00  0.00    -0.354 N 
ATOM     33  N   UNL A   1      41.015  31.150  34.740  1.00  0.00    -0.248 NA
ATOM     34  C   UNL A   1      41.581  31.798  36.911  1.00  0.00     0.031 C 
ATOM     35  C   UNL A   1      43.078  27.869  32.529  1.00  0.00     0.029 A 
ATOM     36  C   UNL A   1      42.481  28.920  33.207  1.00  0.00     0.049 A 
ATOM     37  H   UNL A   1      40.904  30.174  32.582  1.00  0.00     0.167 HD
ATOM     38  C   UNL A   1      42.133  30.438  35.149  1.00  0.00     0.074 A 
ATOM     39  C   UNL A   1      42.475  30.924  36.470  1.00  0.00     0.031 C 
ATOM     40  C   UNL A   1      42.785  29.429  34.520  1.00  0.00     0.037 A 
BRANCH  27  41
ATOM     41  C   UNL A   1      40.696  28.160  28.834  1.00  0.00     0.064 A 
ATOM     42  C   UNL A   1      40.011  26.945  28.697  1.00  0.00     0.173 A 
ATOM     43  C   UNL A   1      41.512  28.579  27.771  1.00  0.00     0.173 A 
ATOM     44  F   UNL A   1      39.249  26.483  29.700  1.00  0.00    -0.203 F 
ATOM     45  C   UNL A   1      40.156  26.170  27.548  1.00  0.00     0.198 A 
ATOM     46  C   UNL A   1      41.634  27.815  26.615  1.00  0.00     0.198 A 
ATOM     47  F   UNL A   1      42.200  29.728  27.860  1.00  0.00    -0.203 F 
ATOM     48  F   UNL A   1      39.534  24.987  27.457  1.00  0.00    -0.200 F 
ATOM     49  C   UNL A   1      40.961  26.609  26.506  1.00  0.00     0.200 A 
ATOM     50  F   UNL A   1      42.413  28.243  25.611  1.00  0.00    -0.200 F 
ATOM     51  F   UNL A   1      41.101  25.860  25.404  1.00  0.00    -0.200 F 
ENDBRANCH  27  41
BRANCH  28  52
ATOM     52  C   UNL A   1      39.384  33.746  37.080  1.00  0.00     0.064 A 
ATOM     53  C   UNL A   1      38.709  33.343  38.246  1.00  0.00     0.173 A 
ATOM     54  C   UNL A   1      39.896  35.051  37.058  1.00  0.00     0.173 A 
ATOM     55  F   UNL A   1      38.180  32.112  38.322  1.00  0.00    -0.203 F 
ATOM     56  C   UNL A   1      38.524  34.216  39.320  1.00  0.00     0.198 A 
ATOM     57  C   UNL A   1      39.751  35.908  38.150  1.00  0.00     0.198 A 
ATOM     58  F   UNL A   1      40.532  35.504  35.968  1.00  0.00    -0.203 F 
ATOM     59  F   UNL A   1      37.810  33.823  40.383  1.00  0.00    -0.200 F 
ATOM     60  C   UNL A   1      39.052  35.497  39.273  1.00  0.00     0.200 A 
ATOM     61  F   UNL A   1      40.267  37.143  38.101  1.00  0.00    -0.200 F 
ATOM     62  F   UNL A   1      38.867  36.337  40.300  1.00  0.00    -0.200 F 
ENDBRANCH  28  52
BRANCH  40  63
ATOM     63  C   UNL A   1      43.898  28.766  35.272  1.00  0.00     0.064 A 
ATOM     64  C   UNL A   1      43.646  27.691  36.139  1.00  0.00     0.173 A 
ATOM     65  C   UNL A   1      45.229  29.161  35.080  1.00  0.00     0.173 A 
ATOM     66  F   UNL A   1      42.387  27.284  36.361  1.00  0.00    -0.203 F 
ATOM     67  C   UNL A   1      44.686  27.050  36.804  1.00  0.00     0.198 A 
ATOM     68  C   UNL A   1      46.269  28.499  35.725  1.00  0.00     0.198 A 
ATOM     69  F   UNL A   1      45.520  30.178  34.253  1.00  0.00    -0.203 F 
ATOM     70  F   UNL A   1      44.419  26.052  37.657  1.00  0.00    -0.200 F 
ATOM     71  C   UNL A   1      45.998  27.449  36.590  1.00  0.00     0.200 A 
ATOM     72  F   UNL A   1      47.537  28.876  35.506  1.00  0.00    -0.200 F 
ATOM     73  F   UNL A   1      46.999  26.824  37.222  1.00  0.00    -0.200 F 
ENDBRANCH  40  63
ENDBRANCH  14  15
ENDBRANCH   7   9
ENDBRANCH   6   7
ENDBRANCH   5   6
ENDBRANCH   4   5
ENDBRANCH   3   4
ENDBRANCH   2   3
ENDBRANCH   1   2
BRANCH   1  74
ATOM     74  O   UNL A   1      30.946  27.459  26.743  1.00  0.00    -0.376 OA
BRANCH  74  75
ATOM     75  C   UNL A   1      31.335  26.114  26.466  1.00  0.00     0.202 C 
BRANCH  75  76
ATOM     76  C   UNL A   1      30.332  25.323  25.623  1.00  0.00     0.261 C 
BRANCH  76  77
ATOM     77  O   UNL A   1      30.848  24.016  25.333  1.00  0.00    -0.462 OA
BRANCH  77  78
ATOM     78  C   UNL A   1      31.043  23.700  24.024  1.00  0.00     0.328 C 
ATOM     79  O   UNL A   1      30.277  24.007  23.127  1.00  0.00    -0.250 OA
BRANCH  78  80
ATOM     80  C   UNL A   1      32.387  22.973  23.799  1.00  0.00     0.194 C 
BRANCH  80  81
ATOM     81  C   UNL A   1      33.427  23.800  23.015  1.00  0.00     0.072 C 
BRANCH  81  82
ATOM     82  C   UNL A   1      33.423  25.314  23.122  1.00  0.00    -0.045 A 
ATOM     83  C   UNL A   1      33.838  25.968  24.290  1.00  0.00     0.007 A 
ATOM     84  C   UNL A   1      33.127  26.096  21.995  1.00  0.00     0.007 A 
ATOM     85  C   UNL A   1      34.029  27.353  24.314  1.00  0.00     0.046 A 
ATOM     86  C   UNL A   1      33.305  27.481  22.016  1.00  0.00     0.046 A 
ATOM     87  C   UNL A   1      33.781  28.094  23.167  1.00  0.00     0.115 A 
BRANCH  87  88
ATOM     88  O   UNL A   1      34.015  29.435  23.122  1.00  0.00    -0.508 OA
ATOM     89  H   UNL A   1      34.875  29.754  22.934  1.00  0.00     0.293 HD
ENDBRANCH  87  88
ENDBRANCH  81  82
ENDBRANCH  80  81
BRANCH  80  90
ATOM     90  N   UNL A   1      32.981  22.465  25.057  1.00  0.00    -0.371 N 
ATOM     91  H   UNL A   1      32.624  22.752  25.927  1.00  0.00     0.161 HD
BRANCH  90  92
ATOM     92  C   UNL A   1      34.068  21.565  24.993  1.00  0.00     0.054 A 
ATOM     93  C   UNL A   1      35.405  22.001  25.228  1.00  0.00     0.024 A 
ATOM     94  C   UNL A   1      33.831  20.201  24.656  1.00  0.00     0.024 A 
ATOM     95  C   UNL A   1      35.777  23.332  25.549  1.00  0.00     0.012 A 
ATOM     96  C   UNL A   1      36.422  21.027  25.168  1.00  0.00     0.073 A 
ATOM     97  C   UNL A   1      34.941  19.338  24.626  1.00  0.00     0.073 A 
ATOM     98  C   UNL A   1      32.558  19.667  24.329  1.00  0.00     0.012 A 
ATOM     99  C   UNL A   1      37.108  23.687  25.781  1.00  0.00     0.001 A 
ATOM    100  C   UNL A   1      37.737  21.399  25.416  1.00  0.00     0.029 A 
ATOM    101  N   UNL A   1      36.189  19.740  24.890  1.00  0.00    -0.248 NA
ATOM    102  C   UNL A   1      34.750  18.001  24.298  1.00  0.00     0.029 A 
ATOM    103  C   UNL A   1      32.394  18.329  23.976  1.00  0.00     0.001 A 
ATOM    104  C   UNL A   1      38.092  22.714  25.715  1.00  0.00     0.002 A 
ATOM    105  C   UNL A   1      33.494  17.489  23.969  1.00  0.00     0.002 A 
ENDBRANCH  90  92
ENDBRANCH  80  90
ENDBRANCH  78  80
ENDBRANCH  77  78
ENDBRANCH  76  77
ENDBRANCH  75  76
ENDBRANCH  74  75
ENDBRANCH   1  74
TORSDOF 22
ENDMDL
