MODEL 1
REMARK VINA RESULT:     -10.9      0.000      0.000
REMARK SMILES CC1(C)C[C@@H](Nc2ccc(Cl)c(C(=O)OCCOCCOCCOC(=O)c3ccc(-c4c5nc(c(-c6c(F)c(F)c(F)c(F)c6F)c6ccc([nH]6)c(-c6c(F)c(F)c(F)c(F)c6F)c6nc(c(-c7c(F)c(F)c(F)c(F)c7F)c7ccc4[nH]7)C=C6)C=C5)cc3)c2)C(C)(C)O1
REMARK SMILES IDX 19 1 18 2 17 3 16 4 15 5 13 6 14 7 12 8 7 9 8 10 90 11 9 12
REMARK SMILES IDX 10 13 11 14 6 15 5 17 1 18 2 19 3 20 4 21 94 22 91 23 92 24
REMARK SMILES IDX 93 25 20 26 21 27 22 28 23 29 24 30 25 31 26 32 27 33 28 34
REMARK SMILES IDX 89 35 29 36 88 37 30 38 31 39 32 40 82 41 33 42 87 43 81 44
REMARK SMILES IDX 83 45 34 46 86 47 80 48 79 49 35 51 67 52 47 53 66 54 48 55
REMARK SMILES IDX 51 56 65 57 84 58 49 59 50 60 64 62 85 63 52 64 36 65 37 66
REMARK SMILES IDX 45 67 38 68 39 69 43 70 46 71 40 72 41 73 44 74 42 75 68 76
REMARK SMILES IDX 69 77 77 78 70 79 71 80 75 81 78 82 72 83 73 84 76 85 74 86
REMARK SMILES IDX 53 87 54 88 62 89 55 90 56 91 60 92 63 93 57 94 58 95 61 96
REMARK SMILES IDX 59 97
REMARK H PARENT 6 16 83 50 51 61
REMARK Flexibility Score: inf
ROOT
ATOM      1  C   UNL A   1      37.767  23.246  25.584  1.00  0.00     0.188 C 
ENDROOT
BRANCH   1   2
ATOM      2  O   UNL A   1      36.422  23.374  26.035  1.00  0.00    -0.376 OA
BRANCH   2   3
ATOM      3  C   UNL A   1      35.407  23.738  25.103  1.00  0.00     0.202 C 
BRANCH   3   4
ATOM      4  C   UNL A   1      35.057  22.733  24.001  1.00  0.00     0.261 C 
BRANCH   4   5
ATOM      5  O   UNL A   1      34.206  23.284  22.982  1.00  0.00    -0.460 OA
BRANCH   5   6
ATOM      6  C   UNL A   1      32.953  22.776  22.910  1.00  0.00     0.339 C 
ATOM      7  O   UNL A   1      32.556  21.907  22.153  1.00  0.00    -0.246 OA
BRANCH   6   8
ATOM      8  C   UNL A   1      32.142  23.253  24.047  1.00  0.00     0.080 A 
ATOM      9  C   UNL A   1      31.074  25.189  25.085  1.00  0.00     0.035 A 
ATOM     10  C   UNL A   1      30.686  24.370  26.147  1.00  0.00     0.027 A 
ATOM     11  C   UNL A   1      31.818  24.623  24.047  1.00  0.00     0.043 A 
ATOM     12  C   UNL A   1      30.986  23.002  26.146  1.00  0.00     0.023 A 
ATOM     13  C   UNL A   1      31.716  22.437  25.096  1.00  0.00     0.055 A 
ATOM     14  Cl  UNL A   1      32.084  20.755  25.189  1.00  0.00    -0.083 Cl
BRANCH   9  15
ATOM     15  N   UNL A   1      30.814  26.551  25.093  1.00  0.00    -0.379 N 
ATOM     16  H   UNL A   1      29.914  26.894  24.887  1.00  0.00     0.160 HD
BRANCH  15  17
ATOM     17  C   UNL A   1      31.911  27.464  25.417  1.00  0.00     0.113 C 
ATOM     18  C   UNL A   1      32.030  30.923  26.765  1.00  0.00     0.042 C 
ATOM     19  C   UNL A   1      32.554  29.566  26.305  1.00  0.00     0.065 C 
ATOM     20  C   UNL A   1      33.882  29.260  27.007  1.00  0.00     0.042 C 
ATOM     21  C   UNL A   1      31.520  28.456  26.495  1.00  0.00     0.062 C 
ATOM     22  O   UNL A   1      32.816  29.625  24.889  1.00  0.00    -0.367 OA
ATOM     23  C   UNL A   1      32.345  28.406  24.264  1.00  0.00     0.083 C 
ATOM     24  C   UNL A   1      31.222  28.831  23.311  1.00  0.00     0.044 C 
ATOM     25  C   UNL A   1      33.499  27.812  23.459  1.00  0.00     0.044 C 
ENDBRANCH  15  17
ENDBRANCH   9  15
ENDBRANCH   6   8
ENDBRANCH   5   6
ENDBRANCH   4   5
ENDBRANCH   3   4
ENDBRANCH   2   3
ENDBRANCH   1   2
BRANCH   1  26
ATOM     26  C   UNL A   1      38.528  21.923  25.815  1.00  0.00     0.188 C 
BRANCH  26  27
ATOM     27  O   UNL A   1      38.108  20.868  24.970  1.00  0.00    -0.376 OA
BRANCH  27  28
ATOM     28  C   UNL A   1      38.676  19.590  25.214  1.00  0.00     0.202 C 
BRANCH  28  29
ATOM     29  C   UNL A   1      39.916  19.554  26.119  1.00  0.00     0.261 C 
BRANCH  29  30
ATOM     30  O   UNL A   1      41.046  18.830  25.602  1.00  0.00    -0.460 OA
BRANCH  30  31
ATOM     31  C   UNL A   1      42.226  18.999  26.237  1.00  0.00     0.338 C 
ATOM     32  O   UNL A   1      43.068  18.152  26.462  1.00  0.00    -0.246 OA
BRANCH  31  33
ATOM     33  C   UNL A   1      42.417  20.449  26.466  1.00  0.00     0.060 A 
ATOM     34  C   UNL A   1      42.592  21.285  25.358  1.00  0.00     0.016 A 
ATOM     35  C   UNL A   1      42.431  20.981  27.760  1.00  0.00     0.016 A 
ATOM     36  C   UNL A   1      42.820  22.650  25.543  1.00  0.00     0.010 A 
ATOM     37  C   UNL A   1      42.671  22.350  27.944  1.00  0.00     0.010 A 
ATOM     38  C   UNL A   1      42.901  23.184  26.837  1.00  0.00    -0.014 A 
BRANCH  38  39
ATOM     39  C   UNL A   1      43.379  24.579  27.015  1.00  0.00     0.031 A 
ATOM     40  C   UNL A   1      42.440  25.602  27.593  1.00  0.00     0.074 A 
ATOM     41  C   UNL A   1      44.646  24.924  26.725  1.00  0.00     0.049 A 
ATOM     42  N   UNL A   1      42.671  26.844  27.942  1.00  0.00    -0.248 NA
ATOM     43  C   UNL A   1      41.052  25.166  27.803  1.00  0.00     0.031 C 
ATOM     44  C   UNL A   1      45.656  24.031  26.165  1.00  0.00     0.029 A 
ATOM     45  N   UNL A   1      45.300  26.122  26.878  1.00  0.00    -0.354 N 
ATOM     46  C   UNL A   1      41.463  27.332  28.422  1.00  0.00     0.074 A 
ATOM     47  C   UNL A   1      40.491  26.268  28.277  1.00  0.00     0.031 C 
ATOM     48  C   UNL A   1      46.809  24.708  26.037  1.00  0.00     0.029 A 
ATOM     49  C   UNL A   1      46.618  26.081  26.499  1.00  0.00     0.049 A 
ATOM     50  H   UNL A   1      44.864  26.933  27.227  1.00  0.00     0.167 HD
ATOM     51  C   UNL A   1      41.187  28.549  28.949  1.00  0.00     0.037 A 
ATOM     52  C   UNL A   1      47.563  27.041  26.532  1.00  0.00     0.037 A 
ATOM     53  C   UNL A   1      42.146  29.615  29.078  1.00  0.00     0.049 A 
ATOM     54  C   UNL A   1      47.221  28.406  27.073  1.00  0.00     0.074 A 
ATOM     55  C   UNL A   1      41.971  30.876  29.623  1.00  0.00     0.029 A 
ATOM     56  N   UNL A   1      43.461  29.552  28.640  1.00  0.00    -0.354 N 
ATOM     57  N   UNL A   1      46.094  28.840  27.583  1.00  0.00    -0.248 NA
ATOM     58  C   UNL A   1      48.292  29.413  27.048  1.00  0.00     0.031 C 
ATOM     59  C   UNL A   1      43.163  31.592  29.465  1.00  0.00     0.029 A 
ATOM     60  C   UNL A   1      44.100  30.760  28.875  1.00  0.00     0.049 A 
ATOM     61  H   UNL A   1      43.878  28.763  28.223  1.00  0.00     0.167 HD
ATOM     62  C   UNL A   1      46.328  30.154  27.970  1.00  0.00     0.074 A 
ATOM     63  C   UNL A   1      47.709  30.443  27.646  1.00  0.00     0.031 C 
ATOM     64  C   UNL A   1      45.477  31.038  28.549  1.00  0.00     0.037 A 
BRANCH  51  65
ATOM     65  C   UNL A   1      39.775  28.795  29.397  1.00  0.00     0.064 A 
ATOM     66  C   UNL A   1      38.817  29.360  28.540  1.00  0.00     0.173 A 
ATOM     67  C   UNL A   1      39.374  28.467  30.700  1.00  0.00     0.173 A 
ATOM     68  F   UNL A   1      39.152  29.705  27.287  1.00  0.00    -0.203 F 
ATOM     69  C   UNL A   1      37.524  29.624  28.984  1.00  0.00     0.198 A 
ATOM     70  C   UNL A   1      38.072  28.704  31.132  1.00  0.00     0.198 A 
ATOM     71  F   UNL A   1      40.248  27.921  31.559  1.00  0.00    -0.203 F 
ATOM     72  F   UNL A   1      36.645  30.222  28.168  1.00  0.00    -0.200 F 
ATOM     73  C   UNL A   1      37.151  29.292  30.278  1.00  0.00     0.200 A 
ATOM     74  F   UNL A   1      37.710  28.372  32.379  1.00  0.00    -0.200 F 
ATOM     75  F   UNL A   1      35.909  29.551  30.706  1.00  0.00    -0.200 F 
ENDBRANCH  51  65
BRANCH  52  76
ATOM     76  C   UNL A   1      48.944  26.735  26.077  1.00  0.00     0.064 A 
ATOM     77  C   UNL A   1      49.878  26.159  26.949  1.00  0.00     0.173 A 
ATOM     78  C   UNL A   1      49.360  27.016  24.768  1.00  0.00     0.173 A 
ATOM     79  F   UNL A   1      49.533  25.900  28.219  1.00  0.00    -0.203 F 
ATOM     80  C   UNL A   1      51.177  25.880  26.531  1.00  0.00     0.198 A 
ATOM     81  C   UNL A   1      50.652  26.713  24.343  1.00  0.00     0.198 A 
ATOM     82  F   UNL A   1      48.506  27.574  23.897  1.00  0.00    -0.203 F 
ATOM     83  F   UNL A   1      52.061  25.363  27.396  1.00  0.00    -0.200 F 
ATOM     84  C   UNL A   1      51.561  26.149  25.226  1.00  0.00     0.200 A 
ATOM     85  F   UNL A   1      51.017  26.969  23.080  1.00  0.00    -0.200 F 
ATOM     86  F   UNL A   1      52.808  25.875  24.822  1.00  0.00    -0.200 F 
ENDBRANCH  52  76
BRANCH  64  87
ATOM     87  C   UNL A   1      46.026  32.391  28.906  1.00  0.00     0.064 A 
ATOM     88  C   UNL A   1      46.641  32.640  30.142  1.00  0.00     0.173 A 
ATOM     89  C   UNL A   1      45.951  33.450  27.987  1.00  0.00     0.173 A 
ATOM     90  F   UNL A   1      46.729  31.666  31.061  1.00  0.00    -0.203 F 
ATOM     91  C   UNL A   1      47.126  33.907  30.460  1.00  0.00     0.198 A 
ATOM     92  C   UNL A   1      46.466  34.707  28.297  1.00  0.00     0.198 A 
ATOM     93  F   UNL A   1      45.383  33.266  26.787  1.00  0.00    -0.203 F 
ATOM     94  F   UNL A   1      47.655  34.135  31.671  1.00  0.00    -0.200 F 
ATOM     95  C   UNL A   1      47.043  34.937  29.536  1.00  0.00     0.200 A 
ATOM     96  F   UNL A   1      46.398  35.697  27.396  1.00  0.00    -0.200 F 
ATOM     97  F   UNL A   1      47.510  36.155  29.844  1.00  0.00    -0.200 F 
ENDBRANCH  64  87
ENDBRANCH  38  39
ENDBRANCH  31  33
ENDBRANCH  30  31
ENDBRANCH  29  30
ENDBRANCH  28  29
ENDBRANCH  27  28
ENDBRANCH  26  27
ENDBRANCH   1  26
TORSDOF 19
ENDMDL
MODEL 2
REMARK VINA RESULT:     -10.9      4.559      9.042
REMARK SMILES CC1(C)C[C@@H](Nc2ccc(Cl)c(C(=O)OCCOCCOCCOC(=O)c3ccc(-c4c5nc(c(-c6c(F)c(F)c(F)c(F)c6F)c6ccc([nH]6)c(-c6c(F)c(F)c(F)c(F)c6F)c6nc(c(-c7c(F)c(F)c(F)c(F)c7F)c7ccc4[nH]7)C=C6)C=C5)cc3)c2)C(C)(C)O1
REMARK SMILES IDX 19 1 18 2 17 3 16 4 15 5 13 6 14 7 12 8 7 9 8 10 90 11 9 12
REMARK SMILES IDX 10 13 11 14 6 15 5 17 1 18 2 19 3 20 4 21 94 22 91 23 92 24
REMARK SMILES IDX 93 25 20 26 21 27 22 28 23 29 24 30 25 31 26 32 27 33 28 34
REMARK SMILES IDX 89 35 29 36 88 37 30 38 31 39 32 40 82 41 33 42 87 43 81 44
REMARK SMILES IDX 83 45 34 46 86 47 80 48 79 49 35 51 67 52 47 53 66 54 48 55
REMARK SMILES IDX 51 56 65 57 84 58 49 59 50 60 64 62 85 63 52 64 36 65 37 66
REMARK SMILES IDX 45 67 38 68 39 69 43 70 46 71 40 72 41 73 44 74 42 75 68 76
REMARK SMILES IDX 69 77 77 78 70 79 71 80 75 81 78 82 72 83 73 84 76 85 74 86
REMARK SMILES IDX 53 87 54 88 62 89 55 90 56 91 60 92 63 93 57 94 58 95 61 96
REMARK SMILES IDX 59 97
REMARK H PARENT 6 16 83 50 51 61
REMARK Flexibility Score: inf
ROOT
ATOM      1  C   UNL A   1      41.426  21.426  26.975  1.00  0.00     0.188 C 
ENDROOT
BRANCH   1   2
ATOM      2  O   UNL A   1      40.143  20.960  26.567  1.00  0.00    -0.376 OA
BRANCH   2   3
ATOM      3  C   UNL A   1      39.217  21.880  25.998  1.00  0.00     0.202 C 
BRANCH   3   4
ATOM      4  C   UNL A   1      37.937  21.311  25.377  1.00  0.00     0.261 C 
BRANCH   4   5
ATOM      5  O   UNL A   1      37.152  22.301  24.691  1.00  0.00    -0.460 OA
BRANCH   5   6
ATOM      6  C   UNL A   1      36.098  22.806  25.374  1.00  0.00     0.339 C 
ATOM      7  O   UNL A   1      36.123  23.354  26.463  1.00  0.00    -0.246 OA
BRANCH   6   8
ATOM      8  C   UNL A   1      34.894  22.820  24.519  1.00  0.00     0.080 A 
ATOM      9  C   UNL A   1      33.413  24.200  23.154  1.00  0.00     0.035 A 
ATOM     10  C   UNL A   1      32.610  23.078  22.940  1.00  0.00     0.027 A 
ATOM     11  C   UNL A   1      34.545  24.064  23.960  1.00  0.00     0.043 A 
ATOM     12  C   UNL A   1      32.961  21.832  23.475  1.00  0.00     0.023 A 
ATOM     13  C   UNL A   1      34.105  21.697  24.268  1.00  0.00     0.055 A 
ATOM     14  Cl  UNL A   1      34.445  20.141  24.928  1.00  0.00    -0.083 Cl
BRANCH   9  15
ATOM     15  N   UNL A   1      33.055  25.446  22.659  1.00  0.00    -0.379 N 
ATOM     16  H   UNL A   1      33.583  25.876  21.947  1.00  0.00     0.160 HD
BRANCH  15  17
ATOM     17  C   UNL A   1      31.874  26.102  23.222  1.00  0.00     0.113 C 
ATOM     18  C   UNL A   1      30.198  29.346  22.539  1.00  0.00     0.042 C 
ATOM     19  C   UNL A   1      30.403  27.958  23.141  1.00  0.00     0.065 C 
ATOM     20  C   UNL A   1      29.043  27.346  23.500  1.00  0.00     0.042 C 
ATOM     21  C   UNL A   1      31.232  27.053  22.230  1.00  0.00     0.062 C 
ATOM     22  O   UNL A   1      31.155  28.089  24.362  1.00  0.00    -0.367 OA
ATOM     23  C   UNL A   1      32.154  27.040  24.424  1.00  0.00     0.083 C 
ATOM     24  C   UNL A   1      33.511  27.751  24.396  1.00  0.00     0.044 C 
ATOM     25  C   UNL A   1      31.988  26.309  25.755  1.00  0.00     0.044 C 
ENDBRANCH  15  17
ENDBRANCH   9  15
ENDBRANCH   6   8
ENDBRANCH   5   6
ENDBRANCH   4   5
ENDBRANCH   3   4
ENDBRANCH   2   3
ENDBRANCH   1   2
BRANCH   1  26
ATOM     26  C   UNL A   1      42.628  21.294  26.015  1.00  0.00     0.188 C 
BRANCH  26  27
ATOM     27  O   UNL A   1      42.654  22.275  24.995  1.00  0.00    -0.376 OA
BRANCH  27  28
ATOM     28  C   UNL A   1      43.906  22.514  24.370  1.00  0.00     0.202 C 
BRANCH  28  29
ATOM     29  C   UNL A   1      45.154  22.337  25.248  1.00  0.00     0.261 C 
BRANCH  29  30
ATOM     30  O   UNL A   1      45.432  23.411  26.163  1.00  0.00    -0.460 OA
BRANCH  30  31
ATOM     31  C   UNL A   1      45.267  24.670  25.700  1.00  0.00     0.338 C 
ATOM     32  O   UNL A   1      45.630  25.112  24.628  1.00  0.00    -0.246 OA
BRANCH  31  33
ATOM     33  C   UNL A   1      44.396  25.395  26.652  1.00  0.00     0.060 A 
ATOM     34  C   UNL A   1      44.634  26.757  26.872  1.00  0.00     0.016 A 
ATOM     35  C   UNL A   1      43.360  24.742  27.328  1.00  0.00     0.016 A 
ATOM     36  C   UNL A   1      43.861  27.458  27.799  1.00  0.00     0.010 A 
ATOM     37  C   UNL A   1      42.593  25.446  28.265  1.00  0.00     0.010 A 
ATOM     38  C   UNL A   1      42.862  26.799  28.530  1.00  0.00    -0.014 A 
BRANCH  38  39
ATOM     39  C   UNL A   1      42.219  27.500  29.671  1.00  0.00     0.031 A 
ATOM     40  C   UNL A   1      42.882  27.452  31.021  1.00  0.00     0.074 A 
ATOM     41  C   UNL A   1      41.097  28.221  29.504  1.00  0.00     0.049 A 
ATOM     42  N   UNL A   1      42.567  28.079  32.127  1.00  0.00    -0.248 NA
ATOM     43  C   UNL A   1      44.057  26.576  31.138  1.00  0.00     0.031 C 
ATOM     44  C   UNL A   1      40.359  28.353  28.251  1.00  0.00     0.029 A 
ATOM     45  N   UNL A   1      40.391  28.990  30.396  1.00  0.00    -0.354 N 
ATOM     46  C   UNL A   1      43.510  27.682  33.067  1.00  0.00     0.074 A 
ATOM     47  C   UNL A   1      44.380  26.726  32.414  1.00  0.00     0.031 C 
ATOM     48  C   UNL A   1      39.311  29.171  28.450  1.00  0.00     0.029 A 
ATOM     49  C   UNL A   1      39.301  29.613  29.843  1.00  0.00     0.049 A 
ATOM     50  H   UNL A   1      40.643  29.085  31.343  1.00  0.00     0.167 HD
ATOM     51  C   UNL A   1      43.650  28.085  34.352  1.00  0.00     0.037 A 
ATOM     52  C   UNL A   1      38.405  30.453  30.398  1.00  0.00     0.037 A 
ATOM     53  C   UNL A   1      42.777  29.021  35.011  1.00  0.00     0.049 A 
ATOM     54  C   UNL A   1      38.548  30.847  31.846  1.00  0.00     0.074 A 
ATOM     55  C   UNL A   1      42.851  29.514  36.303  1.00  0.00     0.029 A 
ATOM     56  N   UNL A   1      41.655  29.597  34.431  1.00  0.00    -0.354 N 
ATOM     57  N   UNL A   1      39.478  30.517  32.709  1.00  0.00    -0.248 NA
ATOM     58  C   UNL A   1      37.515  31.740  32.391  1.00  0.00     0.031 C 
ATOM     59  C   UNL A   1      41.745  30.343  36.521  1.00  0.00     0.029 A 
ATOM     60  C   UNL A   1      41.013  30.415  35.347  1.00  0.00     0.049 A 
ATOM     61  H   UNL A   1      41.359  29.445  33.504  1.00  0.00     0.167 HD
ATOM     62  C   UNL A   1      39.164  31.186  33.886  1.00  0.00     0.074 A 
ATOM     63  C   UNL A   1      37.963  31.949  33.622  1.00  0.00     0.031 C 
ATOM     64  C   UNL A   1      39.817  31.173  35.075  1.00  0.00     0.037 A 
BRANCH  51  65
ATOM     65  C   UNL A   1      44.780  27.483  35.138  1.00  0.00     0.064 A 
ATOM     66  C   UNL A   1      46.051  28.079  35.177  1.00  0.00     0.173 A 
ATOM     67  C   UNL A   1      44.592  26.294  35.857  1.00  0.00     0.173 A 
ATOM     68  F   UNL A   1      46.288  29.209  34.495  1.00  0.00    -0.203 F 
ATOM     69  C   UNL A   1      47.100  27.483  35.873  1.00  0.00     0.198 A 
ATOM     70  C   UNL A   1      45.635  25.718  36.576  1.00  0.00     0.198 A 
ATOM     71  F   UNL A   1      43.397  25.685  35.857  1.00  0.00    -0.203 F 
ATOM     72  F   UNL A   1      48.321  28.036  35.843  1.00  0.00    -0.200 F 
ATOM     73  C   UNL A   1      46.890  26.306  36.575  1.00  0.00     0.200 A 
ATOM     74  F   UNL A   1      45.428  24.586  37.264  1.00  0.00    -0.200 F 
ATOM     75  F   UNL A   1      47.902  25.731  37.239  1.00  0.00    -0.200 F 
ENDBRANCH  51  65
BRANCH  52  76
ATOM     76  C   UNL A   1      37.309  31.018  29.567  1.00  0.00     0.064 A 
ATOM     77  C   UNL A   1      37.339  32.356  29.151  1.00  0.00     0.173 A 
ATOM     78  C   UNL A   1      36.211  30.238  29.179  1.00  0.00     0.173 A 
ATOM     79  F   UNL A   1      38.355  33.148  29.523  1.00  0.00    -0.203 F 
ATOM     80  C   UNL A   1      36.310  32.894  28.381  1.00  0.00     0.198 A 
ATOM     81  C   UNL A   1      35.194  30.770  28.389  1.00  0.00     0.198 A 
ATOM     82  F   UNL A   1      36.132  28.954  29.558  1.00  0.00    -0.203 F 
ATOM     83  F   UNL A   1      36.345  34.187  28.028  1.00  0.00    -0.200 F 
ATOM     84  C   UNL A   1      35.242  32.099  27.994  1.00  0.00     0.200 A 
ATOM     85  F   UNL A   1      34.167  29.996  28.011  1.00  0.00    -0.200 F 
ATOM     86  F   UNL A   1      34.256  32.614  27.250  1.00  0.00    -0.200 F 
ENDBRANCH  52  76
BRANCH  64  87
ATOM     87  C   UNL A   1      39.268  32.043  36.172  1.00  0.00     0.064 A 
ATOM     88  C   UNL A   1      38.282  31.587  37.058  1.00  0.00     0.173 A 
ATOM     89  C   UNL A   1      39.750  33.350  36.346  1.00  0.00     0.173 A 
ATOM     90  F   UNL A   1      37.778  30.349  36.929  1.00  0.00    -0.203 F 
ATOM     91  C   UNL A   1      37.773  32.417  38.056  1.00  0.00     0.198 A 
ATOM     92  C   UNL A   1      39.262  34.166  37.364  1.00  0.00     0.198 A 
ATOM     93  F   UNL A   1      40.699  33.835  35.533  1.00  0.00    -0.203 F 
ATOM     94  F   UNL A   1      36.789  31.977  38.853  1.00  0.00    -0.200 F 
ATOM     95  C   UNL A   1      38.267  33.703  38.211  1.00  0.00     0.200 A 
ATOM     96  F   UNL A   1      39.751  35.404  37.521  1.00  0.00    -0.200 F 
ATOM     97  F   UNL A   1      37.776  34.500  39.169  1.00  0.00    -0.200 F 
ENDBRANCH  64  87
ENDBRANCH  38  39
ENDBRANCH  31  33
ENDBRANCH  30  31
ENDBRANCH  29  30
ENDBRANCH  28  29
ENDBRANCH  27  28
ENDBRANCH  26  27
ENDBRANCH   1  26
TORSDOF 19
ENDMDL
MODEL 3
REMARK VINA RESULT:     -10.7      4.623     10.605
REMARK SMILES CC1(C)C[C@@H](Nc2ccc(Cl)c(C(=O)OCCOCCOCCOC(=O)c3ccc(-c4c5nc(c(-c6c(F)c(F)c(F)c(F)c6F)c6ccc([nH]6)c(-c6c(F)c(F)c(F)c(F)c6F)c6nc(c(-c7c(F)c(F)c(F)c(F)c7F)c7ccc4[nH]7)C=C6)C=C5)cc3)c2)C(C)(C)O1
REMARK SMILES IDX 19 1 18 2 17 3 16 4 15 5 13 6 14 7 12 8 7 9 8 10 90 11 9 12
REMARK SMILES IDX 10 13 11 14 6 15 5 17 1 18 2 19 3 20 4 21 94 22 91 23 92 24
REMARK SMILES IDX 93 25 20 26 21 27 22 28 23 29 24 30 25 31 26 32 27 33 28 34
REMARK SMILES IDX 89 35 29 36 88 37 30 38 31 39 32 40 82 41 33 42 87 43 81 44
REMARK SMILES IDX 83 45 34 46 86 47 80 48 79 49 35 51 67 52 47 53 66 54 48 55
REMARK SMILES IDX 51 56 65 57 84 58 49 59 50 60 64 62 85 63 52 64 36 65 37 66
REMARK SMILES IDX 45 67 38 68 39 69 43 70 46 71 40 72 41 73 44 74 42 75 68 76
REMARK SMILES IDX 69 77 77 78 70 79 71 80 75 81 78 82 72 83 73 84 76 85 74 86
REMARK SMILES IDX 53 87 54 88 62 89 55 90 56 91 60 92 63 93 57 94 58 95 61 96
REMARK SMILES IDX 59 97
REMARK H PARENT 6 16 83 50 51 61
REMARK Flexibility Score: inf
ROOT
ATOM      1  C   UNL A   1      44.122  20.624  25.382  1.00  0.00     0.188 C 
ENDROOT
BRANCH   1   2
ATOM      2  O   UNL A   1      44.398  21.366  24.198  1.00  0.00    -0.376 OA
BRANCH   2   3
ATOM      3  C   UNL A   1      44.629  22.769  24.293  1.00  0.00     0.202 C 
BRANCH   3   4
ATOM      4  C   UNL A   1      43.439  23.663  24.659  1.00  0.00     0.261 C 
BRANCH   4   5
ATOM      5  O   UNL A   1      43.828  24.993  25.040  1.00  0.00    -0.460 OA
BRANCH   5   6
ATOM      6  C   UNL A   1      43.987  25.214  26.366  1.00  0.00     0.339 C 
ATOM      7  O   UNL A   1      43.663  24.471  27.278  1.00  0.00    -0.246 OA
BRANCH   6   8
ATOM      8  C   UNL A   1      44.832  26.403  26.590  1.00  0.00     0.080 A 
ATOM      9  C   UNL A   1      44.876  28.840  26.739  1.00  0.00     0.035 A 
ATOM     10  C   UNL A   1      46.260  28.777  26.910  1.00  0.00     0.027 A 
ATOM     11  C   UNL A   1      44.173  27.647  26.563  1.00  0.00     0.043 A 
ATOM     12  C   UNL A   1      46.922  27.544  26.959  1.00  0.00     0.023 A 
ATOM     13  C   UNL A   1      46.211  26.350  26.799  1.00  0.00     0.055 A 
ATOM     14  Cl  UNL A   1      47.103  24.875  26.826  1.00  0.00    -0.083 Cl
BRANCH   9  15
ATOM     15  N   UNL A   1      44.216  30.057  26.653  1.00  0.00    -0.379 N 
ATOM     16  H   UNL A   1      43.434  30.167  26.064  1.00  0.00     0.160 HD
BRANCH  15  17
ATOM     17  C   UNL A   1      44.712  31.173  27.460  1.00  0.00     0.113 C 
ATOM     18  C   UNL A   1      43.030  33.914  29.319  1.00  0.00     0.042 C 
ATOM     19  C   UNL A   1      44.174  33.024  28.839  1.00  0.00     0.065 C 
ATOM     20  C   UNL A   1      45.304  33.032  29.876  1.00  0.00     0.042 C 
ATOM     21  C   UNL A   1      43.698  31.612  28.499  1.00  0.00     0.062 C 
ATOM     22  O   UNL A   1      44.704  33.569  27.616  1.00  0.00    -0.367 OA
ATOM     23  C   UNL A   1      44.956  32.491  26.681  1.00  0.00     0.083 C 
ATOM     24  C   UNL A   1      44.013  32.734  25.497  1.00  0.00     0.044 C 
ATOM     25  C   UNL A   1      46.405  32.604  26.210  1.00  0.00     0.044 C 
ENDBRANCH  15  17
ENDBRANCH   9  15
ENDBRANCH   6   8
ENDBRANCH   5   6
ENDBRANCH   4   5
ENDBRANCH   3   4
ENDBRANCH   2   3
ENDBRANCH   1   2
BRANCH   1  26
ATOM     26  C   UNL A   1      43.453  19.236  25.276  1.00  0.00     0.188 C 
BRANCH  26  27
ATOM     27  O   UNL A   1      42.113  19.213  25.730  1.00  0.00    -0.376 OA
BRANCH  27  28
ATOM     28  C   UNL A   1      41.700  20.288  26.559  1.00  0.00     0.202 C 
BRANCH  28  29
ATOM     29  C   UNL A   1      40.533  21.143  26.041  1.00  0.00     0.261 C 
BRANCH  29  30
ATOM     30  O   UNL A   1      40.579  22.538  26.386  1.00  0.00    -0.460 OA
BRANCH  30  31
ATOM     31  C   UNL A   1      39.457  23.259  26.173  1.00  0.00     0.338 C 
ATOM     32  O   UNL A   1      38.469  22.917  25.554  1.00  0.00    -0.246 OA
BRANCH  31  33
ATOM     33  C   UNL A   1      39.550  24.497  26.980  1.00  0.00     0.060 A 
ATOM     34  C   UNL A   1      40.321  25.558  26.492  1.00  0.00     0.016 A 
ATOM     35  C   UNL A   1      38.892  24.610  28.209  1.00  0.00     0.016 A 
ATOM     36  C   UNL A   1      40.467  26.721  27.251  1.00  0.00     0.010 A 
ATOM     37  C   UNL A   1      39.049  25.774  28.974  1.00  0.00     0.010 A 
ATOM     38  C   UNL A   1      39.865  26.821  28.514  1.00  0.00    -0.014 A 
BRANCH  38  39
ATOM     39  C   UNL A   1      40.227  27.958  29.398  1.00  0.00     0.031 A 
ATOM     40  C   UNL A   1      41.615  28.018  29.974  1.00  0.00     0.074 A 
ATOM     41  C   UNL A   1      39.359  28.956  29.641  1.00  0.00     0.049 A 
ATOM     42  N   UNL A   1      42.187  28.966  30.674  1.00  0.00    -0.248 NA
ATOM     43  C   UNL A   1      42.472  26.849  29.730  1.00  0.00     0.031 C 
ATOM     44  C   UNL A   1      37.988  29.021  29.142  1.00  0.00     0.029 A 
ATOM     45  N   UNL A   1      39.514  30.115  30.361  1.00  0.00    -0.354 N 
ATOM     46  C   UNL A   1      43.472  28.514  30.943  1.00  0.00     0.074 A 
ATOM     47  C   UNL A   1      43.581  27.188  30.371  1.00  0.00     0.031 C 
ATOM     48  C   UNL A   1      37.431  30.171  29.557  1.00  0.00     0.029 A 
ATOM     49  C   UNL A   1      38.402  30.919  30.355  1.00  0.00     0.049 A 
ATOM     50  H   UNL A   1      40.344  30.347  30.836  1.00  0.00     0.167 HD
ATOM     51  C   UNL A   1      44.477  29.147  31.594  1.00  0.00     0.037 A 
ATOM     52  C   UNL A   1      38.197  32.124  30.921  1.00  0.00     0.037 A 
ATOM     53  C   UNL A   1      44.368  30.458  32.179  1.00  0.00     0.049 A 
ATOM     54  C   UNL A   1      39.312  32.788  31.688  1.00  0.00     0.074 A 
ATOM     55  C   UNL A   1      45.338  31.196  32.837  1.00  0.00     0.029 A 
ATOM     56  N   UNL A   1      43.210  31.222  32.193  1.00  0.00    -0.354 N 
ATOM     57  N   UNL A   1      40.543  32.381  31.884  1.00  0.00    -0.248 NA
ATOM     58  C   UNL A   1      39.006  34.087  32.305  1.00  0.00     0.031 C 
ATOM     59  C   UNL A   1      44.751  32.382  33.295  1.00  0.00     0.029 A 
ATOM     60  C   UNL A   1      43.432  32.410  32.873  1.00  0.00     0.049 A 
ATOM     61  H   UNL A   1      42.356  30.959  31.780  1.00  0.00     0.167 HD
ATOM     62  C   UNL A   1      41.167  33.385  32.615  1.00  0.00     0.074 A 
ATOM     63  C   UNL A   1      40.181  34.425  32.818  1.00  0.00     0.031 C 
ATOM     64  C   UNL A   1      42.444  33.442  33.070  1.00  0.00     0.037 A 
BRANCH  51  65
ATOM     65  C   UNL A   1      45.777  28.406  31.730  1.00  0.00     0.064 A 
ATOM     66  C   UNL A   1      46.854  28.640  30.861  1.00  0.00     0.173 A 
ATOM     67  C   UNL A   1      45.946  27.447  32.740  1.00  0.00     0.173 A 
ATOM     68  F   UNL A   1      46.739  29.536  29.869  1.00  0.00    -0.203 F 
ATOM     69  C   UNL A   1      48.036  27.911  30.972  1.00  0.00     0.198 A 
ATOM     70  C   UNL A   1      47.140  26.743  32.867  1.00  0.00     0.198 A 
ATOM     71  F   UNL A   1      44.951  27.188  33.600  1.00  0.00    -0.203 F 
ATOM     72  F   UNL A   1      49.027  28.106  30.091  1.00  0.00    -0.200 F 
ATOM     73  C   UNL A   1      48.179  26.967  31.978  1.00  0.00     0.200 A 
ATOM     74  F   UNL A   1      47.282  25.839  33.846  1.00  0.00    -0.200 F 
ATOM     75  F   UNL A   1      49.315  26.263  32.080  1.00  0.00    -0.200 F 
ENDBRANCH  51  65
BRANCH  52  76
ATOM     76  C   UNL A   1      36.889  32.809  30.749  1.00  0.00     0.064 A 
ATOM     77  C   UNL A   1      35.898  32.726  31.738  1.00  0.00     0.173 A 
ATOM     78  C   UNL A   1      36.600  33.553  29.597  1.00  0.00     0.173 A 
ATOM     79  F   UNL A   1      36.118  32.000  32.844  1.00  0.00    -0.203 F 
ATOM     80  C   UNL A   1      34.667  33.357  31.577  1.00  0.00     0.198 A 
ATOM     81  C   UNL A   1      35.378  34.204  29.449  1.00  0.00     0.198 A 
ATOM     82  F   UNL A   1      37.513  33.657  28.619  1.00  0.00    -0.203 F 
ATOM     83  F   UNL A   1      33.722  33.229  32.521  1.00  0.00    -0.200 F 
ATOM     84  C   UNL A   1      34.410  34.102  30.437  1.00  0.00     0.200 A 
ATOM     85  F   UNL A   1      35.136  34.929  28.348  1.00  0.00    -0.200 F 
ATOM     86  F   UNL A   1      33.228  34.714  30.285  1.00  0.00    -0.200 F 
ENDBRANCH  52  76
BRANCH  64  87
ATOM     87  C   UNL A   1      42.861  34.688  33.799  1.00  0.00     0.064 A 
ATOM     88  C   UNL A   1      43.252  35.851  33.118  1.00  0.00     0.173 A 
ATOM     89  C   UNL A   1      42.853  34.723  35.203  1.00  0.00     0.173 A 
ATOM     90  F   UNL A   1      43.288  35.868  31.777  1.00  0.00    -0.203 F 
ATOM     91  C   UNL A   1      43.653  36.990  33.815  1.00  0.00     0.198 A 
ATOM     92  C   UNL A   1      43.224  35.874  35.894  1.00  0.00     0.198 A 
ATOM     93  F   UNL A   1      42.479  33.644  35.904  1.00  0.00    -0.203 F 
ATOM     94  F   UNL A   1      44.078  38.068  33.142  1.00  0.00    -0.200 F 
ATOM     95  C   UNL A   1      43.634  37.002  35.201  1.00  0.00     0.200 A 
ATOM     96  F   UNL A   1      43.191  35.887  37.234  1.00  0.00    -0.200 F 
ATOM     97  F   UNL A   1      44.021  38.097  35.869  1.00  0.00    -0.200 F 
ENDBRANCH  64  87
ENDBRANCH  38  39
ENDBRANCH  31  33
ENDBRANCH  30  31
ENDBRANCH  29  30
ENDBRANCH  28  29
ENDBRANCH  27  28
ENDBRANCH  26  27
ENDBRANCH   1  26
TORSDOF 19
ENDMDL
