MODEL 1
REMARK VINA RESULT:     -10.8      0.000      0.000
REMARK SMILES COc1ccc(CCN2C(=O)C[C@@H](C(=O)OCCOCCOCCOC(=O)c3ccc(-c4c5nc(c(-c6c(F)c(F)c(F)c(F)c6F)c6ccc([nH]6)c(-c6c(F)c(F)c(F)c(F)c6F)c6nc(c(-c7c(F)c(F)c(F)c(F)c7F)c7ccc4[nH]7)C=C6)C=C5)cc3)S/C2=[NH+]\c2ccc(F)cc2)cc1OC
REMARK SMILES IDX 20 1 19 2 18 3 17 4 16 5 14 6 15 7 13 8 9 9 10 10 92 11
REMARK SMILES IDX 11 12 12 13 91 14 93 15 8 17 7 18 6 19 3 20 4 21 102 22 5 23
REMARK SMILES IDX 101 24 2 25 1 26 103 27 104 28 94 29 95 30 100 31 96 32
REMARK SMILES IDX 99 33 97 34 98 35 21 36 22 37 23 38 24 39 25 40 26 41 27 42
REMARK SMILES IDX 28 43 29 44 90 45 30 46 89 47 31 48 32 49 33 50 83 51 34 52
REMARK SMILES IDX 88 53 82 54 84 55 35 56 87 57 81 58 80 59 36 61 68 62 48 63
REMARK SMILES IDX 67 64 49 65 52 66 66 67 85 68 50 69 51 70 65 72 86 73 53 74
REMARK SMILES IDX 37 75 38 76 46 77 39 78 40 79 44 80 47 81 41 82 42 83 45 84
REMARK SMILES IDX 43 85 69 86 70 87 78 88 71 89 72 90 76 91 79 92 73 93 74 94
REMARK SMILES IDX 77 95 75 96 54 97 55 98 63 99 56 100 57 101 61 102 64 103
REMARK SMILES IDX 58 104 59 105 62 106 60 107
REMARK H PARENT 93 16 84 60 52 71
REMARK Flexibility Score: inf
ROOT
ATOM      1  C   UNL A   1      35.611  23.065  24.103  1.00  0.00     0.188 C 
ENDROOT
BRANCH   1   2
ATOM      2  O   UNL A   1      34.785  23.648  23.104  1.00  0.00    -0.376 OA
BRANCH   2   3
ATOM      3  C   UNL A   1      33.558  22.995  22.781  1.00  0.00     0.202 C 
BRANCH   3   4
ATOM      4  C   UNL A   1      32.317  23.881  22.596  1.00  0.00     0.261 C 
BRANCH   4   5
ATOM      5  O   UNL A   1      31.278  23.594  23.556  1.00  0.00    -0.462 OA
BRANCH   5   6
ATOM      6  C   UNL A   1      31.447  24.099  24.806  1.00  0.00     0.320 C 
ATOM      7  O   UNL A   1      31.485  23.405  25.818  1.00  0.00    -0.251 OA
BRANCH   6   8
ATOM      8  C   UNL A   1      31.748  25.597  24.840  1.00  0.00     0.180 C 
ATOM      9  N   UNL A   1      32.290  28.201  26.112  1.00  0.00    -0.191 N 
ATOM     10  C   UNL A   1      33.305  27.265  26.138  1.00  0.00     0.311 C 
ATOM     11  C   UNL A   1      31.265  28.094  25.211  1.00  0.00     0.319 C 
ATOM     12  O   UNL A   1      34.426  27.527  26.580  1.00  0.00    -0.247 OA
ATOM     13  C   UNL A   1      32.990  25.843  25.691  1.00  0.00     0.155 C 
ATOM     14  S   UNL A   1      30.389  26.629  25.462  1.00  0.00    -0.022 SA
ATOM     15  N   UNL A   1      31.160  28.977  24.286  1.00  0.00    -0.235 N 
ATOM     16  H   UNL A   1      31.886  29.641  24.267  1.00  0.00     0.313 HD
BRANCH   9  17
ATOM     17  C   UNL A   1      32.199  29.177  27.203  1.00  0.00     0.251 C 
BRANCH  17  18
ATOM     18  C   UNL A   1      32.086  30.668  26.849  1.00  0.00     0.082 C 
BRANCH  18  19
ATOM     19  C   UNL A   1      33.209  31.535  27.376  1.00  0.00    -0.040 A 
ATOM     20  C   UNL A   1      35.388  33.196  28.079  1.00  0.00     0.160 A 
ATOM     21  C   UNL A   1      35.585  31.847  27.790  1.00  0.00     0.051 A 
ATOM     22  C   UNL A   1      34.074  33.691  28.127  1.00  0.00     0.160 A 
ATOM     23  C   UNL A   1      34.502  31.017  27.479  1.00  0.00     0.008 A 
ATOM     24  C   UNL A   1      33.002  32.872  27.741  1.00  0.00     0.054 A 
BRANCH  20  25
ATOM     25  O   UNL A   1      36.409  34.092  28.237  1.00  0.00    -0.493 OA
ATOM     26  C   UNL A   1      37.493  33.726  29.076  1.00  0.00     0.278 C 
ENDBRANCH  20  25
BRANCH  22  27
ATOM     27  O   UNL A   1      33.716  34.964  28.506  1.00  0.00    -0.493 OA
ATOM     28  C   UNL A   1      33.029  35.051  29.755  1.00  0.00     0.278 C 
ENDBRANCH  22  27
ENDBRANCH  18  19
ENDBRANCH  17  18
ENDBRANCH   9  17
BRANCH  15  29
ATOM     29  C   UNL A   1      30.184  29.150  23.300  1.00  0.00     0.125 A 
ATOM     30  C   UNL A   1      30.595  29.810  22.124  1.00  0.00     0.055 A 
ATOM     31  C   UNL A   1      28.812  29.013  23.531  1.00  0.00     0.055 A 
ATOM     32  C   UNL A   1      29.668  30.360  21.233  1.00  0.00     0.043 A 
ATOM     33  C   UNL A   1      27.877  29.536  22.625  1.00  0.00     0.043 A 
ATOM     34  C   UNL A   1      28.313  30.222  21.496  1.00  0.00     0.123 A 
ATOM     35  F   UNL A   1      27.420  30.757  20.653  1.00  0.00    -0.207 F 
ENDBRANCH  15  29
ENDBRANCH   6   8
ENDBRANCH   5   6
ENDBRANCH   4   5
ENDBRANCH   3   4
ENDBRANCH   2   3
ENDBRANCH   1   2
BRANCH   1  36
ATOM     36  C   UNL A   1      34.952  22.444  25.343  1.00  0.00     0.188 C 
BRANCH  36  37
ATOM     37  O   UNL A   1      35.545  21.255  25.824  1.00  0.00    -0.376 OA
BRANCH  37  38
ATOM     38  C   UNL A   1      36.187  20.469  24.824  1.00  0.00     0.202 C 
BRANCH  38  39
ATOM     39  C   UNL A   1      37.663  20.153  25.122  1.00  0.00     0.261 C 
BRANCH  39  40
ATOM     40  O   UNL A   1      38.447  21.275  25.583  1.00  0.00    -0.460 OA
BRANCH  40  41
ATOM     41  C   UNL A   1      39.567  20.991  26.280  1.00  0.00     0.338 C 
ATOM     42  O   UNL A   1      40.144  19.911  26.336  1.00  0.00    -0.246 OA
BRANCH  41  43
ATOM     43  C   UNL A   1      40.110  22.250  26.831  1.00  0.00     0.060 A 
ATOM     44  C   UNL A   1      39.611  23.472  26.365  1.00  0.00     0.016 A 
ATOM     45  C   UNL A   1      41.139  22.238  27.769  1.00  0.00     0.016 A 
ATOM     46  C   UNL A   1      40.163  24.681  26.781  1.00  0.00     0.010 A 
ATOM     47  C   UNL A   1      41.696  23.453  28.190  1.00  0.00     0.010 A 
ATOM     48  C   UNL A   1      41.237  24.679  27.672  1.00  0.00    -0.014 A 
BRANCH  48  49
ATOM     49  C   UNL A   1      41.979  25.935  27.936  1.00  0.00     0.031 A 
ATOM     50  C   UNL A   1      41.327  26.993  28.782  1.00  0.00     0.074 A 
ATOM     51  C   UNL A   1      43.224  26.128  27.464  1.00  0.00     0.049 A 
ATOM     52  N   UNL A   1      41.701  28.226  29.010  1.00  0.00    -0.248 NA
ATOM     53  C   UNL A   1      40.082  26.603  29.463  1.00  0.00     0.031 C 
ATOM     54  C   UNL A   1      44.010  25.147  26.720  1.00  0.00     0.029 A 
ATOM     55  N   UNL A   1      44.040  27.232  27.531  1.00  0.00    -0.354 N 
ATOM     56  C   UNL A   1      40.718  28.771  29.825  1.00  0.00     0.074 A 
ATOM     57  C   UNL A   1      39.729  27.738  30.049  1.00  0.00     0.031 C 
ATOM     58  C   UNL A   1      45.187  25.698  26.379  1.00  0.00     0.029 A 
ATOM     59  C   UNL A   1      45.211  27.088  26.830  1.00  0.00     0.049 A 
ATOM     60  H   UNL A   1      43.806  28.046  28.033  1.00  0.00     0.167 HD
ATOM     61  C   UNL A   1      40.646  30.024  30.334  1.00  0.00     0.037 A 
ATOM     62  C   UNL A   1      46.170  27.992  26.546  1.00  0.00     0.037 A 
ATOM     63  C   UNL A   1      41.643  31.041  30.126  1.00  0.00     0.049 A 
ATOM     64  C   UNL A   1      46.024  29.406  27.046  1.00  0.00     0.074 A 
ATOM     65  C   UNL A   1      41.667  32.338  30.605  1.00  0.00     0.029 A 
ATOM     66  N   UNL A   1      42.796  30.870  29.374  1.00  0.00    -0.354 N 
ATOM     67  N   UNL A   1      45.078  29.931  27.788  1.00  0.00    -0.248 NA
ATOM     68  C   UNL A   1      47.075  30.359  26.658  1.00  0.00     0.031 C 
ATOM     69  C   UNL A   1      42.809  32.969  30.103  1.00  0.00     0.029 A 
ATOM     70  C   UNL A   1      43.527  32.048  29.357  1.00  0.00     0.049 A 
ATOM     71  H   UNL A   1      43.057  30.037  28.920  1.00  0.00     0.167 HD
ATOM     72  C   UNL A   1      45.434  31.260  27.981  1.00  0.00     0.074 A 
ATOM     73  C   UNL A   1      46.688  31.460  27.286  1.00  0.00     0.031 C 
ATOM     74  C   UNL A   1      44.782  32.227  28.671  1.00  0.00     0.037 A 
BRANCH  61  75
ATOM     75  C   UNL A   1      39.422  30.379  31.127  1.00  0.00     0.064 A 
ATOM     76  C   UNL A   1      38.174  30.577  30.521  1.00  0.00     0.173 A 
ATOM     77  C   UNL A   1      39.501  30.501  32.524  1.00  0.00     0.173 A 
ATOM     78  F   UNL A   1      38.049  30.489  29.188  1.00  0.00    -0.203 F 
ATOM     79  C   UNL A   1      37.054  30.910  31.280  1.00  0.00     0.198 A 
ATOM     80  C   UNL A   1      38.375  30.804  33.282  1.00  0.00     0.198 A 
ATOM     81  F   UNL A   1      40.671  30.319  33.154  1.00  0.00    -0.203 F 
ATOM     82  F   UNL A   1      35.882  31.143  30.675  1.00  0.00    -0.200 F 
ATOM     83  C   UNL A   1      37.154  31.016  32.660  1.00  0.00     0.200 A 
ATOM     84  F   UNL A   1      38.470  30.895  34.616  1.00  0.00    -0.200 F 
ATOM     85  F   UNL A   1      36.074  31.330  33.389  1.00  0.00    -0.200 F 
ENDBRANCH  61  75
BRANCH  62  86
ATOM     86  C   UNL A   1      47.337  27.603  25.710  1.00  0.00     0.064 A 
ATOM     87  C   UNL A   1      48.529  27.156  26.297  1.00  0.00     0.173 A 
ATOM     88  C   UNL A   1      47.296  27.698  24.312  1.00  0.00     0.173 A 
ATOM     89  F   UNL A   1      48.628  27.078  27.633  1.00  0.00    -0.203 F 
ATOM     90  C   UNL A   1      49.639  26.834  25.519  1.00  0.00     0.198 A 
ATOM     91  C   UNL A   1      48.396  27.346  23.532  1.00  0.00     0.198 A 
ATOM     92  F   UNL A   1      46.182  28.127  23.699  1.00  0.00    -0.203 F 
ATOM     93  F   UNL A   1      50.781  26.458  26.109  1.00  0.00    -0.200 F 
ATOM     94  C   UNL A   1      49.569  26.923  24.136  1.00  0.00     0.200 A 
ATOM     95  F   UNL A   1      48.320  27.424  22.196  1.00  0.00    -0.200 F 
ATOM     96  F   UNL A   1      50.636  26.611  23.388  1.00  0.00    -0.200 F 
ENDBRANCH  62  86
BRANCH  74  97
ATOM     97  C   UNL A   1      45.434  33.577  28.754  1.00  0.00     0.064 A 
ATOM     98  C   UNL A   1      45.118  34.608  27.857  1.00  0.00     0.173 A 
ATOM     99  C   UNL A   1      46.359  33.855  29.773  1.00  0.00     0.173 A 
ATOM    100  F   UNL A   1      44.252  34.389  26.856  1.00  0.00    -0.203 F 
ATOM    101  C   UNL A   1      45.721  35.859  27.962  1.00  0.00     0.198 A 
ATOM    102  C   UNL A   1      46.935  35.116  29.895  1.00  0.00     0.198 A 
ATOM    103  F   UNL A   1      46.691  32.907  30.662  1.00  0.00    -0.203 F 
ATOM    104  F   UNL A   1      45.439  36.814  27.065  1.00  0.00    -0.200 F 
ATOM    105  C   UNL A   1      46.623  36.114  28.984  1.00  0.00     0.200 A 
ATOM    106  F   UNL A   1      47.796  35.365  30.892  1.00  0.00    -0.200 F 
ATOM    107  F   UNL A   1      47.195  37.321  29.089  1.00  0.00    -0.200 F 
ENDBRANCH  74  97
ENDBRANCH  48  49
ENDBRANCH  41  43
ENDBRANCH  40  41
ENDBRANCH  39  40
ENDBRANCH  38  39
ENDBRANCH  37  38
ENDBRANCH  36  37
ENDBRANCH   1  36
TORSDOF 23
ENDMDL
MODEL 2
REMARK VINA RESULT:     -10.7      1.323      2.170
REMARK SMILES COc1ccc(CCN2C(=O)C[C@@H](C(=O)OCCOCCOCCOC(=O)c3ccc(-c4c5nc(c(-c6c(F)c(F)c(F)c(F)c6F)c6ccc([nH]6)c(-c6c(F)c(F)c(F)c(F)c6F)c6nc(c(-c7c(F)c(F)c(F)c(F)c7F)c7ccc4[nH]7)C=C6)C=C5)cc3)S/C2=[NH+]\c2ccc(F)cc2)cc1OC
REMARK SMILES IDX 20 1 19 2 18 3 17 4 16 5 14 6 15 7 13 8 9 9 10 10 92 11
REMARK SMILES IDX 11 12 12 13 91 14 93 15 8 17 7 18 6 19 3 20 4 21 102 22 5 23
REMARK SMILES IDX 101 24 2 25 1 26 103 27 104 28 94 29 95 30 100 31 96 32
REMARK SMILES IDX 99 33 97 34 98 35 21 36 22 37 23 38 24 39 25 40 26 41 27 42
REMARK SMILES IDX 28 43 29 44 90 45 30 46 89 47 31 48 32 49 33 50 83 51 34 52
REMARK SMILES IDX 88 53 82 54 84 55 35 56 87 57 81 58 80 59 36 61 68 62 48 63
REMARK SMILES IDX 67 64 49 65 52 66 66 67 85 68 50 69 51 70 65 72 86 73 53 74
REMARK SMILES IDX 37 75 38 76 46 77 39 78 40 79 44 80 47 81 41 82 42 83 45 84
REMARK SMILES IDX 43 85 69 86 70 87 78 88 71 89 72 90 76 91 79 92 73 93 74 94
REMARK SMILES IDX 77 95 75 96 54 97 55 98 63 99 56 100 57 101 61 102 64 103
REMARK SMILES IDX 58 104 59 105 62 106 60 107
REMARK H PARENT 93 16 84 60 52 71
REMARK Flexibility Score: inf
ROOT
ATOM      1  C   UNL A   1      34.982  23.645  23.554  1.00  0.00     0.188 C 
ENDROOT
BRANCH   1   2
ATOM      2  O   UNL A   1      34.326  24.661  22.808  1.00  0.00    -0.376 OA
BRANCH   2   3
ATOM      3  C   UNL A   1      32.970  24.441  22.420  1.00  0.00     0.202 C 
BRANCH   3   4
ATOM      4  C   UNL A   1      31.895  25.298  23.104  1.00  0.00     0.261 C 
BRANCH   4   5
ATOM      5  O   UNL A   1      31.560  24.823  24.426  1.00  0.00    -0.462 OA
BRANCH   5   6
ATOM      6  C   UNL A   1      32.281  25.334  25.458  1.00  0.00     0.320 C 
ATOM      7  O   UNL A   1      32.858  24.641  26.291  1.00  0.00    -0.251 OA
BRANCH   6   8
ATOM      8  C   UNL A   1      32.451  26.853  25.410  1.00  0.00     0.180 C 
ATOM      9  N   UNL A   1      32.984  29.533  26.517  1.00  0.00    -0.191 N 
ATOM     10  C   UNL A   1      34.065  28.686  26.373  1.00  0.00     0.311 C 
ATOM     11  C   UNL A   1      31.826  29.312  25.820  1.00  0.00     0.319 C 
ATOM     12  O   UNL A   1      35.220  29.053  26.599  1.00  0.00    -0.247 OA
ATOM     13  C   UNL A   1      33.800  27.228  26.016  1.00  0.00     0.155 C 
ATOM     14  S   UNL A   1      31.141  27.789  26.252  1.00  0.00    -0.022 SA
ATOM     15  N   UNL A   1      31.480  30.152  24.914  1.00  0.00    -0.235 N 
ATOM     16  H   UNL A   1      32.130  30.874  24.752  1.00  0.00     0.313 HD
BRANCH   9  17
ATOM     17  C   UNL A   1      33.007  30.533  27.588  1.00  0.00     0.251 C 
BRANCH  17  18
ATOM     18  C   UNL A   1      33.663  31.895  27.311  1.00  0.00     0.082 C 
BRANCH  18  19
ATOM     19  C   UNL A   1      33.706  32.835  28.496  1.00  0.00    -0.040 A 
ATOM     20  C   UNL A   1      34.070  34.639  30.644  1.00  0.00     0.160 A 
ATOM     21  C   UNL A   1      34.464  33.306  30.758  1.00  0.00     0.051 A 
ATOM     22  C   UNL A   1      33.384  35.044  29.487  1.00  0.00     0.160 A 
ATOM     23  C   UNL A   1      34.249  32.406  29.709  1.00  0.00     0.008 A 
ATOM     24  C   UNL A   1      33.240  34.155  28.411  1.00  0.00     0.054 A 
BRANCH  20  25
ATOM     25  O   UNL A   1      34.387  35.602  31.562  1.00  0.00    -0.493 OA
ATOM     26  C   UNL A   1      33.850  35.479  32.870  1.00  0.00     0.278 C 
ENDBRANCH  20  25
BRANCH  22  27
ATOM     27  O   UNL A   1      32.837  36.288  29.280  1.00  0.00    -0.493 OA
ATOM     28  C   UNL A   1      33.619  37.164  28.466  1.00  0.00     0.278 C 
ENDBRANCH  22  27
ENDBRANCH  18  19
ENDBRANCH  17  18
ENDBRANCH   9  17
BRANCH  15  29
ATOM     29  C   UNL A   1      30.331  30.212  24.120  1.00  0.00     0.125 A 
ATOM     30  C   UNL A   1      30.267  29.301  23.046  1.00  0.00     0.055 A 
ATOM     31  C   UNL A   1      29.438  31.287  24.124  1.00  0.00     0.055 A 
ATOM     32  C   UNL A   1      29.376  29.486  21.984  1.00  0.00     0.043 A 
ATOM     33  C   UNL A   1      28.520  31.460  23.077  1.00  0.00     0.043 A 
ATOM     34  C   UNL A   1      28.512  30.571  22.007  1.00  0.00     0.123 A 
ATOM     35  F   UNL A   1      27.664  30.760  20.987  1.00  0.00    -0.207 F 
ENDBRANCH  15  29
ENDBRANCH   6   8
ENDBRANCH   5   6
ENDBRANCH   4   5
ENDBRANCH   3   4
ENDBRANCH   2   3
ENDBRANCH   1   2
BRANCH   1  36
ATOM     36  C   UNL A   1      34.205  22.372  23.920  1.00  0.00     0.188 C 
BRANCH  36  37
ATOM     37  O   UNL A   1      34.974  21.317  24.460  1.00  0.00    -0.376 OA
BRANCH  37  38
ATOM     38  C   UNL A   1      35.736  21.670  25.611  1.00  0.00     0.202 C 
BRANCH  38  39
ATOM     39  C   UNL A   1      37.256  21.520  25.430  1.00  0.00     0.261 C 
BRANCH  39  40
ATOM     40  O   UNL A   1      38.048  22.574  26.021  1.00  0.00    -0.460 OA
BRANCH  40  41
ATOM     41  C   UNL A   1      39.266  22.230  26.490  1.00  0.00     0.338 C 
ATOM     42  O   UNL A   1      39.814  21.139  26.383  1.00  0.00    -0.246 OA
BRANCH  41  43
ATOM     43  C   UNL A   1      39.932  23.446  27.003  1.00  0.00     0.060 A 
ATOM     44  C   UNL A   1      39.594  24.691  26.461  1.00  0.00     0.016 A 
ATOM     45  C   UNL A   1      40.920  23.365  27.980  1.00  0.00     0.016 A 
ATOM     46  C   UNL A   1      40.267  25.849  26.841  1.00  0.00     0.010 A 
ATOM     47  C   UNL A   1      41.599  24.528  28.366  1.00  0.00     0.010 A 
ATOM     48  C   UNL A   1      41.303  25.771  27.773  1.00  0.00    -0.014 A 
BRANCH  48  49
ATOM     49  C   UNL A   1      42.176  26.946  28.007  1.00  0.00     0.031 A 
ATOM     50  C   UNL A   1      41.645  28.084  28.833  1.00  0.00     0.074 A 
ATOM     51  C   UNL A   1      43.431  26.996  27.525  1.00  0.00     0.049 A 
ATOM     52  N   UNL A   1      42.149  29.275  29.034  1.00  0.00    -0.248 NA
ATOM     53  C   UNL A   1      40.371  27.843  29.528  1.00  0.00     0.031 C 
ATOM     54  C   UNL A   1      44.103  25.922  26.798  1.00  0.00     0.029 A 
ATOM     55  N   UNL A   1      44.359  28.008  27.566  1.00  0.00    -0.354 N 
ATOM     56  C   UNL A   1      41.235  29.938  29.842  1.00  0.00     0.074 A 
ATOM     57  C   UNL A   1      40.144  29.020  30.092  1.00  0.00     0.031 C 
ATOM     58  C   UNL A   1      45.330  26.338  26.440  1.00  0.00     0.029 A 
ATOM     59  C   UNL A   1      45.505  27.726  26.863  1.00  0.00     0.049 A 
ATOM     60  H   UNL A   1      44.217  28.853  28.051  1.00  0.00     0.167 HD
ATOM     61  C   UNL A   1      41.300  31.201  30.325  1.00  0.00     0.037 A 
ATOM     62  C   UNL A   1      46.551  28.517  26.554  1.00  0.00     0.037 A 
ATOM     63  C   UNL A   1      42.398  32.102  30.091  1.00  0.00     0.049 A 
ATOM     64  C   UNL A   1      46.559  29.949  27.026  1.00  0.00     0.074 A 
ATOM     65  C   UNL A   1      42.563  33.399  30.542  1.00  0.00     0.029 A 
ATOM     66  N   UNL A   1      43.521  31.795  29.337  1.00  0.00    -0.354 N 
ATOM     67  N   UNL A   1      45.680  30.586  27.761  1.00  0.00    -0.248 NA
ATOM     68  C   UNL A   1      47.703  30.777  26.613  1.00  0.00     0.031 C 
ATOM     69  C   UNL A   1      43.762  33.895  30.022  1.00  0.00     0.029 A 
ATOM     70  C   UNL A   1      44.373  32.888  29.292  1.00  0.00     0.049 A 
ATOM     71  H   UNL A   1      43.690  30.929  28.900  1.00  0.00     0.167 HD
ATOM     72  C   UNL A   1      46.177  31.874  27.924  1.00  0.00     0.074 A 
ATOM     73  C   UNL A   1      47.440  31.926  27.219  1.00  0.00     0.031 C 
ATOM     74  C   UNL A   1      45.635  32.919  28.597  1.00  0.00     0.037 A 
BRANCH  61  75
ATOM     75  C   UNL A   1      40.126  31.701  31.116  1.00  0.00     0.064 A 
ATOM     76  C   UNL A   1      39.182  32.583  30.571  1.00  0.00     0.173 A 
ATOM     77  C   UNL A   1      39.934  31.268  32.437  1.00  0.00     0.173 A 
ATOM     78  F   UNL A   1      39.330  33.040  29.318  1.00  0.00    -0.203 F 
ATOM     79  C   UNL A   1      38.104  33.034  31.328  1.00  0.00     0.198 A 
ATOM     80  C   UNL A   1      38.839  31.697  33.181  1.00  0.00     0.198 A 
ATOM     81  F   UNL A   1      40.806  30.422  33.006  1.00  0.00    -0.203 F 
ATOM     82  F   UNL A   1      37.241  33.915  30.804  1.00  0.00    -0.200 F 
ATOM     83  C   UNL A   1      37.930  32.586  32.629  1.00  0.00     0.200 A 
ATOM     84  F   UNL A   1      38.666  31.254  34.434  1.00  0.00    -0.200 F 
ATOM     85  F   UNL A   1      36.887  33.016  33.354  1.00  0.00    -0.200 F 
ENDBRANCH  61  75
BRANCH  62  86
ATOM     86  C   UNL A   1      47.665  27.989  25.722  1.00  0.00     0.064 A 
ATOM     87  C   UNL A   1      47.539  27.882  24.330  1.00  0.00     0.173 A 
ATOM     88  C   UNL A   1      48.865  27.554  26.303  1.00  0.00     0.173 A 
ATOM     89  F   UNL A   1      46.399  28.257  23.731  1.00  0.00    -0.203 F 
ATOM     90  C   UNL A   1      48.564  27.346  23.554  1.00  0.00     0.198 A 
ATOM     91  C   UNL A   1      49.901  27.046  25.522  1.00  0.00     0.198 A 
ATOM     92  F   UNL A   1      49.035  27.626  27.632  1.00  0.00    -0.203 F 
ATOM     93  F   UNL A   1      48.398  27.209  22.231  1.00  0.00    -0.200 F 
ATOM     94  C   UNL A   1      49.747  26.935  24.150  1.00  0.00     0.200 A 
ATOM     95  F   UNL A   1      51.046  26.659  26.102  1.00  0.00    -0.200 F 
ATOM     96  F   UNL A   1      50.734  26.420  23.402  1.00  0.00    -0.200 F 
ENDBRANCH  62  86
BRANCH  74  97
ATOM     97  C   UNL A   1      46.427  34.193  28.648  1.00  0.00     0.064 A 
ATOM     98  C   UNL A   1      47.389  34.427  29.642  1.00  0.00     0.173 A 
ATOM     99  C   UNL A   1      46.250  35.177  27.663  1.00  0.00     0.173 A 
ATOM    100  F   UNL A   1      47.586  33.526  30.616  1.00  0.00    -0.203 F 
ATOM    101  C   UNL A   1      48.125  35.609  29.661  1.00  0.00     0.198 A 
ATOM    102  C   UNL A   1      47.010  36.343  27.666  1.00  0.00     0.198 A 
ATOM    103  F   UNL A   1      45.348  34.999  26.685  1.00  0.00    -0.203 F 
ATOM    104  F   UNL A   1      49.006  35.832  30.647  1.00  0.00    -0.200 F 
ATOM    105  C   UNL A   1      47.941  36.562  28.670  1.00  0.00     0.200 A 
ATOM    106  F   UNL A   1      46.840  37.256  26.699  1.00  0.00    -0.200 F 
ATOM    107  F   UNL A   1      48.658  37.694  28.686  1.00  0.00    -0.200 F 
ENDBRANCH  74  97
ENDBRANCH  48  49
ENDBRANCH  41  43
ENDBRANCH  40  41
ENDBRANCH  39  40
ENDBRANCH  38  39
ENDBRANCH  37  38
ENDBRANCH  36  37
ENDBRANCH   1  36
TORSDOF 23
ENDMDL
MODEL 3
REMARK VINA RESULT:     -10.5      3.491      4.839
REMARK SMILES COc1ccc(CCN2C(=O)C[C@@H](C(=O)OCCOCCOCCOC(=O)c3ccc(-c4c5nc(c(-c6c(F)c(F)c(F)c(F)c6F)c6ccc([nH]6)c(-c6c(F)c(F)c(F)c(F)c6F)c6nc(c(-c7c(F)c(F)c(F)c(F)c7F)c7ccc4[nH]7)C=C6)C=C5)cc3)S/C2=[NH+]\c2ccc(F)cc2)cc1OC
REMARK SMILES IDX 20 1 19 2 18 3 17 4 16 5 14 6 15 7 13 8 9 9 10 10 92 11
REMARK SMILES IDX 11 12 12 13 91 14 93 15 8 17 7 18 6 19 3 20 4 21 102 22 5 23
REMARK SMILES IDX 101 24 2 25 1 26 103 27 104 28 94 29 95 30 100 31 96 32
REMARK SMILES IDX 99 33 97 34 98 35 21 36 22 37 23 38 24 39 25 40 26 41 27 42
REMARK SMILES IDX 28 43 29 44 90 45 30 46 89 47 31 48 32 49 33 50 83 51 34 52
REMARK SMILES IDX 88 53 82 54 84 55 35 56 87 57 81 58 80 59 36 61 68 62 48 63
REMARK SMILES IDX 67 64 49 65 52 66 66 67 85 68 50 69 51 70 65 72 86 73 53 74
REMARK SMILES IDX 37 75 38 76 46 77 39 78 40 79 44 80 47 81 41 82 42 83 45 84
REMARK SMILES IDX 43 85 69 86 70 87 78 88 71 89 72 90 76 91 79 92 73 93 74 94
REMARK SMILES IDX 77 95 75 96 54 97 55 98 63 99 56 100 57 101 61 102 64 103
REMARK SMILES IDX 58 104 59 105 62 106 60 107
REMARK H PARENT 93 16 84 60 52 71
REMARK Flexibility Score: inf
ROOT
ATOM      1  C   UNL A   1      35.202  23.091  23.457  1.00  0.00     0.188 C 
ENDROOT
BRANCH   1   2
ATOM      2  O   UNL A   1      34.476  24.044  22.693  1.00  0.00    -0.376 OA
BRANCH   2   3
ATOM      3  C   UNL A   1      33.072  23.846  22.529  1.00  0.00     0.202 C 
BRANCH   3   4
ATOM      4  C   UNL A   1      32.141  24.957  23.034  1.00  0.00     0.261 C 
BRANCH   4   5
ATOM      5  O   UNL A   1      31.581  24.670  24.334  1.00  0.00    -0.462 OA
BRANCH   5   6
ATOM      6  C   UNL A   1      32.229  25.194  25.406  1.00  0.00     0.320 C 
ATOM      7  O   UNL A   1      32.734  24.512  26.293  1.00  0.00    -0.251 OA
BRANCH   6   8
ATOM      8  C   UNL A   1      32.421  26.709  25.342  1.00  0.00     0.180 C 
ATOM      9  N   UNL A   1      32.997  29.393  26.417  1.00  0.00    -0.191 N 
ATOM     10  C   UNL A   1      34.065  28.529  26.278  1.00  0.00     0.311 C 
ATOM     11  C   UNL A   1      31.833  29.181  25.728  1.00  0.00     0.319 C 
ATOM     12  O   UNL A   1      35.227  28.882  26.495  1.00  0.00    -0.247 OA
ATOM     13  C   UNL A   1      33.777  27.072  25.938  1.00  0.00     0.155 C 
ATOM     14  S   UNL A   1      31.128  27.673  26.179  1.00  0.00    -0.022 SA
ATOM     15  N   UNL A   1      31.495  30.017  24.814  1.00  0.00    -0.235 N 
ATOM     16  H   UNL A   1      32.155  30.727  24.641  1.00  0.00     0.313 HD
BRANCH   9  17
ATOM     17  C   UNL A   1      33.038  30.405  27.478  1.00  0.00     0.251 C 
BRANCH  17  18
ATOM     18  C   UNL A   1      33.386  31.853  27.101  1.00  0.00     0.082 C 
BRANCH  18  19
ATOM     19  C   UNL A   1      33.788  32.735  28.264  1.00  0.00    -0.040 A 
ATOM     20  C   UNL A   1      34.268  34.341  30.542  1.00  0.00     0.160 A 
ATOM     21  C   UNL A   1      33.604  34.860  29.431  1.00  0.00     0.051 A 
ATOM     22  C   UNL A   1      34.797  33.042  30.466  1.00  0.00     0.160 A 
ATOM     23  C   UNL A   1      33.400  34.076  28.291  1.00  0.00     0.008 A 
ATOM     24  C   UNL A   1      34.524  32.238  29.349  1.00  0.00     0.054 A 
BRANCH  20  25
ATOM     25  O   UNL A   1      34.364  34.995  31.739  1.00  0.00    -0.493 OA
ATOM     26  C   UNL A   1      33.257  35.777  32.161  1.00  0.00     0.278 C 
ENDBRANCH  20  25
BRANCH  22  27
ATOM     27  O   UNL A   1      35.570  32.440  31.431  1.00  0.00    -0.493 OA
ATOM     28  C   UNL A   1      36.944  32.828  31.435  1.00  0.00     0.278 C 
ENDBRANCH  22  27
ENDBRANCH  18  19
ENDBRANCH  17  18
ENDBRANCH   9  17
BRANCH  15  29
ATOM     29  C   UNL A   1      30.344  30.084  24.024  1.00  0.00     0.125 A 
ATOM     30  C   UNL A   1      30.299  29.220  22.912  1.00  0.00     0.055 A 
ATOM     31  C   UNL A   1      29.427  31.138  24.075  1.00  0.00     0.055 A 
ATOM     32  C   UNL A   1      29.402  29.429  21.859  1.00  0.00     0.043 A 
ATOM     33  C   UNL A   1      28.504  31.335  23.036  1.00  0.00     0.043 A 
ATOM     34  C   UNL A   1      28.514  30.493  21.930  1.00  0.00     0.123 A 
ATOM     35  F   UNL A   1      27.660  30.706  20.919  1.00  0.00    -0.207 F 
ENDBRANCH  15  29
ENDBRANCH   6   8
ENDBRANCH   5   6
ENDBRANCH   4   5
ENDBRANCH   3   4
ENDBRANCH   2   3
ENDBRANCH   1   2
BRANCH   1  36
ATOM     36  C   UNL A   1      34.438  21.945  24.136  1.00  0.00     0.188 C 
BRANCH  36  37
ATOM     37  O   UNL A   1      35.232  20.886  24.631  1.00  0.00    -0.376 OA
BRANCH  37  38
ATOM     38  C   UNL A   1      36.260  21.289  25.530  1.00  0.00     0.202 C 
BRANCH  38  39
ATOM     39  C   UNL A   1      37.660  20.767  25.162  1.00  0.00     0.261 C 
BRANCH  39  40
ATOM     40  O   UNL A   1      38.734  21.258  25.994  1.00  0.00    -0.460 OA
BRANCH  40  41
ATOM     41  C   UNL A   1      39.878  20.541  25.999  1.00  0.00     0.338 C 
ATOM     42  O   UNL A   1      40.002  19.355  25.718  1.00  0.00    -0.246 OA
BRANCH  41  43
ATOM     43  C   UNL A   1      41.009  21.465  26.219  1.00  0.00     0.060 A 
ATOM     44  C   UNL A   1      42.314  20.958  26.232  1.00  0.00     0.016 A 
ATOM     45  C   UNL A   1      40.793  22.819  26.461  1.00  0.00     0.016 A 
ATOM     46  C   UNL A   1      43.400  21.774  26.537  1.00  0.00     0.010 A 
ATOM     47  C   UNL A   1      41.885  23.643  26.767  1.00  0.00     0.010 A 
ATOM     48  C   UNL A   1      43.189  23.119  26.843  1.00  0.00    -0.014 A 
BRANCH  48  49
ATOM     49  C   UNL A   1      44.299  23.933  27.395  1.00  0.00     0.031 A 
ATOM     50  C   UNL A   1      44.381  24.124  28.884  1.00  0.00     0.074 A 
ATOM     51  C   UNL A   1      45.240  24.470  26.597  1.00  0.00     0.049 A 
ATOM     52  N   UNL A   1      45.150  24.921  29.581  1.00  0.00    -0.248 NA
ATOM     53  C   UNL A   1      43.469  23.302  29.695  1.00  0.00     0.031 C 
ATOM     54  C   UNL A   1      45.337  24.278  25.153  1.00  0.00     0.029 A 
ATOM     55  N   UNL A   1      46.289  25.305  26.898  1.00  0.00    -0.354 N 
ATOM     56  C   UNL A   1      44.787  24.727  30.907  1.00  0.00     0.074 A 
ATOM     57  C   UNL A   1      43.727  23.741  30.918  1.00  0.00     0.031 C 
ATOM     58  C   UNL A   1      46.375  24.992  24.686  1.00  0.00     0.029 A 
ATOM     59  C   UNL A   1      46.977  25.736  25.791  1.00  0.00     0.049 A 
ATOM     60  H   UNL A   1      46.524  25.568  27.817  1.00  0.00     0.167 HD
ATOM     61  C   UNL A   1      45.290  25.324  32.013  1.00  0.00     0.037 A 
ATOM     62  C   UNL A   1      47.949  26.663  25.678  1.00  0.00     0.037 A 
ATOM     63  C   UNL A   1      46.359  26.287  31.998  1.00  0.00     0.049 A 
ATOM     64  C   UNL A   1      48.431  27.382  26.913  1.00  0.00     0.074 A 
ATOM     65  C   UNL A   1      46.946  26.944  33.065  1.00  0.00     0.029 A 
ATOM     66  N   UNL A   1      47.002  26.731  30.852  1.00  0.00    -0.354 N 
ATOM     67  N   UNL A   1      48.064  27.223  28.162  1.00  0.00    -0.248 NA
ATOM     68  C   UNL A   1      49.455  28.419  26.719  1.00  0.00     0.031 C 
ATOM     69  C   UNL A   1      47.911  27.822  32.561  1.00  0.00     0.029 A 
ATOM     70  C   UNL A   1      47.965  27.672  31.185  1.00  0.00     0.049 A 
ATOM     71  H   UNL A   1      46.806  26.424  29.938  1.00  0.00     0.167 HD
ATOM     72  C   UNL A   1      48.831  28.114  28.903  1.00  0.00     0.074 A 
ATOM     73  C   UNL A   1      49.691  28.804  27.965  1.00  0.00     0.031 C 
ATOM     74  C   UNL A   1      48.824  28.340  30.240  1.00  0.00     0.037 A 
BRANCH  61  75
ATOM     75  C   UNL A   1      44.655  24.987  33.331  1.00  0.00     0.064 A 
ATOM     76  C   UNL A   1      45.100  23.917  34.120  1.00  0.00     0.173 A 
ATOM     77  C   UNL A   1      43.596  25.768  33.821  1.00  0.00     0.173 A 
ATOM     78  F   UNL A   1      46.098  23.130  33.689  1.00  0.00    -0.203 F 
ATOM     79  C   UNL A   1      44.491  23.623  35.337  1.00  0.00     0.198 A 
ATOM     80  C   UNL A   1      43.010  25.490  35.052  1.00  0.00     0.198 A 
ATOM     81  F   UNL A   1      43.134  26.805  33.107  1.00  0.00    -0.203 F 
ATOM     82  F   UNL A   1      44.900  22.566  36.052  1.00  0.00    -0.200 F 
ATOM     83  C   UNL A   1      43.452  24.414  35.806  1.00  0.00     0.200 A 
ATOM     84  F   UNL A   1      42.014  26.262  35.508  1.00  0.00    -0.200 F 
ATOM     85  F   UNL A   1      42.872  24.134  36.981  1.00  0.00    -0.200 F 
ENDBRANCH  61  75
BRANCH  62  86
ATOM     86  C   UNL A   1      48.509  26.999  24.342  1.00  0.00     0.064 A 
ATOM     87  C   UNL A   1      49.808  26.613  23.985  1.00  0.00     0.173 A 
ATOM     88  C   UNL A   1      47.768  27.737  23.407  1.00  0.00     0.173 A 
ATOM     89  F   UNL A   1      50.567  25.933  24.857  1.00  0.00    -0.203 F 
ATOM     90  C   UNL A   1      50.350  26.966  22.750  1.00  0.00     0.198 A 
ATOM     91  C   UNL A   1      48.300  28.063  22.161  1.00  0.00     0.198 A 
ATOM     92  F   UNL A   1      46.522  28.138  23.701  1.00  0.00    -0.203 F 
ATOM     93  F   UNL A   1      51.613  26.627  22.455  1.00  0.00    -0.200 F 
ATOM     94  C   UNL A   1      49.593  27.684  21.837  1.00  0.00     0.200 A 
ATOM     95  F   UNL A   1      47.560  28.748  21.279  1.00  0.00    -0.200 F 
ATOM     96  F   UNL A   1      50.115  28.022  20.649  1.00  0.00    -0.200 F 
ENDBRANCH  62  86
BRANCH  74  97
ATOM     97  C   UNL A   1      49.808  29.338  30.778  1.00  0.00     0.064 A 
ATOM     98  C   UNL A   1      49.477  30.692  30.935  1.00  0.00     0.173 A 
ATOM     99  C   UNL A   1      51.087  28.924  31.181  1.00  0.00     0.173 A 
ATOM    100  F   UNL A   1      48.273  31.142  30.551  1.00  0.00    -0.203 F 
ATOM    101  C   UNL A   1      50.399  31.599  31.453  1.00  0.00     0.198 A 
ATOM    102  C   UNL A   1      51.995  29.827  31.728  1.00  0.00     0.198 A 
ATOM    103  F   UNL A   1      51.452  27.639  31.059  1.00  0.00    -0.203 F 
ATOM    104  F   UNL A   1      50.077  32.896  31.551  1.00  0.00    -0.200 F 
ATOM    105  C   UNL A   1      51.653  31.164  31.855  1.00  0.00     0.200 A 
ATOM    106  F   UNL A   1      53.201  29.402  32.129  1.00  0.00    -0.200 F 
ATOM    107  F   UNL A   1      52.535  32.037  32.362  1.00  0.00    -0.200 F 
ENDBRANCH  74  97
ENDBRANCH  48  49
ENDBRANCH  41  43
ENDBRANCH  40  41
ENDBRANCH  39  40
ENDBRANCH  38  39
ENDBRANCH  37  38
ENDBRANCH  36  37
ENDBRANCH   1  36
TORSDOF 23
ENDMDL
