MODEL 1
REMARK VINA RESULT:     -12.8      0.000      0.000
REMARK SMILES Cc1ccc(Nc2c(F)cccc2Cl)c(CC(=O)OCCOCCOCCOC(=O)c2ccc(-c3c4nc(c(-c5c(F)c(F)c(F)c(F)c5F)c5ccc([nH]5)c(-c5c(F)c(F)c(F)c(F)c5F)c5nc(c(-c6c(F)c(F)c(F)c(F)c6F)c6ccc3[nH]6)C=C5)C=C4)cc2)c1
REMARK SMILES IDX 23 1 22 2 21 3 20 4 19 5 17 6 18 7 16 8 15 9 1 10 2 11 3 12
REMARK SMILES IDX 94 13 4 14 5 15 6 16 7 18 8 19 13 20 9 21 10 22 12 23 14 24
REMARK SMILES IDX 11 25 24 26 25 27 26 28 27 29 28 30 29 31 30 32 31 33 32 34
REMARK SMILES IDX 93 35 33 36 92 37 34 38 35 39 36 40 86 41 37 42 91 43 85 44
REMARK SMILES IDX 87 45 38 46 90 47 84 48 83 49 39 51 71 52 51 53 70 54 52 55
REMARK SMILES IDX 55 56 69 57 88 58 53 59 54 60 68 62 89 63 56 64 40 65 41 66
REMARK SMILES IDX 49 67 42 68 43 69 47 70 50 71 44 72 45 73 48 74 46 75 72 76
REMARK SMILES IDX 73 77 81 78 74 79 75 80 79 81 82 82 76 83 77 84 80 85 78 86
REMARK SMILES IDX 57 87 58 88 66 89 59 90 60 91 64 92 67 93 61 94 62 95 65 96
REMARK SMILES IDX 63 97
REMARK H PARENT 6 17 87 50 55 61
REMARK Flexibility Score: inf
ROOT
ATOM      1  C   UNL A   1      31.110  28.850  22.634  1.00  0.00     0.188 C 
ENDROOT
BRANCH   1   2
ATOM      2  O   UNL A   1      30.634  27.683  21.996  1.00  0.00    -0.376 OA
BRANCH   2   3
ATOM      3  C   UNL A   1      31.204  26.417  22.255  1.00  0.00     0.202 C 
BRANCH   3   4
ATOM      4  C   UNL A   1      32.589  25.738  21.737  1.00  0.00     0.261 C 
BRANCH   4   5
ATOM      5  O   UNL A   1      34.032  24.970  22.482  1.00  0.00    -0.463 OA
BRANCH   5   6
ATOM      6  C   UNL A   1      34.702  23.617  23.081  1.00  0.00     0.310 C 
ATOM      7  O   UNL A   1      35.839  23.130  23.086  1.00  0.00    -0.252 OA
BRANCH   6   8
ATOM      8  C   UNL A   1      33.855  22.940  24.009  1.00  0.00     0.160 C 
BRANCH   8   9
ATOM      9  C   UNL A   1      34.050  23.788  25.219  1.00  0.00    -0.013 A 
ATOM     10  C   UNL A   1      30.606  23.286  26.762  1.00  0.00     0.044 C 
ATOM     11  C   UNL A   1      32.094  23.320  26.620  1.00  0.00    -0.051 A 
ATOM     12  C   UNL A   1      32.951  22.574  27.398  1.00  0.00     0.005 A 
ATOM     13  C   UNL A   1      32.665  24.029  25.591  1.00  0.00     0.009 A 
ATOM     14  C   UNL A   1      34.353  22.573  27.129  1.00  0.00     0.026 A 
ATOM     15  C   UNL A   1      35.158  23.380  26.001  1.00  0.00     0.042 A 
BRANCH  15  16
ATOM     16  N   UNL A   1      37.086  23.927  26.113  1.00  0.00    -0.352 N 
ATOM     17  H   UNL A   1      37.230  24.846  25.790  1.00  0.00     0.167 HD
BRANCH  16  18
ATOM     18  C   UNL A   1      38.629  23.146  26.664  1.00  0.00     0.094 A 
ATOM     19  C   UNL A   1      39.678  23.800  27.544  1.00  0.00     0.148 A 
ATOM     20  C   UNL A   1      39.133  22.007  26.013  1.00  0.00     0.067 A 
ATOM     21  F   UNL A   1      39.559  24.970  28.204  1.00  0.00    -0.205 F 
ATOM     22  C   UNL A   1      41.008  23.389  27.652  1.00  0.00     0.041 A 
ATOM     23  C   UNL A   1      40.528  21.683  26.078  1.00  0.00     0.023 A 
ATOM     24  Cl  UNL A   1      38.202  20.761  25.331  1.00  0.00    -0.082 Cl
ATOM     25  C   UNL A   1      41.458  22.375  26.856  1.00  0.00     0.005 A 
ENDBRANCH  16  18
ENDBRANCH  15  16
ENDBRANCH   8   9
ENDBRANCH   6   8
ENDBRANCH   5   6
ENDBRANCH   4   5
ENDBRANCH   3   4
ENDBRANCH   2   3
ENDBRANCH   1   2
BRANCH   1  26
ATOM     26  C   UNL A   1      30.994  29.097  24.144  1.00  0.00     0.188 C 
BRANCH  26  27
ATOM     27  O   UNL A   1      30.428  30.345  24.487  1.00  0.00    -0.376 OA
BRANCH  27  28
ATOM     28  C   UNL A   1      31.028  31.012  25.601  1.00  0.00     0.202 C 
BRANCH  28  29
ATOM     29  C   UNL A   1      31.794  30.156  26.703  1.00  0.00     0.261 C 
BRANCH  29  30
ATOM     30  O   UNL A   1      32.903  30.841  27.429  1.00  0.00    -0.460 OA
BRANCH  30  31
ATOM     31  C   UNL A   1      34.267  30.486  27.319  1.00  0.00     0.338 C 
ATOM     32  O   UNL A   1      34.585  29.649  26.500  1.00  0.00    -0.246 OA
BRANCH  31  33
ATOM     33  C   UNL A   1      35.182  31.253  28.460  1.00  0.00     0.060 A 
ATOM     34  C   UNL A   1      36.263  32.859  28.729  1.00  0.00     0.016 A 
ATOM     35  C   UNL A   1      36.044  29.715  28.846  1.00  0.00     0.016 A 
ATOM     36  C   UNL A   1      38.101  32.643  29.147  1.00  0.00     0.010 A 
ATOM     37  C   UNL A   1      37.762  29.659  29.143  1.00  0.00     0.010 A 
ATOM     38  C   UNL A   1      38.920  31.009  29.332  1.00  0.00    -0.014 A 
BRANCH  38  39
ATOM     39  C   UNL A   1      40.603  30.407  29.908  1.00  0.00     0.031 A 
ATOM     40  C   UNL A   1      41.656  28.949  29.283  1.00  0.00     0.074 A 
ATOM     41  C   UNL A   1      41.437  31.188  30.635  1.00  0.00     0.049 A 
ATOM     42  N   UNL A   1      42.159  27.947  29.983  1.00  0.00    -0.248 NA
ATOM     43  C   UNL A   1      41.792  28.363  27.752  1.00  0.00     0.031 C 
ATOM     44  C   UNL A   1      42.903  31.025  30.750  1.00  0.00     0.029 A 
ATOM     45  N   UNL A   1      41.199  32.357  31.366  1.00  0.00    -0.354 N 
ATOM     46  C   UNL A   1      42.582  26.929  29.055  1.00  0.00     0.074 A 
ATOM     47  C   UNL A   1      41.858  27.060  27.862  1.00  0.00     0.031 C 
ATOM     48  C   UNL A   1      43.366  31.835  31.720  1.00  0.00     0.029 A 
ATOM     49  C   UNL A   1      42.198  32.395  32.367  1.00  0.00     0.049 A 
ATOM     50  H   UNL A   1      40.484  33.017  31.215  1.00  0.00     0.167 HD
ATOM     51  C   UNL A   1      43.833  26.374  29.030  1.00  0.00     0.037 A 
ATOM     52  C   UNL A   1      41.831  32.172  33.658  1.00  0.00     0.037 A 
ATOM     53  C   UNL A   1      44.558  26.990  30.104  1.00  0.00     0.049 A 
ATOM     54  C   UNL A   1      42.393  30.855  34.156  1.00  0.00     0.074 A 
ATOM     55  C   UNL A   1      45.410  28.077  30.167  1.00  0.00     0.029 A 
ATOM     56  N   UNL A   1      43.995  26.849  31.353  1.00  0.00    -0.354 N 
ATOM     57  N   UNL A   1      42.832  29.903  33.368  1.00  0.00    -0.248 NA
ATOM     58  C   UNL A   1      42.607  30.542  35.563  1.00  0.00     0.031 C 
ATOM     59  C   UNL A   1      45.309  28.613  31.487  1.00  0.00     0.029 A 
ATOM     60  C   UNL A   1      44.414  27.838  32.208  1.00  0.00     0.049 A 
ATOM     61  H   UNL A   1      43.371  26.130  31.602  1.00  0.00     0.167 HD
ATOM     62  C   UNL A   1      43.378  28.897  34.112  1.00  0.00     0.074 A 
ATOM     63  C   UNL A   1      43.209  29.343  35.480  1.00  0.00     0.031 C 
ATOM     64  C   UNL A   1      43.933  27.773  33.574  1.00  0.00     0.037 A 
BRANCH  51  65
ATOM     65  C   UNL A   1      44.438  25.621  27.826  1.00  0.00     0.064 A 
ATOM     66  C   UNL A   1      44.978  26.337  26.739  1.00  0.00     0.173 A 
ATOM     67  C   UNL A   1      44.519  24.209  27.671  1.00  0.00     0.173 A 
ATOM     68  F   UNL A   1      45.040  27.673  26.759  1.00  0.00    -0.203 F 
ATOM     69  C   UNL A   1      45.484  25.712  25.589  1.00  0.00     0.198 A 
ATOM     70  C   UNL A   1      44.943  23.586  26.485  1.00  0.00     0.198 A 
ATOM     71  F   UNL A   1      44.231  23.372  28.679  1.00  0.00    -0.203 F 
ATOM     72  F   UNL A   1      46.018  26.457  24.610  1.00  0.00    -0.200 F 
ATOM     73  C   UNL A   1      45.440  24.339  25.446  1.00  0.00     0.200 A 
ATOM     74  F   UNL A   1      44.882  22.250  26.367  1.00  0.00    -0.200 F 
ATOM     75  F   UNL A   1      45.902  23.749  24.335  1.00  0.00    -0.200 F 
ENDBRANCH  51  65
BRANCH  52  76
ATOM     76  C   UNL A   1      40.519  32.834  33.935  1.00  0.00     0.064 A 
ATOM     77  C   UNL A   1      39.385  31.986  34.015  1.00  0.00     0.173 A 
ATOM     78  C   UNL A   1      40.427  34.074  34.585  1.00  0.00     0.173 A 
ATOM     79  F   UNL A   1      39.437  30.752  33.486  1.00  0.00    -0.203 F 
ATOM     80  C   UNL A   1      38.255  32.332  34.757  1.00  0.00     0.198 A 
ATOM     81  C   UNL A   1      39.288  34.416  35.330  1.00  0.00     0.198 A 
ATOM     82  F   UNL A   1      41.479  34.903  34.610  1.00  0.00    -0.203 F 
ATOM     83  F   UNL A   1      37.265  31.441  34.924  1.00  0.00    -0.200 F 
ATOM     84  C   UNL A   1      38.207  33.550  35.409  1.00  0.00     0.200 A 
ATOM     85  F   UNL A   1      39.267  35.552  36.042  1.00  0.00    -0.200 F 
ATOM     86  F   UNL A   1      37.146  33.863  36.170  1.00  0.00    -0.200 F 
ENDBRANCH  52  76
BRANCH  64  87
ATOM     87  C   UNL A   1      44.055  26.447  34.300  1.00  0.00     0.064 A 
ATOM     88  C   UNL A   1      42.946  25.722  34.757  1.00  0.00     0.173 A 
ATOM     89  C   UNL A   1      45.297  25.758  34.369  1.00  0.00     0.173 A 
ATOM     90  F   UNL A   1      41.696  26.178  34.607  1.00  0.00    -0.203 F 
ATOM     91  C   UNL A   1      43.080  24.460  35.335  1.00  0.00     0.198 A 
ATOM     92  C   UNL A   1      45.403  24.451  34.828  1.00  0.00     0.198 A 
ATOM     93  F   UNL A   1      46.448  26.313  33.958  1.00  0.00    -0.203 F 
ATOM     94  F   UNL A   1      42.001  23.859  35.854  1.00  0.00    -0.200 F 
ATOM     95  C   UNL A   1      44.302  23.817  35.353  1.00  0.00     0.200 A 
ATOM     96  F   UNL A   1      46.578  23.810  34.743  1.00  0.00    -0.200 F 
ATOM     97  F   UNL A   1      44.413  22.586  35.865  1.00  0.00    -0.200 F 
ENDBRANCH  64  87
ENDBRANCH  38  39
ENDBRANCH  31  33
ENDBRANCH  30  31
ENDBRANCH  29  30
ENDBRANCH  28  29
ENDBRANCH  27  28
ENDBRANCH  26  27
ENDBRANCH   1  26
TORSDOF 20
ENDMDL
MODEL 2
REMARK VINA RESULT:     -12.5      4.448      8.808
REMARK SMILES Cc1ccc(Nc2c(F)cccc2Cl)c(CC(=O)OCCOCCOCCOC(=O)c2ccc(-c3c4nc(c(-c5c(F)c(F)c(F)c(F)c5F)c5ccc([nH]5)c(-c5c(F)c(F)c(F)c(F)c5F)c5nc(c(-c6c(F)c(F)c(F)c(F)c6F)c6ccc3[nH]6)C=C5)C=C4)cc2)c1
REMARK SMILES IDX 23 1 22 2 21 3 20 4 19 5 17 6 18 7 16 8 15 9 1 10 2 11 3 12
REMARK SMILES IDX 94 13 4 14 5 15 6 16 7 18 8 19 13 20 9 21 10 22 12 23 14 24
REMARK SMILES IDX 11 25 24 26 25 27 26 28 27 29 28 30 29 31 30 32 31 33 32 34
REMARK SMILES IDX 93 35 33 36 92 37 34 38 35 39 36 40 86 41 37 42 91 43 85 44
REMARK SMILES IDX 87 45 38 46 90 47 84 48 83 49 39 51 71 52 51 53 70 54 52 55
REMARK SMILES IDX 55 56 69 57 88 58 53 59 54 60 68 62 89 63 56 64 40 65 41 66
REMARK SMILES IDX 49 67 42 68 43 69 47 70 50 71 44 72 45 73 48 74 46 75 72 76
REMARK SMILES IDX 73 77 81 78 74 79 75 80 79 81 82 82 76 83 77 84 80 85 78 86
REMARK SMILES IDX 57 87 58 88 66 89 59 90 60 91 64 92 67 93 61 94 62 95 65 96
REMARK SMILES IDX 63 97
REMARK H PARENT 6 17 87 50 55 61
REMARK Flexibility Score: inf
ROOT
ATOM      1  C   UNL A   1      40.220  21.991  26.408  1.00  0.00     0.188 C 
ENDROOT
BRANCH   1   2
ATOM      2  O   UNL A   1      38.841  22.255  26.252  1.00  0.00    -0.376 OA
BRANCH   2   3
ATOM      3  C   UNL A   1      38.048  21.521  25.343  1.00  0.00     0.202 C 
BRANCH   3   4
ATOM      4  C   UNL A   1      36.988  22.007  24.208  1.00  0.00     0.261 C 
BRANCH   4   5
ATOM      5  O   UNL A   1      35.635  23.184  24.095  1.00  0.00    -0.463 OA
BRANCH   5   6
ATOM      6  C   UNL A   1      34.792  24.367  24.820  1.00  0.00     0.310 C 
ATOM      7  O   UNL A   1      34.955  25.071  25.825  1.00  0.00    -0.252 OA
BRANCH   6   8
ATOM      8  C   UNL A   1      33.740  24.881  24.004  1.00  0.00     0.160 C 
BRANCH   8   9
ATOM      9  C   UNL A   1      32.552  24.446  24.790  1.00  0.00    -0.013 A 
ATOM     10  C   UNL A   1      30.259  27.357  23.916  1.00  0.00     0.044 C 
ATOM     11  C   UNL A   1      30.757  25.955  24.080  1.00  0.00    -0.051 A 
ATOM     12  C   UNL A   1      30.273  24.885  23.361  1.00  0.00     0.005 A 
ATOM     13  C   UNL A   1      31.835  25.706  24.894  1.00  0.00     0.009 A 
ATOM     14  C   UNL A   1      30.875  23.598  23.492  1.00  0.00     0.026 A 
ATOM     15  C   UNL A   1      32.098  23.153  24.428  1.00  0.00     0.042 A 
BRANCH  15  16
ATOM     16  N   UNL A   1      32.417  21.298  25.124  1.00  0.00    -0.352 N 
ATOM     17  H   UNL A   1      32.664  21.297  26.077  1.00  0.00     0.167 HD
BRANCH  16  18
ATOM     18  C   UNL A   1      32.362  19.622  24.430  1.00  0.00     0.094 A 
ATOM     19  C   UNL A   1      32.600  18.342  25.208  1.00  0.00     0.148 A 
ATOM     20  C   UNL A   1      32.456  19.413  23.043  1.00  0.00     0.067 A 
ATOM     21  F   UNL A   1      32.702  18.221  26.547  1.00  0.00    -0.205 F 
ATOM     22  C   UNL A   1      32.948  17.110  24.647  1.00  0.00     0.041 A 
ATOM     23  C   UNL A   1      32.911  18.157  22.520  1.00  0.00     0.023 A 
ATOM     24  Cl  UNL A   1      31.823  20.431  21.841  1.00  0.00    -0.082 Cl
ATOM     25  C   UNL A   1      33.183  17.034  23.304  1.00  0.00     0.005 A 
ENDBRANCH  16  18
ENDBRANCH  15  16
ENDBRANCH   8   9
ENDBRANCH   6   8
ENDBRANCH   5   6
ENDBRANCH   4   5
ENDBRANCH   3   4
ENDBRANCH   2   3
ENDBRANCH   1   2
BRANCH   1  26
ATOM     26  C   UNL A   1      41.047  22.483  27.602  1.00  0.00     0.188 C 
BRANCH  26  27
ATOM     27  O   UNL A   1      41.714  23.708  27.381  1.00  0.00    -0.376 OA
BRANCH  27  28
ATOM     28  C   UNL A   1      42.275  23.882  26.077  1.00  0.00     0.202 C 
BRANCH  28  29
ATOM     29  C   UNL A   1      42.847  25.306  25.656  1.00  0.00     0.261 C 
BRANCH  29  30
ATOM     30  O   UNL A   1      41.862  26.286  25.110  1.00  0.00    -0.460 OA
BRANCH  30  31
ATOM     31  C   UNL A   1      41.600  27.553  25.680  1.00  0.00     0.338 C 
ATOM     32  O   UNL A   1      41.899  28.547  25.050  1.00  0.00    -0.246 OA
BRANCH  31  33
ATOM     33  C   UNL A   1      41.000  27.411  27.212  1.00  0.00     0.060 A 
ATOM     34  C   UNL A   1      39.312  27.302  28.191  1.00  0.00     0.016 A 
ATOM     35  C   UNL A   1      42.106  28.711  27.798  1.00  0.00     0.016 A 
ATOM     36  C   UNL A   1      38.927  28.653  29.466  1.00  0.00     0.010 A 
ATOM     37  C   UNL A   1      41.587  29.936  28.928  1.00  0.00     0.010 A 
ATOM     38  C   UNL A   1      40.058  30.048  29.847  1.00  0.00    -0.014 A 
BRANCH  38  39
ATOM     39  C   UNL A   1      40.117  31.420  31.130  1.00  0.00     0.031 A 
ATOM     40  C   UNL A   1      41.406  31.764  32.489  1.00  0.00     0.074 A 
ATOM     41  C   UNL A   1      39.393  32.557  31.001  1.00  0.00     0.049 A 
ATOM     42  N   UNL A   1      41.203  31.911  33.786  1.00  0.00    -0.248 NA
ATOM     43  C   UNL A   1      43.031  31.513  32.449  1.00  0.00     0.031 C 
ATOM     44  C   UNL A   1      39.682  33.852  31.656  1.00  0.00     0.029 A 
ATOM     45  N   UNL A   1      38.290  32.859  30.195  1.00  0.00    -0.354 N 
ATOM     46  C   UNL A   1      42.481  31.817  34.445  1.00  0.00     0.074 A 
ATOM     47  C   UNL A   1      43.364  31.084  33.640  1.00  0.00     0.031 C 
ATOM     48  C   UNL A   1      38.640  34.683  31.478  1.00  0.00     0.029 A 
ATOM     49  C   UNL A   1      37.593  33.891  30.868  1.00  0.00     0.049 A 
ATOM     50  H   UNL A   1      38.049  32.441  29.337  1.00  0.00     0.167 HD
ATOM     51  C   UNL A   1      42.975  32.749  35.317  1.00  0.00     0.037 A 
ATOM     52  C   UNL A   1      36.394  33.595  31.441  1.00  0.00     0.037 A 
ATOM     53  C   UNL A   1      41.961  33.758  35.430  1.00  0.00     0.049 A 
ATOM     54  C   UNL A   1      36.494  33.655  32.953  1.00  0.00     0.074 A 
ATOM     55  C   UNL A   1      41.752  34.964  34.786  1.00  0.00     0.029 A 
ATOM     56  N   UNL A   1      40.729  33.310  35.853  1.00  0.00    -0.354 N 
ATOM     57  N   UNL A   1      37.625  33.615  33.613  1.00  0.00    -0.248 NA
ATOM     58  C   UNL A   1      35.353  33.870  33.834  1.00  0.00     0.031 C 
ATOM     59  C   UNL A   1      40.345  35.207  34.798  1.00  0.00     0.029 A 
ATOM     60  C   UNL A   1      39.724  34.159  35.461  1.00  0.00     0.049 A 
ATOM     61  H   UNL A   1      40.586  32.486  36.371  1.00  0.00     0.167 HD
ATOM     62  C   UNL A   1      37.394  33.803  34.945  1.00  0.00     0.074 A 
ATOM     63  C   UNL A   1      35.956  33.955  35.033  1.00  0.00     0.031 C 
ATOM     64  C   UNL A   1      38.379  33.828  35.889  1.00  0.00     0.037 A 
BRANCH  51  65
ATOM     65  C   UNL A   1      44.463  32.897  35.698  1.00  0.00     0.064 A 
ATOM     66  C   UNL A   1      45.331  33.660  34.892  1.00  0.00     0.173 A 
ATOM     67  C   UNL A   1      45.103  32.318  36.830  1.00  0.00     0.173 A 
ATOM     68  F   UNL A   1      44.872  34.325  33.826  1.00  0.00    -0.203 F 
ATOM     69  C   UNL A   1      46.706  33.780  35.150  1.00  0.00     0.198 A 
ATOM     70  C   UNL A   1      46.492  32.365  37.039  1.00  0.00     0.198 A 
ATOM     71  F   UNL A   1      44.403  31.720  37.806  1.00  0.00    -0.203 F 
ATOM     72  F   UNL A   1      47.462  34.556  34.361  1.00  0.00    -0.200 F 
ATOM     73  C   UNL A   1      47.294  33.109  36.204  1.00  0.00     0.200 A 
ATOM     74  F   UNL A   1      47.042  31.696  38.066  1.00  0.00    -0.200 F 
ATOM     75  F   UNL A   1      48.611  33.207  36.431  1.00  0.00    -0.200 F 
ENDBRANCH  51  65
BRANCH  52  76
ATOM     76  C   UNL A   1      35.621  32.673  30.554  1.00  0.00     0.064 A 
ATOM     77  C   UNL A   1      34.920  33.270  29.476  1.00  0.00     0.173 A 
ATOM     78  C   UNL A   1      35.943  31.314  30.422  1.00  0.00     0.173 A 
ATOM     79  F   UNL A   1      34.654  34.587  29.501  1.00  0.00    -0.203 F 
ATOM     80  C   UNL A   1      34.620  32.566  28.309  1.00  0.00     0.198 A 
ATOM     81  C   UNL A   1      35.639  30.611  29.246  1.00  0.00     0.198 A 
ATOM     82  F   UNL A   1      36.661  30.694  31.368  1.00  0.00    -0.203 F 
ATOM     83  F   UNL A   1      34.084  33.207  27.258  1.00  0.00    -0.200 F 
ATOM     84  C   UNL A   1      34.976  31.234  28.199  1.00  0.00     0.200 A 
ATOM     85  F   UNL A   1      36.061  29.348  29.090  1.00  0.00    -0.200 F 
ATOM     86  F   UNL A   1      34.740  30.568  27.057  1.00  0.00    -0.200 F 
ENDBRANCH  52  76
BRANCH  64  87
ATOM     87  C   UNL A   1      38.169  33.503  37.355  1.00  0.00     0.064 A 
ATOM     88  C   UNL A   1      37.765  32.238  37.806  1.00  0.00     0.173 A 
ATOM     89  C   UNL A   1      38.577  34.406  38.375  1.00  0.00     0.173 A 
ATOM     90  F   UNL A   1      37.506  31.237  36.957  1.00  0.00    -0.203 F 
ATOM     91  C   UNL A   1      37.672  31.938  39.165  1.00  0.00     0.198 A 
ATOM     92  C   UNL A   1      38.604  34.055  39.719  1.00  0.00     0.198 A 
ATOM     93  F   UNL A   1      39.002  35.649  38.102  1.00  0.00    -0.203 F 
ATOM     94  F   UNL A   1      37.177  30.751  39.541  1.00  0.00    -0.200 F 
ATOM     95  C   UNL A   1      38.109  32.836  40.119  1.00  0.00     0.200 A 
ATOM     96  F   UNL A   1      39.125  34.903  40.617  1.00  0.00    -0.200 F 
ATOM     97  F   UNL A   1      38.063  32.521  41.418  1.00  0.00    -0.200 F 
ENDBRANCH  64  87
ENDBRANCH  38  39
ENDBRANCH  31  33
ENDBRANCH  30  31
ENDBRANCH  29  30
ENDBRANCH  28  29
ENDBRANCH  27  28
ENDBRANCH  26  27
ENDBRANCH   1  26
TORSDOF 20
ENDMDL
MODEL 3
REMARK VINA RESULT:     -12.1      4.436      8.820
REMARK SMILES Cc1ccc(Nc2c(F)cccc2Cl)c(CC(=O)OCCOCCOCCOC(=O)c2ccc(-c3c4nc(c(-c5c(F)c(F)c(F)c(F)c5F)c5ccc([nH]5)c(-c5c(F)c(F)c(F)c(F)c5F)c5nc(c(-c6c(F)c(F)c(F)c(F)c6F)c6ccc3[nH]6)C=C5)C=C4)cc2)c1
REMARK SMILES IDX 23 1 22 2 21 3 20 4 19 5 17 6 18 7 16 8 15 9 1 10 2 11 3 12
REMARK SMILES IDX 94 13 4 14 5 15 6 16 7 18 8 19 13 20 9 21 10 22 12 23 14 24
REMARK SMILES IDX 11 25 24 26 25 27 26 28 27 29 28 30 29 31 30 32 31 33 32 34
REMARK SMILES IDX 93 35 33 36 92 37 34 38 35 39 36 40 86 41 37 42 91 43 85 44
REMARK SMILES IDX 87 45 38 46 90 47 84 48 83 49 39 51 71 52 51 53 70 54 52 55
REMARK SMILES IDX 55 56 69 57 88 58 53 59 54 60 68 62 89 63 56 64 40 65 41 66
REMARK SMILES IDX 49 67 42 68 43 69 47 70 50 71 44 72 45 73 48 74 46 75 72 76
REMARK SMILES IDX 73 77 81 78 74 79 75 80 79 81 82 82 76 83 77 84 80 85 78 86
REMARK SMILES IDX 57 87 58 88 66 89 59 90 60 91 64 92 67 93 61 94 62 95 65 96
REMARK SMILES IDX 63 97
REMARK H PARENT 6 17 87 50 55 61
REMARK Flexibility Score: inf
ROOT
ATOM      1  C   UNL A   1      40.450  20.986  26.693  1.00  0.00     0.188 C 
ENDROOT
BRANCH   1   2
ATOM      2  O   UNL A   1      39.663  22.149  26.544  1.00  0.00    -0.376 OA
BRANCH   2   3
ATOM      3  C   UNL A   1      38.443  22.128  25.832  1.00  0.00     0.202 C 
BRANCH   3   4
ATOM      4  C   UNL A   1      37.206  23.184  25.791  1.00  0.00     0.261 C 
BRANCH   4   5
ATOM      5  O   UNL A   1      35.627  23.322  24.945  1.00  0.00    -0.463 OA
BRANCH   5   6
ATOM      6  C   UNL A   1      34.833  23.776  23.604  1.00  0.00     0.310 C 
ATOM      7  O   UNL A   1      34.709  23.319  22.460  1.00  0.00    -0.252 OA
BRANCH   6   8
ATOM      8  C   UNL A   1      33.873  24.804  23.847  1.00  0.00     0.160 C 
BRANCH   8   9
ATOM      9  C   UNL A   1      32.841  24.036  24.600  1.00  0.00    -0.013 A 
ATOM     10  C   UNL A   1      31.174  26.981  26.344  1.00  0.00     0.044 C 
ATOM     11  C   UNL A   1      31.345  25.748  25.515  1.00  0.00    -0.051 A 
ATOM     12  C   UNL A   1      30.458  25.359  24.535  1.00  0.00     0.005 A 
ATOM     13  C   UNL A   1      32.496  25.005  25.627  1.00  0.00     0.009 A 
ATOM     14  C   UNL A   1      30.747  24.231  23.709  1.00  0.00     0.026 A 
ATOM     15  C   UNL A   1      32.016  23.253  23.755  1.00  0.00     0.042 A 
BRANCH  15  16
ATOM     16  N   UNL A   1      32.038  21.344  23.135  1.00  0.00    -0.352 N 
ATOM     17  H   UNL A   1      31.600  21.234  22.259  1.00  0.00     0.167 HD
BRANCH  16  18
ATOM     18  C   UNL A   1      32.666  19.772  23.789  1.00  0.00     0.094 A 
ATOM     19  C   UNL A   1      32.681  18.453  23.039  1.00  0.00     0.148 A 
ATOM     20  C   UNL A   1      32.848  19.587  25.170  1.00  0.00     0.067 A 
ATOM     21  F   UNL A   1      32.413  18.268  21.731  1.00  0.00    -0.205 F 
ATOM     22  C   UNL A   1      32.782  17.191  23.630  1.00  0.00     0.041 A 
ATOM     23  C   UNL A   1      32.849  18.271  25.740  1.00  0.00     0.023 A 
ATOM     24  Cl  UNL A   1      33.347  20.778  26.273  1.00  0.00    -0.082 Cl
ATOM     25  C   UNL A   1      32.787  17.093  24.993  1.00  0.00     0.005 A 
ENDBRANCH  16  18
ENDBRANCH  15  16
ENDBRANCH   8   9
ENDBRANCH   6   8
ENDBRANCH   5   6
ENDBRANCH   4   5
ENDBRANCH   3   4
ENDBRANCH   2   3
ENDBRANCH   1   2
BRANCH   1  26
ATOM     26  C   UNL A   1      40.276  19.729  25.830  1.00  0.00     0.188 C 
BRANCH  26  27
ATOM     27  O   UNL A   1      41.418  18.900  25.774  1.00  0.00    -0.376 OA
BRANCH  27  28
ATOM     28  C   UNL A   1      42.676  19.568  25.908  1.00  0.00     0.202 C 
BRANCH  28  29
ATOM     29  C   UNL A   1      43.884  19.155  24.957  1.00  0.00     0.261 C 
BRANCH  29  30
ATOM     30  O   UNL A   1      44.579  20.263  24.240  1.00  0.00    -0.460 OA
BRANCH  30  31
ATOM     31  C   UNL A   1      45.845  20.776  24.604  1.00  0.00     0.338 C 
ATOM     32  O   UNL A   1      46.725  19.996  24.903  1.00  0.00    -0.246 OA
BRANCH  31  33
ATOM     33  C   UNL A   1      45.835  22.427  24.645  1.00  0.00     0.060 A 
ATOM     34  C   UNL A   1      46.922  23.978  24.163  1.00  0.00     0.016 A 
ATOM     35  C   UNL A   1      45.305  22.411  26.370  1.00  0.00     0.016 A 
ATOM     36  C   UNL A   1      47.471  25.154  25.546  1.00  0.00     0.010 A 
ATOM     37  C   UNL A   1      45.953  23.517  27.554  1.00  0.00     0.010 A 
ATOM     38  C   UNL A   1      47.023  24.929  27.313  1.00  0.00    -0.014 A 
BRANCH  38  39
ATOM     39  C   UNL A   1      47.203  25.942  28.886  1.00  0.00     0.031 A 
ATOM     40  C   UNL A   1      48.552  25.881  30.227  1.00  0.00     0.074 A 
ATOM     41  C   UNL A   1      46.543  27.111  29.067  1.00  0.00     0.049 A 
ATOM     42  N   UNL A   1      48.399  25.717  31.530  1.00  0.00    -0.248 NA
ATOM     43  C   UNL A   1      50.157  25.567  30.055  1.00  0.00     0.031 C 
ATOM     44  C   UNL A   1      46.929  28.191  30.002  1.00  0.00     0.029 A 
ATOM     45  N   UNL A   1      45.435  27.655  28.408  1.00  0.00    -0.354 N 
ATOM     46  C   UNL A   1      49.690  25.402  32.089  1.00  0.00     0.074 A 
ATOM     47  C   UNL A   1      50.502  24.845  31.092  1.00  0.00     0.031 C 
ATOM     48  C   UNL A   1      45.932  29.091  30.076  1.00  0.00     0.029 A 
ATOM     49  C   UNL A   1      44.821  28.524  29.341  1.00  0.00     0.049 A 
ATOM     50  H   UNL A   1      45.144  27.470  27.486  1.00  0.00     0.167 HD
ATOM     51  C   UNL A   1      50.265  26.068  33.136  1.00  0.00     0.037 A 
ATOM     52  C   UNL A   1      43.626  28.158  29.879  1.00  0.00     0.037 A 
ATOM     53  C   UNL A   1      49.316  27.068  33.536  1.00  0.00     0.049 A 
ATOM     54  C   UNL A   1      43.776  27.842  31.354  1.00  0.00     0.074 A 
ATOM     55  C   UNL A   1      49.158  28.403  33.212  1.00  0.00     0.029 A 
ATOM     56  N   UNL A   1      48.073  26.593  33.892  1.00  0.00    -0.354 N 
ATOM     57  N   UNL A   1      44.924  27.587  31.934  1.00  0.00    -0.248 NA
ATOM     58  C   UNL A   1      42.679  27.892  32.312  1.00  0.00     0.031 C 
ATOM     59  C   UNL A   1      47.769  28.706  33.345  1.00  0.00     0.029 A 
ATOM     60  C   UNL A   1      47.108  27.560  33.762  1.00  0.00     0.049 A 
ATOM     61  H   UNL A   1      47.899  25.675  34.202  1.00  0.00     0.167 HD
ATOM     62  C   UNL A   1      44.746  27.456  33.281  1.00  0.00     0.074 A 
ATOM     63  C   UNL A   1      43.323  27.653  33.467  1.00  0.00     0.031 C 
ATOM     64  C   UNL A   1      45.760  27.202  34.158  1.00  0.00     0.037 A 
BRANCH  51  65
ATOM     65  C   UNL A   1      51.770  26.045  33.475  1.00  0.00     0.064 A 
ATOM     66  C   UNL A   1      52.648  26.969  32.875  1.00  0.00     0.173 A 
ATOM     67  C   UNL A   1      52.417  25.148  34.371  1.00  0.00     0.173 A 
ATOM     68  F   UNL A   1      52.188  27.924  32.059  1.00  0.00    -0.203 F 
ATOM     69  C   UNL A   1      54.035  26.958  33.093  1.00  0.00     0.198 A 
ATOM     70  C   UNL A   1      53.813  25.080  34.520  1.00  0.00     0.198 A 
ATOM     71  F   UNL A   1      51.721  24.328  35.172  1.00  0.00    -0.203 F 
ATOM     72  F   UNL A   1      54.803  27.894  32.517  1.00  0.00    -0.200 F 
ATOM     73  C   UNL A   1      54.623  25.997  33.890  1.00  0.00     0.200 A 
ATOM     74  F   UNL A   1      54.362  24.129  35.293  1.00  0.00    -0.200 F 
ATOM     75  F   UNL A   1      55.950  25.976  34.074  1.00  0.00    -0.200 F 
ENDBRANCH  51  65
BRANCH  52  76
ATOM     76  C   UNL A   1      42.772  27.518  28.831  1.00  0.00     0.064 A 
ATOM     77  C   UNL A   1      42.623  26.110  28.907  1.00  0.00     0.173 A 
ATOM     78  C   UNL A   1      41.771  28.223  28.146  1.00  0.00     0.173 A 
ATOM     79  F   UNL A   1      43.502  25.383  29.619  1.00  0.00    -0.203 F 
ATOM     80  C   UNL A   1      41.505  25.457  28.388  1.00  0.00     0.198 A 
ATOM     81  C   UNL A   1      40.648  27.561  27.627  1.00  0.00     0.198 A 
ATOM     82  F   UNL A   1      41.806  29.561  28.087  1.00  0.00    -0.203 F 
ATOM     83  F   UNL A   1      41.334  24.144  28.608  1.00  0.00    -0.200 F 
ATOM     84  C   UNL A   1      40.521  26.184  27.744  1.00  0.00     0.200 A 
ATOM     85  F   UNL A   1      39.645  28.264  27.083  1.00  0.00    -0.200 F 
ATOM     86  F   UNL A   1      39.417  25.567  27.292  1.00  0.00    -0.200 F 
ENDBRANCH  52  76
BRANCH  64  87
ATOM     87  C   UNL A   1      45.577  26.540  35.510  1.00  0.00     0.064 A 
ATOM     88  C   UNL A   1      45.399  27.265  36.696  1.00  0.00     0.173 A 
ATOM     89  C   UNL A   1      45.361  25.139  35.620  1.00  0.00     0.173 A 
ATOM     90  F   UNL A   1      45.413  28.603  36.714  1.00  0.00    -0.203 F 
ATOM     91  C   UNL A   1      45.136  26.633  37.911  1.00  0.00     0.198 A 
ATOM     92  C   UNL A   1      44.972  24.532  36.808  1.00  0.00     0.198 A 
ATOM     93  F   UNL A   1      45.480  24.311  34.570  1.00  0.00    -0.203 F 
ATOM     94  F   UNL A   1      45.084  27.364  39.033  1.00  0.00    -0.200 F 
ATOM     95  C   UNL A   1      44.903  25.272  37.964  1.00  0.00     0.200 A 
ATOM     96  F   UNL A   1      44.653  23.230  36.817  1.00  0.00    -0.200 F 
ATOM     97  F   UNL A   1      44.603  24.680  39.126  1.00  0.00    -0.200 F 
ENDBRANCH  64  87
ENDBRANCH  38  39
ENDBRANCH  31  33
ENDBRANCH  30  31
ENDBRANCH  29  30
ENDBRANCH  28  29
ENDBRANCH  27  28
ENDBRANCH  26  27
ENDBRANCH   1  26
TORSDOF 20
ENDMDL
