MODEL 1
REMARK VINA RESULT:     -12.1      0.000      0.000
REMARK SMILES Cc1c(CC(=O)OCCOCCOCCOC(=O)c2ccc(-c3c4nc(c(-c5c(F)c(F)c(F)c(F)c5F)c5ccc([nH]5)c(-c5c(F)c(F)c(F)c(F)c5F)c5nc(c(-c6c(F)c(F)c(F)c(F)c6F)c6ccc3[nH]6)C=C5)C=C4)cc2)c2cc(O)ccc2n1C(=O)c1ccc(Cl)cc1
REMARK SMILES IDX 11 1 10 2 9 3 8 4 7 5 5 6 6 7 4 8 3 9 1 10 2 11 89 12 82 13
REMARK SMILES IDX 88 14 83 15 87 16 84 17 86 18 90 19 91 20 92 21 93 22 98 23
REMARK SMILES IDX 94 24 97 25 95 26 96 27 85 28 12 30 13 31 14 32 15 33 16 34
REMARK SMILES IDX 17 35 18 36 19 37 20 38 81 39 21 40 80 41 22 42 23 43 24 44
REMARK SMILES IDX 74 45 25 46 79 47 73 48 75 49 26 50 78 51 72 52 71 53 27 55
REMARK SMILES IDX 59 56 39 57 58 58 40 59 43 60 57 61 76 62 41 63 42 64 56 66
REMARK SMILES IDX 77 67 44 68 28 69 29 70 37 71 30 72 31 73 35 74 38 75 32 76
REMARK SMILES IDX 33 77 36 78 34 79 60 80 61 81 69 82 62 83 63 84 67 85 70 86
REMARK SMILES IDX 64 87 65 88 68 89 66 90 45 91 46 92 54 93 47 94 48 95 52 96
REMARK SMILES IDX 55 97 49 98 50 99 53 100 51 101
REMARK H PARENT 85 29 75 54 43 65
REMARK Flexibility Score: inf
ROOT
ATOM      1  C   UNL A   1      40.962  21.606  26.087  1.00  0.00     0.188 C 
ENDROOT
BRANCH   1   2
ATOM      2  O   UNL A   1      39.891  22.148  26.824  1.00  0.00    -0.376 OA
BRANCH   2   3
ATOM      3  C   UNL A   1      38.807  22.728  26.131  1.00  0.00     0.202 C 
BRANCH   3   4
ATOM      4  C   UNL A   1      37.782  21.760  25.513  1.00  0.00     0.261 C 
BRANCH   4   5
ATOM      5  O   UNL A   1      36.702  22.369  24.745  1.00  0.00    -0.463 OA
BRANCH   5   6
ATOM      6  C   UNL A   1      35.843  23.065  25.519  1.00  0.00     0.310 C 
ATOM      7  O   UNL A   1      35.313  22.528  26.492  1.00  0.00    -0.252 OA
BRANCH   6   8
ATOM      8  C   UNL A   1      35.545  24.523  25.223  1.00  0.00     0.160 C 
BRANCH   8   9
ATOM      9  C   UNL A   1      34.209  25.182  24.965  1.00  0.00    -0.008 A 
ATOM     10  C   UNL A   1      33.113  23.145  23.762  1.00  0.00     0.065 C 
ATOM     11  C   UNL A   1      33.139  24.507  24.382  1.00  0.00     0.028 A 
ATOM     12  N   UNL A   1      31.994  25.289  24.507  1.00  0.00    -0.280 N 
ATOM     13  C   UNL A   1      33.631  26.350  25.611  1.00  0.00     0.008 A 
ATOM     14  C   UNL A   1      32.246  26.257  25.484  1.00  0.00     0.057 A 
ATOM     15  C   UNL A   1      34.094  27.432  26.397  1.00  0.00     0.056 A 
ATOM     16  C   UNL A   1      31.384  27.084  26.253  1.00  0.00     0.031 A 
ATOM     17  C   UNL A   1      33.249  28.236  27.171  1.00  0.00     0.116 A 
ATOM     18  C   UNL A   1      31.895  28.054  27.109  1.00  0.00     0.048 A 
BRANCH  12  19
ATOM     19  C   UNL A   1      30.776  25.152  23.795  1.00  0.00     0.262 C 
ATOM     20  O   UNL A   1      30.309  24.031  23.594  1.00  0.00    -0.268 OA
BRANCH  19  21
ATOM     21  C   UNL A   1      30.065  26.325  23.259  1.00  0.00     0.040 A 
ATOM     22  C   UNL A   1      30.800  27.301  22.573  1.00  0.00     0.015 A 
ATOM     23  C   UNL A   1      28.762  26.569  23.701  1.00  0.00     0.015 A 
ATOM     24  C   UNL A   1      30.248  28.569  22.397  1.00  0.00     0.021 A 
ATOM     25  C   UNL A   1      28.225  27.847  23.536  1.00  0.00     0.021 A 
ATOM     26  C   UNL A   1      28.975  28.843  22.904  1.00  0.00     0.041 A 
ATOM     27  Cl  UNL A   1      28.361  30.447  22.823  1.00  0.00    -0.084 Cl
ENDBRANCH  19  21
ENDBRANCH  12  19
BRANCH  17  28
ATOM     28  O   UNL A   1      33.707  29.190  28.032  1.00  0.00    -0.508 OA
ATOM     29  H   UNL A   1      34.601  29.177  28.314  1.00  0.00     0.293 HD
ENDBRANCH  17  28
ENDBRANCH   8   9
ENDBRANCH   6   8
ENDBRANCH   5   6
ENDBRANCH   4   5
ENDBRANCH   3   4
ENDBRANCH   2   3
ENDBRANCH   1   2
BRANCH   1  30
ATOM     30  C   UNL A   1      41.436  20.162  26.283  1.00  0.00     0.188 C 
BRANCH  30  31
ATOM     31  O   UNL A   1      42.327  19.583  25.367  1.00  0.00    -0.376 OA
BRANCH  31  32
ATOM     32  C   UNL A   1      43.041  18.459  25.850  1.00  0.00     0.202 C 
BRANCH  32  33
ATOM     33  C   UNL A   1      44.571  18.419  25.580  1.00  0.00     0.261 C 
BRANCH  33  34
ATOM     34  O   UNL A   1      45.003  19.271  24.463  1.00  0.00    -0.460 OA
BRANCH  34  35
ATOM     35  C   UNL A   1      45.854  20.301  24.761  1.00  0.00     0.338 C 
ATOM     36  O   UNL A   1      47.033  20.330  24.424  1.00  0.00    -0.246 OA
BRANCH  35  37
ATOM     37  C   UNL A   1      45.129  21.590  25.091  1.00  0.00     0.060 A 
ATOM     38  C   UNL A   1      44.471  22.489  24.249  1.00  0.00     0.016 A 
ATOM     39  C   UNL A   1      45.275  21.980  26.424  1.00  0.00     0.016 A 
ATOM     40  C   UNL A   1      44.146  23.802  24.730  1.00  0.00     0.010 A 
ATOM     41  C   UNL A   1      44.959  23.248  26.897  1.00  0.00     0.010 A 
ATOM     42  C   UNL A   1      44.482  24.228  26.039  1.00  0.00    -0.014 A 
BRANCH  42  43
ATOM     43  C   UNL A   1      43.998  25.469  26.708  1.00  0.00     0.031 A 
ATOM     44  C   UNL A   1      44.902  26.563  26.333  1.00  0.00     0.074 A 
ATOM     45  C   UNL A   1      42.885  25.838  27.402  1.00  0.00     0.049 A 
ATOM     46  N   UNL A   1      46.006  26.790  26.956  1.00  0.00    -0.248 NA
ATOM     47  C   UNL A   1      44.741  27.303  25.076  1.00  0.00     0.031 C 
ATOM     48  C   UNL A   1      41.746  25.049  27.811  1.00  0.00     0.029 A 
ATOM     49  N   UNL A   1      42.520  27.072  27.917  1.00  0.00    -0.354 N 
ATOM     50  C   UNL A   1      46.510  27.917  26.356  1.00  0.00     0.074 A 
ATOM     51  C   UNL A   1      45.893  27.984  25.056  1.00  0.00     0.031 C 
ATOM     52  C   UNL A   1      40.706  25.792  28.243  1.00  0.00     0.029 A 
ATOM     53  C   UNL A   1      41.210  27.135  28.411  1.00  0.00     0.049 A 
ATOM     54  H   UNL A   1      43.131  27.843  27.934  1.00  0.00     0.167 HD
ATOM     55  C   UNL A   1      47.045  28.881  27.148  1.00  0.00     0.037 A 
ATOM     56  C   UNL A   1      40.617  28.033  29.238  1.00  0.00     0.037 A 
ATOM     57  C   UNL A   1      47.150  28.419  28.520  1.00  0.00     0.049 A 
ATOM     58  C   UNL A   1      41.692  28.595  30.072  1.00  0.00     0.074 A 
ATOM     59  C   UNL A   1      47.921  27.506  29.210  1.00  0.00     0.029 A 
ATOM     60  N   UNL A   1      46.016  28.625  29.266  1.00  0.00    -0.354 N 
ATOM     61  N   UNL A   1      42.339  27.912  30.975  1.00  0.00    -0.248 NA
ATOM     62  C   UNL A   1      42.306  29.850  29.662  1.00  0.00     0.031 C 
ATOM     63  C   UNL A   1      47.157  27.094  30.345  1.00  0.00     0.029 A 
ATOM     64  C   UNL A   1      45.949  27.784  30.349  1.00  0.00     0.049 A 
ATOM     65  H   UNL A   1      45.331  29.298  29.050  1.00  0.00     0.167 HD
ATOM     66  C   UNL A   1      43.623  28.408  30.898  1.00  0.00     0.074 A 
ATOM     67  C   UNL A   1      43.506  29.694  30.224  1.00  0.00     0.031 C 
ATOM     68  C   UNL A   1      44.702  27.595  31.063  1.00  0.00     0.037 A 
BRANCH  55  69
ATOM     69  C   UNL A   1      47.018  30.349  26.830  1.00  0.00     0.064 A 
ATOM     70  C   UNL A   1      48.213  31.077  26.953  1.00  0.00     0.173 A 
ATOM     71  C   UNL A   1      45.846  31.116  26.659  1.00  0.00     0.173 A 
ATOM     72  F   UNL A   1      49.377  30.446  27.168  1.00  0.00    -0.203 F 
ATOM     73  C   UNL A   1      48.227  32.473  26.935  1.00  0.00     0.198 A 
ATOM     74  C   UNL A   1      45.870  32.503  26.576  1.00  0.00     0.198 A 
ATOM     75  F   UNL A   1      44.623  30.576  26.685  1.00  0.00    -0.203 F 
ATOM     76  F   UNL A   1      49.372  33.129  27.164  1.00  0.00    -0.200 F 
ATOM     77  C   UNL A   1      47.057  33.184  26.738  1.00  0.00     0.200 A 
ATOM     78  F   UNL A   1      44.720  33.174  26.418  1.00  0.00    -0.200 F 
ATOM     79  F   UNL A   1      47.062  34.523  26.756  1.00  0.00    -0.200 F 
ENDBRANCH  55  69
BRANCH  56  80
ATOM     80  C   UNL A   1      39.194  28.442  29.357  1.00  0.00     0.064 A 
ATOM     81  C   UNL A   1      38.516  28.391  30.589  1.00  0.00     0.173 A 
ATOM     82  C   UNL A   1      38.571  29.180  28.333  1.00  0.00     0.173 A 
ATOM     83  F   UNL A   1      39.031  27.705  31.618  1.00  0.00    -0.203 F 
ATOM     84  C   UNL A   1      37.336  29.110  30.810  1.00  0.00     0.198 A 
ATOM     85  C   UNL A   1      37.391  29.897  28.556  1.00  0.00     0.198 A 
ATOM     86  F   UNL A   1      39.144  29.290  27.126  1.00  0.00    -0.203 F 
ATOM     87  F   UNL A   1      36.769  29.106  32.025  1.00  0.00    -0.200 F 
ATOM     88  C   UNL A   1      36.791  29.886  29.802  1.00  0.00     0.200 A 
ATOM     89  F   UNL A   1      36.882  30.659  27.578  1.00  0.00    -0.200 F 
ATOM     90  F   UNL A   1      35.716  30.650  30.041  1.00  0.00    -0.200 F 
ENDBRANCH  56  80
BRANCH  68  91
ATOM     91  C   UNL A   1      44.543  26.381  31.928  1.00  0.00     0.064 A 
ATOM     92  C   UNL A   1      44.447  26.390  33.328  1.00  0.00     0.173 A 
ATOM     93  C   UNL A   1      44.406  25.143  31.282  1.00  0.00     0.173 A 
ATOM     94  F   UNL A   1      44.532  27.535  34.016  1.00  0.00    -0.203 F 
ATOM     95  C   UNL A   1      44.224  25.212  34.044  1.00  0.00     0.198 A 
ATOM     96  C   UNL A   1      44.156  23.974  31.994  1.00  0.00     0.198 A 
ATOM     97  F   UNL A   1      44.479  25.075  29.942  1.00  0.00    -0.203 F 
ATOM     98  F   UNL A   1      44.141  25.241  35.382  1.00  0.00    -0.200 F 
ATOM     99  C   UNL A   1      44.067  24.008  33.375  1.00  0.00     0.200 A 
ATOM    100  F   UNL A   1      43.980  22.820  31.337  1.00  0.00    -0.200 F 
ATOM    101  F   UNL A   1      43.816  22.882  34.058  1.00  0.00    -0.200 F 
ENDBRANCH  68  91
ENDBRANCH  42  43
ENDBRANCH  35  37
ENDBRANCH  34  35
ENDBRANCH  33  34
ENDBRANCH  32  33
ENDBRANCH  31  32
ENDBRANCH  30  31
ENDBRANCH   1  30
TORSDOF 21
ENDMDL
MODEL 2
REMARK VINA RESULT:     -12.0      1.422      2.381
REMARK SMILES Cc1c(CC(=O)OCCOCCOCCOC(=O)c2ccc(-c3c4nc(c(-c5c(F)c(F)c(F)c(F)c5F)c5ccc([nH]5)c(-c5c(F)c(F)c(F)c(F)c5F)c5nc(c(-c6c(F)c(F)c(F)c(F)c6F)c6ccc3[nH]6)C=C5)C=C4)cc2)c2cc(O)ccc2n1C(=O)c1ccc(Cl)cc1
REMARK SMILES IDX 11 1 10 2 9 3 8 4 7 5 5 6 6 7 4 8 3 9 1 10 2 11 89 12 82 13
REMARK SMILES IDX 88 14 83 15 87 16 84 17 86 18 90 19 91 20 92 21 93 22 98 23
REMARK SMILES IDX 94 24 97 25 95 26 96 27 85 28 12 30 13 31 14 32 15 33 16 34
REMARK SMILES IDX 17 35 18 36 19 37 20 38 81 39 21 40 80 41 22 42 23 43 24 44
REMARK SMILES IDX 74 45 25 46 79 47 73 48 75 49 26 50 78 51 72 52 71 53 27 55
REMARK SMILES IDX 59 56 39 57 58 58 40 59 43 60 57 61 76 62 41 63 42 64 56 66
REMARK SMILES IDX 77 67 44 68 28 69 29 70 37 71 30 72 31 73 35 74 38 75 32 76
REMARK SMILES IDX 33 77 36 78 34 79 60 80 61 81 69 82 62 83 63 84 67 85 70 86
REMARK SMILES IDX 64 87 65 88 68 89 66 90 45 91 46 92 54 93 47 94 48 95 52 96
REMARK SMILES IDX 55 97 49 98 50 99 53 100 51 101
REMARK H PARENT 85 29 75 54 43 65
REMARK Flexibility Score: inf
ROOT
ATOM      1  C   UNL A   1      40.508  21.504  26.143  1.00  0.00     0.188 C 
ENDROOT
BRANCH   1   2
ATOM      2  O   UNL A   1      39.198  22.014  26.063  1.00  0.00    -0.376 OA
BRANCH   2   3
ATOM      3  C   UNL A   1      38.173  21.193  25.547  1.00  0.00     0.202 C 
BRANCH   3   4
ATOM      4  C   UNL A   1      37.324  21.779  24.405  1.00  0.00     0.261 C 
BRANCH   4   5
ATOM      5  O   UNL A   1      36.075  22.423  24.796  1.00  0.00    -0.463 OA
BRANCH   5   6
ATOM      6  C   UNL A   1      35.429  22.982  23.751  1.00  0.00     0.310 C 
ATOM      7  O   UNL A   1      36.053  23.310  22.741  1.00  0.00    -0.252 OA
BRANCH   6   8
ATOM      8  C   UNL A   1      33.926  23.183  23.792  1.00  0.00     0.160 C 
BRANCH   8   9
ATOM      9  C   UNL A   1      33.141  24.338  24.369  1.00  0.00    -0.008 A 
ATOM     10  C   UNL A   1      33.740  26.054  22.500  1.00  0.00     0.065 C 
ATOM     11  C   UNL A   1      33.027  25.567  23.722  1.00  0.00     0.028 A 
ATOM     12  N   UNL A   1      32.053  26.324  24.366  1.00  0.00    -0.280 N 
ATOM     13  C   UNL A   1      32.062  24.308  25.344  1.00  0.00     0.008 A 
ATOM     14  C   UNL A   1      31.294  25.456  25.156  1.00  0.00     0.057 A 
ATOM     15  C   UNL A   1      31.557  23.394  26.300  1.00  0.00     0.056 A 
ATOM     16  C   UNL A   1      30.010  25.582  25.751  1.00  0.00     0.031 A 
ATOM     17  C   UNL A   1      30.285  23.505  26.872  1.00  0.00     0.116 A 
ATOM     18  C   UNL A   1      29.506  24.593  26.588  1.00  0.00     0.048 A 
BRANCH  12  19
ATOM     19  C   UNL A   1      31.837  27.721  24.257  1.00  0.00     0.262 C 
ATOM     20  O   UNL A   1      31.448  28.197  23.191  1.00  0.00    -0.268 OA
BRANCH  19  21
ATOM     21  C   UNL A   1      32.097  28.628  25.388  1.00  0.00     0.040 A 
ATOM     22  C   UNL A   1      31.403  29.844  25.449  1.00  0.00     0.015 A 
ATOM     23  C   UNL A   1      33.220  28.387  26.185  1.00  0.00     0.015 A 
ATOM     24  C   UNL A   1      31.890  30.864  26.265  1.00  0.00     0.021 A 
ATOM     25  C   UNL A   1      33.709  29.421  26.985  1.00  0.00     0.021 A 
ATOM     26  C   UNL A   1      33.055  30.657  27.006  1.00  0.00     0.041 A 
ATOM     27  Cl  UNL A   1      33.739  31.964  27.889  1.00  0.00    -0.084 Cl
ENDBRANCH  19  21
ENDBRANCH  12  19
BRANCH  17  28
ATOM     28  O   UNL A   1      29.746  22.553  27.689  1.00  0.00    -0.508 OA
ATOM     29  H   UNL A   1      28.817  22.501  27.797  1.00  0.00     0.293 HD
ENDBRANCH  17  28
ENDBRANCH   8   9
ENDBRANCH   6   8
ENDBRANCH   5   6
ENDBRANCH   4   5
ENDBRANCH   3   4
ENDBRANCH   2   3
ENDBRANCH   1   2
BRANCH   1  30
ATOM     30  C   UNL A   1      40.797  19.999  26.129  1.00  0.00     0.188 C 
BRANCH  30  31
ATOM     31  O   UNL A   1      41.905  19.502  25.426  1.00  0.00    -0.376 OA
BRANCH  31  32
ATOM     32  C   UNL A   1      42.691  18.558  26.130  1.00  0.00     0.202 C 
BRANCH  32  33
ATOM     33  C   UNL A   1      44.173  18.399  25.692  1.00  0.00     0.261 C 
BRANCH  33  34
ATOM     34  O   UNL A   1      44.560  19.263  24.567  1.00  0.00    -0.460 OA
BRANCH  34  35
ATOM     35  C   UNL A   1      45.450  20.269  24.833  1.00  0.00     0.338 C 
ATOM     36  O   UNL A   1      46.625  20.250  24.482  1.00  0.00    -0.246 OA
BRANCH  35  37
ATOM     37  C   UNL A   1      44.774  21.589  25.144  1.00  0.00     0.060 A 
ATOM     38  C   UNL A   1      44.216  22.535  24.283  1.00  0.00     0.016 A 
ATOM     39  C   UNL A   1      44.858  21.948  26.492  1.00  0.00     0.016 A 
ATOM     40  C   UNL A   1      43.931  23.855  24.769  1.00  0.00     0.010 A 
ATOM     41  C   UNL A   1      44.580  23.224  26.969  1.00  0.00     0.010 A 
ATOM     42  C   UNL A   1      44.208  24.241  26.104  1.00  0.00    -0.014 A 
BRANCH  42  43
ATOM     43  C   UNL A   1      43.750  25.495  26.767  1.00  0.00     0.031 A 
ATOM     44  C   UNL A   1      44.664  26.573  26.371  1.00  0.00     0.074 A 
ATOM     45  C   UNL A   1      42.650  25.886  27.470  1.00  0.00     0.049 A 
ATOM     46  N   UNL A   1      45.778  26.790  26.979  1.00  0.00    -0.248 NA
ATOM     47  C   UNL A   1      44.498  27.304  25.109  1.00  0.00     0.031 C 
ATOM     48  C   UNL A   1      41.504  25.117  27.899  1.00  0.00     0.029 A 
ATOM     49  N   UNL A   1      42.308  27.130  27.978  1.00  0.00    -0.354 N 
ATOM     50  C   UNL A   1      46.291  27.905  26.362  1.00  0.00     0.074 A 
ATOM     51  C   UNL A   1      45.660  27.968  25.069  1.00  0.00     0.031 C 
ATOM     52  C   UNL A   1      40.481  25.878  28.337  1.00  0.00     0.029 A 
ATOM     53  C   UNL A   1      41.005  27.216  28.486  1.00  0.00     0.049 A 
ATOM     54  H   UNL A   1      42.931  27.892  27.980  1.00  0.00     0.167 HD
ATOM     55  C   UNL A   1      46.848  28.868  27.139  1.00  0.00     0.037 A 
ATOM     56  C   UNL A   1      40.435  28.129  29.312  1.00  0.00     0.037 A 
ATOM     57  C   UNL A   1      46.963  28.417  28.513  1.00  0.00     0.049 A 
ATOM     58  C   UNL A   1      41.527  28.684  30.128  1.00  0.00     0.074 A 
ATOM     59  C   UNL A   1      47.730  27.500  29.203  1.00  0.00     0.029 A 
ATOM     60  N   UNL A   1      45.841  28.645  29.272  1.00  0.00    -0.354 N 
ATOM     61  N   UNL A   1      42.175  28.000  31.030  1.00  0.00    -0.248 NA
ATOM     62  C   UNL A   1      42.153  29.926  29.700  1.00  0.00     0.031 C 
ATOM     63  C   UNL A   1      46.974  27.109  30.351  1.00  0.00     0.029 A 
ATOM     64  C   UNL A   1      45.775  27.816  30.363  1.00  0.00     0.049 A 
ATOM     65  H   UNL A   1      45.163  29.326  29.057  1.00  0.00     0.167 HD
ATOM     66  C   UNL A   1      43.465  28.477  30.933  1.00  0.00     0.074 A 
ATOM     67  C   UNL A   1      43.358  29.758  30.248  1.00  0.00     0.031 C 
ATOM     68  C   UNL A   1      44.534  27.651  31.093  1.00  0.00     0.037 A 
BRANCH  55  69
ATOM     69  C   UNL A   1      46.838  30.333  26.808  1.00  0.00     0.064 A 
ATOM     70  C   UNL A   1      48.046  31.045  26.907  1.00  0.00     0.173 A 
ATOM     71  C   UNL A   1      45.675  31.115  26.646  1.00  0.00     0.173 A 
ATOM     72  F   UNL A   1      49.203  30.399  27.110  1.00  0.00    -0.203 F 
ATOM     73  C   UNL A   1      48.080  32.440  26.875  1.00  0.00     0.198 A 
ATOM     74  C   UNL A   1      45.719  32.502  26.550  1.00  0.00     0.198 A 
ATOM     75  F   UNL A   1      44.444  30.594  26.695  1.00  0.00    -0.203 F 
ATOM     76  F   UNL A   1      49.238  33.081  27.081  1.00  0.00    -0.200 F 
ATOM     77  C   UNL A   1      46.917  33.167  26.688  1.00  0.00     0.200 A 
ATOM     78  F   UNL A   1      44.575  33.188  26.403  1.00  0.00    -0.200 F 
ATOM     79  F   UNL A   1      46.942  34.505  26.694  1.00  0.00    -0.200 F 
ENDBRANCH  55  69
BRANCH  56  80
ATOM     80  C   UNL A   1      39.019  28.559  29.444  1.00  0.00     0.064 A 
ATOM     81  C   UNL A   1      38.363  28.557  30.689  1.00  0.00     0.173 A 
ATOM     82  C   UNL A   1      38.385  29.271  28.408  1.00  0.00     0.173 A 
ATOM     83  F   UNL A   1      38.890  27.898  31.731  1.00  0.00    -0.203 F 
ATOM     84  C   UNL A   1      37.197  29.297  30.908  1.00  0.00     0.198 A 
ATOM     85  C   UNL A   1      37.219  30.010  28.629  1.00  0.00     0.198 A 
ATOM     86  F   UNL A   1      38.936  29.335  27.187  1.00  0.00    -0.203 F 
ATOM     87  F   UNL A   1      36.653  29.339  32.133  1.00  0.00    -0.200 F 
ATOM     88  C   UNL A   1      36.641  30.046  29.886  1.00  0.00     0.200 A 
ATOM     89  F   UNL A   1      36.700  30.746  27.636  1.00  0.00    -0.200 F 
ATOM     90  F   UNL A   1      35.580  30.831  30.119  1.00  0.00    -0.200 F 
ENDBRANCH  56  80
BRANCH  68  91
ATOM     91  C   UNL A   1      44.369  26.447  31.971  1.00  0.00     0.064 A 
ATOM     92  C   UNL A   1      44.219  25.128  31.517  1.00  0.00     0.173 A 
ATOM     93  C   UNL A   1      44.445  26.645  33.358  1.00  0.00     0.173 A 
ATOM     94  F   UNL A   1      44.175  24.851  30.208  1.00  0.00    -0.203 F 
ATOM     95  C   UNL A   1      44.148  24.060  32.414  1.00  0.00     0.198 A 
ATOM     96  C   UNL A   1      44.402  25.579  34.250  1.00  0.00     0.198 A 
ATOM     97  F   UNL A   1      44.598  27.886  33.850  1.00  0.00    -0.203 F 
ATOM     98  F   UNL A   1      43.999  22.806  31.961  1.00  0.00    -0.200 F 
ATOM     99  C   UNL A   1      44.251  24.286  33.779  1.00  0.00     0.200 A 
ATOM    100  F   UNL A   1      44.528  25.804  35.564  1.00  0.00    -0.200 F 
ATOM    101  F   UNL A   1      44.221  23.258  34.639  1.00  0.00    -0.200 F 
ENDBRANCH  68  91
ENDBRANCH  42  43
ENDBRANCH  35  37
ENDBRANCH  34  35
ENDBRANCH  33  34
ENDBRANCH  32  33
ENDBRANCH  31  32
ENDBRANCH  30  31
ENDBRANCH   1  30
TORSDOF 21
ENDMDL
MODEL 3
REMARK VINA RESULT:     -11.4      3.054      5.195
REMARK SMILES Cc1c(CC(=O)OCCOCCOCCOC(=O)c2ccc(-c3c4nc(c(-c5c(F)c(F)c(F)c(F)c5F)c5ccc([nH]5)c(-c5c(F)c(F)c(F)c(F)c5F)c5nc(c(-c6c(F)c(F)c(F)c(F)c6F)c6ccc3[nH]6)C=C5)C=C4)cc2)c2cc(O)ccc2n1C(=O)c1ccc(Cl)cc1
REMARK SMILES IDX 11 1 10 2 9 3 8 4 7 5 5 6 6 7 4 8 3 9 1 10 2 11 89 12 82 13
REMARK SMILES IDX 88 14 83 15 87 16 84 17 86 18 90 19 91 20 92 21 93 22 98 23
REMARK SMILES IDX 94 24 97 25 95 26 96 27 85 28 12 30 13 31 14 32 15 33 16 34
REMARK SMILES IDX 17 35 18 36 19 37 20 38 81 39 21 40 80 41 22 42 23 43 24 44
REMARK SMILES IDX 74 45 25 46 79 47 73 48 75 49 26 50 78 51 72 52 71 53 27 55
REMARK SMILES IDX 59 56 39 57 58 58 40 59 43 60 57 61 76 62 41 63 42 64 56 66
REMARK SMILES IDX 77 67 44 68 28 69 29 70 37 71 30 72 31 73 35 74 38 75 32 76
REMARK SMILES IDX 33 77 36 78 34 79 60 80 61 81 69 82 62 83 63 84 67 85 70 86
REMARK SMILES IDX 64 87 65 88 68 89 66 90 45 91 46 92 54 93 47 94 48 95 52 96
REMARK SMILES IDX 55 97 49 98 50 99 53 100 51 101
REMARK H PARENT 85 29 75 54 43 65
REMARK Flexibility Score: inf
ROOT
ATOM      1  C   UNL A   1      34.826  22.763  25.557  1.00  0.00     0.188 C 
ENDROOT
BRANCH   1   2
ATOM      2  O   UNL A   1      34.125  23.030  26.749  1.00  0.00    -0.376 OA
BRANCH   2   3
ATOM      3  C   UNL A   1      32.936  22.319  27.018  1.00  0.00     0.202 C 
BRANCH   3   4
ATOM      4  C   UNL A   1      32.024  22.013  25.817  1.00  0.00     0.261 C 
BRANCH   4   5
ATOM      5  O   UNL A   1      31.149  23.095  25.380  1.00  0.00    -0.463 OA
BRANCH   5   6
ATOM      6  C   UNL A   1      31.150  23.254  24.040  1.00  0.00     0.310 C 
ATOM      7  O   UNL A   1      31.646  22.392  23.314  1.00  0.00    -0.252 OA
BRANCH   6   8
ATOM      8  C   UNL A   1      30.512  24.478  23.408  1.00  0.00     0.160 C 
BRANCH   8   9
ATOM      9  C   UNL A   1      30.775  25.938  23.697  1.00  0.00    -0.008 A 
ATOM     10  C   UNL A   1      33.372  25.803  23.519  1.00  0.00     0.065 C 
ATOM     11  C   UNL A   1      32.052  26.493  23.661  1.00  0.00     0.028 A 
ATOM     12  N   UNL A   1      31.940  27.879  23.720  1.00  0.00    -0.280 N 
ATOM     13  C   UNL A   1      29.856  27.062  23.607  1.00  0.00     0.008 A 
ATOM     14  C   UNL A   1      30.619  28.212  23.407  1.00  0.00     0.057 A 
ATOM     15  C   UNL A   1      28.454  27.251  23.553  1.00  0.00     0.056 A 
ATOM     16  C   UNL A   1      30.012  29.428  22.993  1.00  0.00     0.031 A 
ATOM     17  C   UNL A   1      27.855  28.441  23.127  1.00  0.00     0.116 A 
ATOM     18  C   UNL A   1      28.634  29.526  22.834  1.00  0.00     0.048 A 
BRANCH  12  19
ATOM     19  C   UNL A   1      32.961  28.813  24.029  1.00  0.00     0.262 C 
ATOM     20  O   UNL A   1      33.618  29.321  23.121  1.00  0.00    -0.268 OA
BRANCH  19  21
ATOM     21  C   UNL A   1      33.277  29.170  25.422  1.00  0.00     0.040 A 
ATOM     22  C   UNL A   1      32.682  30.312  25.975  1.00  0.00     0.015 A 
ATOM     23  C   UNL A   1      34.365  28.543  26.035  1.00  0.00     0.015 A 
ATOM     24  C   UNL A   1      33.238  30.880  27.120  1.00  0.00     0.021 A 
ATOM     25  C   UNL A   1      34.924  29.130  27.172  1.00  0.00     0.021 A 
ATOM     26  C   UNL A   1      34.372  30.303  27.696  1.00  0.00     0.041 A 
ATOM     27  Cl  UNL A   1      35.146  31.091  29.014  1.00  0.00    -0.084 Cl
ENDBRANCH  19  21
ENDBRANCH  12  19
BRANCH  17  28
ATOM     28  O   UNL A   1      26.509  28.578  22.946  1.00  0.00    -0.508 OA
ATOM     29  H   UNL A   1      26.154  28.611  22.079  1.00  0.00     0.293 HD
ENDBRANCH  17  28
ENDBRANCH   8   9
ENDBRANCH   6   8
ENDBRANCH   5   6
ENDBRANCH   4   5
ENDBRANCH   3   4
ENDBRANCH   2   3
ENDBRANCH   1   2
BRANCH   1  30
ATOM     30  C   UNL A   1      36.221  23.339  25.288  1.00  0.00     0.188 C 
BRANCH  30  31
ATOM     31  O   UNL A   1      37.333  22.844  25.987  1.00  0.00    -0.376 OA
BRANCH  31  32
ATOM     32  C   UNL A   1      37.968  21.727  25.393  1.00  0.00     0.202 C 
BRANCH  32  33
ATOM     33  C   UNL A   1      39.443  21.450  25.796  1.00  0.00     0.261 C 
BRANCH  33  34
ATOM     34  O   UNL A   1      39.782  21.887  27.158  1.00  0.00    -0.460 OA
BRANCH  34  35
ATOM     35  C   UNL A   1      40.892  22.676  27.301  1.00  0.00     0.338 C 
ATOM     36  O   UNL A   1      41.963  22.454  26.746  1.00  0.00    -0.246 OA
BRANCH  35  37
ATOM     37  C   UNL A   1      40.563  24.076  27.779  1.00  0.00     0.060 A 
ATOM     38  C   UNL A   1      39.450  24.875  27.514  1.00  0.00     0.016 A 
ATOM     39  C   UNL A   1      41.612  24.681  28.476  1.00  0.00     0.016 A 
ATOM     40  C   UNL A   1      39.504  26.281  27.798  1.00  0.00     0.010 A 
ATOM     41  C   UNL A   1      41.668  26.041  28.757  1.00  0.00     0.010 A 
ATOM     42  C   UNL A   1      40.662  26.897  28.335  1.00  0.00    -0.014 A 
BRANCH  42  43
ATOM     43  C   UNL A   1      40.748  28.285  28.872  1.00  0.00     0.031 A 
ATOM     44  C   UNL A   1      41.870  28.955  28.207  1.00  0.00     0.074 A 
ATOM     45  C   UNL A   1      39.971  29.080  29.660  1.00  0.00     0.049 A 
ATOM     46  N   UNL A   1      43.086  28.840  28.617  1.00  0.00    -0.248 NA
ATOM     47  C   UNL A   1      41.724  29.587  26.890  1.00  0.00     0.031 C 
ATOM     48  C   UNL A   1      38.737  28.779  30.347  1.00  0.00     0.029 A 
ATOM     49  N   UNL A   1      40.135  30.405  30.031  1.00  0.00    -0.354 N 
ATOM     50  C   UNL A   1      43.806  29.661  27.786  1.00  0.00     0.074 A 
ATOM     51  C   UNL A   1      43.009  29.819  26.596  1.00  0.00     0.031 C 
ATOM     52  C   UNL A   1      38.100  29.873  30.811  1.00  0.00     0.029 A 
ATOM     53  C   UNL A   1      39.037  30.966  30.698  1.00  0.00     0.049 A 
ATOM     54  H   UNL A   1      40.956  30.913  29.840  1.00  0.00     0.167 HD
ATOM     55  C   UNL A   1      44.768  30.446  28.335  1.00  0.00     0.037 A 
ATOM     56  C   UNL A   1      38.940  32.086  31.458  1.00  0.00     0.037 A 
ATOM     57  C   UNL A   1      44.975  30.103  29.729  1.00  0.00     0.049 A 
ATOM     58  C   UNL A   1      40.279  32.312  32.029  1.00  0.00     0.074 A 
ATOM     59  C   UNL A   1      45.523  29.046  30.428  1.00  0.00     0.029 A 
ATOM     60  N   UNL A   1      44.136  30.759  30.596  1.00  0.00    -0.354 N 
ATOM     61  N   UNL A   1      40.827  31.532  32.919  1.00  0.00    -0.248 NA
ATOM     62  C   UNL A   1      41.179  33.231  31.348  1.00  0.00     0.031 C 
ATOM     63  C   UNL A   1      44.898  29.032  31.713  1.00  0.00     0.029 A 
ATOM     64  C   UNL A   1      44.006  30.097  31.791  1.00  0.00     0.049 A 
ATOM     65  H   UNL A   1      43.681  31.606  30.384  1.00  0.00     0.167 HD
ATOM     66  C   UNL A   1      42.162  31.540  32.578  1.00  0.00     0.074 A 
ATOM     67  C   UNL A   1      42.346  32.718  31.742  1.00  0.00     0.031 C 
ATOM     68  C   UNL A   1      42.927  30.421  32.703  1.00  0.00     0.037 A 
BRANCH  55  69
ATOM     69  C   UNL A   1      45.162  31.796  27.806  1.00  0.00     0.064 A 
ATOM     70  C   UNL A   1      44.197  32.817  27.806  1.00  0.00     0.173 A 
ATOM     71  C   UNL A   1      46.340  32.063  27.077  1.00  0.00     0.173 A 
ATOM     72  F   UNL A   1      43.022  32.645  28.428  1.00  0.00    -0.203 F 
ATOM     73  C   UNL A   1      44.389  34.007  27.102  1.00  0.00     0.198 A 
ATOM     74  C   UNL A   1      46.557  33.274  26.430  1.00  0.00     0.198 A 
ATOM     75  F   UNL A   1      47.276  31.132  26.855  1.00  0.00    -0.203 F 
ATOM     76  F   UNL A   1      43.401  34.908  27.040  1.00  0.00    -0.200 F 
ATOM     77  C   UNL A   1      45.572  34.238  26.422  1.00  0.00     0.200 A 
ATOM     78  F   UNL A   1      47.696  33.463  25.749  1.00  0.00    -0.200 F 
ATOM     79  F   UNL A   1      45.744  35.362  25.716  1.00  0.00    -0.200 F 
ENDBRANCH  55  69
BRANCH  56  80
ATOM     80  C   UNL A   1      37.780  32.974  31.724  1.00  0.00     0.064 A 
ATOM     81  C   UNL A   1      37.061  33.577  30.675  1.00  0.00     0.173 A 
ATOM     82  C   UNL A   1      37.168  32.997  32.991  1.00  0.00     0.173 A 
ATOM     83  F   UNL A   1      37.571  33.609  29.435  1.00  0.00    -0.203 F 
ATOM     84  C   UNL A   1      35.772  34.086  30.863  1.00  0.00     0.198 A 
ATOM     85  C   UNL A   1      35.879  33.507  33.177  1.00  0.00     0.198 A 
ATOM     86  F   UNL A   1      37.773  32.443  34.051  1.00  0.00    -0.203 F 
ATOM     87  F   UNL A   1      35.087  34.572  29.817  1.00  0.00    -0.200 F 
ATOM     88  C   UNL A   1      35.171  34.025  32.107  1.00  0.00     0.200 A 
ATOM     89  F   UNL A   1      35.300  33.426  34.383  1.00  0.00    -0.200 F 
ATOM     90  F   UNL A   1      33.901  34.424  32.267  1.00  0.00    -0.200 F 
ENDBRANCH  56  80
BRANCH  68  91
ATOM     91  C   UNL A   1      42.548  29.423  33.755  1.00  0.00     0.064 A 
ATOM     92  C   UNL A   1      41.755  28.284  33.544  1.00  0.00     0.173 A 
ATOM     93  C   UNL A   1      43.090  29.600  35.037  1.00  0.00     0.173 A 
ATOM     94  F   UNL A   1      41.231  28.024  32.340  1.00  0.00    -0.203 F 
ATOM     95  C   UNL A   1      41.518  27.369  34.572  1.00  0.00     0.198 A 
ATOM     96  C   UNL A   1      42.877  28.674  36.053  1.00  0.00     0.198 A 
ATOM     97  F   UNL A   1      43.865  30.667  35.294  1.00  0.00    -0.203 F 
ATOM     98  F   UNL A   1      40.753  26.289  34.352  1.00  0.00    -0.200 F 
ATOM     99  C   UNL A   1      42.089  27.560  35.822  1.00  0.00     0.200 A 
ATOM    100  F   UNL A   1      43.453  28.853  37.249  1.00  0.00    -0.200 F 
ATOM    101  F   UNL A   1      41.894  26.662  36.798  1.00  0.00    -0.200 F 
ENDBRANCH  68  91
ENDBRANCH  42  43
ENDBRANCH  35  37
ENDBRANCH  34  35
ENDBRANCH  33  34
ENDBRANCH  32  33
ENDBRANCH  31  32
ENDBRANCH  30  31
ENDBRANCH   1  30
TORSDOF 21
ENDMDL
