MODEL 1
REMARK VINA RESULT:     -11.8      0.000      0.000
REMARK SMILES Cc1cc2c(c(C)c1Cl)C=C(C(=O)OCCOCCOCCOC(=O)c1ccc(-c3c4nc(c(-c5c(F)c(F)c(F)c(F)c5F)c5ccc([nH]5)c(-c5c(F)c(F)c(F)c(F)c5F)c5nc(c(-c6c(F)c(F)c(F)c(F)c6F)c6ccc3[nH]6)C=C5)C=C4)cc1)[C@@H](C(F)(F)F)O2
REMARK SMILES IDX 19 1 18 2 17 3 16 4 15 5 14 6 12 7 13 8 11 9 1 10 2 11 3 12
REMARK SMILES IDX 8 13 4 14 6 15 9 16 5 17 94 18 7 19 10 20 89 21 90 22 91 23
REMARK SMILES IDX 92 24 93 25 20 26 21 27 22 28 23 29 24 30 25 31 26 32 27 33
REMARK SMILES IDX 88 34 28 35 87 36 29 37 30 38 31 39 81 40 32 41 86 42 80 43
REMARK SMILES IDX 82 44 33 45 85 46 79 47 78 48 34 50 66 51 46 52 65 53 47 54
REMARK SMILES IDX 50 55 64 56 83 57 48 58 49 59 63 61 84 62 51 63 35 64 36 65
REMARK SMILES IDX 44 66 37 67 38 68 42 69 45 70 39 71 40 72 43 73 41 74 67 75
REMARK SMILES IDX 68 76 76 77 69 78 70 79 74 80 77 81 71 82 72 83 75 84 73 85
REMARK SMILES IDX 52 86 53 87 61 88 54 89 55 90 59 91 62 92 56 93 57 94 60 95
REMARK SMILES IDX 58 96
REMARK H PARENT 82 49 50 60
REMARK Flexibility Score: inf
ROOT
ATOM      1  C   UNL A   1      40.626  20.910  26.453  1.00  0.00     0.188 C 
ENDROOT
BRANCH   1   2
ATOM      2  C   UNL A   1      40.193  22.196  27.187  1.00  0.00     0.188 C 
BRANCH   2   3
ATOM      3  O   UNL A   1      39.033  22.878  26.772  1.00  0.00    -0.376 OA
BRANCH   3   4
ATOM      4  C   UNL A   1      38.216  22.375  25.730  1.00  0.00     0.202 C 
BRANCH   4   5
ATOM      5  C   UNL A   1      36.683  22.493  25.681  1.00  0.00     0.261 C 
BRANCH   5   6
ATOM      6  O   UNL A   1      36.145  23.614  24.972  1.00  0.00    -0.460 OA
BRANCH   6   7
ATOM      7  C   UNL A   1      35.769  23.361  23.695  1.00  0.00     0.338 C 
ATOM      8  O   UNL A   1      36.408  22.754  22.852  1.00  0.00    -0.246 OA
BRANCH   7   9
ATOM      9  C   UNL A   1      34.371  23.795  23.495  1.00  0.00     0.087 C 
ATOM     10  C   UNL A   1      28.577  26.629  23.876  1.00  0.00     0.046 C 
ATOM     11  C   UNL A   1      30.035  26.320  23.665  1.00  0.00    -0.028 A 
ATOM     12  C   UNL A   1      30.407  24.997  23.395  1.00  0.00     0.052 A 
ATOM     13  C   UNL A   1      31.042  27.297  23.792  1.00  0.00     0.047 A 
ATOM     14  C   UNL A   1      31.750  24.632  23.322  1.00  0.00     0.128 A 
ATOM     15  C   UNL A   1      32.411  26.951  23.693  1.00  0.00    -0.021 A 
ATOM     16  Cl  UNL A   1      30.565  28.937  24.111  1.00  0.00    -0.084 Cl
ATOM     17  C   UNL A   1      32.755  25.587  23.507  1.00  0.00     0.022 A 
ATOM     18  O   UNL A   1      31.973  23.308  23.071  1.00  0.00    -0.475 OA
ATOM     19  C   UNL A   1      33.501  27.995  23.787  1.00  0.00     0.047 C 
ATOM     20  C   UNL A   1      34.136  25.111  23.579  1.00  0.00     0.027 C 
ATOM     21  C   UNL A   1      33.311  22.770  23.222  1.00  0.00     0.316 C 
BRANCH  21  22
ATOM     22  C   UNL A   1      33.274  21.667  24.288  1.00  0.00     0.430 C 
ATOM     23  F   UNL A   1      32.117  20.966  24.234  1.00  0.00    -0.167 F 
ATOM     24  F   UNL A   1      34.276  20.772  24.117  1.00  0.00    -0.167 F 
ATOM     25  F   UNL A   1      33.390  22.169  25.538  1.00  0.00    -0.167 F 
ENDBRANCH  21  22
ENDBRANCH   7   9
ENDBRANCH   6   7
ENDBRANCH   5   6
ENDBRANCH   4   5
ENDBRANCH   3   4
ENDBRANCH   2   3
ENDBRANCH   1   2
BRANCH   1  26
ATOM     26  O   UNL A   1      41.708  20.941  25.548  1.00  0.00    -0.376 OA
BRANCH  26  27
ATOM     27  C   UNL A   1      43.008  21.241  26.031  1.00  0.00     0.202 C 
BRANCH  27  28
ATOM     28  C   UNL A   1      43.938  22.285  25.380  1.00  0.00     0.261 C 
BRANCH  28  29
ATOM     29  O   UNL A   1      43.330  23.517  24.964  1.00  0.00    -0.460 OA
BRANCH  29  30
ATOM     30  C   UNL A   1      44.047  24.643  25.221  1.00  0.00     0.338 C 
ATOM     31  O   UNL A   1      45.048  25.031  24.655  1.00  0.00    -0.246 OA
BRANCH  30  32
ATOM     32  C   UNL A   1      43.293  25.475  26.183  1.00  0.00     0.060 A 
ATOM     33  C   UNL A   1      43.679  26.812  26.357  1.00  0.00     0.016 A 
ATOM     34  C   UNL A   1      42.230  24.944  26.913  1.00  0.00     0.016 A 
ATOM     35  C   UNL A   1      42.988  27.628  27.250  1.00  0.00     0.010 A 
ATOM     36  C   UNL A   1      41.562  25.756  27.838  1.00  0.00     0.010 A 
ATOM     37  C   UNL A   1      41.947  27.097  28.021  1.00  0.00    -0.014 A 
BRANCH  37  38
ATOM     38  C   UNL A   1      41.433  27.890  29.163  1.00  0.00     0.031 A 
ATOM     39  C   UNL A   1      42.194  27.833  30.459  1.00  0.00     0.074 A 
ATOM     40  C   UNL A   1      40.367  28.702  29.044  1.00  0.00     0.049 A 
ATOM     41  N   UNL A   1      41.961  28.445  31.589  1.00  0.00    -0.248 NA
ATOM     42  C   UNL A   1      43.390  26.973  30.473  1.00  0.00     0.031 C 
ATOM     43  C   UNL A   1      39.585  28.900  27.826  1.00  0.00     0.029 A 
ATOM     44  N   UNL A   1      39.766  29.524  29.968  1.00  0.00    -0.354 N 
ATOM     45  C   UNL A   1      42.983  28.055  32.443  1.00  0.00     0.074 A 
ATOM     46  C   UNL A   1      43.815  27.122  31.718  1.00  0.00     0.031 C 
ATOM     47  C   UNL A   1      38.606  29.788  28.078  1.00  0.00     0.029 A 
ATOM     48  C   UNL A   1      38.672  30.198  29.482  1.00  0.00     0.049 A 
ATOM     49  H   UNL A   1      40.091  29.621  30.892  1.00  0.00     0.167 HD
ATOM     50  C   UNL A   1      43.220  28.455  33.713  1.00  0.00     0.037 A 
ATOM     51  C   UNL A   1      37.817  31.036  30.104  1.00  0.00     0.037 A 
ATOM     52  C   UNL A   1      42.393  29.380  34.438  1.00  0.00     0.049 A 
ATOM     53  C   UNL A   1      38.030  31.366  31.564  1.00  0.00     0.074 A 
ATOM     54  C   UNL A   1      42.557  29.847  35.730  1.00  0.00     0.029 A 
ATOM     55  N   UNL A   1      41.245  29.973  33.938  1.00  0.00    -0.354 N 
ATOM     56  N   UNL A   1      39.012  31.014  32.357  1.00  0.00    -0.248 NA
ATOM     57  C   UNL A   1      37.009  32.202  32.216  1.00  0.00     0.031 C 
ATOM     58  C   UNL A   1      41.474  30.676  36.032  1.00  0.00     0.029 A 
ATOM     59  C   UNL A   1      40.665  30.769  34.911  1.00  0.00     0.049 A 
ATOM     60  H   UNL A   1      40.894  29.847  33.027  1.00  0.00     0.167 HD
ATOM     61  C   UNL A   1      38.739  31.596  33.590  1.00  0.00     0.074 A 
ATOM     62  C   UNL A   1      37.509  32.344  33.437  1.00  0.00     0.031 C 
ATOM     63  C   UNL A   1      39.442  31.513  34.746  1.00  0.00     0.037 A 
BRANCH  50  64
ATOM     64  C   UNL A   1      44.417  27.882  34.410  1.00  0.00     0.064 A 
ATOM     65  C   UNL A   1      45.659  28.535  34.387  1.00  0.00     0.173 A 
ATOM     66  C   UNL A   1      44.309  26.696  35.150  1.00  0.00     0.173 A 
ATOM     67  F   UNL A   1      45.817  29.662  33.678  1.00  0.00    -0.203 F 
ATOM     68  C   UNL A   1      46.753  28.011  35.069  1.00  0.00     0.198 A 
ATOM     69  C   UNL A   1      45.397  26.193  35.856  1.00  0.00     0.198 A 
ATOM     70  F   UNL A   1      43.142  26.037  35.204  1.00  0.00    -0.203 F 
ATOM     71  F   UNL A   1      47.940  28.630  35.002  1.00  0.00    -0.200 F 
ATOM     72  C   UNL A   1      46.619  26.847  35.811  1.00  0.00     0.200 A 
ATOM     73  F   UNL A   1      45.262  25.076  36.584  1.00  0.00    -0.200 F 
ATOM     74  F   UNL A   1      47.669  26.352  36.481  1.00  0.00    -0.200 F 
ENDBRANCH  50  64
BRANCH  51  75
ATOM     75  C   UNL A   1      36.669  31.620  29.360  1.00  0.00     0.064 A 
ATOM     76  C   UNL A   1      36.634  32.985  29.039  1.00  0.00     0.173 A 
ATOM     77  C   UNL A   1      35.573  30.834  28.972  1.00  0.00     0.173 A 
ATOM     78  F   UNL A   1      37.640  33.786  29.417  1.00  0.00    -0.203 F 
ATOM     79  C   UNL A   1      35.546  33.540  28.366  1.00  0.00     0.198 A 
ATOM     80  C   UNL A   1      34.500  31.384  28.274  1.00  0.00     0.198 A 
ATOM     81  F   UNL A   1      35.548  29.526  29.265  1.00  0.00    -0.203 F 
ATOM     82  F   UNL A   1      35.520  34.855  28.111  1.00  0.00    -0.200 F 
ATOM     83  C   UNL A   1      34.483  32.738  27.977  1.00  0.00     0.200 A 
ATOM     84  F   UNL A   1      33.479  30.603  27.894  1.00  0.00    -0.200 F 
ATOM     85  F   UNL A   1      33.442  33.272  27.325  1.00  0.00    -0.200 F 
ENDBRANCH  51  75
BRANCH  63  86
ATOM     86  C   UNL A   1      38.914  32.231  35.955  1.00  0.00     0.064 A 
ATOM     87  C   UNL A   1      38.128  31.568  36.907  1.00  0.00     0.173 A 
ATOM     88  C   UNL A   1      39.306  33.551  36.230  1.00  0.00     0.173 A 
ATOM     89  F   UNL A   1      37.719  30.309  36.687  1.00  0.00    -0.203 F 
ATOM     90  C   UNL A   1      37.756  32.198  38.093  1.00  0.00     0.198 A 
ATOM     91  C   UNL A   1      38.957  34.167  37.430  1.00  0.00     0.198 A 
ATOM     92  F   UNL A   1      40.069  34.227  35.358  1.00  0.00    -0.203 F 
ATOM     93  F   UNL A   1      36.991  31.548  38.982  1.00  0.00    -0.200 F 
ATOM     94  C   UNL A   1      38.183  33.490  38.360  1.00  0.00     0.200 A 
ATOM     95  F   UNL A   1      39.389  35.407  37.696  1.00  0.00    -0.200 F 
ATOM     96  F   UNL A   1      37.852  34.080  39.517  1.00  0.00    -0.200 F 
ENDBRANCH  63  86
ENDBRANCH  37  38
ENDBRANCH  30  32
ENDBRANCH  29  30
ENDBRANCH  28  29
ENDBRANCH  27  28
ENDBRANCH  26  27
ENDBRANCH   1  26
TORSDOF 18
ENDMDL
MODEL 2
REMARK VINA RESULT:     -11.2      3.253      8.743
REMARK SMILES Cc1cc2c(c(C)c1Cl)C=C(C(=O)OCCOCCOCCOC(=O)c1ccc(-c3c4nc(c(-c5c(F)c(F)c(F)c(F)c5F)c5ccc([nH]5)c(-c5c(F)c(F)c(F)c(F)c5F)c5nc(c(-c6c(F)c(F)c(F)c(F)c6F)c6ccc3[nH]6)C=C5)C=C4)cc1)[C@@H](C(F)(F)F)O2
REMARK SMILES IDX 19 1 18 2 17 3 16 4 15 5 14 6 12 7 13 8 11 9 1 10 2 11 3 12
REMARK SMILES IDX 8 13 4 14 6 15 9 16 5 17 94 18 7 19 10 20 89 21 90 22 91 23
REMARK SMILES IDX 92 24 93 25 20 26 21 27 22 28 23 29 24 30 25 31 26 32 27 33
REMARK SMILES IDX 88 34 28 35 87 36 29 37 30 38 31 39 81 40 32 41 86 42 80 43
REMARK SMILES IDX 82 44 33 45 85 46 79 47 78 48 34 50 66 51 46 52 65 53 47 54
REMARK SMILES IDX 50 55 64 56 83 57 48 58 49 59 63 61 84 62 51 63 35 64 36 65
REMARK SMILES IDX 44 66 37 67 38 68 42 69 45 70 39 71 40 72 43 73 41 74 67 75
REMARK SMILES IDX 68 76 76 77 69 78 70 79 74 80 77 81 71 82 72 83 75 84 73 85
REMARK SMILES IDX 52 86 53 87 61 88 54 89 55 90 59 91 62 92 56 93 57 94 60 95
REMARK SMILES IDX 58 96
REMARK H PARENT 82 49 50 60
REMARK Flexibility Score: inf
ROOT
ATOM      1  C   UNL A   1      30.872  29.004  24.532  1.00  0.00     0.188 C 
ENDROOT
BRANCH   1   2
ATOM      2  C   UNL A   1      31.342  28.995  23.062  1.00  0.00     0.188 C 
BRANCH   2   3
ATOM      3  O   UNL A   1      32.683  29.302  22.757  1.00  0.00    -0.376 OA
BRANCH   3   4
ATOM      4  C   UNL A   1      33.601  28.292  22.378  1.00  0.00     0.202 C 
BRANCH   4   5
ATOM      5  C   UNL A   1      33.247  26.805  22.201  1.00  0.00     0.261 C 
BRANCH   5   6
ATOM      6  O   UNL A   1      33.263  25.993  23.379  1.00  0.00    -0.460 OA
BRANCH   6   7
ATOM      7  C   UNL A   1      32.129  25.288  23.608  1.00  0.00     0.338 C 
ATOM      8  O   UNL A   1      30.988  25.632  23.346  1.00  0.00    -0.246 OA
BRANCH   7   9
ATOM      9  C   UNL A   1      32.476  23.934  24.087  1.00  0.00     0.087 C 
ATOM     10  C   UNL A   1      32.643  17.615  25.425  1.00  0.00     0.046 C 
ATOM     11  C   UNL A   1      32.686  18.963  24.756  1.00  0.00    -0.028 A 
ATOM     12  C   UNL A   1      33.000  20.086  25.532  1.00  0.00     0.052 A 
ATOM     13  C   UNL A   1      32.360  19.144  23.398  1.00  0.00     0.047 A 
ATOM     14  C   UNL A   1      32.925  21.369  24.995  1.00  0.00     0.128 A 
ATOM     15  C   UNL A   1      32.306  20.438  22.826  1.00  0.00    -0.021 A 
ATOM     16  Cl  UNL A   1      31.988  17.740  22.444  1.00  0.00    -0.084 Cl
ATOM     17  C   UNL A   1      32.543  21.560  23.662  1.00  0.00     0.022 A 
ATOM     18  O   UNL A   1      33.240  22.376  25.863  1.00  0.00    -0.475 OA
ATOM     19  C   UNL A   1      31.997  20.645  21.361  1.00  0.00     0.047 C 
ATOM     20  C   UNL A   1      32.329  22.933  23.209  1.00  0.00     0.027 C 
ATOM     21  C   UNL A   1      32.957  23.749  25.496  1.00  0.00     0.316 C 
BRANCH  21  22
ATOM     22  C   UNL A   1      31.986  24.339  26.528  1.00  0.00     0.430 C 
ATOM     23  F   UNL A   1      30.698  24.166  26.149  1.00  0.00    -0.167 F 
ATOM     24  F   UNL A   1      32.118  23.743  27.737  1.00  0.00    -0.167 F 
ATOM     25  F   UNL A   1      32.185  25.665  26.707  1.00  0.00    -0.167 F 
ENDBRANCH  21  22
ENDBRANCH   7   9
ENDBRANCH   6   7
ENDBRANCH   5   6
ENDBRANCH   4   5
ENDBRANCH   3   4
ENDBRANCH   2   3
ENDBRANCH   1   2
BRANCH   1  26
ATOM     26  O   UNL A   1      31.466  29.884  25.460  1.00  0.00    -0.376 OA
BRANCH  26  27
ATOM     27  C   UNL A   1      30.944  31.195  25.607  1.00  0.00     0.202 C 
BRANCH  27  28
ATOM     28  C   UNL A   1      31.441  32.197  26.668  1.00  0.00     0.261 C 
BRANCH  28  29
ATOM     29  O   UNL A   1      32.635  31.839  27.380  1.00  0.00    -0.460 OA
BRANCH  29  30
ATOM     30  C   UNL A   1      33.489  32.863  27.649  1.00  0.00     0.338 C 
ATOM     31  O   UNL A   1      33.231  34.047  27.710  1.00  0.00    -0.246 OA
BRANCH  30  32
ATOM     32  C   UNL A   1      34.784  32.298  28.084  1.00  0.00     0.060 A 
ATOM     33  C   UNL A   1      34.859  30.922  28.344  1.00  0.00     0.016 A 
ATOM     34  C   UNL A   1      35.905  33.112  28.246  1.00  0.00     0.016 A 
ATOM     35  C   UNL A   1      36.064  30.352  28.750  1.00  0.00     0.010 A 
ATOM     36  C   UNL A   1      37.105  32.543  28.691  1.00  0.00     0.010 A 
ATOM     37  C   UNL A   1      37.186  31.164  28.958  1.00  0.00    -0.014 A 
BRANCH  37  38
ATOM     38  C   UNL A   1      38.355  30.592  29.668  1.00  0.00     0.031 A 
ATOM     39  C   UNL A   1      38.573  30.992  31.101  1.00  0.00     0.074 A 
ATOM     40  C   UNL A   1      39.161  29.681  29.093  1.00  0.00     0.049 A 
ATOM     41  N   UNL A   1      39.504  30.617  31.938  1.00  0.00    -0.248 NA
ATOM     42  C   UNL A   1      37.597  31.937  31.668  1.00  0.00     0.031 C 
ATOM     43  C   UNL A   1      39.018  29.159  27.737  1.00  0.00     0.029 A 
ATOM     44  N   UNL A   1      40.262  29.026  29.592  1.00  0.00    -0.354 N 
ATOM     45  C   UNL A   1      39.221  31.270  33.130  1.00  0.00     0.074 A 
ATOM     46  C   UNL A   1      38.057  32.096  32.899  1.00  0.00     0.031 C 
ATOM     47  C   UNL A   1      39.995  28.262  27.511  1.00  0.00     0.029 A 
ATOM     48  C   UNL A   1      40.852  28.169  28.694  1.00  0.00     0.049 A 
ATOM     49  H   UNL A   1      40.597  29.159  30.508  1.00  0.00     0.167 HD
ATOM     50  C   UNL A   1      39.860  31.173  34.317  1.00  0.00     0.037 A 
ATOM     51  C   UNL A   1      41.962  27.412  28.812  1.00  0.00     0.037 A 
ATOM     52  C   UNL A   1      41.019  30.355  34.549  1.00  0.00     0.049 A 
ATOM     53  C   UNL A   1      42.735  27.422  30.111  1.00  0.00     0.074 A 
ATOM     54  C   UNL A   1      41.733  30.193  35.722  1.00  0.00     0.029 A 
ATOM     55  N   UNL A   1      41.635  29.570  33.588  1.00  0.00    -0.354 N 
ATOM     56  N   UNL A   1      42.447  28.021  31.240  1.00  0.00    -0.248 NA
ATOM     57  C   UNL A   1      43.992  26.658  30.147  1.00  0.00     0.031 C 
ATOM     58  C   UNL A   1      42.819  29.355  35.455  1.00  0.00     0.029 A 
ATOM     59  C   UNL A   1      42.750  28.953  34.131  1.00  0.00     0.049 A 
ATOM     60  H   UNL A   1      41.328  29.467  32.659  1.00  0.00     0.167 HD
ATOM     61  C   UNL A   1      43.471  27.694  32.122  1.00  0.00     0.074 A 
ATOM     62  C   UNL A   1      44.380  26.825  31.405  1.00  0.00     0.031 C 
ATOM     63  C   UNL A   1      43.645  28.085  33.408  1.00  0.00     0.037 A 
BRANCH  50  64
ATOM     64  C   UNL A   1      39.330  31.986  35.460  1.00  0.00     0.064 A 
ATOM     65  C   UNL A   1      38.445  31.436  36.399  1.00  0.00     0.173 A 
ATOM     66  C   UNL A   1      39.750  33.311  35.645  1.00  0.00     0.173 A 
ATOM     67  F   UNL A   1      38.000  30.179  36.255  1.00  0.00    -0.203 F 
ATOM     68  C   UNL A   1      37.989  32.191  37.477  1.00  0.00     0.198 A 
ATOM     69  C   UNL A   1      39.317  34.051  36.740  1.00  0.00     0.198 A 
ATOM     70  F   UNL A   1      40.597  33.880  34.774  1.00  0.00    -0.203 F 
ATOM     71  F   UNL A   1      37.114  31.659  38.341  1.00  0.00    -0.200 F 
ATOM     72  C   UNL A   1      38.433  33.493  37.652  1.00  0.00     0.200 A 
ATOM     73  F   UNL A   1      39.757  35.304  36.916  1.00  0.00    -0.200 F 
ATOM     74  F   UNL A   1      38.006  34.213  38.699  1.00  0.00    -0.200 F 
ENDBRANCH  50  64
BRANCH  51  75
ATOM     75  C   UNL A   1      42.425  26.582  27.666  1.00  0.00     0.064 A 
ATOM     76  C   UNL A   1      41.924  25.289  27.460  1.00  0.00     0.173 A 
ATOM     77  C   UNL A   1      43.394  27.054  26.767  1.00  0.00     0.173 A 
ATOM     78  F   UNL A   1      41.021  24.779  28.311  1.00  0.00    -0.203 F 
ATOM     79  C   UNL A   1      42.376  24.499  26.404  1.00  0.00     0.198 A 
ATOM     80  C   UNL A   1      43.825  26.275  25.695  1.00  0.00     0.198 A 
ATOM     81  F   UNL A   1      43.918  28.278  26.925  1.00  0.00    -0.203 F 
ATOM     82  F   UNL A   1      41.911  23.252  26.257  1.00  0.00    -0.200 F 
ATOM     83  C   UNL A   1      43.321  24.995  25.517  1.00  0.00     0.200 A 
ATOM     84  F   UNL A   1      44.732  26.762  24.838  1.00  0.00    -0.200 F 
ATOM     85  F   UNL A   1      43.751  24.238  24.500  1.00  0.00    -0.200 F 
ENDBRANCH  51  75
BRANCH  63  86
ATOM     86  C   UNL A   1      44.862  27.598  34.143  1.00  0.00     0.064 A 
ATOM     87  C   UNL A   1      46.027  28.374  34.211  1.00  0.00     0.173 A 
ATOM     88  C   UNL A   1      44.817  26.412  34.894  1.00  0.00     0.173 A 
ATOM     89  F   UNL A   1      46.124  29.510  33.505  1.00  0.00    -0.203 F 
ATOM     90  C   UNL A   1      47.103  27.983  35.006  1.00  0.00     0.198 A 
ATOM     91  C   UNL A   1      45.882  26.040  35.710  1.00  0.00     0.198 A 
ATOM     92  F   UNL A   1      43.720  25.640  34.874  1.00  0.00    -0.203 F 
ATOM     93  F   UNL A   1      48.213  28.733  35.043  1.00  0.00    -0.200 F 
ATOM     94  C   UNL A   1      47.023  26.826  35.766  1.00  0.00     0.200 A 
ATOM     95  F   UNL A   1      45.794  24.934  36.461  1.00  0.00    -0.200 F 
ATOM     96  F   UNL A   1      48.046  26.470  36.556  1.00  0.00    -0.200 F 
ENDBRANCH  63  86
ENDBRANCH  37  38
ENDBRANCH  30  32
ENDBRANCH  29  30
ENDBRANCH  28  29
ENDBRANCH  27  28
ENDBRANCH  26  27
ENDBRANCH   1  26
TORSDOF 18
ENDMDL
MODEL 3
REMARK VINA RESULT:     -11.1      4.476      8.905
REMARK SMILES Cc1cc2c(c(C)c1Cl)C=C(C(=O)OCCOCCOCCOC(=O)c1ccc(-c3c4nc(c(-c5c(F)c(F)c(F)c(F)c5F)c5ccc([nH]5)c(-c5c(F)c(F)c(F)c(F)c5F)c5nc(c(-c6c(F)c(F)c(F)c(F)c6F)c6ccc3[nH]6)C=C5)C=C4)cc1)[C@@H](C(F)(F)F)O2
REMARK SMILES IDX 19 1 18 2 17 3 16 4 15 5 14 6 12 7 13 8 11 9 1 10 2 11 3 12
REMARK SMILES IDX 8 13 4 14 6 15 9 16 5 17 94 18 7 19 10 20 89 21 90 22 91 23
REMARK SMILES IDX 92 24 93 25 20 26 21 27 22 28 23 29 24 30 25 31 26 32 27 33
REMARK SMILES IDX 88 34 28 35 87 36 29 37 30 38 31 39 81 40 32 41 86 42 80 43
REMARK SMILES IDX 82 44 33 45 85 46 79 47 78 48 34 50 66 51 46 52 65 53 47 54
REMARK SMILES IDX 50 55 64 56 83 57 48 58 49 59 63 61 84 62 51 63 35 64 36 65
REMARK SMILES IDX 44 66 37 67 38 68 42 69 45 70 39 71 40 72 43 73 41 74 67 75
REMARK SMILES IDX 68 76 76 77 69 78 70 79 74 80 77 81 71 82 72 83 75 84 73 85
REMARK SMILES IDX 52 86 53 87 61 88 54 89 55 90 59 91 62 92 56 93 57 94 60 95
REMARK SMILES IDX 58 96
REMARK H PARENT 82 49 50 60
REMARK Flexibility Score: inf
ROOT
ATOM      1  C   UNL A   1      33.089  22.067  24.159  1.00  0.00     0.188 C 
ENDROOT
BRANCH   1   2
ATOM      2  C   UNL A   1      32.274  22.764  25.269  1.00  0.00     0.188 C 
BRANCH   2   3
ATOM      3  O   UNL A   1      31.020  23.327  24.963  1.00  0.00    -0.376 OA
BRANCH   3   4
ATOM      4  C   UNL A   1      30.678  23.686  23.636  1.00  0.00     0.202 C 
BRANCH   4   5
ATOM      5  C   UNL A   1      29.822  24.904  23.248  1.00  0.00     0.261 C 
BRANCH   5   6
ATOM      6  O   UNL A   1      29.949  26.070  24.069  1.00  0.00    -0.460 OA
BRANCH   6   7
ATOM      7  C   UNL A   1      30.760  27.036  23.575  1.00  0.00     0.338 C 
ATOM      8  O   UNL A   1      30.645  27.611  22.505  1.00  0.00    -0.246 OA
BRANCH   7   9
ATOM      9  C   UNL A   1      31.745  27.430  24.604  1.00  0.00     0.087 C 
ATOM     10  C   UNL A   1      36.016  30.545  28.318  1.00  0.00     0.046 C 
ATOM     11  C   UNL A   1      34.771  30.059  27.625  1.00  0.00    -0.028 A 
ATOM     12  C   UNL A   1      34.741  28.744  27.147  1.00  0.00     0.052 A 
ATOM     13  C   UNL A   1      33.665  30.897  27.383  1.00  0.00     0.047 A 
ATOM     14  C   UNL A   1      33.669  28.285  26.384  1.00  0.00     0.128 A 
ATOM     15  C   UNL A   1      32.554  30.440  26.635  1.00  0.00    -0.021 A 
ATOM     16  Cl  UNL A   1      33.710  32.522  27.997  1.00  0.00    -0.084 Cl
ATOM     17  C   UNL A   1      32.594  29.131  26.090  1.00  0.00     0.022 A 
ATOM     18  O   UNL A   1      33.773  26.989  25.966  1.00  0.00    -0.475 OA
ATOM     19  C   UNL A   1      31.341  31.314  26.402  1.00  0.00     0.047 C 
ATOM     20  C   UNL A   1      31.583  28.641  25.154  1.00  0.00     0.027 C 
ATOM     21  C   UNL A   1      32.852  26.485  24.967  1.00  0.00     0.316 C 
BRANCH  21  22
ATOM     22  C   UNL A   1      33.659  26.031  23.744  1.00  0.00     0.430 C 
ATOM     23  F   UNL A   1      34.068  27.088  23.002  1.00  0.00    -0.167 F 
ATOM     24  F   UNL A   1      34.777  25.356  24.104  1.00  0.00    -0.167 F 
ATOM     25  F   UNL A   1      32.940  25.219  22.937  1.00  0.00    -0.167 F 
ENDBRANCH  21  22
ENDBRANCH   7   9
ENDBRANCH   6   7
ENDBRANCH   5   6
ENDBRANCH   4   5
ENDBRANCH   3   4
ENDBRANCH   2   3
ENDBRANCH   1   2
BRANCH   1  26
ATOM     26  O   UNL A   1      34.498  22.082  24.199  1.00  0.00    -0.376 OA
BRANCH  26  27
ATOM     27  C   UNL A   1      35.181  21.125  24.994  1.00  0.00     0.202 C 
BRANCH  27  28
ATOM     28  C   UNL A   1      36.717  20.995  25.040  1.00  0.00     0.261 C 
BRANCH  28  29
ATOM     29  O   UNL A   1      37.415  21.928  25.879  1.00  0.00    -0.460 OA
BRANCH  29  30
ATOM     30  C   UNL A   1      38.720  21.634  26.125  1.00  0.00     0.338 C 
ATOM     31  O   UNL A   1      39.316  20.615  25.848  1.00  0.00    -0.246 OA
BRANCH  30  32
ATOM     32  C   UNL A   1      39.397  22.857  26.607  1.00  0.00     0.060 A 
ATOM     33  C   UNL A   1      38.958  24.099  26.125  1.00  0.00     0.016 A 
ATOM     34  C   UNL A   1      40.457  22.783  27.511  1.00  0.00     0.016 A 
ATOM     35  C   UNL A   1      39.568  25.273  26.562  1.00  0.00     0.010 A 
ATOM     36  C   UNL A   1      41.094  23.962  27.918  1.00  0.00     0.010 A 
ATOM     37  C   UNL A   1      40.661  25.210  27.435  1.00  0.00    -0.014 A 
BRANCH  37  38
ATOM     38  C   UNL A   1      41.473  26.433  27.645  1.00  0.00     0.031 A 
ATOM     39  C   UNL A   1      40.882  27.535  28.481  1.00  0.00     0.074 A 
ATOM     40  C   UNL A   1      42.730  26.542  27.179  1.00  0.00     0.049 A 
ATOM     41  N   UNL A   1      41.395  28.686  28.824  1.00  0.00    -0.248 NA
ATOM     42  C   UNL A   1      39.529  27.296  29.009  1.00  0.00     0.031 C 
ATOM     43  C   UNL A   1      43.442  25.520  26.416  1.00  0.00     0.029 A 
ATOM     44  N   UNL A   1      43.636  27.570  27.294  1.00  0.00    -0.354 N 
ATOM     45  C   UNL A   1      40.436  29.302  29.615  1.00  0.00     0.074 A 
ATOM     46  C   UNL A   1      39.293  28.419  29.669  1.00  0.00     0.031 C 
ATOM     47  C   UNL A   1      44.677  25.973  26.130  1.00  0.00     0.029 A 
ATOM     48  C   UNL A   1      44.832  27.327  26.663  1.00  0.00     0.049 A 
ATOM     49  H   UNL A   1      43.445  28.403  27.783  1.00  0.00     0.167 HD
ATOM     50  C   UNL A   1      40.509  30.490  30.259  1.00  0.00     0.037 A 
ATOM     51  C   UNL A   1      45.918  28.115  26.520  1.00  0.00     0.037 A 
ATOM     52  C   UNL A   1      41.642  31.372  30.205  1.00  0.00     0.049 A 
ATOM     53  C   UNL A   1      45.923  29.494  27.141  1.00  0.00     0.074 A 
ATOM     54  C   UNL A   1      41.806  32.596  30.827  1.00  0.00     0.029 A 
ATOM     55  N   UNL A   1      42.799  31.127  29.483  1.00  0.00    -0.354 N 
ATOM     56  N   UNL A   1      45.023  30.059  27.908  1.00  0.00    -0.248 NA
ATOM     57  C   UNL A   1      47.091  30.346  26.866  1.00  0.00     0.031 C 
ATOM     58  C   UNL A   1      43.040  33.120  30.433  1.00  0.00     0.029 A 
ATOM     59  C   UNL A   1      43.667  32.199  29.609  1.00  0.00     0.049 A 
ATOM     60  H   UNL A   1      42.978  30.314  28.959  1.00  0.00     0.167 HD
ATOM     61  C   UNL A   1      45.521  31.319  28.222  1.00  0.00     0.074 A 
ATOM     62  C   UNL A   1      46.813  31.431  27.579  1.00  0.00     0.031 C 
ATOM     63  C   UNL A   1      44.954  32.297  28.969  1.00  0.00     0.037 A 
BRANCH  50  64
ATOM     64  C   UNL A   1      39.320  30.915  31.067  1.00  0.00     0.064 A 
ATOM     65  C   UNL A   1      38.364  31.802  30.551  1.00  0.00     0.173 A 
ATOM     66  C   UNL A   1      39.109  30.391  32.351  1.00  0.00     0.173 A 
ATOM     67  F   UNL A   1      38.531  32.344  29.336  1.00  0.00    -0.203 F 
ATOM     68  C   UNL A   1      37.245  32.160  31.299  1.00  0.00     0.198 A 
ATOM     69  C   UNL A   1      37.974  30.727  33.082  1.00  0.00     0.198 A 
ATOM     70  F   UNL A   1      39.995  29.537  32.887  1.00  0.00    -0.203 F 
ATOM     71  F   UNL A   1      36.364  33.039  30.802  1.00  0.00    -0.200 F 
ATOM     72  C   UNL A   1      37.046  31.614  32.558  1.00  0.00     0.200 A 
ATOM     73  F   UNL A   1      37.777  30.188  34.293  1.00  0.00    -0.200 F 
ATOM     74  F   UNL A   1      35.960  31.947  33.270  1.00  0.00    -0.200 F 
ENDBRANCH  50  64
BRANCH  51  75
ATOM     75  C   UNL A   1      47.096  27.633  25.749  1.00  0.00     0.064 A 
ATOM     76  C   UNL A   1      48.197  27.056  26.397  1.00  0.00     0.173 A 
ATOM     77  C   UNL A   1      47.156  27.757  24.353  1.00  0.00     0.173 A 
ATOM     78  F   UNL A   1      48.204  26.945  27.733  1.00  0.00    -0.203 F 
ATOM     79  C   UNL A   1      49.314  26.628  25.679  1.00  0.00     0.198 A 
ATOM     80  C   UNL A   1      48.259  27.303  23.633  1.00  0.00     0.198 A 
ATOM     81  F   UNL A   1      46.136  28.314  23.684  1.00  0.00    -0.203 F 
ATOM     82  F   UNL A   1      50.370  26.120  26.328  1.00  0.00    -0.200 F 
ATOM     83  C   UNL A   1      49.341  26.744  24.297  1.00  0.00     0.200 A 
ATOM     84  F   UNL A   1      48.277  27.411  22.298  1.00  0.00    -0.200 F 
ATOM     85  F   UNL A   1      50.411  26.328  23.608  1.00  0.00    -0.200 F 
ENDBRANCH  51  75
BRANCH  63  86
ATOM     86  C   UNL A   1      45.702  33.589  29.141  1.00  0.00     0.064 A 
ATOM     87  C   UNL A   1      45.430  34.698  28.329  1.00  0.00     0.173 A 
ATOM     88  C   UNL A   1      46.601  33.758  30.207  1.00  0.00     0.173 A 
ATOM     89  F   UNL A   1      44.587  34.585  27.291  1.00  0.00    -0.203 F 
ATOM     90  C   UNL A   1      46.026  35.932  28.579  1.00  0.00     0.198 A 
ATOM     91  C   UNL A   1      47.171  35.001  30.471  1.00  0.00     0.198 A 
ATOM     92  F   UNL A   1      46.886  32.731  31.022  1.00  0.00    -0.203 F 
ATOM     93  F   UNL A   1      45.762  36.975  27.780  1.00  0.00    -0.200 F 
ATOM     94  C   UNL A   1      46.883  36.086  29.658  1.00  0.00     0.200 A 
ATOM     95  F   UNL A   1      47.982  35.153  31.528  1.00  0.00    -0.200 F 
ATOM     96  F   UNL A   1      47.429  37.283  29.917  1.00  0.00    -0.200 F 
ENDBRANCH  63  86
ENDBRANCH  37  38
ENDBRANCH  30  32
ENDBRANCH  29  30
ENDBRANCH  28  29
ENDBRANCH  27  28
ENDBRANCH  26  27
ENDBRANCH   1  26
TORSDOF 18
ENDMDL
