MODEL 1
REMARK VINA RESULT:     -10.5      0.000      0.000
REMARK SMILES CC(C)c1nc(C(=O)OCCOCCOCCOC(=O)c2ccc(-c3c4nc(c(-c5c(F)c(F)c(F)c(F)c5F)c5ccc([nH]5)c(-c5c(F)c(F)c(F)c(F)c5F)c5nc(c(-c6c(F)c(F)c(F)c(F)c6F)c6ccc3[nH]6)C=C5)C=C4)cc2)nn1-c1ccccc1F
REMARK SMILES IDX 14 1 13 2 12 3 11 4 10 5 9 6 7 7 8 8 6 9 4 10 5 11 85 12
REMARK SMILES IDX 84 13 2 14 1 15 3 16 86 17 87 18 91 19 88 20 90 21 92 22
REMARK SMILES IDX 89 23 15 24 16 25 17 26 18 27 19 28 20 29 21 30 22 31 83 32
REMARK SMILES IDX 23 33 82 34 24 35 25 36 26 37 76 38 27 39 81 40 75 41 77 42
REMARK SMILES IDX 28 43 80 44 74 45 73 46 29 48 61 49 41 50 60 51 42 52 45 53
REMARK SMILES IDX 59 54 78 55 43 56 44 57 58 59 79 60 46 61 30 62 31 63 39 64
REMARK SMILES IDX 32 65 33 66 37 67 40 68 34 69 35 70 38 71 36 72 62 73 63 74
REMARK SMILES IDX 71 75 64 76 65 77 69 78 72 79 66 80 67 81 70 82 68 83 47 84
REMARK SMILES IDX 48 85 56 86 49 87 50 88 54 89 57 90 51 91 52 92 55 93 53 94
REMARK H PARENT 77 47 45 58
REMARK Flexibility Score: inf
ROOT
ATOM      1  C   UNL A   1      32.897  36.054  28.921  1.00  0.00     0.188 C 
ENDROOT
BRANCH   1   2
ATOM      2  C   UNL A   1      33.311  36.744  30.239  1.00  0.00     0.188 C 
BRANCH   2   3
ATOM      3  O   UNL A   1      32.351  37.004  31.257  1.00  0.00    -0.376 OA
BRANCH   3   4
ATOM      4  C   UNL A   1      32.680  36.770  32.622  1.00  0.00     0.202 C 
BRANCH   4   5
ATOM      5  C   UNL A   1      34.155  36.577  33.010  1.00  0.00     0.261 C 
BRANCH   5   6
ATOM      6  O   UNL A   1      34.449  35.338  33.674  1.00  0.00    -0.457 OA
BRANCH   6   7
ATOM      7  C   UNL A   1      34.584  34.238  32.867  1.00  0.00     0.378 C 
ATOM      8  O   UNL A   1      33.653  33.716  32.262  1.00  0.00    -0.242 OA
BRANCH   7   9
ATOM      9  C   UNL A   1      35.991  33.823  32.684  1.00  0.00     0.260 A 
ATOM     10  C   UNL A   1      37.736  32.601  32.836  1.00  0.00     0.136 A 
ATOM     11  N   UNL A   1      36.466  32.633  33.189  1.00  0.00    -0.205 NA
ATOM     12  N   UNL A   1      38.014  33.713  32.052  1.00  0.00    -0.214 N 
ATOM     13  N   UNL A   1      36.921  34.525  32.013  1.00  0.00    -0.138 NA
BRANCH  10  14
ATOM     14  C   UNL A   1      38.737  31.633  33.403  1.00  0.00     0.051 C 
ATOM     15  C   UNL A   1      39.425  32.257  34.623  1.00  0.00     0.016 C 
ATOM     16  C   UNL A   1      38.065  30.316  33.793  1.00  0.00     0.016 C 
ENDBRANCH  10  14
BRANCH  12  17
ATOM     17  C   UNL A   1      39.216  34.119  31.425  1.00  0.00     0.102 A 
ATOM     18  C   UNL A   1      40.373  34.274  32.204  1.00  0.00     0.031 A 
ATOM     19  C   UNL A   1      39.282  34.371  30.056  1.00  0.00     0.148 A 
ATOM     20  C   UNL A   1      41.588  34.596  31.595  1.00  0.00     0.002 A 
ATOM     21  C   UNL A   1      40.491  34.707  29.449  1.00  0.00     0.041 A 
ATOM     22  F   UNL A   1      38.180  34.366  29.293  1.00  0.00    -0.205 F 
ATOM     23  C   UNL A   1      41.650  34.805  30.217  1.00  0.00     0.003 A 
ENDBRANCH  12  17
ENDBRANCH   7   9
ENDBRANCH   6   7
ENDBRANCH   5   6
ENDBRANCH   4   5
ENDBRANCH   3   4
ENDBRANCH   2   3
ENDBRANCH   1   2
BRANCH   1  24
ATOM     24  O   UNL A   1      32.667  34.659  29.037  1.00  0.00    -0.376 OA
BRANCH  24  25
ATOM     25  C   UNL A   1      33.460  33.827  28.205  1.00  0.00     0.202 C 
BRANCH  25  26
ATOM     26  C   UNL A   1      34.810  33.423  28.799  1.00  0.00     0.261 C 
BRANCH  26  27
ATOM     27  O   UNL A   1      34.854  32.125  29.386  1.00  0.00    -0.460 OA
BRANCH  27  28
ATOM     28  C   UNL A   1      35.497  31.174  28.678  1.00  0.00     0.338 C 
ATOM     29  O   UNL A   1      35.177  30.739  27.587  1.00  0.00    -0.246 OA
BRANCH  28  30
ATOM     30  C   UNL A   1      36.623  30.660  29.482  1.00  0.00     0.060 A 
ATOM     31  C   UNL A   1      37.859  31.292  29.335  1.00  0.00     0.016 A 
ATOM     32  C   UNL A   1      36.506  29.453  30.189  1.00  0.00     0.016 A 
ATOM     33  C   UNL A   1      39.002  30.624  29.738  1.00  0.00     0.010 A 
ATOM     34  C   UNL A   1      37.651  28.783  30.587  1.00  0.00     0.010 A 
ATOM     35  C   UNL A   1      38.892  29.337  30.276  1.00  0.00    -0.014 A 
BRANCH  35  36
ATOM     36  C   UNL A   1      40.113  28.550  30.349  1.00  0.00     0.031 A 
ATOM     37  C   UNL A   1      40.809  28.466  31.651  1.00  0.00     0.074 A 
ATOM     38  C   UNL A   1      40.601  27.905  29.271  1.00  0.00     0.049 A 
ATOM     39  N   UNL A   1      42.016  28.841  31.933  1.00  0.00    -0.248 NA
ATOM     40  C   UNL A   1      40.066  27.900  32.781  1.00  0.00     0.031 C 
ATOM     41  C   UNL A   1      39.930  27.632  27.997  1.00  0.00     0.029 A 
ATOM     42  N   UNL A   1      41.805  27.278  29.135  1.00  0.00    -0.354 N 
ATOM     43  C   UNL A   1      42.243  28.439  33.245  1.00  0.00     0.074 A 
ATOM     44  C   UNL A   1      40.990  27.926  33.743  1.00  0.00     0.031 C 
ATOM     45  C   UNL A   1      40.656  26.731  27.300  1.00  0.00     0.029 A 
ATOM     46  C   UNL A   1      41.894  26.470  28.016  1.00  0.00     0.049 A 
ATOM     47  H   UNL A   1      42.544  27.391  29.776  1.00  0.00     0.167 HD
ATOM     48  C   UNL A   1      43.488  28.406  33.791  1.00  0.00     0.037 A 
ATOM     49  C   UNL A   1      42.884  25.592  27.735  1.00  0.00     0.037 A 
ATOM     50  C   UNL A   1      44.429  29.218  33.074  1.00  0.00     0.049 A 
ATOM     51  C   UNL A   1      44.082  25.976  28.517  1.00  0.00     0.074 A 
ATOM     52  C   UNL A   1      44.524  30.566  32.786  1.00  0.00     0.029 A 
ATOM     53  N   UNL A   1      45.364  28.607  32.281  1.00  0.00    -0.354 N 
ATOM     54  N   UNL A   1      44.815  27.030  28.287  1.00  0.00    -0.248 NA
ATOM     55  C   UNL A   1      44.288  25.346  29.812  1.00  0.00     0.031 C 
ATOM     56  C   UNL A   1      45.173  30.637  31.520  1.00  0.00     0.029 A 
ATOM     57  C   UNL A   1      45.427  29.326  31.115  1.00  0.00     0.049 A 
ATOM     58  H   UNL A   1      45.890  27.805  32.504  1.00  0.00     0.167 HD
ATOM     59  C   UNL A   1      45.271  27.423  29.536  1.00  0.00     0.074 A 
ATOM     60  C   UNL A   1      45.023  26.285  30.409  1.00  0.00     0.031 C 
ATOM     61  C   UNL A   1      45.549  28.731  29.806  1.00  0.00     0.037 A 
BRANCH  48  62
ATOM     62  C   UNL A   1      43.907  27.424  34.844  1.00  0.00     0.064 A 
ATOM     63  C   UNL A   1      43.896  26.044  34.571  1.00  0.00     0.173 A 
ATOM     64  C   UNL A   1      44.064  27.786  36.199  1.00  0.00     0.173 A 
ATOM     65  F   UNL A   1      43.702  25.597  33.322  1.00  0.00    -0.203 F 
ATOM     66  C   UNL A   1      44.006  25.093  35.590  1.00  0.00     0.198 A 
ATOM     67  C   UNL A   1      44.225  26.837  37.206  1.00  0.00     0.198 A 
ATOM     68  F   UNL A   1      43.963  29.061  36.598  1.00  0.00    -0.203 F 
ATOM     69  F   UNL A   1      43.892  23.791  35.300  1.00  0.00    -0.200 F 
ATOM     70  C   UNL A   1      44.174  25.491  36.905  1.00  0.00     0.200 A 
ATOM     71  F   UNL A   1      44.359  27.239  38.478  1.00  0.00    -0.200 F 
ATOM     72  F   UNL A   1      44.237  24.582  37.887  1.00  0.00    -0.200 F 
ENDBRANCH  48  62
BRANCH  49  73
ATOM     73  C   UNL A   1      42.764  24.297  27.031  1.00  0.00     0.064 A 
ATOM     74  C   UNL A   1      43.255  24.128  25.729  1.00  0.00     0.173 A 
ATOM     75  C   UNL A   1      42.388  23.126  27.719  1.00  0.00     0.173 A 
ATOM     76  F   UNL A   1      43.683  25.186  25.026  1.00  0.00    -0.203 F 
ATOM     77  C   UNL A   1      43.371  22.860  25.151  1.00  0.00     0.198 A 
ATOM     78  C   UNL A   1      42.491  21.864  27.138  1.00  0.00     0.198 A 
ATOM     79  F   UNL A   1      41.999  23.174  29.002  1.00  0.00    -0.203 F 
ATOM     80  F   UNL A   1      43.898  22.730  23.926  1.00  0.00    -0.200 F 
ATOM     81  C   UNL A   1      42.993  21.730  25.858  1.00  0.00     0.200 A 
ATOM     82  F   UNL A   1      42.154  20.776  27.846  1.00  0.00    -0.200 F 
ATOM     83  F   UNL A   1      43.150  20.510  25.323  1.00  0.00    -0.200 F 
ENDBRANCH  49  73
BRANCH  61  84
ATOM     84  C   UNL A   1      45.676  29.673  28.646  1.00  0.00     0.064 A 
ATOM     85  C   UNL A   1      44.577  30.318  28.053  1.00  0.00     0.173 A 
ATOM     86  C   UNL A   1      46.958  30.051  28.223  1.00  0.00     0.173 A 
ATOM     87  F   UNL A   1      43.329  30.082  28.480  1.00  0.00    -0.203 F 
ATOM     88  C   UNL A   1      44.757  31.266  27.049  1.00  0.00     0.198 A 
ATOM     89  C   UNL A   1      47.135  31.024  27.244  1.00  0.00     0.198 A 
ATOM     90  F   UNL A   1      48.043  29.511  28.802  1.00  0.00    -0.203 F 
ATOM     91  F   UNL A   1      43.695  31.865  26.491  1.00  0.00    -0.200 F 
ATOM     92  C   UNL A   1      46.036  31.623  26.650  1.00  0.00     0.200 A 
ATOM     93  F   UNL A   1      48.374  31.402  26.896  1.00  0.00    -0.200 F 
ATOM     94  F   UNL A   1      46.210  32.567  25.714  1.00  0.00    -0.200 F 
ENDBRANCH  61  84
ENDBRANCH  35  36
ENDBRANCH  28  30
ENDBRANCH  27  28
ENDBRANCH  26  27
ENDBRANCH  25  26
ENDBRANCH  24  25
ENDBRANCH   1  24
TORSDOF 19
ENDMDL
MODEL 2
REMARK VINA RESULT:     -10.3      3.827      6.892
REMARK SMILES CC(C)c1nc(C(=O)OCCOCCOCCOC(=O)c2ccc(-c3c4nc(c(-c5c(F)c(F)c(F)c(F)c5F)c5ccc([nH]5)c(-c5c(F)c(F)c(F)c(F)c5F)c5nc(c(-c6c(F)c(F)c(F)c(F)c6F)c6ccc3[nH]6)C=C5)C=C4)cc2)nn1-c1ccccc1F
REMARK SMILES IDX 14 1 13 2 12 3 11 4 10 5 9 6 7 7 8 8 6 9 4 10 5 11 85 12
REMARK SMILES IDX 84 13 2 14 1 15 3 16 86 17 87 18 91 19 88 20 90 21 92 22
REMARK SMILES IDX 89 23 15 24 16 25 17 26 18 27 19 28 20 29 21 30 22 31 83 32
REMARK SMILES IDX 23 33 82 34 24 35 25 36 26 37 76 38 27 39 81 40 75 41 77 42
REMARK SMILES IDX 28 43 80 44 74 45 73 46 29 48 61 49 41 50 60 51 42 52 45 53
REMARK SMILES IDX 59 54 78 55 43 56 44 57 58 59 79 60 46 61 30 62 31 63 39 64
REMARK SMILES IDX 32 65 33 66 37 67 40 68 34 69 35 70 38 71 36 72 62 73 63 74
REMARK SMILES IDX 71 75 64 76 65 77 69 78 72 79 66 80 67 81 70 82 68 83 47 84
REMARK SMILES IDX 48 85 56 86 49 87 50 88 54 89 57 90 51 91 52 92 55 93 53 94
REMARK H PARENT 77 47 45 58
REMARK Flexibility Score: inf
ROOT
ATOM      1  C   UNL A   1      33.362  27.655  25.009  1.00  0.00     0.188 C 
ENDROOT
BRANCH   1   2
ATOM      2  C   UNL A   1      31.872  27.801  24.631  1.00  0.00     0.188 C 
BRANCH   2   3
ATOM      3  O   UNL A   1      31.462  27.785  23.268  1.00  0.00    -0.376 OA
BRANCH   3   4
ATOM      4  C   UNL A   1      30.868  26.615  22.717  1.00  0.00     0.202 C 
BRANCH   4   5
ATOM      5  C   UNL A   1      31.142  25.257  23.383  1.00  0.00     0.261 C 
BRANCH   5   6
ATOM      6  O   UNL A   1      31.830  24.305  22.557  1.00  0.00    -0.457 OA
BRANCH   6   7
ATOM      7  C   UNL A   1      33.183  24.487  22.426  1.00  0.00     0.378 C 
ATOM      8  O   UNL A   1      33.692  25.303  21.665  1.00  0.00    -0.242 OA
BRANCH   7   9
ATOM      9  C   UNL A   1      33.970  23.699  23.398  1.00  0.00     0.260 A 
ATOM     10  C   UNL A   1      34.433  22.125  24.766  1.00  0.00     0.136 A 
ATOM     11  N   UNL A   1      33.471  22.550  23.970  1.00  0.00    -0.205 NA
ATOM     12  N   UNL A   1      35.538  22.953  24.619  1.00  0.00    -0.214 N 
ATOM     13  N   UNL A   1      35.218  23.994  23.800  1.00  0.00    -0.138 NA
BRANCH  10  14
ATOM     14  C   UNL A   1      34.243  21.063  25.814  1.00  0.00     0.051 C 
ATOM     15  C   UNL A   1      33.796  21.711  27.129  1.00  0.00     0.016 C 
ATOM     16  C   UNL A   1      33.216  20.025  25.361  1.00  0.00     0.016 C 
ENDBRANCH  10  14
BRANCH  12  17
ATOM     17  C   UNL A   1      36.810  22.908  25.237  1.00  0.00     0.102 A 
ATOM     18  C   UNL A   1      37.254  24.022  25.966  1.00  0.00     0.031 A 
ATOM     19  C   UNL A   1      37.634  21.788  25.141  1.00  0.00     0.148 A 
ATOM     20  C   UNL A   1      38.471  23.970  26.650  1.00  0.00     0.002 A 
ATOM     21  C   UNL A   1      38.855  21.741  25.811  1.00  0.00     0.041 A 
ATOM     22  F   UNL A   1      37.314  20.755  24.350  1.00  0.00    -0.205 F 
ATOM     23  C   UNL A   1      39.268  22.827  26.581  1.00  0.00     0.003 A 
ENDBRANCH  12  17
ENDBRANCH   7   9
ENDBRANCH   6   7
ENDBRANCH   5   6
ENDBRANCH   4   5
ENDBRANCH   3   4
ENDBRANCH   2   3
ENDBRANCH   1   2
BRANCH   1  24
ATOM     24  O   UNL A   1      33.930  28.807  25.611  1.00  0.00    -0.376 OA
BRANCH  24  25
ATOM     25  C   UNL A   1      33.017  29.698  26.231  1.00  0.00     0.202 C 
BRANCH  25  26
ATOM     26  C   UNL A   1      33.648  30.691  27.209  1.00  0.00     0.261 C 
BRANCH  26  27
ATOM     27  O   UNL A   1      35.056  30.557  27.388  1.00  0.00    -0.460 OA
BRANCH  27  28
ATOM     28  C   UNL A   1      35.658  31.530  28.102  1.00  0.00     0.338 C 
ATOM     29  O   UNL A   1      35.480  32.729  27.992  1.00  0.00    -0.246 OA
BRANCH  28  30
ATOM     30  C   UNL A   1      36.659  30.916  28.996  1.00  0.00     0.060 A 
ATOM     31  C   UNL A   1      37.897  31.553  29.110  1.00  0.00     0.016 A 
ATOM     32  C   UNL A   1      36.453  29.632  29.528  1.00  0.00     0.016 A 
ATOM     33  C   UNL A   1      38.975  30.833  29.594  1.00  0.00     0.010 A 
ATOM     34  C   UNL A   1      37.534  28.912  30.007  1.00  0.00     0.010 A 
ATOM     35  C   UNL A   1      38.801  29.491  29.952  1.00  0.00    -0.014 A 
BRANCH  35  36
ATOM     36  C   UNL A   1      40.007  28.693  30.109  1.00  0.00     0.031 A 
ATOM     37  C   UNL A   1      40.619  28.616  31.453  1.00  0.00     0.074 A 
ATOM     38  C   UNL A   1      40.556  28.032  29.071  1.00  0.00     0.049 A 
ATOM     39  N   UNL A   1      41.809  28.982  31.808  1.00  0.00    -0.248 NA
ATOM     40  C   UNL A   1      39.800  28.069  32.540  1.00  0.00     0.031 C 
ATOM     41  C   UNL A   1      39.963  27.753  27.760  1.00  0.00     0.029 A 
ATOM     42  N   UNL A   1      41.760  27.393  29.017  1.00  0.00    -0.354 N 
ATOM     43  C   UNL A   1      41.949  28.590  33.135  1.00  0.00     0.074 A 
ATOM     44  C   UNL A   1      40.662  28.095  33.558  1.00  0.00     0.031 C 
ATOM     45  C   UNL A   1      40.723  26.838  27.118  1.00  0.00     0.029 A 
ATOM     46  C   UNL A   1      41.910  26.573  27.914  1.00  0.00     0.049 A 
ATOM     47  H   UNL A   1      42.457  27.505  29.702  1.00  0.00     0.167 HD
ATOM     48  C   UNL A   1      43.156  28.551  33.759  1.00  0.00     0.037 A 
ATOM     49  C   UNL A   1      42.907  25.683  27.704  1.00  0.00     0.037 A 
ATOM     50  C   UNL A   1      44.149  29.347  33.096  1.00  0.00     0.049 A 
ATOM     51  C   UNL A   1      44.058  26.063  28.556  1.00  0.00     0.074 A 
ATOM     52  C   UNL A   1      44.276  30.691  32.801  1.00  0.00     0.029 A 
ATOM     53  N   UNL A   1      45.126  28.719  32.369  1.00  0.00    -0.354 N 
ATOM     54  N   UNL A   1      44.814  27.107  28.363  1.00  0.00    -0.248 NA
ATOM     55  C   UNL A   1      44.175  25.443  29.868  1.00  0.00     0.031 C 
ATOM     56  C   UNL A   1      45.004  30.743  31.578  1.00  0.00     0.029 A 
ATOM     57  C   UNL A   1      45.270  29.426  31.203  1.00  0.00     0.049 A 
ATOM     58  H   UNL A   1      45.628  27.914  32.633  1.00  0.00     0.167 HD
ATOM     59  C   UNL A   1      45.194  27.509  29.635  1.00  0.00     0.074 A 
ATOM     60  C   UNL A   1      44.880  26.381  30.501  1.00  0.00     0.031 C 
ATOM     61  C   UNL A   1      45.468  28.817  29.909  1.00  0.00     0.037 A 
BRANCH  48  62
ATOM     62  C   UNL A   1      43.498  27.576  34.846  1.00  0.00     0.064 A 
ATOM     63  C   UNL A   1      43.849  28.036  36.127  1.00  0.00     0.173 A 
ATOM     64  C   UNL A   1      43.750  26.211  34.588  1.00  0.00     0.173 A 
ATOM     65  F   UNL A   1      43.697  29.328  36.453  1.00  0.00    -0.203 F 
ATOM     66  C   UNL A   1      44.438  27.194  37.075  1.00  0.00     0.198 A 
ATOM     67  C   UNL A   1      44.289  25.361  35.551  1.00  0.00     0.198 A 
ATOM     68  F   UNL A   1      43.577  25.687  33.366  1.00  0.00    -0.203 F 
ATOM     69  F   UNL A   1      44.847  27.695  38.248  1.00  0.00    -0.200 F 
ATOM     70  C   UNL A   1      44.654  25.857  36.787  1.00  0.00     0.200 A 
ATOM     71  F   UNL A   1      44.516  24.076  35.246  1.00  0.00    -0.200 F 
ATOM     72  F   UNL A   1      45.255  25.059  37.678  1.00  0.00    -0.200 F 
ENDBRANCH  48  62
BRANCH  49  73
ATOM     73  C   UNL A   1      42.818  24.382  27.006  1.00  0.00     0.064 A 
ATOM     74  C   UNL A   1      43.300  24.222  25.699  1.00  0.00     0.173 A 
ATOM     75  C   UNL A   1      42.485  23.202  27.703  1.00  0.00     0.173 A 
ATOM     76  F   UNL A   1      43.688  25.290  24.987  1.00  0.00    -0.203 F 
ATOM     77  C   UNL A   1      43.448  22.956  25.124  1.00  0.00     0.198 A 
ATOM     78  C   UNL A   1      42.620  21.942  27.124  1.00  0.00     0.198 A 
ATOM     79  F   UNL A   1      42.109  23.244  28.989  1.00  0.00    -0.203 F 
ATOM     80  F   UNL A   1      43.965  22.837  23.894  1.00  0.00    -0.200 F 
ATOM     81  C   UNL A   1      43.112  21.818  25.839  1.00  0.00     0.200 A 
ATOM     82  F   UNL A   1      42.324  20.847  27.841  1.00  0.00    -0.200 F 
ATOM     83  F   UNL A   1      43.300  20.601  25.308  1.00  0.00    -0.200 F 
ENDBRANCH  49  73
BRANCH  61  84
ATOM     84  C   UNL A   1      45.678  29.745  28.751  1.00  0.00     0.064 A 
ATOM     85  C   UNL A   1      44.623  30.364  28.059  1.00  0.00     0.173 A 
ATOM     86  C   UNL A   1      46.985  30.138  28.432  1.00  0.00     0.173 A 
ATOM     87  F   UNL A   1      43.347  30.114  28.383  1.00  0.00    -0.203 F 
ATOM     88  C   UNL A   1      44.873  31.302  27.060  1.00  0.00     0.198 A 
ATOM     89  C   UNL A   1      47.229  31.101  27.457  1.00  0.00     0.198 A 
ATOM     90  F   UNL A   1      48.026  29.624  29.107  1.00  0.00    -0.203 F 
ATOM     91  F   UNL A   1      43.852  31.876  26.407  1.00  0.00    -0.200 F 
ATOM     92  C   UNL A   1      46.174  31.675  26.764  1.00  0.00     0.200 A 
ATOM     93  F   UNL A   1      48.486  31.495  27.208  1.00  0.00    -0.200 F 
ATOM     94  F   UNL A   1      46.412  32.610  25.833  1.00  0.00    -0.200 F 
ENDBRANCH  61  84
ENDBRANCH  35  36
ENDBRANCH  28  30
ENDBRANCH  27  28
ENDBRANCH  26  27
ENDBRANCH  25  26
ENDBRANCH  24  25
ENDBRANCH   1  24
TORSDOF 19
ENDMDL
MODEL 3
REMARK VINA RESULT:     -10.2      1.058      1.987
REMARK SMILES CC(C)c1nc(C(=O)OCCOCCOCCOC(=O)c2ccc(-c3c4nc(c(-c5c(F)c(F)c(F)c(F)c5F)c5ccc([nH]5)c(-c5c(F)c(F)c(F)c(F)c5F)c5nc(c(-c6c(F)c(F)c(F)c(F)c6F)c6ccc3[nH]6)C=C5)C=C4)cc2)nn1-c1ccccc1F
REMARK SMILES IDX 14 1 13 2 12 3 11 4 10 5 9 6 7 7 8 8 6 9 4 10 5 11 85 12
REMARK SMILES IDX 84 13 2 14 1 15 3 16 86 17 87 18 91 19 88 20 90 21 92 22
REMARK SMILES IDX 89 23 15 24 16 25 17 26 18 27 19 28 20 29 21 30 22 31 83 32
REMARK SMILES IDX 23 33 82 34 24 35 25 36 26 37 76 38 27 39 81 40 75 41 77 42
REMARK SMILES IDX 28 43 80 44 74 45 73 46 29 48 61 49 41 50 60 51 42 52 45 53
REMARK SMILES IDX 59 54 78 55 43 56 44 57 58 59 79 60 46 61 30 62 31 63 39 64
REMARK SMILES IDX 32 65 33 66 37 67 40 68 34 69 35 70 38 71 36 72 62 73 63 74
REMARK SMILES IDX 71 75 64 76 65 77 69 78 72 79 66 80 67 81 70 82 68 83 47 84
REMARK SMILES IDX 48 85 56 86 49 87 50 88 54 89 57 90 51 91 52 92 55 93 53 94
REMARK H PARENT 77 47 45 58
REMARK Flexibility Score: inf
ROOT
ATOM      1  C   UNL A   1      32.895  36.144  28.789  1.00  0.00     0.188 C 
ENDROOT
BRANCH   1   2
ATOM      2  C   UNL A   1      33.426  36.861  30.049  1.00  0.00     0.188 C 
BRANCH   2   3
ATOM      3  O   UNL A   1      32.545  37.221  31.107  1.00  0.00    -0.376 OA
BRANCH   3   4
ATOM      4  C   UNL A   1      32.815  36.789  32.436  1.00  0.00     0.202 C 
BRANCH   4   5
ATOM      5  C   UNL A   1      34.245  36.366  32.805  1.00  0.00     0.261 C 
BRANCH   5   6
ATOM      6  O   UNL A   1      34.342  35.471  33.924  1.00  0.00    -0.457 OA
BRANCH   6   7
ATOM      7  C   UNL A   1      34.539  34.147  33.623  1.00  0.00     0.378 C 
ATOM      8  O   UNL A   1      33.697  33.436  33.086  1.00  0.00    -0.242 OA
BRANCH   7   9
ATOM      9  C   UNL A   1      35.922  33.695  33.882  1.00  0.00     0.260 A 
ATOM     10  C   UNL A   1      37.559  32.818  34.938  1.00  0.00     0.136 A 
ATOM     11  N   UNL A   1      36.273  33.078  35.063  1.00  0.00    -0.205 NA
ATOM     12  N   UNL A   1      37.973  33.192  33.666  1.00  0.00    -0.214 N 
ATOM     13  N   UNL A   1      36.947  33.813  33.020  1.00  0.00    -0.138 NA
BRANCH  10  14
ATOM     14  C   UNL A   1      38.444  32.408  36.083  1.00  0.00     0.051 C 
ATOM     15  C   UNL A   1      38.158  33.296  37.299  1.00  0.00     0.016 C 
ATOM     16  C   UNL A   1      38.229  30.937  36.441  1.00  0.00     0.016 C 
ENDBRANCH  10  14
BRANCH  12  17
ATOM     17  C   UNL A   1      39.243  33.105  33.050  1.00  0.00     0.102 A 
ATOM     18  C   UNL A   1      39.799  34.254  32.467  1.00  0.00     0.031 A 
ATOM     19  C   UNL A   1      39.957  31.908  33.004  1.00  0.00     0.148 A 
ATOM     20  C   UNL A   1      41.086  34.210  31.923  1.00  0.00     0.002 A 
ATOM     21  C   UNL A   1      41.235  31.860  32.449  1.00  0.00     0.041 A 
ATOM     22  F   UNL A   1      39.416  30.758  33.427  1.00  0.00    -0.205 F 
ATOM     23  C   UNL A   1      41.808  33.016  31.921  1.00  0.00     0.003 A 
ENDBRANCH  12  17
ENDBRANCH   7   9
ENDBRANCH   6   7
ENDBRANCH   5   6
ENDBRANCH   4   5
ENDBRANCH   3   4
ENDBRANCH   2   3
ENDBRANCH   1   2
BRANCH   1  24
ATOM     24  O   UNL A   1      32.753  34.739  28.930  1.00  0.00    -0.376 OA
BRANCH  24  25
ATOM     25  C   UNL A   1      33.855  33.957  28.497  1.00  0.00     0.202 C 
BRANCH  25  26
ATOM     26  C   UNL A   1      34.657  33.297  29.620  1.00  0.00     0.261 C 
BRANCH  26  27
ATOM     27  O   UNL A   1      34.705  31.873  29.578  1.00  0.00    -0.460 OA
BRANCH  27  28
ATOM     28  C   UNL A   1      35.624  31.334  28.752  1.00  0.00     0.338 C 
ATOM     29  O   UNL A   1      35.537  31.222  27.543  1.00  0.00    -0.246 OA
BRANCH  28  30
ATOM     30  C   UNL A   1      36.739  30.801  29.560  1.00  0.00     0.060 A 
ATOM     31  C   UNL A   1      38.018  31.294  29.294  1.00  0.00     0.016 A 
ATOM     32  C   UNL A   1      36.550  29.691  30.398  1.00  0.00     0.016 A 
ATOM     33  C   UNL A   1      39.115  30.565  29.719  1.00  0.00     0.010 A 
ATOM     34  C   UNL A   1      37.648  28.960  30.819  1.00  0.00     0.010 A 
ATOM     35  C   UNL A   1      38.916  29.357  30.399  1.00  0.00    -0.014 A 
BRANCH  35  36
ATOM     36  C   UNL A   1      40.063  28.469  30.506  1.00  0.00     0.031 A 
ATOM     37  C   UNL A   1      40.682  28.290  31.837  1.00  0.00     0.074 A 
ATOM     38  C   UNL A   1      40.552  27.817  29.433  1.00  0.00     0.049 A 
ATOM     39  N   UNL A   1      41.899  28.555  32.191  1.00  0.00    -0.248 NA
ATOM     40  C   UNL A   1      39.837  27.757  32.911  1.00  0.00     0.031 C 
ATOM     41  C   UNL A   1      39.928  27.637  28.120  1.00  0.00     0.029 A 
ATOM     42  N   UNL A   1      41.707  27.096  29.337  1.00  0.00    -0.354 N 
ATOM     43  C   UNL A   1      42.023  28.098  33.499  1.00  0.00     0.074 A 
ATOM     44  C   UNL A   1      40.708  27.677  33.918  1.00  0.00     0.031 C 
ATOM     45  C   UNL A   1      40.614  26.699  27.430  1.00  0.00     0.029 A 
ATOM     46  C   UNL A   1      41.787  26.315  28.198  1.00  0.00     0.049 A 
ATOM     47  H   UNL A   1      42.417  27.128  30.017  1.00  0.00     0.167 HD
ATOM     48  C   UNL A   1      43.231  27.946  34.105  1.00  0.00     0.037 A 
ATOM     49  C   UNL A   1      42.714  25.367  27.938  1.00  0.00     0.037 A 
ATOM     50  C   UNL A   1      44.271  28.697  33.463  1.00  0.00     0.049 A 
ATOM     51  C   UNL A   1      43.898  25.626  28.790  1.00  0.00     0.074 A 
ATOM     52  C   UNL A   1      44.491  30.040  33.224  1.00  0.00     0.029 A 
ATOM     53  N   UNL A   1      45.193  28.032  32.697  1.00  0.00    -0.354 N 
ATOM     54  N   UNL A   1      44.726  26.621  28.632  1.00  0.00    -0.248 NA
ATOM     55  C   UNL A   1      43.984  24.944  30.073  1.00  0.00     0.031 C 
ATOM     56  C   UNL A   1      45.209  30.092  31.995  1.00  0.00     0.029 A 
ATOM     57  C   UNL A   1      45.376  28.776  31.560  1.00  0.00     0.049 A 
ATOM     58  H   UNL A   1      45.639  27.183  32.920  1.00  0.00     0.167 HD
ATOM     59  C   UNL A   1      45.147  26.939  29.913  1.00  0.00     0.074 A 
ATOM     60  C   UNL A   1      44.761  25.801  30.735  1.00  0.00     0.031 C 
ATOM     61  C   UNL A   1      45.516  28.211  30.240  1.00  0.00     0.037 A 
BRANCH  48  62
ATOM     62  C   UNL A   1      43.513  26.902  35.145  1.00  0.00     0.064 A 
ATOM     63  C   UNL A   1      43.915  27.280  36.438  1.00  0.00     0.173 A 
ATOM     64  C   UNL A   1      43.657  25.534  34.827  1.00  0.00     0.173 A 
ATOM     65  F   UNL A   1      43.866  28.565  36.819  1.00  0.00    -0.203 F 
ATOM     66  C   UNL A   1      44.451  26.357  37.340  1.00  0.00     0.198 A 
ATOM     67  C   UNL A   1      44.143  24.606  35.745  1.00  0.00     0.198 A 
ATOM     68  F   UNL A   1      43.428  25.077  33.588  1.00  0.00    -0.203 F 
ATOM     69  F   UNL A   1      44.913  26.775  38.525  1.00  0.00    -0.200 F 
ATOM     70  C   UNL A   1      44.561  25.021  36.994  1.00  0.00     0.200 A 
ATOM     71  F   UNL A   1      44.268  23.322  35.384  1.00  0.00    -0.200 F 
ATOM     72  F   UNL A   1      45.112  24.143  37.841  1.00  0.00    -0.200 F 
ENDBRANCH  48  62
BRANCH  49  73
ATOM     73  C   UNL A   1      42.526  24.107  27.186  1.00  0.00     0.064 A 
ATOM     74  C   UNL A   1      43.068  23.934  25.905  1.00  0.00     0.173 A 
ATOM     75  C   UNL A   1      42.019  22.951  27.816  1.00  0.00     0.173 A 
ATOM     76  F   UNL A   1      43.618  24.972  25.260  1.00  0.00    -0.203 F 
ATOM     77  C   UNL A   1      43.110  22.677  25.293  1.00  0.00     0.198 A 
ATOM     78  C   UNL A   1      42.048  21.703  27.199  1.00  0.00     0.198 A 
ATOM     79  F   UNL A   1      41.569  22.996  29.079  1.00  0.00    -0.203 F 
ATOM     80  F   UNL A   1      43.688  22.539  24.092  1.00  0.00    -0.200 F 
ATOM     81  C   UNL A   1      42.604  21.563  25.942  1.00  0.00     0.200 A 
ATOM     82  F   UNL A   1      41.586  20.627  27.854  1.00  0.00    -0.200 F 
ATOM     83  F   UNL A   1      42.689  20.351  25.377  1.00  0.00    -0.200 F 
ENDBRANCH  49  73
BRANCH  61  84
ATOM     84  C   UNL A   1      45.781  29.171  29.119  1.00  0.00     0.064 A 
ATOM     85  C   UNL A   1      47.045  29.334  28.526  1.00  0.00     0.173 A 
ATOM     86  C   UNL A   1      44.696  29.832  28.528  1.00  0.00     0.173 A 
ATOM     87  F   UNL A   1      48.108  28.652  28.975  1.00  0.00    -0.203 F 
ATOM     88  C   UNL A   1      47.217  30.159  27.417  1.00  0.00     0.198 A 
ATOM     89  C   UNL A   1      44.865  30.629  27.400  1.00  0.00     0.198 A 
ATOM     90  F   UNL A   1      43.457  29.661  29.018  1.00  0.00    -0.203 F 
ATOM     91  F   UNL A   1      48.432  30.306  26.871  1.00  0.00    -0.200 F 
ATOM     92  C   UNL A   1      46.127  30.801  26.851  1.00  0.00     0.200 A 
ATOM     93  F   UNL A   1      43.801  31.208  26.825  1.00  0.00    -0.200 F 
ATOM     94  F   UNL A   1      46.285  31.560  25.758  1.00  0.00    -0.200 F 
ENDBRANCH  61  84
ENDBRANCH  35  36
ENDBRANCH  28  30
ENDBRANCH  27  28
ENDBRANCH  26  27
ENDBRANCH  25  26
ENDBRANCH  24  25
ENDBRANCH   1  24
TORSDOF 19
ENDMDL
