MODEL 1
REMARK VINA RESULT:     -11.0      0.000      0.000
REMARK SMILES C[C@](NC(=O)[C@](C)([NH3+])C(F)(F)F)(C(=O)OCCOCCOCCOC(=O)c1ccc(-c2c3nc(c(-c4c(F)c(F)c(F)c(F)c4F)c4ccc([nH]4)c(-c4c(F)c(F)c(F)c(F)c4F)c4nc(c(-c5c(F)c(F)c(F)c(F)c5F)c5ccc2[nH]5)C=C4)C=C3)cc1)c1ccccc1
REMARK SMILES IDX 19 1 18 2 17 3 16 4 15 5 13 6 14 7 2 8 1 9 90 10 91 11 95 12
REMARK SMILES IDX 92 13 94 14 93 15 3 16 4 17 5 19 6 20 7 21 8 22 9 26 10 27
REMARK SMILES IDX 11 28 12 29 20 30 21 31 22 32 23 33 24 34 25 35 26 36 27 37
REMARK SMILES IDX 28 38 89 39 29 40 88 41 30 42 31 43 32 44 82 45 33 46 87 47
REMARK SMILES IDX 81 48 83 49 34 50 86 51 80 52 79 53 35 55 67 56 47 57 66 58
REMARK SMILES IDX 48 59 51 60 65 61 84 62 49 63 50 64 64 66 85 67 52 68 36 69
REMARK SMILES IDX 37 70 45 71 38 72 39 73 43 74 46 75 40 76 41 77 44 78 42 79
REMARK SMILES IDX 68 80 69 81 77 82 70 83 71 84 75 85 78 86 72 87 73 88 76 89
REMARK SMILES IDX 74 90 53 91 54 92 62 93 55 94 56 95 60 96 63 97 57 98 58 99
REMARK SMILES IDX 61 100 59 101
REMARK H PARENT 3 18 8 23 8 24 8 25 83 54 51 65
REMARK Flexibility Score: inf
ROOT
ATOM      1  C   UNL A   1      40.968  22.183  27.695  1.00  0.00     0.188 C 
ENDROOT
BRANCH   1   2
ATOM      2  O   UNL A   1      39.690  22.713  27.395  1.00  0.00    -0.376 OA
BRANCH   2   3
ATOM      3  C   UNL A   1      39.191  22.579  26.072  1.00  0.00     0.202 C 
BRANCH   3   4
ATOM      4  C   UNL A   1      38.111  21.536  25.709  1.00  0.00     0.261 C 
BRANCH   4   5
ATOM      5  O   UNL A   1      36.946  21.968  24.971  1.00  0.00    -0.461 OA
BRANCH   5   6
ATOM      6  C   UNL A   1      35.862  22.348  25.715  1.00  0.00     0.336 C 
ATOM      7  O   UNL A   1      35.858  23.335  26.446  1.00  0.00    -0.249 OA
BRANCH   6   8
ATOM      8  C   UNL A   1      34.648  21.336  25.628  1.00  0.00     0.161 C 
ATOM      9  C   UNL A   1      34.147  21.253  27.077  1.00  0.00     0.053 C 
BRANCH   8  10
ATOM     10  C   UNL A   1      33.530  21.970  24.723  1.00  0.00    -0.012 A 
ATOM     11  C   UNL A   1      32.215  22.193  25.173  1.00  0.00     0.007 A 
ATOM     12  C   UNL A   1      33.807  22.362  23.400  1.00  0.00     0.007 A 
ATOM     13  C   UNL A   1      31.276  22.877  24.392  1.00  0.00     0.000 A 
ATOM     14  C   UNL A   1      32.881  23.070  22.630  1.00  0.00     0.000 A 
ATOM     15  C   UNL A   1      31.617  23.341  23.129  1.00  0.00     0.000 A 
ENDBRANCH   8  10
BRANCH   8  16
ATOM     16  N   UNL A   1      34.985  20.017  24.999  1.00  0.00    -0.331 N 
ATOM     17  C   UNL A   1      34.603  18.723  24.893  1.00  0.00     0.291 C 
ATOM     18  H   UNL A   1      35.796  20.138  24.454  1.00  0.00     0.165 HD
ATOM     19  O   UNL A   1      35.517  18.015  24.440  1.00  0.00    -0.267 OA
BRANCH  17  20
ATOM     20  C   UNL A   1      33.209  18.095  25.079  1.00  0.00     0.267 C 
ATOM     21  C   UNL A   1      32.309  18.676  23.972  1.00  0.00     0.100 C 
BRANCH  20  22
ATOM     22  N   UNL A   1      32.560  18.414  26.372  1.00  0.00    -0.337 N 
ATOM     23  H   UNL A   1      32.171  17.563  26.777  1.00  0.00     0.345 HD
ATOM     24  H   UNL A   1      31.812  19.091  26.219  1.00  0.00     0.345 HD
ATOM     25  H   UNL A   1      33.250  18.809  27.011  1.00  0.00     0.345 HD
ENDBRANCH  20  22
BRANCH  20  26
ATOM     26  C   UNL A   1      33.353  16.563  24.866  1.00  0.00     0.453 C 
ATOM     27  F   UNL A   1      34.434  16.091  25.548  1.00  0.00    -0.164 F 
ATOM     28  F   UNL A   1      32.297  15.843  25.295  1.00  0.00    -0.164 F 
ATOM     29  F   UNL A   1      33.567  16.267  23.561  1.00  0.00    -0.164 F 
ENDBRANCH  20  26
ENDBRANCH  17  20
ENDBRANCH   8  16
ENDBRANCH   6   8
ENDBRANCH   5   6
ENDBRANCH   4   5
ENDBRANCH   3   4
ENDBRANCH   2   3
ENDBRANCH   1   2
BRANCH   1  30
ATOM     30  C   UNL A   1      41.205  20.661  27.593  1.00  0.00     0.188 C 
BRANCH  30  31
ATOM     31  O   UNL A   1      41.788  20.274  26.375  1.00  0.00    -0.376 OA
BRANCH  31  32
ATOM     32  C   UNL A   1      42.084  18.909  26.156  1.00  0.00     0.202 C 
BRANCH  32  33
ATOM     33  C   UNL A   1      43.428  18.410  25.580  1.00  0.00     0.261 C 
BRANCH  33  34
ATOM     34  O   UNL A   1      43.791  18.803  24.251  1.00  0.00    -0.460 OA
BRANCH  34  35
ATOM     35  C   UNL A   1      45.025  19.337  24.073  1.00  0.00     0.338 C 
ATOM     36  O   UNL A   1      45.977  18.826  23.524  1.00  0.00    -0.246 OA
BRANCH  35  37
ATOM     37  C   UNL A   1      44.967  20.755  24.502  1.00  0.00     0.060 A 
ATOM     38  C   UNL A   1      44.542  21.724  23.585  1.00  0.00     0.016 A 
ATOM     39  C   UNL A   1      45.323  21.123  25.801  1.00  0.00     0.016 A 
ATOM     40  C   UNL A   1      44.476  23.068  23.967  1.00  0.00     0.010 A 
ATOM     41  C   UNL A   1      45.269  22.471  26.177  1.00  0.00     0.010 A 
ATOM     42  C   UNL A   1      44.850  23.452  25.262  1.00  0.00    -0.014 A 
BRANCH  42  43
ATOM     43  C   UNL A   1      44.986  24.887  25.621  1.00  0.00     0.031 A 
ATOM     44  C   UNL A   1      46.340  25.520  25.508  1.00  0.00     0.074 A 
ATOM     45  C   UNL A   1      43.949  25.608  26.084  1.00  0.00     0.049 A 
ATOM     46  N   UNL A   1      46.754  26.691  25.919  1.00  0.00    -0.248 NA
ATOM     47  C   UNL A   1      47.372  24.713  24.841  1.00  0.00     0.031 C 
ATOM     48  C   UNL A   1      42.570  25.139  26.181  1.00  0.00     0.029 A 
ATOM     49  N   UNL A   1      43.908  26.888  26.586  1.00  0.00    -0.354 N 
ATOM     50  C   UNL A   1      48.099  26.752  25.583  1.00  0.00     0.074 A 
ATOM     51  C   UNL A   1      48.430  25.502  24.935  1.00  0.00     0.031 C 
ATOM     52  C   UNL A   1      41.821  26.106  26.741  1.00  0.00     0.029 A 
ATOM     53  C   UNL A   1      42.681  27.236  27.099  1.00  0.00     0.049 A 
ATOM     54  H   UNL A   1      44.684  27.495  26.581  1.00  0.00     0.167 HD
ATOM     55  C   UNL A   1      48.983  27.752  25.812  1.00  0.00     0.037 A 
ATOM     56  C   UNL A   1      42.310  28.313  27.821  1.00  0.00     0.037 A 
ATOM     57  C   UNL A   1      48.658  28.977  26.492  1.00  0.00     0.049 A 
ATOM     58  C   UNL A   1      43.331  29.375  28.158  1.00  0.00     0.074 A 
ATOM     59  C   UNL A   1      49.485  30.048  26.781  1.00  0.00     0.029 A 
ATOM     60  N   UNL A   1      47.411  29.282  27.018  1.00  0.00    -0.354 N 
ATOM     61  N   UNL A   1      44.601  29.432  27.838  1.00  0.00    -0.248 NA
ATOM     62  C   UNL A   1      42.869  30.515  28.964  1.00  0.00     0.031 C 
ATOM     63  C   UNL A   1      48.758  30.966  27.544  1.00  0.00     0.029 A 
ATOM     64  C   UNL A   1      47.455  30.508  27.662  1.00  0.00     0.049 A 
ATOM     65  H   UNL A   1      46.612  28.711  26.945  1.00  0.00     0.167 HD
ATOM     66  C   UNL A   1      45.082  30.622  28.375  1.00  0.00     0.074 A 
ATOM     67  C   UNL A   1      43.966  31.258  29.042  1.00  0.00     0.031 C 
ATOM     68  C   UNL A   1      46.335  31.140  28.313  1.00  0.00     0.037 A 
BRANCH  55  69
ATOM     69  C   UNL A   1      50.405  27.507  25.397  1.00  0.00     0.064 A 
ATOM     70  C   UNL A   1      50.848  27.730  24.084  1.00  0.00     0.173 A 
ATOM     71  C   UNL A   1      51.329  27.001  26.324  1.00  0.00     0.173 A 
ATOM     72  F   UNL A   1      50.000  28.196  23.154  1.00  0.00    -0.203 F 
ATOM     73  C   UNL A   1      52.147  27.403  23.703  1.00  0.00     0.198 A 
ATOM     74  C   UNL A   1      52.638  26.713  25.948  1.00  0.00     0.198 A 
ATOM     75  F   UNL A   1      50.961  26.773  27.593  1.00  0.00    -0.203 F 
ATOM     76  F   UNL A   1      52.524  27.545  22.424  1.00  0.00    -0.200 F 
ATOM     77  C   UNL A   1      53.041  26.897  24.635  1.00  0.00     0.200 A 
ATOM     78  F   UNL A   1      53.503  26.236  26.854  1.00  0.00    -0.200 F 
ATOM     79  F   UNL A   1      54.287  26.572  24.264  1.00  0.00    -0.200 F 
ENDBRANCH  55  69
BRANCH  56  80
ATOM     80  C   UNL A   1      40.914  28.415  28.328  1.00  0.00     0.064 A 
ATOM     81  C   UNL A   1      40.570  27.985  29.617  1.00  0.00     0.173 A 
ATOM     82  C   UNL A   1      39.890  28.946  27.527  1.00  0.00     0.173 A 
ATOM     83  F   UNL A   1      41.503  27.439  30.411  1.00  0.00    -0.203 F 
ATOM     84  C   UNL A   1      39.259  28.078  30.083  1.00  0.00     0.198 A 
ATOM     85  C   UNL A   1      38.587  29.067  28.004  1.00  0.00     0.198 A 
ATOM     86  F   UNL A   1      40.162  29.362  26.281  1.00  0.00    -0.203 F 
ATOM     87  F   UNL A   1      38.951  27.621  31.305  1.00  0.00    -0.200 F 
ATOM     88  C   UNL A   1      38.272  28.628  29.280  1.00  0.00     0.200 A 
ATOM     89  F   UNL A   1      37.639  29.608  27.227  1.00  0.00    -0.200 F 
ATOM     90  F   UNL A   1      37.014  28.727  29.732  1.00  0.00    -0.200 F 
ENDBRANCH  56  80
BRANCH  68  91
ATOM     91  C   UNL A   1      46.574  32.492  28.930  1.00  0.00     0.064 A 
ATOM     92  C   UNL A   1      47.056  32.640  30.238  1.00  0.00     0.173 A 
ATOM     93  C   UNL A   1      46.406  33.654  28.160  1.00  0.00     0.173 A 
ATOM     94  F   UNL A   1      47.222  31.564  31.023  1.00  0.00    -0.203 F 
ATOM     95  C   UNL A   1      47.352  33.900  30.755  1.00  0.00     0.198 A 
ATOM     96  C   UNL A   1      46.734  34.908  28.666  1.00  0.00     0.198 A 
ATOM     97  F   UNL A   1      45.954  33.569  26.900  1.00  0.00    -0.203 F 
ATOM     98  F   UNL A   1      47.783  34.021  32.018  1.00  0.00    -0.200 F 
ATOM     99  C   UNL A   1      47.203  35.031  29.965  1.00  0.00     0.200 A 
ATOM    100  F   UNL A   1      46.607  35.996  27.895  1.00  0.00    -0.200 F 
ATOM    101  F   UNL A   1      47.512  36.239  30.455  1.00  0.00    -0.200 F 
ENDBRANCH  68  91
ENDBRANCH  42  43
ENDBRANCH  35  37
ENDBRANCH  34  35
ENDBRANCH  33  34
ENDBRANCH  32  33
ENDBRANCH  31  32
ENDBRANCH  30  31
ENDBRANCH   1  30
TORSDOF 22
ENDMDL
MODEL 2
REMARK VINA RESULT:     -10.9      2.096      3.252
REMARK SMILES C[C@](NC(=O)[C@](C)([NH3+])C(F)(F)F)(C(=O)OCCOCCOCCOC(=O)c1ccc(-c2c3nc(c(-c4c(F)c(F)c(F)c(F)c4F)c4ccc([nH]4)c(-c4c(F)c(F)c(F)c(F)c4F)c4nc(c(-c5c(F)c(F)c(F)c(F)c5F)c5ccc2[nH]5)C=C4)C=C3)cc1)c1ccccc1
REMARK SMILES IDX 19 1 18 2 17 3 16 4 15 5 13 6 14 7 2 8 1 9 90 10 91 11 95 12
REMARK SMILES IDX 92 13 94 14 93 15 3 16 4 17 5 19 6 20 7 21 8 22 9 26 10 27
REMARK SMILES IDX 11 28 12 29 20 30 21 31 22 32 23 33 24 34 25 35 26 36 27 37
REMARK SMILES IDX 28 38 89 39 29 40 88 41 30 42 31 43 32 44 82 45 33 46 87 47
REMARK SMILES IDX 81 48 83 49 34 50 86 51 80 52 79 53 35 55 67 56 47 57 66 58
REMARK SMILES IDX 48 59 51 60 65 61 84 62 49 63 50 64 64 66 85 67 52 68 36 69
REMARK SMILES IDX 37 70 45 71 38 72 39 73 43 74 46 75 40 76 41 77 44 78 42 79
REMARK SMILES IDX 68 80 69 81 77 82 70 83 71 84 75 85 78 86 72 87 73 88 76 89
REMARK SMILES IDX 74 90 53 91 54 92 62 93 55 94 56 95 60 96 63 97 57 98 58 99
REMARK SMILES IDX 61 100 59 101
REMARK H PARENT 3 18 8 23 8 24 8 25 83 54 51 65
REMARK Flexibility Score: inf
ROOT
ATOM      1  C   UNL A   1      40.267  22.595  26.671  1.00  0.00     0.188 C 
ENDROOT
BRANCH   1   2
ATOM      2  O   UNL A   1      38.998  23.223  26.709  1.00  0.00    -0.376 OA
BRANCH   2   3
ATOM      3  C   UNL A   1      37.945  22.676  25.930  1.00  0.00     0.202 C 
BRANCH   3   4
ATOM      4  C   UNL A   1      36.947  23.572  25.163  1.00  0.00     0.261 C 
BRANCH   4   5
ATOM      5  O   UNL A   1      35.559  23.176  25.103  1.00  0.00    -0.461 OA
BRANCH   5   6
ATOM      6  C   UNL A   1      35.019  23.039  23.853  1.00  0.00     0.336 C 
ATOM      7  O   UNL A   1      35.644  23.267  22.820  1.00  0.00    -0.249 OA
BRANCH   6   8
ATOM      8  C   UNL A   1      33.483  22.662  23.865  1.00  0.00     0.161 C 
ATOM      9  C   UNL A   1      32.987  23.139  22.491  1.00  0.00     0.053 C 
BRANCH   8  10
ATOM     10  C   UNL A   1      33.350  21.098  23.953  1.00  0.00    -0.012 A 
ATOM     11  C   UNL A   1      32.338  20.376  23.293  1.00  0.00     0.007 A 
ATOM     12  C   UNL A   1      34.266  20.338  24.703  1.00  0.00     0.007 A 
ATOM     13  C   UNL A   1      32.320  18.976  23.283  1.00  0.00     0.000 A 
ATOM     14  C   UNL A   1      34.267  18.940  24.671  1.00  0.00     0.000 A 
ATOM     15  C   UNL A   1      33.303  18.256  23.949  1.00  0.00     0.000 A 
ENDBRANCH   8  10
BRANCH   8  16
ATOM     16  N   UNL A   1      32.720  23.205  25.036  1.00  0.00    -0.331 N 
ATOM     17  C   UNL A   1      32.341  24.341  25.666  1.00  0.00     0.291 C 
ATOM     18  H   UNL A   1      32.356  22.443  25.541  1.00  0.00     0.165 HD
ATOM     19  O   UNL A   1      31.950  24.111  26.822  1.00  0.00    -0.267 OA
BRANCH  17  20
ATOM     20  C   UNL A   1      32.172  25.764  25.102  1.00  0.00     0.267 C 
ATOM     21  C   UNL A   1      31.445  26.586  26.182  1.00  0.00     0.100 C 
BRANCH  20  22
ATOM     22  N   UNL A   1      31.347  25.844  23.874  1.00  0.00    -0.337 N 
ATOM     23  H   UNL A   1      30.758  25.014  23.805  1.00  0.00     0.345 HD
ATOM     24  H   UNL A   1      31.956  25.898  23.058  1.00  0.00     0.345 HD
ATOM     25  H   UNL A   1      30.758  26.676  23.914  1.00  0.00     0.345 HD
ENDBRANCH  20  22
BRANCH  20  26
ATOM     26  C   UNL A   1      33.593  26.354  24.885  1.00  0.00     0.453 C 
ATOM     27  F   UNL A   1      33.568  27.710  25.026  1.00  0.00    -0.164 F 
ATOM     28  F   UNL A   1      34.518  25.905  25.757  1.00  0.00    -0.164 F 
ATOM     29  F   UNL A   1      34.039  26.111  23.628  1.00  0.00    -0.164 F 
ENDBRANCH  20  26
ENDBRANCH  17  20
ENDBRANCH   8  16
ENDBRANCH   6   8
ENDBRANCH   5   6
ENDBRANCH   4   5
ENDBRANCH   3   4
ENDBRANCH   2   3
ENDBRANCH   1   2
BRANCH   1  30
ATOM     30  C   UNL A   1      40.401  21.184  26.061  1.00  0.00     0.188 C 
BRANCH  30  31
ATOM     31  O   UNL A   1      41.712  20.681  26.115  1.00  0.00    -0.376 OA
BRANCH  31  32
ATOM     32  C   UNL A   1      41.914  19.282  26.102  1.00  0.00     0.202 C 
BRANCH  32  33
ATOM     33  C   UNL A   1      43.216  18.614  25.610  1.00  0.00     0.261 C 
BRANCH  33  34
ATOM     34  O   UNL A   1      43.712  18.957  24.309  1.00  0.00    -0.460 OA
BRANCH  34  35
ATOM     35  C   UNL A   1      44.970  19.458  24.235  1.00  0.00     0.338 C 
ATOM     36  O   UNL A   1      45.950  18.923  23.762  1.00  0.00    -0.246 OA
BRANCH  35  37
ATOM     37  C   UNL A   1      44.916  20.876  24.662  1.00  0.00     0.060 A 
ATOM     38  C   UNL A   1      44.476  21.844  23.750  1.00  0.00     0.016 A 
ATOM     39  C   UNL A   1      45.289  21.247  25.957  1.00  0.00     0.016 A 
ATOM     40  C   UNL A   1      44.413  23.188  24.132  1.00  0.00     0.010 A 
ATOM     41  C   UNL A   1      45.237  22.594  26.331  1.00  0.00     0.010 A 
ATOM     42  C   UNL A   1      44.804  23.574  25.422  1.00  0.00    -0.014 A 
BRANCH  42  43
ATOM     43  C   UNL A   1      44.942  25.010  25.777  1.00  0.00     0.031 A 
ATOM     44  C   UNL A   1      46.303  25.633  25.690  1.00  0.00     0.074 A 
ATOM     45  C   UNL A   1      43.900  25.740  26.215  1.00  0.00     0.049 A 
ATOM     46  N   UNL A   1      46.715  26.803  26.104  1.00  0.00    -0.248 NA
ATOM     47  C   UNL A   1      47.343  24.816  25.048  1.00  0.00     0.031 C 
ATOM     48  C   UNL A   1      42.517  25.280  26.285  1.00  0.00     0.029 A 
ATOM     49  N   UNL A   1      43.858  27.022  26.711  1.00  0.00    -0.354 N 
ATOM     50  C   UNL A   1      48.068  26.854  25.796  1.00  0.00     0.074 A 
ATOM     51  C   UNL A   1      48.404  25.599  25.160  1.00  0.00     0.031 C 
ATOM     52  C   UNL A   1      41.763  26.255  26.825  1.00  0.00     0.029 A 
ATOM     53  C   UNL A   1      42.623  27.380  27.196  1.00  0.00     0.049 A 
ATOM     54  H   UNL A   1      44.637  27.624  26.719  1.00  0.00     0.167 HD
ATOM     55  C   UNL A   1      48.953  27.849  26.039  1.00  0.00     0.037 A 
ATOM     56  C   UNL A   1      42.244  28.463  27.906  1.00  0.00     0.037 A 
ATOM     57  C   UNL A   1      48.623  29.079  26.707  1.00  0.00     0.049 A 
ATOM     58  C   UNL A   1      43.265  29.520  28.259  1.00  0.00     0.074 A 
ATOM     59  C   UNL A   1      49.451  30.146  27.009  1.00  0.00     0.029 A 
ATOM     60  N   UNL A   1      47.367  29.394  27.206  1.00  0.00    -0.354 N 
ATOM     61  N   UNL A   1      44.542  29.567  27.966  1.00  0.00    -0.248 NA
ATOM     62  C   UNL A   1      42.794  30.667  29.051  1.00  0.00     0.031 C 
ATOM     63  C   UNL A   1      48.715  31.072  27.753  1.00  0.00     0.029 A 
ATOM     64  C   UNL A   1      47.406  30.623  27.845  1.00  0.00     0.049 A 
ATOM     65  H   UNL A   1      46.566  28.828  27.118  1.00  0.00     0.167 HD
ATOM     66  C   UNL A   1      45.019  30.756  28.508  1.00  0.00     0.074 A 
ATOM     67  C   UNL A   1      43.894  31.403  29.148  1.00  0.00     0.031 C 
ATOM     68  C   UNL A   1      46.276  31.266  28.470  1.00  0.00     0.037 A 
BRANCH  55  69
ATOM     69  C   UNL A   1      50.383  27.592  25.655  1.00  0.00     0.064 A 
ATOM     70  C   UNL A   1      50.841  27.750  24.338  1.00  0.00     0.173 A 
ATOM     71  C   UNL A   1      51.298  27.141  26.618  1.00  0.00     0.173 A 
ATOM     72  F   UNL A   1      50.002  28.162  23.375  1.00  0.00    -0.203 F 
ATOM     73  C   UNL A   1      52.147  27.413  23.991  1.00  0.00     0.198 A 
ATOM     74  C   UNL A   1      52.613  26.843  26.275  1.00  0.00     0.198 A 
ATOM     75  F   UNL A   1      50.914  26.977  27.893  1.00  0.00    -0.203 F 
ATOM     76  F   UNL A   1      52.538  27.492  22.711  1.00  0.00    -0.200 F 
ATOM     77  C   UNL A   1      53.032  26.962  24.958  1.00  0.00     0.200 A 
ATOM     78  F   UNL A   1      53.469  26.420  27.215  1.00  0.00    -0.200 F 
ATOM     79  F   UNL A   1      54.284  26.627  24.620  1.00  0.00    -0.200 F 
ENDBRANCH  55  69
BRANCH  56  80
ATOM     80  C   UNL A   1      40.839  28.577  28.383  1.00  0.00     0.064 A 
ATOM     81  C   UNL A   1      40.473  28.193  29.681  1.00  0.00     0.173 A 
ATOM     82  C   UNL A   1      39.827  29.072  27.544  1.00  0.00     0.173 A 
ATOM     83  F   UNL A   1      41.393  27.682  30.511  1.00  0.00    -0.203 F 
ATOM     84  C   UNL A   1      39.153  28.296  30.119  1.00  0.00     0.198 A 
ATOM     85  C   UNL A   1      38.515  29.204  27.992  1.00  0.00     0.198 A 
ATOM     86  F   UNL A   1      40.120  29.443  26.288  1.00  0.00    -0.203 F 
ATOM     87  F   UNL A   1      38.824  27.884  31.351  1.00  0.00    -0.200 F 
ATOM     88  C   UNL A   1      38.178  28.811  29.278  1.00  0.00     0.200 A 
ATOM     89  F   UNL A   1      37.579  29.710  27.178  1.00  0.00    -0.200 F 
ATOM     90  F   UNL A   1      36.911  28.920  29.703  1.00  0.00    -0.200 F 
ENDBRANCH  56  80
BRANCH  68  91
ATOM     91  C   UNL A   1      46.512  32.618  29.086  1.00  0.00     0.064 A 
ATOM     92  C   UNL A   1      46.313  33.808  28.373  1.00  0.00     0.173 A 
ATOM     93  C   UNL A   1      46.852  32.719  30.445  1.00  0.00     0.173 A 
ATOM     94  F   UNL A   1      46.000  33.770  27.068  1.00  0.00    -0.203 F 
ATOM     95  C   UNL A   1      46.453  35.049  28.994  1.00  0.00     0.198 A 
ATOM     96  C   UNL A   1      46.959  33.958  31.071  1.00  0.00     0.198 A 
ATOM     97  F   UNL A   1      47.048  31.612  31.176  1.00  0.00    -0.203 F 
ATOM     98  F   UNL A   1      46.288  36.174  28.286  1.00  0.00    -0.200 F 
ATOM     99  C   UNL A   1      46.764  35.121  30.344  1.00  0.00     0.200 A 
ATOM    100  F   UNL A   1      47.240  34.024  32.380  1.00  0.00    -0.200 F 
ATOM    101  F   UNL A   1      46.873  36.314  30.946  1.00  0.00    -0.200 F 
ENDBRANCH  68  91
ENDBRANCH  42  43
ENDBRANCH  35  37
ENDBRANCH  34  35
ENDBRANCH  33  34
ENDBRANCH  32  33
ENDBRANCH  31  32
ENDBRANCH  30  31
ENDBRANCH   1  30
TORSDOF 22
ENDMDL
MODEL 3
REMARK VINA RESULT:     -10.5      1.995      3.436
REMARK SMILES C[C@](NC(=O)[C@](C)([NH3+])C(F)(F)F)(C(=O)OCCOCCOCCOC(=O)c1ccc(-c2c3nc(c(-c4c(F)c(F)c(F)c(F)c4F)c4ccc([nH]4)c(-c4c(F)c(F)c(F)c(F)c4F)c4nc(c(-c5c(F)c(F)c(F)c(F)c5F)c5ccc2[nH]5)C=C4)C=C3)cc1)c1ccccc1
REMARK SMILES IDX 19 1 18 2 17 3 16 4 15 5 13 6 14 7 2 8 1 9 90 10 91 11 95 12
REMARK SMILES IDX 92 13 94 14 93 15 3 16 4 17 5 19 6 20 7 21 8 22 9 26 10 27
REMARK SMILES IDX 11 28 12 29 20 30 21 31 22 32 23 33 24 34 25 35 26 36 27 37
REMARK SMILES IDX 28 38 89 39 29 40 88 41 30 42 31 43 32 44 82 45 33 46 87 47
REMARK SMILES IDX 81 48 83 49 34 50 86 51 80 52 79 53 35 55 67 56 47 57 66 58
REMARK SMILES IDX 48 59 51 60 65 61 84 62 49 63 50 64 64 66 85 67 52 68 36 69
REMARK SMILES IDX 37 70 45 71 38 72 39 73 43 74 46 75 40 76 41 77 44 78 42 79
REMARK SMILES IDX 68 80 69 81 77 82 70 83 71 84 75 85 78 86 72 87 73 88 76 89
REMARK SMILES IDX 74 90 53 91 54 92 62 93 55 94 56 95 60 96 63 97 57 98 58 99
REMARK SMILES IDX 61 100 59 101
REMARK H PARENT 3 18 8 23 8 24 8 25 83 54 51 65
REMARK Flexibility Score: inf
ROOT
ATOM      1  C   UNL A   1      40.063  21.879  26.752  1.00  0.00     0.188 C 
ENDROOT
BRANCH   1   2
ATOM      2  O   UNL A   1      39.186  21.695  25.656  1.00  0.00    -0.376 OA
BRANCH   2   3
ATOM      3  C   UNL A   1      37.863  22.202  25.750  1.00  0.00     0.202 C 
BRANCH   3   4
ATOM      4  C   UNL A   1      36.692  21.578  24.960  1.00  0.00     0.261 C 
BRANCH   4   5
ATOM      5  O   UNL A   1      35.388  22.197  25.040  1.00  0.00    -0.461 OA
BRANCH   5   6
ATOM      6  C   UNL A   1      34.812  22.558  23.852  1.00  0.00     0.336 C 
ATOM      7  O   UNL A   1      35.444  23.041  22.917  1.00  0.00    -0.249 OA
BRANCH   6   8
ATOM      8  C   UNL A   1      33.239  22.393  23.836  1.00  0.00     0.161 C 
ATOM      9  C   UNL A   1      32.846  22.851  22.424  1.00  0.00     0.053 C 
BRANCH   8  10
ATOM     10  C   UNL A   1      32.892  20.869  24.007  1.00  0.00    -0.012 A 
ATOM     11  C   UNL A   1      32.394  20.074  22.957  1.00  0.00     0.007 A 
ATOM     12  C   UNL A   1      33.080  20.220  25.241  1.00  0.00     0.007 A 
ATOM     13  C   UNL A   1      32.217  18.692  23.100  1.00  0.00     0.000 A 
ATOM     14  C   UNL A   1      32.932  18.837  25.378  1.00  0.00     0.000 A 
ATOM     15  C   UNL A   1      32.513  18.068  24.304  1.00  0.00     0.000 A 
ENDBRANCH   8  10
BRANCH   8  16
ATOM     16  N   UNL A   1      32.530  23.102  24.952  1.00  0.00    -0.331 N 
ATOM     17  C   UNL A   1      32.297  24.314  25.508  1.00  0.00     0.291 C 
ATOM     18  H   UNL A   1      32.050  22.428  25.483  1.00  0.00     0.165 HD
ATOM     19  O   UNL A   1      31.848  24.206  26.661  1.00  0.00    -0.267 OA
BRANCH  17  20
ATOM     20  C   UNL A   1      32.343  25.712  24.864  1.00  0.00     0.267 C 
ATOM     21  C   UNL A   1      31.297  26.572  25.597  1.00  0.00     0.100 C 
BRANCH  20  22
ATOM     22  N   UNL A   1      31.989  25.738  23.426  1.00  0.00    -0.337 N 
ATOM     23  H   UNL A   1      31.745  24.796  23.118  1.00  0.00     0.345 HD
ATOM     24  H   UNL A   1      32.784  26.077  22.885  1.00  0.00     0.345 HD
ATOM     25  H   UNL A   1      31.192  26.358  23.284  1.00  0.00     0.345 HD
ENDBRANCH  20  22
BRANCH  20  26
ATOM     26  C   UNL A   1      33.758  26.301  25.122  1.00  0.00     0.453 C 
ATOM     27  F   UNL A   1      34.715  25.376  24.829  1.00  0.00    -0.164 F 
ATOM     28  F   UNL A   1      34.049  27.388  24.380  1.00  0.00    -0.164 F 
ATOM     29  F   UNL A   1      33.925  26.619  26.429  1.00  0.00    -0.164 F 
ENDBRANCH  20  26
ENDBRANCH  17  20
ENDBRANCH   8  16
ENDBRANCH   6   8
ENDBRANCH   5   6
ENDBRANCH   4   5
ENDBRANCH   3   4
ENDBRANCH   2   3
ENDBRANCH   1   2
BRANCH   1  30
ATOM     30  C   UNL A   1      40.881  20.683  27.282  1.00  0.00     0.188 C 
BRANCH  30  31
ATOM     31  O   UNL A   1      41.971  20.352  26.460  1.00  0.00    -0.376 OA
BRANCH  31  32
ATOM     32  C   UNL A   1      42.541  19.062  26.557  1.00  0.00     0.202 C 
BRANCH  32  33
ATOM     33  C   UNL A   1      43.221  18.339  25.374  1.00  0.00     0.261 C 
BRANCH  33  34
ATOM     34  O   UNL A   1      44.636  18.489  25.203  1.00  0.00    -0.460 OA
BRANCH  34  35
ATOM     35  C   UNL A   1      45.062  19.222  24.144  1.00  0.00     0.338 C 
ATOM     36  O   UNL A   1      45.303  18.828  23.023  1.00  0.00    -0.246 OA
BRANCH  35  37
ATOM     37  C   UNL A   1      45.001  20.650  24.533  1.00  0.00     0.060 A 
ATOM     38  C   UNL A   1      44.575  21.594  23.590  1.00  0.00     0.016 A 
ATOM     39  C   UNL A   1      45.355  21.055  25.823  1.00  0.00     0.016 A 
ATOM     40  C   UNL A   1      44.506  22.948  23.936  1.00  0.00     0.010 A 
ATOM     41  C   UNL A   1      45.298  22.412  26.162  1.00  0.00     0.010 A 
ATOM     42  C   UNL A   1      44.878  23.367  25.220  1.00  0.00    -0.014 A 
BRANCH  42  43
ATOM     43  C   UNL A   1      45.012  24.812  25.540  1.00  0.00     0.031 A 
ATOM     44  C   UNL A   1      46.362  25.448  25.398  1.00  0.00     0.074 A 
ATOM     45  C   UNL A   1      43.975  25.541  25.993  1.00  0.00     0.049 A 
ATOM     46  N   UNL A   1      46.774  26.630  25.775  1.00  0.00    -0.248 NA
ATOM     47  C   UNL A   1      47.391  24.627  24.743  1.00  0.00     0.031 C 
ATOM     48  C   UNL A   1      42.600  25.069  26.115  1.00  0.00     0.029 A 
ATOM     49  N   UNL A   1      43.933  26.833  26.462  1.00  0.00    -0.354 N 
ATOM     50  C   UNL A   1      48.116  26.688  25.425  1.00  0.00     0.074 A 
ATOM     51  C   UNL A   1      48.446  25.423  24.806  1.00  0.00     0.031 C 
ATOM     52  C   UNL A   1      41.852  26.047  26.657  1.00  0.00     0.029 A 
ATOM     53  C   UNL A   1      42.710  27.189  26.977  1.00  0.00     0.049 A 
ATOM     54  H   UNL A   1      44.706  27.443  26.434  1.00  0.00     0.167 HD
ATOM     55  C   UNL A   1      48.997  27.698  25.619  1.00  0.00     0.037 A 
ATOM     56  C   UNL A   1      42.341  28.283  27.674  1.00  0.00     0.037 A 
ATOM     57  C   UNL A   1      48.674  28.938  26.270  1.00  0.00     0.049 A 
ATOM     58  C   UNL A   1      43.360  29.358  27.973  1.00  0.00     0.074 A 
ATOM     59  C   UNL A   1      49.499  30.020  26.523  1.00  0.00     0.029 A 
ATOM     60  N   UNL A   1      47.430  29.252  26.799  1.00  0.00    -0.354 N 
ATOM     61  N   UNL A   1      44.627  29.412  27.641  1.00  0.00    -0.248 NA
ATOM     62  C   UNL A   1      42.901  30.517  28.754  1.00  0.00     0.031 C 
ATOM     63  C   UNL A   1      48.775  30.955  27.269  1.00  0.00     0.029 A 
ATOM     64  C   UNL A   1      47.474  30.494  27.410  1.00  0.00     0.049 A 
ATOM     65  H   UNL A   1      46.633  28.676  26.748  1.00  0.00     0.167 HD
ATOM     66  C   UNL A   1      45.108  30.618  28.142  1.00  0.00     0.074 A 
ATOM     67  C   UNL A   1      43.995  31.266  28.802  1.00  0.00     0.031 C 
ATOM     68  C   UNL A   1      46.357  31.139  28.055  1.00  0.00     0.037 A 
BRANCH  55  69
ATOM     69  C   UNL A   1      50.417  27.447  25.198  1.00  0.00     0.064 A 
ATOM     70  C   UNL A   1      51.403  27.032  26.106  1.00  0.00     0.173 A 
ATOM     71  C   UNL A   1      50.803  27.668  23.867  1.00  0.00     0.173 A 
ATOM     72  F   UNL A   1      51.091  26.824  27.395  1.00  0.00    -0.203 F 
ATOM     73  C   UNL A   1      52.731  26.900  25.708  1.00  0.00     0.198 A 
ATOM     74  C   UNL A   1      52.124  27.497  23.464  1.00  0.00     0.198 A 
ATOM     75  F   UNL A   1      49.901  28.062  22.956  1.00  0.00    -0.203 F 
ATOM     76  F   UNL A   1      53.670  26.584  26.611  1.00  0.00    -0.200 F 
ATOM     77  C   UNL A   1      53.091  27.131  24.389  1.00  0.00     0.200 A 
ATOM     78  F   UNL A   1      52.466  27.708  22.186  1.00  0.00    -0.200 F 
ATOM     79  F   UNL A   1      54.371  27.015  24.011  1.00  0.00    -0.200 F 
ENDBRANCH  55  69
BRANCH  56  80
ATOM     80  C   UNL A   1      40.949  28.393  28.191  1.00  0.00     0.064 A 
ATOM     81  C   UNL A   1      39.921  28.943  27.413  1.00  0.00     0.173 A 
ATOM     82  C   UNL A   1      40.620  27.951  29.483  1.00  0.00     0.173 A 
ATOM     83  F   UNL A   1      40.189  29.412  26.186  1.00  0.00    -0.203 F 
ATOM     84  C   UNL A   1      38.621  29.049  27.906  1.00  0.00     0.198 A 
ATOM     85  C   UNL A   1      39.314  28.029  29.963  1.00  0.00     0.198 A 
ATOM     86  F   UNL A   1      41.568  27.428  30.274  1.00  0.00    -0.203 F 
ATOM     87  F   UNL A   1      37.666  29.615  27.156  1.00  0.00    -0.200 F 
ATOM     88  C   UNL A   1      38.317  28.582  29.176  1.00  0.00     0.200 A 
ATOM     89  F   UNL A   1      39.026  27.569  31.188  1.00  0.00    -0.200 F 
ATOM     90  F   UNL A   1      37.065  28.675  29.646  1.00  0.00    -0.200 F 
ENDBRANCH  56  80
BRANCH  68  91
ATOM     91  C   UNL A   1      46.597  32.507  28.634  1.00  0.00     0.064 A 
ATOM     92  C   UNL A   1      47.075  32.692  29.939  1.00  0.00     0.173 A 
ATOM     93  C   UNL A   1      46.431  33.647  27.831  1.00  0.00     0.173 A 
ATOM     94  F   UNL A   1      47.239  31.638  30.754  1.00  0.00    -0.203 F 
ATOM     95  C   UNL A   1      47.372  33.966  30.421  1.00  0.00     0.198 A 
ATOM     96  C   UNL A   1      46.759  34.915  28.303  1.00  0.00     0.198 A 
ATOM     97  F   UNL A   1      45.982  33.527  26.573  1.00  0.00    -0.203 F 
ATOM     98  F   UNL A   1      47.800  34.123  31.681  1.00  0.00    -0.200 F 
ATOM     99  C   UNL A   1      47.225  35.074  29.598  1.00  0.00     0.200 A 
ATOM    100  F   UNL A   1      46.635  35.981  27.500  1.00  0.00    -0.200 F 
ATOM    101  F   UNL A   1      47.535  36.295  30.054  1.00  0.00    -0.200 F 
ENDBRANCH  68  91
ENDBRANCH  42  43
ENDBRANCH  35  37
ENDBRANCH  34  35
ENDBRANCH  33  34
ENDBRANCH  32  33
ENDBRANCH  31  32
ENDBRANCH  30  31
ENDBRANCH   1  30
TORSDOF 22
ENDMDL
