MODEL 1
REMARK VINA RESULT:     -11.6      0.000      0.000
REMARK SMILES O=C(C[C@@H](C(=O)OCCOCCOCCOC(=O)c1ccc(-c2c3nc(c(-c4c(F)c(F)c(F)c(F)c4F)c4ccc([nH]4)c(-c4c(F)c(F)c(F)c(F)c4F)c4nc(c(-c5c(F)c(F)c(F)c(F)c5F)c5ccc2[nH]5)C=C4)C=C3)cc1)c1ccccc1)Nc1cc(C(F)(F)F)ccc1-n1cncn1
REMARK SMILES IDX 11 1 10 2 9 3 8 4 7 5 5 6 6 7 4 8 3 9 2 10 1 11 88 12 89 14
REMARK SMILES IDX 90 15 98 16 91 17 97 18 96 19 99 20 100 21 103 22 101 23
REMARK SMILES IDX 102 24 92 25 93 26 94 27 95 28 82 29 83 30 87 31 84 32 86 33
REMARK SMILES IDX 85 34 12 35 13 36 14 37 15 38 16 39 17 40 18 41 19 42 20 43
REMARK SMILES IDX 81 44 21 45 80 46 22 47 23 48 24 49 74 50 25 51 79 52 73 53
REMARK SMILES IDX 75 54 26 55 78 56 72 57 71 58 27 60 59 61 39 62 58 63 40 64
REMARK SMILES IDX 43 65 57 66 76 67 41 68 42 69 56 71 77 72 44 73 28 74 29 75
REMARK SMILES IDX 37 76 30 77 31 78 35 79 38 80 32 81 33 82 36 83 34 84 60 85
REMARK SMILES IDX 61 86 69 87 62 88 63 89 67 90 70 91 64 92 65 93 68 94 66 95
REMARK SMILES IDX 45 96 46 97 54 98 47 99 48 100 52 101 55 102 49 103 50 104
REMARK SMILES IDX 53 105 51 106
REMARK H PARENT 88 13 75 59 43 70
REMARK Flexibility Score: inf
ROOT
ATOM      1  C   UNL A   1      36.503  22.375  25.507  1.00  0.00     0.188 C 
ENDROOT
BRANCH   1   2
ATOM      2  O   UNL A   1      35.343  23.195  25.561  1.00  0.00    -0.376 OA
BRANCH   2   3
ATOM      3  C   UNL A   1      35.484  24.525  25.053  1.00  0.00     0.202 C 
BRANCH   3   4
ATOM      4  C   UNL A   1      34.204  25.377  25.057  1.00  0.00     0.261 C 
BRANCH   4   5
ATOM      5  O   UNL A   1      34.258  26.474  24.104  1.00  0.00    -0.463 OA
BRANCH   5   6
ATOM      6  C   UNL A   1      33.575  26.271  22.937  1.00  0.00     0.314 C 
ATOM      7  O   UNL A   1      33.984  26.657  21.847  1.00  0.00    -0.252 OA
BRANCH   6   8
ATOM      8  C   UNL A   1      32.306  25.413  23.095  1.00  0.00     0.138 C 
BRANCH   8   9
ATOM      9  C   UNL A   1      32.213  24.200  22.162  1.00  0.00     0.120 C 
BRANCH   9  10
ATOM     10  C   UNL A   1      32.807  22.904  22.642  1.00  0.00     0.225 C 
ATOM     11  O   UNL A   1      34.016  22.706  22.636  1.00  0.00    -0.275 OA
ATOM     12  N   UNL A   1      31.861  22.031  23.146  1.00  0.00    -0.324 N 
ATOM     13  H   UNL A   1      30.912  22.210  22.952  1.00  0.00     0.170 HD
BRANCH  12  14
ATOM     14  C   UNL A   1      32.178  20.904  23.922  1.00  0.00     0.067 A 
ATOM     15  C   UNL A   1      32.443  19.733  23.205  1.00  0.00     0.041 A 
ATOM     16  C   UNL A   1      32.293  20.902  25.323  1.00  0.00     0.090 A 
ATOM     17  C   UNL A   1      32.892  18.574  23.853  1.00  0.00     0.058 A 
ATOM     18  C   UNL A   1      32.774  19.756  25.976  1.00  0.00     0.031 A 
ATOM     19  C   UNL A   1      33.066  18.600  25.243  1.00  0.00     0.015 A 
BRANCH  16  20
ATOM     20  N   UNL A   1      31.808  21.970  26.120  1.00  0.00    -0.219 N 
ATOM     21  C   UNL A   1      32.498  22.721  27.047  1.00  0.00     0.226 A 
ATOM     22  N   UNL A   1      30.570  22.504  25.966  1.00  0.00    -0.155 NA
ATOM     23  N   UNL A   1      31.704  23.590  27.627  1.00  0.00    -0.223 NA
ATOM     24  C   UNL A   1      30.532  23.396  26.959  1.00  0.00     0.246 A 
ENDBRANCH  16  20
BRANCH  17  25
ATOM     25  C   UNL A   1      33.213  17.353  23.028  1.00  0.00     0.416 C 
ATOM     26  F   UNL A   1      32.923  16.199  23.694  1.00  0.00    -0.166 F 
ATOM     27  F   UNL A   1      32.493  17.303  21.874  1.00  0.00    -0.166 F 
ATOM     28  F   UNL A   1      34.521  17.259  22.666  1.00  0.00    -0.166 F 
ENDBRANCH  17  25
ENDBRANCH  12  14
ENDBRANCH   9  10
ENDBRANCH   8   9
BRANCH   8  29
ATOM     29  C   UNL A   1      30.992  26.232  23.100  1.00  0.00    -0.033 A 
ATOM     30  C   UNL A   1      29.854  25.814  23.822  1.00  0.00     0.004 A 
ATOM     31  C   UNL A   1      30.913  27.484  22.464  1.00  0.00     0.004 A 
ATOM     32  C   UNL A   1      28.693  26.591  23.886  1.00  0.00     0.000 A 
ATOM     33  C   UNL A   1      29.745  28.256  22.517  1.00  0.00     0.000 A 
ATOM     34  C   UNL A   1      28.634  27.810  23.226  1.00  0.00     0.000 A 
ENDBRANCH   8  29
ENDBRANCH   6   8
ENDBRANCH   5   6
ENDBRANCH   4   5
ENDBRANCH   3   4
ENDBRANCH   2   3
ENDBRANCH   1   2
BRANCH   1  35
ATOM     35  C   UNL A   1      36.280  20.942  25.016  1.00  0.00     0.188 C 
BRANCH  35  36
ATOM     36  O   UNL A   1      37.446  20.158  24.802  1.00  0.00    -0.376 OA
BRANCH  36  37
ATOM     37  C   UNL A   1      38.655  20.669  25.388  1.00  0.00     0.202 C 
BRANCH  37  38
ATOM     38  C   UNL A   1      39.587  19.655  26.097  1.00  0.00     0.261 C 
BRANCH  38  39
ATOM     39  O   UNL A   1      40.747  19.208  25.357  1.00  0.00    -0.460 OA
BRANCH  39  40
ATOM     40  C   UNL A   1      41.921  19.088  26.025  1.00  0.00     0.338 C 
ATOM     41  O   UNL A   1      42.632  18.099  26.063  1.00  0.00    -0.246 OA
BRANCH  40  42
ATOM     42  C   UNL A   1      42.370  20.456  26.417  1.00  0.00     0.060 A 
ATOM     43  C   UNL A   1      42.670  21.367  25.393  1.00  0.00     0.016 A 
ATOM     44  C   UNL A   1      42.374  20.889  27.747  1.00  0.00     0.016 A 
ATOM     45  C   UNL A   1      42.976  22.699  25.693  1.00  0.00     0.010 A 
ATOM     46  C   UNL A   1      42.702  22.219  28.047  1.00  0.00     0.010 A 
ATOM     47  C   UNL A   1      43.018  23.130  27.023  1.00  0.00    -0.014 A 
BRANCH  47  48
ATOM     48  C   UNL A   1      43.559  24.475  27.358  1.00  0.00     0.031 A 
ATOM     49  C   UNL A   1      42.607  25.514  27.884  1.00  0.00     0.074 A 
ATOM     50  C   UNL A   1      44.860  24.785  27.213  1.00  0.00     0.049 A 
ATOM     51  N   UNL A   1      42.810  26.779  28.145  1.00  0.00    -0.248 NA
ATOM     52  C   UNL A   1      41.236  25.053  28.153  1.00  0.00     0.031 C 
ATOM     53  C   UNL A   1      45.906  23.866  26.777  1.00  0.00     0.029 A 
ATOM     54  N   UNL A   1      45.516  25.980  27.401  1.00  0.00    -0.354 N 
ATOM     55  C   UNL A   1      41.592  27.269  28.597  1.00  0.00     0.074 A 
ATOM     56  C   UNL A   1      40.651  26.170  28.556  1.00  0.00     0.031 C 
ATOM     57  C   UNL A   1      47.069  24.538  26.697  1.00  0.00     0.029 A 
ATOM     58  C   UNL A   1      46.840  25.944  27.036  1.00  0.00     0.049 A 
ATOM     59  H   UNL A   1      45.078  26.785  27.761  1.00  0.00     0.167 HD
ATOM     60  C   UNL A   1      41.282  28.522  29.009  1.00  0.00     0.037 A 
ATOM     61  C   UNL A   1      47.749  26.937  26.944  1.00  0.00     0.037 A 
ATOM     62  C   UNL A   1      42.209  29.622  29.041  1.00  0.00     0.049 A 
ATOM     63  C   UNL A   1      47.359  28.350  27.309  1.00  0.00     0.074 A 
ATOM     64  C   UNL A   1      41.989  30.923  29.459  1.00  0.00     0.029 A 
ATOM     65  N   UNL A   1      43.529  29.555  28.623  1.00  0.00    -0.354 N 
ATOM     66  N   UNL A   1      46.211  28.806  27.748  1.00  0.00    -0.248 NA
ATOM     67  C   UNL A   1      48.391  29.388  27.158  1.00  0.00     0.031 C 
ATOM     68  C   UNL A   1      43.157  31.658  29.233  1.00  0.00     0.029 A 
ATOM     69  C   UNL A   1      44.125  30.801  28.734  1.00  0.00     0.049 A 
ATOM     70  H   UNL A   1      43.977  28.740  28.296  1.00  0.00     0.167 HD
ATOM     71  C   UNL A   1      46.386  30.171  27.943  1.00  0.00     0.074 A 
ATOM     72  C   UNL A   1      47.757  30.470  27.590  1.00  0.00     0.031 C 
ATOM     73  C   UNL A   1      45.491  31.093  28.377  1.00  0.00     0.037 A 
BRANCH  60  74
ATOM     74  C   UNL A   1      39.859  28.776  29.412  1.00  0.00     0.064 A 
ATOM     75  C   UNL A   1      39.411  28.570  30.726  1.00  0.00     0.173 A 
ATOM     76  C   UNL A   1      38.930  29.235  28.466  1.00  0.00     0.173 A 
ATOM     77  F   UNL A   1      40.256  28.115  31.664  1.00  0.00    -0.203 F 
ATOM     78  C   UNL A   1      38.077  28.778  31.068  1.00  0.00     0.198 A 
ATOM     79  C   UNL A   1      37.604  29.473  28.819  1.00  0.00     0.198 A 
ATOM     80  F   UNL A   1      39.307  29.451  27.197  1.00  0.00    -0.203 F 
ATOM     81  F   UNL A   1      37.658  28.514  32.313  1.00  0.00    -0.200 F 
ATOM     82  C   UNL A   1      37.177  29.234  30.116  1.00  0.00     0.200 A 
ATOM     83  F   UNL A   1      36.739  29.925  27.901  1.00  0.00    -0.200 F 
ATOM     84  F   UNL A   1      35.893  29.431  30.447  1.00  0.00    -0.200 F 
ENDBRANCH  60  74
BRANCH  61  85
ATOM     85  C   UNL A   1      49.116  26.644  26.433  1.00  0.00     0.064 A 
ATOM     86  C   UNL A   1      50.126  26.168  27.280  1.00  0.00     0.173 A 
ATOM     87  C   UNL A   1      49.444  26.858  25.086  1.00  0.00     0.173 A 
ATOM     88  F   UNL A   1      49.874  25.980  28.584  1.00  0.00    -0.203 F 
ATOM     89  C   UNL A   1      51.414  25.927  26.802  1.00  0.00     0.198 A 
ATOM     90  C   UNL A   1      50.723  26.589  24.602  1.00  0.00     0.198 A 
ATOM     91  F   UNL A   1      48.519  27.326  24.235  1.00  0.00    -0.203 F 
ATOM     92  F   UNL A   1      52.373  25.516  27.642  1.00  0.00    -0.200 F 
ATOM     93  C   UNL A   1      51.709  26.129  25.461  1.00  0.00     0.200 A 
ATOM     94  F   UNL A   1      51.000  26.779  23.305  1.00  0.00    -0.200 F 
ATOM     95  F   UNL A   1      52.944  25.891  25.001  1.00  0.00    -0.200 F 
ENDBRANCH  61  85
BRANCH  73  96
ATOM     96  C   UNL A   1      45.959  32.515  28.518  1.00  0.00     0.064 A 
ATOM     97  C   UNL A   1      46.576  32.975  29.691  1.00  0.00     0.173 A 
ATOM     98  C   UNL A   1      45.850  33.412  27.443  1.00  0.00     0.173 A 
ATOM     99  F   UNL A   1      46.695  32.164  30.753  1.00  0.00    -0.203 F 
ATOM    100  C   UNL A   1      47.049  34.282  29.788  1.00  0.00     0.198 A 
ATOM    101  C   UNL A   1      46.351  34.708  27.532  1.00  0.00     0.198 A 
ATOM    102  F   UNL A   1      45.276  33.022  26.294  1.00  0.00    -0.203 F 
ATOM    103  F   UNL A   1      47.601  34.710  30.933  1.00  0.00    -0.200 F 
ATOM    104  C   UNL A   1      46.946  35.144  28.706  1.00  0.00     0.200 A 
ATOM    105  F   UNL A   1      46.264  35.533  26.480  1.00  0.00    -0.200 F 
ATOM    106  F   UNL A   1      47.415  36.396  28.797  1.00  0.00    -0.200 F 
ENDBRANCH  73  96
ENDBRANCH  47  48
ENDBRANCH  40  42
ENDBRANCH  39  40
ENDBRANCH  38  39
ENDBRANCH  37  38
ENDBRANCH  36  37
ENDBRANCH  35  36
ENDBRANCH   1  35
TORSDOF 23
ENDMDL
MODEL 2
REMARK VINA RESULT:     -11.2      0.772      6.856
REMARK SMILES O=C(C[C@@H](C(=O)OCCOCCOCCOC(=O)c1ccc(-c2c3nc(c(-c4c(F)c(F)c(F)c(F)c4F)c4ccc([nH]4)c(-c4c(F)c(F)c(F)c(F)c4F)c4nc(c(-c5c(F)c(F)c(F)c(F)c5F)c5ccc2[nH]5)C=C4)C=C3)cc1)c1ccccc1)Nc1cc(C(F)(F)F)ccc1-n1cncn1
REMARK SMILES IDX 11 1 10 2 9 3 8 4 7 5 5 6 6 7 4 8 3 9 2 10 1 11 88 12 89 14
REMARK SMILES IDX 90 15 98 16 91 17 97 18 96 19 99 20 100 21 103 22 101 23
REMARK SMILES IDX 102 24 92 25 93 26 94 27 95 28 82 29 83 30 87 31 84 32 86 33
REMARK SMILES IDX 85 34 12 35 13 36 14 37 15 38 16 39 17 40 18 41 19 42 20 43
REMARK SMILES IDX 81 44 21 45 80 46 22 47 23 48 24 49 74 50 25 51 79 52 73 53
REMARK SMILES IDX 75 54 26 55 78 56 72 57 71 58 27 60 59 61 39 62 58 63 40 64
REMARK SMILES IDX 43 65 57 66 76 67 41 68 42 69 56 71 77 72 44 73 28 74 29 75
REMARK SMILES IDX 37 76 30 77 31 78 35 79 38 80 32 81 33 82 36 83 34 84 60 85
REMARK SMILES IDX 61 86 69 87 62 88 63 89 67 90 70 91 64 92 65 93 68 94 66 95
REMARK SMILES IDX 45 96 46 97 54 98 47 99 48 100 52 101 55 102 49 103 50 104
REMARK SMILES IDX 53 105 51 106
REMARK H PARENT 88 13 75 59 43 70
REMARK Flexibility Score: inf
ROOT
ATOM      1  C   UNL A   1      37.398  23.050  25.682  1.00  0.00     0.188 C 
ENDROOT
BRANCH   1   2
ATOM      2  O   UNL A   1      36.521  24.151  25.879  1.00  0.00    -0.376 OA
BRANCH   2   3
ATOM      3  C   UNL A   1      35.254  24.077  25.221  1.00  0.00     0.202 C 
BRANCH   3   4
ATOM      4  C   UNL A   1      34.355  25.316  25.367  1.00  0.00     0.261 C 
BRANCH   4   5
ATOM      5  O   UNL A   1      34.351  26.150  24.176  1.00  0.00    -0.463 OA
BRANCH   5   6
ATOM      6  C   UNL A   1      33.208  26.867  23.965  1.00  0.00     0.314 C 
ATOM      7  O   UNL A   1      33.142  28.083  24.118  1.00  0.00    -0.252 OA
BRANCH   6   8
ATOM      8  C   UNL A   1      32.040  26.034  23.405  1.00  0.00     0.138 C 
BRANCH   8   9
ATOM      9  C   UNL A   1      32.368  25.189  22.169  1.00  0.00     0.120 C 
BRANCH   9  10
ATOM     10  C   UNL A   1      32.784  23.760  22.392  1.00  0.00     0.225 C 
ATOM     11  O   UNL A   1      33.943  23.393  22.239  1.00  0.00    -0.275 OA
ATOM     12  N   UNL A   1      31.752  22.963  22.850  1.00  0.00    -0.324 N 
ATOM     13  H   UNL A   1      30.831  23.306  22.778  1.00  0.00     0.170 HD
BRANCH  12  14
ATOM     14  C   UNL A   1      31.943  21.692  23.416  1.00  0.00     0.067 A 
ATOM     15  C   UNL A   1      32.021  20.632  22.507  1.00  0.00     0.041 A 
ATOM     16  C   UNL A   1      32.108  21.443  24.790  1.00  0.00     0.090 A 
ATOM     17  C   UNL A   1      32.335  19.335  22.934  1.00  0.00     0.058 A 
ATOM     18  C   UNL A   1      32.455  20.153  25.222  1.00  0.00     0.031 A 
ATOM     19  C   UNL A   1      32.562  19.107  24.298  1.00  0.00     0.015 A 
BRANCH  16  20
ATOM     20  N   UNL A   1      31.800  22.416  25.775  1.00  0.00    -0.219 N 
ATOM     21  C   UNL A   1      32.416  22.620  26.991  1.00  0.00     0.226 A 
ATOM     22  N   UNL A   1      30.898  23.410  25.575  1.00  0.00    -0.155 NA
ATOM     23  N   UNL A   1      31.824  23.582  27.657  1.00  0.00    -0.223 NA
ATOM     24  C   UNL A   1      30.884  24.009  26.768  1.00  0.00     0.246 A 
ENDBRANCH  16  20
BRANCH  17  25
ATOM     25  C   UNL A   1      32.458  18.237  21.907  1.00  0.00     0.416 C 
ATOM     26  F   UNL A   1      32.463  18.729  20.635  1.00  0.00    -0.166 F 
ATOM     27  F   UNL A   1      33.617  17.535  22.036  1.00  0.00    -0.166 F 
ATOM     28  F   UNL A   1      31.452  17.324  21.952  1.00  0.00    -0.166 F 
ENDBRANCH  17  25
ENDBRANCH  12  14
ENDBRANCH   9  10
ENDBRANCH   8   9
BRANCH   8  29
ATOM     29  C   UNL A   1      30.730  26.838  23.216  1.00  0.00    -0.033 A 
ATOM     30  C   UNL A   1      29.520  26.449  23.828  1.00  0.00     0.004 A 
ATOM     31  C   UNL A   1      30.718  28.052  22.505  1.00  0.00     0.004 A 
ATOM     32  C   UNL A   1      28.355  27.216  23.717  1.00  0.00     0.000 A 
ATOM     33  C   UNL A   1      29.548  28.813  22.382  1.00  0.00     0.000 A 
ATOM     34  C   UNL A   1      28.366  28.396  22.987  1.00  0.00     0.000 A 
ENDBRANCH   8  29
ENDBRANCH   6   8
ENDBRANCH   5   6
ENDBRANCH   4   5
ENDBRANCH   3   4
ENDBRANCH   2   3
ENDBRANCH   1   2
BRANCH   1  35
ATOM     35  C   UNL A   1      36.806  21.857  24.925  1.00  0.00     0.188 C 
BRANCH  35  36
ATOM     36  O   UNL A   1      37.548  20.646  24.973  1.00  0.00    -0.376 OA
BRANCH  36  37
ATOM     37  C   UNL A   1      38.876  20.751  25.513  1.00  0.00     0.202 C 
BRANCH  37  38
ATOM     38  C   UNL A   1      39.565  19.440  25.968  1.00  0.00     0.261 C 
BRANCH  38  39
ATOM     39  O   UNL A   1      40.893  19.190  25.453  1.00  0.00    -0.460 OA
BRANCH  39  40
ATOM     40  C   UNL A   1      41.936  19.261  26.318  1.00  0.00     0.338 C 
ATOM     41  O   UNL A   1      42.645  18.335  26.672  1.00  0.00    -0.246 OA
BRANCH  40  42
ATOM     42  C   UNL A   1      42.289  20.700  26.497  1.00  0.00     0.060 A 
ATOM     43  C   UNL A   1      42.365  21.199  27.806  1.00  0.00     0.016 A 
ATOM     44  C   UNL A   1      42.669  21.515  25.425  1.00  0.00     0.016 A 
ATOM     45  C   UNL A   1      42.811  22.503  28.045  1.00  0.00     0.010 A 
ATOM     46  C   UNL A   1      43.096  22.829  25.666  1.00  0.00     0.010 A 
ATOM     47  C   UNL A   1      43.157  23.338  26.976  1.00  0.00    -0.014 A 
BRANCH  47  48
ATOM     48  C   UNL A   1      43.414  24.784  27.207  1.00  0.00     0.031 A 
ATOM     49  C   UNL A   1      44.802  25.309  26.962  1.00  0.00     0.074 A 
ATOM     50  C   UNL A   1      42.452  25.630  27.618  1.00  0.00     0.049 A 
ATOM     51  N   UNL A   1      45.300  26.496  27.191  1.00  0.00    -0.248 NA
ATOM     52  C   UNL A   1      45.756  24.356  26.375  1.00  0.00     0.031 C 
ATOM     53  C   UNL A   1      41.051  25.280  27.833  1.00  0.00     0.029 A 
ATOM     54  N   UNL A   1      42.521  26.964  27.948  1.00  0.00    -0.354 N 
ATOM     55  C   UNL A   1      46.627  26.431  26.787  1.00  0.00     0.074 A 
ATOM     56  C   UNL A   1      46.861  25.081  26.319  1.00  0.00     0.031 C 
ATOM     57  C   UNL A   1      40.398  26.362  28.293  1.00  0.00     0.029 A 
ATOM     58  C   UNL A   1      41.344  27.470  28.443  1.00  0.00     0.049 A 
ATOM     59  H   UNL A   1      43.337  27.505  27.840  1.00  0.00     0.167 HD
ATOM     60  C   UNL A   1      47.568  27.405  26.806  1.00  0.00     0.037 A 
ATOM     61  C   UNL A   1      41.071  28.672  28.993  1.00  0.00     0.037 A 
ATOM     62  C   UNL A   1      47.346  28.744  27.281  1.00  0.00     0.049 A 
ATOM     63  C   UNL A   1      42.161  29.713  29.101  1.00  0.00     0.074 A 
ATOM     64  C   UNL A   1      48.236  29.803  27.323  1.00  0.00     0.029 A 
ATOM     65  N   UNL A   1      46.152  29.204  27.815  1.00  0.00    -0.354 N 
ATOM     66  N   UNL A   1      43.409  29.652  28.707  1.00  0.00    -0.248 NA
ATOM     67  C   UNL A   1      41.802  30.991  29.738  1.00  0.00     0.031 C 
ATOM     68  C   UNL A   1      47.599  30.885  27.940  1.00  0.00     0.029 A 
ATOM     69  C   UNL A   1      46.293  30.520  28.226  1.00  0.00     0.049 A 
ATOM     70  H   UNL A   1      45.325  28.674  27.890  1.00  0.00     0.167 HD
ATOM     71  C   UNL A   1      43.978  30.879  29.028  1.00  0.00     0.074 A 
ATOM     72  C   UNL A   1      42.933  31.675  29.637  1.00  0.00     0.031 C 
ATOM     73  C   UNL A   1      45.250  31.307  28.835  1.00  0.00     0.037 A 
BRANCH  60  74
ATOM     74  C   UNL A   1      48.945  27.033  26.339  1.00  0.00     0.064 A 
ATOM     75  C   UNL A   1      49.331  27.152  24.995  1.00  0.00     0.173 A 
ATOM     76  C   UNL A   1      49.894  26.550  27.254  1.00  0.00     0.173 A 
ATOM     77  F   UNL A   1      48.456  27.592  24.078  1.00  0.00    -0.203 F 
ATOM     78  C   UNL A   1      50.603  26.766  24.579  1.00  0.00     0.198 A 
ATOM     79  C   UNL A   1      51.175  26.197  26.840  1.00  0.00     0.198 A 
ATOM     80  F   UNL A   1      49.577  26.420  28.551  1.00  0.00    -0.203 F 
ATOM     81  F   UNL A   1      50.929  26.830  23.280  1.00  0.00    -0.200 F 
ATOM     82  C   UNL A   1      51.524  26.295  25.502  1.00  0.00     0.200 A 
ATOM     83  F   UNL A   1      52.067  25.752  27.735  1.00  0.00    -0.200 F 
ATOM     84  F   UNL A   1      52.747  25.922  25.099  1.00  0.00    -0.200 F 
ENDBRANCH  60  74
BRANCH  61  85
ATOM     85  C   UNL A   1      39.715  28.945  29.539  1.00  0.00     0.064 A 
ATOM     86  C   UNL A   1      39.392  28.657  30.873  1.00  0.00     0.173 A 
ATOM     87  C   UNL A   1      38.703  29.481  28.726  1.00  0.00     0.173 A 
ATOM     88  F   UNL A   1      40.312  28.111  31.681  1.00  0.00    -0.203 F 
ATOM     89  C   UNL A   1      38.108  28.885  31.369  1.00  0.00     0.198 A 
ATOM     90  C   UNL A   1      37.429  29.736  29.231  1.00  0.00     0.198 A 
ATOM     91  F   UNL A   1      38.955  29.762  27.440  1.00  0.00    -0.203 F 
ATOM     92  F   UNL A   1      37.813  28.558  32.634  1.00  0.00    -0.200 F 
ATOM     93  C   UNL A   1      37.131  29.432  30.550  1.00  0.00     0.200 A 
ATOM     94  F   UNL A   1      36.493  30.272  28.438  1.00  0.00    -0.200 F 
ATOM     95  F   UNL A   1      35.900  29.657  31.030  1.00  0.00    -0.200 F 
ENDBRANCH  61  85
BRANCH  73  96
ATOM     96  C   UNL A   1      45.593  32.707  29.264  1.00  0.00     0.064 A 
ATOM     97  C   UNL A   1      46.156  32.976  30.520  1.00  0.00     0.173 A 
ATOM     98  C   UNL A   1      45.417  33.786  28.383  1.00  0.00     0.173 A 
ATOM     99  F   UNL A   1      46.333  31.985  31.407  1.00  0.00    -0.203 F 
ATOM    100  C   UNL A   1      46.513  34.273  30.884  1.00  0.00     0.198 A 
ATOM    101  C   UNL A   1      45.803  35.076  28.737  1.00  0.00     0.198 A 
ATOM    102  F   UNL A   1      44.890  33.584  27.165  1.00  0.00    -0.203 F 
ATOM    103  F   UNL A   1      47.014  34.511  32.104  1.00  0.00    -0.200 F 
ATOM    104  C   UNL A   1      46.346  35.320  29.989  1.00  0.00     0.200 A 
ATOM    105  F   UNL A   1      45.656  36.082  27.864  1.00  0.00    -0.200 F 
ATOM    106  F   UNL A   1      46.704  36.564  30.335  1.00  0.00    -0.200 F 
ENDBRANCH  73  96
ENDBRANCH  47  48
ENDBRANCH  40  42
ENDBRANCH  39  40
ENDBRANCH  38  39
ENDBRANCH  37  38
ENDBRANCH  36  37
ENDBRANCH  35  36
ENDBRANCH   1  35
TORSDOF 23
ENDMDL
MODEL 3
REMARK VINA RESULT:     -11.2      2.823      4.776
REMARK SMILES O=C(C[C@@H](C(=O)OCCOCCOCCOC(=O)c1ccc(-c2c3nc(c(-c4c(F)c(F)c(F)c(F)c4F)c4ccc([nH]4)c(-c4c(F)c(F)c(F)c(F)c4F)c4nc(c(-c5c(F)c(F)c(F)c(F)c5F)c5ccc2[nH]5)C=C4)C=C3)cc1)c1ccccc1)Nc1cc(C(F)(F)F)ccc1-n1cncn1
REMARK SMILES IDX 11 1 10 2 9 3 8 4 7 5 5 6 6 7 4 8 3 9 2 10 1 11 88 12 89 14
REMARK SMILES IDX 90 15 98 16 91 17 97 18 96 19 99 20 100 21 103 22 101 23
REMARK SMILES IDX 102 24 92 25 93 26 94 27 95 28 82 29 83 30 87 31 84 32 86 33
REMARK SMILES IDX 85 34 12 35 13 36 14 37 15 38 16 39 17 40 18 41 19 42 20 43
REMARK SMILES IDX 81 44 21 45 80 46 22 47 23 48 24 49 74 50 25 51 79 52 73 53
REMARK SMILES IDX 75 54 26 55 78 56 72 57 71 58 27 60 59 61 39 62 58 63 40 64
REMARK SMILES IDX 43 65 57 66 76 67 41 68 42 69 56 71 77 72 44 73 28 74 29 75
REMARK SMILES IDX 37 76 30 77 31 78 35 79 38 80 32 81 33 82 36 83 34 84 60 85
REMARK SMILES IDX 61 86 69 87 62 88 63 89 67 90 70 91 64 92 65 93 68 94 66 95
REMARK SMILES IDX 45 96 46 97 54 98 47 99 48 100 52 101 55 102 49 103 50 104
REMARK SMILES IDX 53 105 51 106
REMARK H PARENT 88 13 75 59 43 70
REMARK Flexibility Score: inf
ROOT
ATOM      1  C   UNL A   1      35.692  21.393  25.548  1.00  0.00     0.188 C 
ENDROOT
BRANCH   1   2
ATOM      2  O   UNL A   1      35.729  22.202  26.716  1.00  0.00    -0.376 OA
BRANCH   2   3
ATOM      3  C   UNL A   1      34.629  23.098  26.901  1.00  0.00     0.202 C 
BRANCH   3   4
ATOM      4  C   UNL A   1      33.444  22.539  27.706  1.00  0.00     0.261 C 
BRANCH   4   5
ATOM      5  O   UNL A   1      32.329  23.469  27.782  1.00  0.00    -0.463 OA
BRANCH   5   6
ATOM      6  C   UNL A   1      31.235  23.134  27.036  1.00  0.00     0.314 C 
ATOM      7  O   UNL A   1      30.215  22.654  27.522  1.00  0.00    -0.252 OA
BRANCH   6   8
ATOM      8  C   UNL A   1      31.346  23.522  25.550  1.00  0.00     0.138 C 
BRANCH   8   9
ATOM      9  C   UNL A   1      30.154  24.301  24.982  1.00  0.00     0.120 C 
BRANCH   9  10
ATOM     10  C   UNL A   1      30.316  25.785  24.792  1.00  0.00     0.225 C 
ATOM     11  O   UNL A   1      31.070  26.448  25.495  1.00  0.00    -0.275 OA
ATOM     12  N   UNL A   1      29.599  26.272  23.716  1.00  0.00    -0.324 N 
ATOM     13  H   UNL A   1      28.899  25.699  23.324  1.00  0.00     0.170 HD
BRANCH  12  14
ATOM     14  C   UNL A   1      29.814  27.538  23.147  1.00  0.00     0.067 A 
ATOM     15  C   UNL A   1      28.783  28.465  23.332  1.00  0.00     0.041 A 
ATOM     16  C   UNL A   1      30.985  27.927  22.475  1.00  0.00     0.090 A 
ATOM     17  C   UNL A   1      28.927  29.798  22.924  1.00  0.00     0.058 A 
ATOM     18  C   UNL A   1      31.150  29.268  22.092  1.00  0.00     0.031 A 
ATOM     19  C   UNL A   1      30.125  30.193  22.312  1.00  0.00     0.015 A 
BRANCH  16  20
ATOM     20  N   UNL A   1      31.953  26.985  22.042  1.00  0.00    -0.219 N 
ATOM     21  C   UNL A   1      33.296  26.941  22.352  1.00  0.00     0.226 A 
ATOM     22  N   UNL A   1      31.635  25.870  21.337  1.00  0.00    -0.155 NA
ATOM     23  N   UNL A   1      33.886  25.953  21.723  1.00  0.00    -0.223 NA
ATOM     24  C   UNL A   1      32.841  25.350  21.091  1.00  0.00     0.246 A 
ENDBRANCH  16  20
BRANCH  17  25
ATOM     25  C   UNL A   1      27.806  30.771  23.193  1.00  0.00     0.416 C 
ATOM     26  F   UNL A   1      27.204  31.185  22.041  1.00  0.00    -0.166 F 
ATOM     27  F   UNL A   1      26.816  30.224  23.950  1.00  0.00    -0.166 F 
ATOM     28  F   UNL A   1      28.199  31.901  23.838  1.00  0.00    -0.166 F 
ENDBRANCH  17  25
ENDBRANCH  12  14
ENDBRANCH   9  10
ENDBRANCH   8   9
BRANCH   8  29
ATOM     29  C   UNL A   1      31.756  22.350  24.625  1.00  0.00    -0.033 A 
ATOM     30  C   UNL A   1      32.008  21.055  25.127  1.00  0.00     0.004 A 
ATOM     31  C   UNL A   1      31.796  22.506  23.228  1.00  0.00     0.004 A 
ATOM     32  C   UNL A   1      32.305  19.981  24.282  1.00  0.00     0.000 A 
ATOM     33  C   UNL A   1      32.108  21.432  22.383  1.00  0.00     0.000 A 
ATOM     34  C   UNL A   1      32.364  20.170  22.909  1.00  0.00     0.000 A 
ENDBRANCH   8  29
ENDBRANCH   6   8
ENDBRANCH   5   6
ENDBRANCH   4   5
ENDBRANCH   3   4
ENDBRANCH   2   3
ENDBRANCH   1   2
BRANCH   1  35
ATOM     35  C   UNL A   1      36.843  21.602  24.560  1.00  0.00     0.188 C 
BRANCH  35  36
ATOM     36  O   UNL A   1      38.156  21.400  25.065  1.00  0.00    -0.376 OA
BRANCH  36  37
ATOM     37  C   UNL A   1      38.517  20.033  25.328  1.00  0.00     0.202 C 
BRANCH  37  38
ATOM     38  C   UNL A   1      39.826  19.783  26.119  1.00  0.00     0.261 C 
BRANCH  38  39
ATOM     39  O   UNL A   1      40.919  19.175  25.392  1.00  0.00    -0.460 OA
BRANCH  39  40
ATOM     40  C   UNL A   1      42.120  19.075  26.014  1.00  0.00     0.338 C 
ATOM     41  O   UNL A   1      42.857  18.104  26.009  1.00  0.00    -0.246 OA
BRANCH  40  42
ATOM     42  C   UNL A   1      42.548  20.447  26.413  1.00  0.00     0.060 A 
ATOM     43  C   UNL A   1      42.833  21.368  25.394  1.00  0.00     0.016 A 
ATOM     44  C   UNL A   1      42.546  20.873  27.746  1.00  0.00     0.016 A 
ATOM     45  C   UNL A   1      43.119  22.703  25.701  1.00  0.00     0.010 A 
ATOM     46  C   UNL A   1      42.854  22.206  28.053  1.00  0.00     0.010 A 
ATOM     47  C   UNL A   1      43.155  23.128  27.033  1.00  0.00    -0.014 A 
BRANCH  47  48
ATOM     48  C   UNL A   1      43.674  24.479  27.375  1.00  0.00     0.031 A 
ATOM     49  C   UNL A   1      42.704  25.505  27.891  1.00  0.00     0.074 A 
ATOM     50  C   UNL A   1      44.973  24.806  27.244  1.00  0.00     0.049 A 
ATOM     51  N   UNL A   1      42.888  26.773  28.156  1.00  0.00    -0.248 NA
ATOM     52  C   UNL A   1      41.336  25.027  28.146  1.00  0.00     0.031 C 
ATOM     53  C   UNL A   1      46.036  23.900  26.819  1.00  0.00     0.029 A 
ATOM     54  N   UNL A   1      45.612  26.009  27.440  1.00  0.00    -0.354 N 
ATOM     55  C   UNL A   1      41.659  27.247  28.595  1.00  0.00     0.074 A 
ATOM     56  C   UNL A   1      40.733  26.137  28.542  1.00  0.00     0.031 C 
ATOM     57  C   UNL A   1      47.191  24.587  26.752  1.00  0.00     0.029 A 
ATOM     58  C   UNL A   1      46.940  25.990  27.090  1.00  0.00     0.049 A 
ATOM     59  H   UNL A   1      45.161  26.808  27.796  1.00  0.00     0.167 HD
ATOM     60  C   UNL A   1      41.329  28.496  29.004  1.00  0.00     0.037 A 
ATOM     61  C   UNL A   1      47.838  26.994  27.009  1.00  0.00     0.037 A 
ATOM     62  C   UNL A   1      42.242  29.607  29.047  1.00  0.00     0.049 A 
ATOM     63  C   UNL A   1      47.425  28.402  27.370  1.00  0.00     0.074 A 
ATOM     64  C   UNL A   1      42.000  30.905  29.464  1.00  0.00     0.029 A 
ATOM     65  N   UNL A   1      43.567  29.557  28.644  1.00  0.00    -0.354 N 
ATOM     66  N   UNL A   1      46.267  28.843  27.798  1.00  0.00    -0.248 NA
ATOM     67  C   UNL A   1      48.446  29.453  27.231  1.00  0.00     0.031 C 
ATOM     68  C   UNL A   1      43.162  31.655  29.251  1.00  0.00     0.029 A 
ATOM     69  C   UNL A   1      44.146  30.810  28.762  1.00  0.00     0.049 A 
ATOM     70  H   UNL A   1      44.029  28.749  28.320  1.00  0.00     0.167 HD
ATOM     71  C   UNL A   1      46.423  30.210  27.996  1.00  0.00     0.074 A 
ATOM     72  C   UNL A   1      47.794  30.526  27.657  1.00  0.00     0.031 C 
ATOM     73  C   UNL A   1      45.512  31.121  28.420  1.00  0.00     0.037 A 
BRANCH  60  74
ATOM     74  C   UNL A   1      39.898  28.731  29.392  1.00  0.00     0.064 A 
ATOM     75  C   UNL A   1      39.442  28.529  30.703  1.00  0.00     0.173 A 
ATOM     76  C   UNL A   1      38.971  29.168  28.433  1.00  0.00     0.173 A 
ATOM     77  F   UNL A   1      40.284  28.095  31.652  1.00  0.00    -0.203 F 
ATOM     78  C   UNL A   1      38.101  28.719  31.031  1.00  0.00     0.198 A 
ATOM     79  C   UNL A   1      37.640  29.389  28.772  1.00  0.00     0.198 A 
ATOM     80  F   UNL A   1      39.357  29.380  27.166  1.00  0.00    -0.203 F 
ATOM     81  F   UNL A   1      37.674  28.460  32.274  1.00  0.00    -0.200 F 
ATOM     82  C   UNL A   1      37.204  29.154  30.067  1.00  0.00     0.200 A 
ATOM     83  F   UNL A   1      36.776  29.820  27.842  1.00  0.00    -0.200 F 
ATOM     84  F   UNL A   1      35.914  29.334  30.384  1.00  0.00    -0.200 F 
ENDBRANCH  60  74
BRANCH  61  85
ATOM     85  C   UNL A   1      49.213  26.719  26.513  1.00  0.00     0.064 A 
ATOM     86  C   UNL A   1      49.532  26.815  25.151  1.00  0.00     0.173 A 
ATOM     87  C   UNL A   1      50.235  26.329  27.394  1.00  0.00     0.173 A 
ATOM     88  F   UNL A   1      48.584  27.149  24.264  1.00  0.00    -0.203 F 
ATOM     89  C   UNL A   1      50.815  26.524  24.689  1.00  0.00     0.198 A 
ATOM     90  C   UNL A   1      51.524  26.066  26.935  1.00  0.00     0.198 A 
ATOM     91  F   UNL A   1      49.980  26.208  28.705  1.00  0.00    -0.203 F 
ATOM     92  F   UNL A   1      51.081  26.579  23.377  1.00  0.00    -0.200 F 
ATOM     93  C   UNL A   1      51.812  26.158  25.582  1.00  0.00     0.200 A 
ATOM     94  F   UNL A   1      52.484  25.722  27.803  1.00  0.00    -0.200 F 
ATOM     95  F   UNL A   1      53.046  25.885  25.138  1.00  0.00    -0.200 F 
ENDBRANCH  61  85
BRANCH  73  96
ATOM     96  C   UNL A   1      45.961  32.548  28.567  1.00  0.00     0.064 A 
ATOM     97  C   UNL A   1      46.579  33.009  29.738  1.00  0.00     0.173 A 
ATOM     98  C   UNL A   1      45.830  33.450  27.499  1.00  0.00     0.173 A 
ATOM     99  F   UNL A   1      46.718  32.193  30.795  1.00  0.00    -0.203 F 
ATOM    100  C   UNL A   1      47.034  34.322  29.841  1.00  0.00     0.198 A 
ATOM    101  C   UNL A   1      46.313  34.752  27.593  1.00  0.00     0.198 A 
ATOM    102  F   UNL A   1      45.253  33.060  26.352  1.00  0.00    -0.203 F 
ATOM    103  F   UNL A   1      47.588  34.750  30.984  1.00  0.00    -0.200 F 
ATOM    104  C   UNL A   1      46.910  35.189  28.765  1.00  0.00     0.200 A 
ATOM    105  F   UNL A   1      46.207  35.583  26.547  1.00  0.00    -0.200 F 
ATOM    106  F   UNL A   1      47.362  36.447  28.861  1.00  0.00    -0.200 F 
ENDBRANCH  73  96
ENDBRANCH  47  48
ENDBRANCH  40  42
ENDBRANCH  39  40
ENDBRANCH  38  39
ENDBRANCH  37  38
ENDBRANCH  36  37
ENDBRANCH  35  36
ENDBRANCH   1  35
TORSDOF 23
ENDMDL
