MODEL 1
REMARK VINA RESULT:     -10.8      0.000      0.000
REMARK SMILES [NH3+]C[C@@]1([C@@H](O)C(=O)OCCOCCOCCOC(=O)c2ccc(-c3c4nc(c(-c5c(F)c(F)c(F)c(F)c5F)c5ccc([nH]5)c(-c5c(F)c(F)c(F)c(F)c5F)c5nc(c(-c6c(F)c(F)c(F)c(F)c6F)c6ccc3[nH]6)C=C5)C=C4)cc2)CCOc2ccccc21
REMARK SMILES IDX 12 1 11 2 10 3 9 4 8 5 6 6 7 7 4 8 3 9 83 10 91 11 84 12
REMARK SMILES IDX 86 13 90 14 85 15 87 16 89 17 88 18 2 19 1 20 5 24 13 26
REMARK SMILES IDX 14 27 15 28 16 29 17 30 18 31 19 32 20 33 21 34 82 35 22 36
REMARK SMILES IDX 81 37 23 38 24 39 25 40 75 41 26 42 80 43 74 44 76 45 27 46
REMARK SMILES IDX 79 47 73 48 72 49 28 51 60 52 40 53 59 54 41 55 44 56 58 57
REMARK SMILES IDX 77 58 42 59 43 60 57 62 78 63 45 64 29 65 30 66 38 67 31 68
REMARK SMILES IDX 32 69 36 70 39 71 33 72 34 73 37 74 35 75 61 76 62 77 70 78
REMARK SMILES IDX 63 79 64 80 68 81 71 82 65 83 66 84 69 85 67 86 46 87 47 88
REMARK SMILES IDX 55 89 48 90 49 91 53 92 56 93 50 94 51 95 54 96 52 97
REMARK H PARENT 1 21 1 22 1 23 5 25 76 50 44 61
REMARK Flexibility Score: inf
ROOT
ATOM      1  C   UNL A   1      39.541  21.060  26.198  1.00  0.00     0.188 C 
ENDROOT
BRANCH   1   2
ATOM      2  O   UNL A   1      38.497  21.584  25.390  1.00  0.00    -0.376 OA
BRANCH   2   3
ATOM      3  C   UNL A   1      37.536  20.663  24.877  1.00  0.00     0.202 C 
BRANCH   3   4
ATOM      4  C   UNL A   1      36.080  20.830  25.347  1.00  0.00     0.261 C 
BRANCH   4   5
ATOM      5  O   UNL A   1      35.401  22.002  24.821  1.00  0.00    -0.461 OA
BRANCH   5   6
ATOM      6  C   UNL A   1      35.196  23.022  25.682  1.00  0.00     0.336 C 
ATOM      7  O   UNL A   1      36.114  23.702  26.148  1.00  0.00    -0.249 OA
BRANCH   6   8
ATOM      8  C   UNL A   1      33.727  23.480  25.923  1.00  0.00     0.240 C 
BRANCH   8   9
ATOM      9  C   UNL A   1      32.791  24.369  24.974  1.00  0.00     0.088 C 
ATOM     10  C   UNL A   1      32.685  23.776  23.550  1.00  0.00     0.063 C 
ATOM     11  C   UNL A   1      33.302  25.828  24.883  1.00  0.00     0.009 A 
ATOM     12  C   UNL A   1      32.257  24.770  22.484  1.00  0.00     0.231 C 
ATOM     13  C   UNL A   1      33.327  26.511  23.659  1.00  0.00     0.123 A 
ATOM     14  C   UNL A   1      33.617  26.561  26.048  1.00  0.00     0.008 A 
ATOM     15  O   UNL A   1      33.073  25.933  22.450  1.00  0.00    -0.493 OA
ATOM     16  C   UNL A   1      33.656  27.871  23.602  1.00  0.00     0.047 A 
ATOM     17  C   UNL A   1      33.942  27.920  25.989  1.00  0.00     0.001 A 
ATOM     18  C   UNL A   1      33.949  28.580  24.766  1.00  0.00     0.004 A 
BRANCH   9  19
ATOM     19  C   UNL A   1      31.339  24.484  25.617  1.00  0.00     0.274 C 
BRANCH  19  20
ATOM     20  N   UNL A   1      30.355  23.414  25.386  1.00  0.00    -0.357 N 
ATOM     21  H   UNL A   1      29.469  23.664  25.825  1.00  0.00     0.344 HD
ATOM     22  H   UNL A   1      30.699  22.542  25.788  1.00  0.00     0.344 HD
ATOM     23  H   UNL A   1      30.214  23.293  24.383  1.00  0.00     0.344 HD
ENDBRANCH  19  20
ENDBRANCH   9  19
ENDBRANCH   8   9
BRANCH   8  24
ATOM     24  O   UNL A   1      33.048  22.234  26.245  1.00  0.00    -0.380 OA
ATOM     25  H   UNL A   1      33.612  21.699  26.825  1.00  0.00     0.211 HD
ENDBRANCH   8  24
ENDBRANCH   6   8
ENDBRANCH   5   6
ENDBRANCH   4   5
ENDBRANCH   3   4
ENDBRANCH   2   3
ENDBRANCH   1   2
BRANCH   1  26
ATOM     26  C   UNL A   1      40.029  19.630  25.920  1.00  0.00     0.188 C 
BRANCH  26  27
ATOM     27  O   UNL A   1      41.432  19.501  25.808  1.00  0.00    -0.376 OA
BRANCH  27  28
ATOM     28  C   UNL A   1      42.230  20.375  26.591  1.00  0.00     0.202 C 
BRANCH  28  29
ATOM     29  C   UNL A   1      43.079  21.367  25.774  1.00  0.00     0.261 C 
BRANCH  29  30
ATOM     30  O   UNL A   1      42.419  22.589  25.396  1.00  0.00    -0.460 OA
BRANCH  30  31
ATOM     31  C   UNL A   1      43.198  23.690  25.258  1.00  0.00     0.338 C 
ATOM     32  O   UNL A   1      44.093  23.864  24.460  1.00  0.00    -0.246 OA
BRANCH  31  33
ATOM     33  C   UNL A   1      42.604  24.751  26.112  1.00  0.00     0.060 A 
ATOM     34  C   UNL A   1      42.811  26.096  25.774  1.00  0.00     0.016 A 
ATOM     35  C   UNL A   1      41.816  24.424  27.210  1.00  0.00     0.016 A 
ATOM     36  C   UNL A   1      42.287  27.126  26.555  1.00  0.00     0.010 A 
ATOM     37  C   UNL A   1      41.297  25.451  28.001  1.00  0.00     0.010 A 
ATOM     38  C   UNL A   1      41.562  26.803  27.700  1.00  0.00    -0.014 A 
BRANCH  38  39
ATOM     39  C   UNL A   1      41.261  27.825  28.730  1.00  0.00     0.031 A 
ATOM     40  C   UNL A   1      42.086  27.798  29.984  1.00  0.00     0.074 A 
ATOM     41  C   UNL A   1      40.258  28.708  28.595  1.00  0.00     0.049 A 
ATOM     42  N   UNL A   1      41.859  28.350  31.145  1.00  0.00    -0.248 NA
ATOM     43  C   UNL A   1      43.331  27.014  29.916  1.00  0.00     0.031 C 
ATOM     44  C   UNL A   1      39.450  28.904  27.395  1.00  0.00     0.029 A 
ATOM     45  N   UNL A   1      39.724  29.582  29.511  1.00  0.00    -0.354 N 
ATOM     46  C   UNL A   1      42.905  27.939  31.960  1.00  0.00     0.074 A 
ATOM     47  C   UNL A   1      43.762  27.088  31.165  1.00  0.00     0.031 C 
ATOM     48  C   UNL A   1      38.493  29.812  27.660  1.00  0.00     0.029 A 
ATOM     49  C   UNL A   1      38.583  30.205  29.067  1.00  0.00     0.049 A 
ATOM     50  H   UNL A   1      40.118  29.745  30.399  1.00  0.00     0.167 HD
ATOM     51  C   UNL A   1      43.119  28.239  33.262  1.00  0.00     0.037 A 
ATOM     52  C   UNL A   1      37.686  30.955  29.740  1.00  0.00     0.037 A 
ATOM     53  C   UNL A   1      42.261  29.095  34.034  1.00  0.00     0.049 A 
ATOM     54  C   UNL A   1      37.889  31.202  31.216  1.00  0.00     0.074 A 
ATOM     55  C   UNL A   1      42.386  29.473  35.359  1.00  0.00     0.029 A 
ATOM     56  N   UNL A   1      41.112  29.702  33.549  1.00  0.00    -0.354 N 
ATOM     57  N   UNL A   1      38.860  30.795  31.999  1.00  0.00    -0.248 NA
ATOM     58  C   UNL A   1      36.866  32.003  31.905  1.00  0.00     0.031 C 
ATOM     59  C   UNL A   1      41.280  30.258  35.692  1.00  0.00     0.029 A 
ATOM     60  C   UNL A   1      40.506  30.435  34.555  1.00  0.00     0.049 A 
ATOM     61  H   UNL A   1      40.778  29.625  32.626  1.00  0.00     0.167 HD
ATOM     62  C   UNL A   1      38.591  31.329  33.255  1.00  0.00     0.074 A 
ATOM     63  C   UNL A   1      37.361  32.082  33.133  1.00  0.00     0.031 C 
ATOM     64  C   UNL A   1      39.302  31.212  34.403  1.00  0.00     0.037 A 
BRANCH  51  65
ATOM     65  C   UNL A   1      44.294  27.599  33.940  1.00  0.00     0.064 A 
ATOM     66  C   UNL A   1      44.207  26.340  34.550  1.00  0.00     0.173 A 
ATOM     67  C   UNL A   1      45.536  28.252  33.958  1.00  0.00     0.173 A 
ATOM     68  F   UNL A   1      43.038  25.681  34.578  1.00  0.00    -0.203 F 
ATOM     69  C   UNL A   1      45.313  25.771  35.177  1.00  0.00     0.198 A 
ATOM     70  C   UNL A   1      46.648  27.665  34.554  1.00  0.00     0.198 A 
ATOM     71  F   UNL A   1      45.675  29.460  33.389  1.00  0.00    -0.203 F 
ATOM     72  F   UNL A   1      45.192  24.591  35.802  1.00  0.00    -0.200 F 
ATOM     73  C   UNL A   1      46.533  26.428  35.171  1.00  0.00     0.200 A 
ATOM     74  F   UNL A   1      47.829  28.296  34.533  1.00  0.00    -0.200 F 
ATOM     75  F   UNL A   1      47.598  25.874  35.767  1.00  0.00    -0.200 F 
ENDBRANCH  51  65
BRANCH  52  76
ATOM     76  C   UNL A   1      36.489  31.496  29.041  1.00  0.00     0.064 A 
ATOM     77  C   UNL A   1      36.387  32.861  28.740  1.00  0.00     0.173 A 
ATOM     78  C   UNL A   1      35.412  30.670  28.683  1.00  0.00     0.173 A 
ATOM     79  F   UNL A   1      37.376  33.698  29.086  1.00  0.00    -0.203 F 
ATOM     80  C   UNL A   1      35.248  33.382  28.129  1.00  0.00     0.198 A 
ATOM     81  C   UNL A   1      34.287  31.187  28.043  1.00  0.00     0.198 A 
ATOM     82  F   UNL A   1      35.453  29.357  28.953  1.00  0.00    -0.203 F 
ATOM     83  F   UNL A   1      35.156  34.700  27.904  1.00  0.00    -0.200 F 
ATOM     84  C   UNL A   1      34.202  32.544  27.775  1.00  0.00     0.200 A 
ATOM     85  F   UNL A   1      33.284  30.371  27.692  1.00  0.00    -0.200 F 
ATOM     86  F   UNL A   1      33.108  33.046  27.186  1.00  0.00    -0.200 F 
ENDBRANCH  52  76
BRANCH  64  87
ATOM     87  C   UNL A   1      38.836  31.978  35.607  1.00  0.00     0.064 A 
ATOM     88  C   UNL A   1      38.145  31.364  36.660  1.00  0.00     0.173 A 
ATOM     89  C   UNL A   1      39.185  33.331  35.751  1.00  0.00     0.173 A 
ATOM     90  F   UNL A   1      37.778  30.077  36.568  1.00  0.00    -0.203 F 
ATOM     91  C   UNL A   1      37.817  32.077  37.811  1.00  0.00     0.198 A 
ATOM     92  C   UNL A   1      38.884  34.031  36.914  1.00  0.00     0.198 A 
ATOM     93  F   UNL A   1      39.854  33.963  34.774  1.00  0.00    -0.203 F 
ATOM     94  F   UNL A   1      37.134  31.478  38.796  1.00  0.00    -0.200 F 
ATOM     95  C   UNL A   1      38.198  33.404  37.943  1.00  0.00     0.200 A 
ATOM     96  F   UNL A   1      39.272  35.307  37.046  1.00  0.00    -0.200 F 
ATOM     97  F   UNL A   1      37.906  34.080  39.063  1.00  0.00    -0.200 F 
ENDBRANCH  64  87
ENDBRANCH  38  39
ENDBRANCH  31  33
ENDBRANCH  30  31
ENDBRANCH  29  30
ENDBRANCH  28  29
ENDBRANCH  27  28
ENDBRANCH  26  27
ENDBRANCH   1  26
TORSDOF 21
ENDMDL
MODEL 2
REMARK VINA RESULT:     -10.8      3.068      8.124
REMARK SMILES [NH3+]C[C@@]1([C@@H](O)C(=O)OCCOCCOCCOC(=O)c2ccc(-c3c4nc(c(-c5c(F)c(F)c(F)c(F)c5F)c5ccc([nH]5)c(-c5c(F)c(F)c(F)c(F)c5F)c5nc(c(-c6c(F)c(F)c(F)c(F)c6F)c6ccc3[nH]6)C=C5)C=C4)cc2)CCOc2ccccc21
REMARK SMILES IDX 12 1 11 2 10 3 9 4 8 5 6 6 7 7 4 8 3 9 83 10 91 11 84 12
REMARK SMILES IDX 86 13 90 14 85 15 87 16 89 17 88 18 2 19 1 20 5 24 13 26
REMARK SMILES IDX 14 27 15 28 16 29 17 30 18 31 19 32 20 33 21 34 82 35 22 36
REMARK SMILES IDX 81 37 23 38 24 39 25 40 75 41 26 42 80 43 74 44 76 45 27 46
REMARK SMILES IDX 79 47 73 48 72 49 28 51 60 52 40 53 59 54 41 55 44 56 58 57
REMARK SMILES IDX 77 58 42 59 43 60 57 62 78 63 45 64 29 65 30 66 38 67 31 68
REMARK SMILES IDX 32 69 36 70 39 71 33 72 34 73 37 74 35 75 61 76 62 77 70 78
REMARK SMILES IDX 63 79 64 80 68 81 71 82 65 83 66 84 69 85 67 86 46 87 47 88
REMARK SMILES IDX 55 89 48 90 49 91 53 92 56 93 50 94 51 95 54 96 52 97
REMARK H PARENT 1 21 1 22 1 23 5 25 76 50 44 61
REMARK Flexibility Score: inf
ROOT
ATOM      1  C   UNL A   1      31.240  27.171  22.433  1.00  0.00     0.188 C 
ENDROOT
BRANCH   1   2
ATOM      2  O   UNL A   1      30.174  26.563  23.147  1.00  0.00    -0.376 OA
BRANCH   2   3
ATOM      3  C   UNL A   1      30.481  25.419  23.941  1.00  0.00     0.202 C 
BRANCH   3   4
ATOM      4  C   UNL A   1      30.227  25.521  25.455  1.00  0.00     0.261 C 
BRANCH   4   5
ATOM      5  O   UNL A   1      31.264  24.934  26.287  1.00  0.00    -0.461 OA
BRANCH   5   6
ATOM      6  C   UNL A   1      30.966  23.761  26.889  1.00  0.00     0.336 C 
ATOM      7  O   UNL A   1      29.844  23.501  27.334  1.00  0.00    -0.249 OA
BRANCH   6   8
ATOM      8  C   UNL A   1      32.029  22.625  26.825  1.00  0.00     0.240 C 
BRANCH   8   9
ATOM      9  C   UNL A   1      33.413  22.598  26.018  1.00  0.00     0.088 C 
ATOM     10  C   UNL A   1      34.367  23.728  26.472  1.00  0.00     0.063 C 
ATOM     11  C   UNL A   1      33.179  22.711  24.491  1.00  0.00     0.009 A 
ATOM     12  C   UNL A   1      35.444  24.086  25.463  1.00  0.00     0.231 C 
ATOM     13  C   UNL A   1      33.989  23.530  23.693  1.00  0.00     0.123 A 
ATOM     14  C   UNL A   1      32.241  21.883  23.837  1.00  0.00     0.008 A 
ATOM     15  O   UNL A   1      34.920  24.401  24.179  1.00  0.00    -0.493 OA
ATOM     16  C   UNL A   1      33.867  23.523  22.298  1.00  0.00     0.047 A 
ATOM     17  C   UNL A   1      32.121  21.875  22.444  1.00  0.00     0.001 A 
ATOM     18  C   UNL A   1      32.944  22.686  21.671  1.00  0.00     0.004 A 
BRANCH   9  19
ATOM     19  C   UNL A   1      34.119  21.186  26.219  1.00  0.00     0.274 C 
BRANCH  19  20
ATOM     20  N   UNL A   1      33.305  20.012  26.579  1.00  0.00    -0.357 N 
ATOM     21  H   UNL A   1      33.836  19.161  26.397  1.00  0.00     0.344 HD
ATOM     22  H   UNL A   1      32.452  20.006  26.021  1.00  0.00     0.344 HD
ATOM     23  H   UNL A   1      33.064  20.058  27.569  1.00  0.00     0.344 HD
ENDBRANCH  19  20
ENDBRANCH   9  19
ENDBRANCH   8   9
BRANCH   8  24
ATOM     24  O   UNL A   1      32.281  22.337  28.228  1.00  0.00    -0.380 OA
ATOM     25  H   UNL A   1      31.446  22.376  28.721  1.00  0.00     0.211 HD
ENDBRANCH   8  24
ENDBRANCH   6   8
ENDBRANCH   5   6
ENDBRANCH   4   5
ENDBRANCH   3   4
ENDBRANCH   2   3
ENDBRANCH   1   2
BRANCH   1  26
ATOM     26  C   UNL A   1      32.030  28.295  23.121  1.00  0.00     0.188 C 
BRANCH  26  27
ATOM     27  O   UNL A   1      31.232  29.220  23.833  1.00  0.00    -0.376 OA
BRANCH  27  28
ATOM     28  C   UNL A   1      31.431  29.307  25.236  1.00  0.00     0.202 C 
BRANCH  28  29
ATOM     29  C   UNL A   1      32.739  30.003  25.652  1.00  0.00     0.261 C 
BRANCH  29  30
ATOM     30  O   UNL A   1      32.868  30.302  27.055  1.00  0.00    -0.460 OA
BRANCH  30  31
ATOM     31  C   UNL A   1      33.436  31.490  27.380  1.00  0.00     0.338 C 
ATOM     32  O   UNL A   1      32.894  32.571  27.443  1.00  0.00    -0.246 OA
BRANCH  31  33
ATOM     33  C   UNL A   1      34.803  31.193  27.880  1.00  0.00     0.060 A 
ATOM     34  C   UNL A   1      35.130  29.877  28.236  1.00  0.00     0.016 A 
ATOM     35  C   UNL A   1      35.766  32.193  27.958  1.00  0.00     0.016 A 
ATOM     36  C   UNL A   1      36.395  29.554  28.726  1.00  0.00     0.010 A 
ATOM     37  C   UNL A   1      37.031  31.878  28.457  1.00  0.00     0.010 A 
ATOM     38  C   UNL A   1      37.339  30.568  28.879  1.00  0.00    -0.014 A 
BRANCH  38  39
ATOM     39  C   UNL A   1      38.566  30.357  29.681  1.00  0.00     0.031 A 
ATOM     40  C   UNL A   1      39.592  29.411  29.129  1.00  0.00     0.074 A 
ATOM     41  C   UNL A   1      38.748  30.930  30.883  1.00  0.00     0.049 A 
ATOM     42  N   UNL A   1      40.587  28.815  29.727  1.00  0.00    -0.248 NA
ATOM     43  C   UNL A   1      39.452  29.075  27.701  1.00  0.00     0.031 C 
ATOM     44  C   UNL A   1      37.882  31.939  31.486  1.00  0.00     0.029 A 
ATOM     45  N   UNL A   1      39.716  30.702  31.831  1.00  0.00    -0.354 N 
ATOM     46  C   UNL A   1      41.161  27.996  28.764  1.00  0.00     0.074 A 
ATOM     47  C   UNL A   1      40.401  28.166  27.545  1.00  0.00     0.031 C 
ATOM     48  C   UNL A   1      38.333  32.214  32.723  1.00  0.00     0.029 A 
ATOM     49  C   UNL A   1      39.477  31.351  33.018  1.00  0.00     0.049 A 
ATOM     50  H   UNL A   1      40.502  30.129  31.676  1.00  0.00     0.167 HD
ATOM     51  C   UNL A   1      42.223  27.168  28.895  1.00  0.00     0.037 A 
ATOM     52  C   UNL A   1      40.078  31.213  34.218  1.00  0.00     0.037 A 
ATOM     53  C   UNL A   1      42.973  27.019  30.112  1.00  0.00     0.049 A 
ATOM     54  C   UNL A   1      41.200  30.213  34.371  1.00  0.00     0.074 A 
ATOM     55  C   UNL A   1      44.070  26.213  30.354  1.00  0.00     0.029 A 
ATOM     56  N   UNL A   1      42.696  27.690  31.294  1.00  0.00    -0.354 N 
ATOM     57  N   UNL A   1      41.730  29.417  33.473  1.00  0.00    -0.248 NA
ATOM     58  C   UNL A   1      41.801  30.085  35.708  1.00  0.00     0.031 C 
ATOM     59  C   UNL A   1      44.419  26.349  31.700  1.00  0.00     0.029 A 
ATOM     60  C   UNL A   1      43.588  27.299  32.276  1.00  0.00     0.049 A 
ATOM     61  H   UNL A   1      41.972  28.347  31.415  1.00  0.00     0.167 HD
ATOM     62  C   UNL A   1      42.753  28.733  34.122  1.00  0.00     0.074 A 
ATOM     63  C   UNL A   1      42.764  29.200  35.491  1.00  0.00     0.031 C 
ATOM     64  C   UNL A   1      43.609  27.806  33.625  1.00  0.00     0.037 A 
BRANCH  51  65
ATOM     65  C   UNL A   1      42.599  26.327  27.712  1.00  0.00     0.064 A 
ATOM     66  C   UNL A   1      41.972  25.104  27.436  1.00  0.00     0.173 A 
ATOM     67  C   UNL A   1      43.594  26.768  26.824  1.00  0.00     0.173 A 
ATOM     68  F   UNL A   1      41.029  24.627  28.263  1.00  0.00    -0.203 F 
ATOM     69  C   UNL A   1      42.345  24.340  26.333  1.00  0.00     0.198 A 
ATOM     70  C   UNL A   1      43.938  26.020  25.702  1.00  0.00     0.198 A 
ATOM     71  F   UNL A   1      44.226  27.931  27.040  1.00  0.00    -0.203 F 
ATOM     72  F   UNL A   1      41.770  23.148  26.121  1.00  0.00    -0.200 F 
ATOM     73  C   UNL A   1      43.320  24.802  25.462  1.00  0.00     0.200 A 
ATOM     74  F   UNL A   1      44.871  26.477  24.855  1.00  0.00    -0.200 F 
ATOM     75  F   UNL A   1      43.671  24.070  24.396  1.00  0.00    -0.200 F 
ENDBRANCH  51  65
BRANCH  52  76
ATOM     76  C   UNL A   1      39.610  32.008  35.385  1.00  0.00     0.064 A 
ATOM     77  C   UNL A   1      38.664  31.487  36.279  1.00  0.00     0.173 A 
ATOM     78  C   UNL A   1      40.075  33.311  35.619  1.00  0.00     0.173 A 
ATOM     79  F   UNL A   1      38.167  30.257  36.083  1.00  0.00    -0.203 F 
ATOM     80  C   UNL A   1      38.186  32.245  37.347  1.00  0.00     0.198 A 
ATOM     81  C   UNL A   1      39.621  34.056  36.706  1.00  0.00     0.198 A 
ATOM     82  F   UNL A   1      40.976  33.862  34.793  1.00  0.00    -0.203 F 
ATOM     83  F   UNL A   1      37.241  31.740  38.152  1.00  0.00    -0.200 F 
ATOM     84  C   UNL A   1      38.670  33.525  37.564  1.00  0.00     0.200 A 
ATOM     85  F   UNL A   1      40.100  35.289  36.919  1.00  0.00    -0.200 F 
ATOM     86  F   UNL A   1      38.211  34.252  38.592  1.00  0.00    -0.200 F 
ENDBRANCH  52  76
BRANCH  64  87
ATOM     87  C   UNL A   1      44.695  27.290  34.525  1.00  0.00     0.064 A 
ATOM     88  C   UNL A   1      44.552  26.107  35.262  1.00  0.00     0.173 A 
ATOM     89  C   UNL A   1      45.939  27.942  34.561  1.00  0.00     0.173 A 
ATOM     90  F   UNL A   1      43.381  25.453  35.271  1.00  0.00    -0.203 F 
ATOM     91  C   UNL A   1      45.614  25.598  36.007  1.00  0.00     0.198 A 
ATOM     92  C   UNL A   1      47.006  27.413  35.280  1.00  0.00     0.198 A 
ATOM     93  F   UNL A   1      46.129  29.073  33.866  1.00  0.00    -0.203 F 
ATOM     94  F   UNL A   1      45.449  24.478  36.725  1.00  0.00    -0.200 F 
ATOM     95  C   UNL A   1      46.842  26.242  36.004  1.00  0.00     0.200 A 
ATOM     96  F   UNL A   1      48.196  28.027  35.258  1.00  0.00    -0.200 F 
ATOM     97  F   UNL A   1      47.870  25.734  36.698  1.00  0.00    -0.200 F 
ENDBRANCH  64  87
ENDBRANCH  38  39
ENDBRANCH  31  33
ENDBRANCH  30  31
ENDBRANCH  29  30
ENDBRANCH  28  29
ENDBRANCH  27  28
ENDBRANCH  26  27
ENDBRANCH   1  26
TORSDOF 21
ENDMDL
MODEL 3
REMARK VINA RESULT:     -10.7      3.064      8.372
REMARK SMILES [NH3+]C[C@@]1([C@@H](O)C(=O)OCCOCCOCCOC(=O)c2ccc(-c3c4nc(c(-c5c(F)c(F)c(F)c(F)c5F)c5ccc([nH]5)c(-c5c(F)c(F)c(F)c(F)c5F)c5nc(c(-c6c(F)c(F)c(F)c(F)c6F)c6ccc3[nH]6)C=C5)C=C4)cc2)CCOc2ccccc21
REMARK SMILES IDX 12 1 11 2 10 3 9 4 8 5 6 6 7 7 4 8 3 9 83 10 91 11 84 12
REMARK SMILES IDX 86 13 90 14 85 15 87 16 89 17 88 18 2 19 1 20 5 24 13 26
REMARK SMILES IDX 14 27 15 28 16 29 17 30 18 31 19 32 20 33 21 34 82 35 22 36
REMARK SMILES IDX 81 37 23 38 24 39 25 40 75 41 26 42 80 43 74 44 76 45 27 46
REMARK SMILES IDX 79 47 73 48 72 49 28 51 60 52 40 53 59 54 41 55 44 56 58 57
REMARK SMILES IDX 77 58 42 59 43 60 57 62 78 63 45 64 29 65 30 66 38 67 31 68
REMARK SMILES IDX 32 69 36 70 39 71 33 72 34 73 37 74 35 75 61 76 62 77 70 78
REMARK SMILES IDX 63 79 64 80 68 81 71 82 65 83 66 84 69 85 67 86 46 87 47 88
REMARK SMILES IDX 55 89 48 90 49 91 53 92 56 93 50 94 51 95 54 96 52 97
REMARK H PARENT 1 21 1 22 1 23 5 25 76 50 44 61
REMARK Flexibility Score: inf
ROOT
ATOM      1  C   UNL A   1      30.288  27.854  22.744  1.00  0.00     0.188 C 
ENDROOT
BRANCH   1   2
ATOM      2  O   UNL A   1      29.737  26.937  23.678  1.00  0.00    -0.376 OA
BRANCH   2   3
ATOM      3  C   UNL A   1      30.523  26.611  24.823  1.00  0.00     0.202 C 
BRANCH   3   4
ATOM      4  C   UNL A   1      29.997  25.498  25.747  1.00  0.00     0.261 C 
BRANCH   4   5
ATOM      5  O   UNL A   1      30.557  24.182  25.492  1.00  0.00    -0.461 OA
BRANCH   5   6
ATOM      6  C   UNL A   1      31.551  23.776  26.313  1.00  0.00     0.336 C 
ATOM      7  O   UNL A   1      31.382  23.556  27.515  1.00  0.00    -0.249 OA
BRANCH   6   8
ATOM      8  C   UNL A   1      32.907  23.373  25.660  1.00  0.00     0.240 C 
BRANCH   8   9
ATOM      9  C   UNL A   1      33.216  22.142  24.682  1.00  0.00     0.088 C 
ATOM     10  C   UNL A   1      32.258  20.954  24.930  1.00  0.00     0.063 C 
ATOM     11  C   UNL A   1      34.680  21.657  24.831  1.00  0.00     0.009 A 
ATOM     12  C   UNL A   1      32.772  19.615  24.431  1.00  0.00     0.231 C 
ATOM     13  C   UNL A   1      34.989  20.290  24.866  1.00  0.00     0.123 A 
ATOM     14  C   UNL A   1      35.755  22.571  24.788  1.00  0.00     0.008 A 
ATOM     15  O   UNL A   1      34.062  19.293  24.936  1.00  0.00    -0.493 OA
ATOM     16  C   UNL A   1      36.320  19.854  24.858  1.00  0.00     0.047 A 
ATOM     17  C   UNL A   1      37.084  22.133  24.777  1.00  0.00     0.001 A 
ATOM     18  C   UNL A   1      37.367  20.773  24.800  1.00  0.00     0.004 A 
BRANCH   9  19
ATOM     19  C   UNL A   1      33.097  22.622  23.170  1.00  0.00     0.274 C 
BRANCH  19  20
ATOM     20  N   UNL A   1      31.919  23.397  22.744  1.00  0.00    -0.357 N 
ATOM     21  H   UNL A   1      32.223  24.263  22.299  1.00  0.00     0.344 HD
ATOM     22  H   UNL A   1      31.344  23.616  23.557  1.00  0.00     0.344 HD
ATOM     23  H   UNL A   1      31.374  22.847  22.080  1.00  0.00     0.344 HD
ENDBRANCH  19  20
ENDBRANCH   9  19
ENDBRANCH   8   9
BRANCH   8  24
ATOM     24  O   UNL A   1      33.347  24.611  25.036  1.00  0.00    -0.380 OA
ATOM     25  H   UNL A   1      33.912  25.102  25.653  1.00  0.00     0.211 HD
ENDBRANCH   8  24
ENDBRANCH   6   8
ENDBRANCH   5   6
ENDBRANCH   4   5
ENDBRANCH   3   4
ENDBRANCH   2   3
ENDBRANCH   1   2
BRANCH   1  26
ATOM     26  C   UNL A   1      31.147  29.010  23.278  1.00  0.00     0.188 C 
BRANCH  26  27
ATOM     27  O   UNL A   1      30.428  29.988  24.002  1.00  0.00    -0.376 OA
BRANCH  27  28
ATOM     28  C   UNL A   1      30.973  30.414  25.241  1.00  0.00     0.202 C 
BRANCH  28  29
ATOM     29  C   UNL A   1      32.440  30.006  25.467  1.00  0.00     0.261 C 
BRANCH  29  30
ATOM     30  O   UNL A   1      32.901  30.058  26.829  1.00  0.00    -0.460 OA
BRANCH  30  31
ATOM     31  C   UNL A   1      33.390  31.245  27.267  1.00  0.00     0.338 C 
ATOM     32  O   UNL A   1      32.783  32.283  27.410  1.00  0.00    -0.246 OA
BRANCH  31  33
ATOM     33  C   UNL A   1      34.764  30.987  27.770  1.00  0.00     0.060 A 
ATOM     34  C   UNL A   1      35.127  29.680  28.127  1.00  0.00     0.016 A 
ATOM     35  C   UNL A   1      35.698  32.014  27.850  1.00  0.00     0.016 A 
ATOM     36  C   UNL A   1      36.399  29.393  28.619  1.00  0.00     0.010 A 
ATOM     37  C   UNL A   1      36.971  31.734  28.351  1.00  0.00     0.010 A 
ATOM     38  C   UNL A   1      37.314  30.434  28.775  1.00  0.00    -0.014 A 
BRANCH  38  39
ATOM     39  C   UNL A   1      38.545  30.258  29.579  1.00  0.00     0.031 A 
ATOM     40  C   UNL A   1      39.592  29.330  29.036  1.00  0.00     0.074 A 
ATOM     41  C   UNL A   1      38.713  30.845  30.775  1.00  0.00     0.049 A 
ATOM     42  N   UNL A   1      40.600  28.762  29.640  1.00  0.00    -0.248 NA
ATOM     43  C   UNL A   1      39.461  28.978  27.611  1.00  0.00     0.031 C 
ATOM     44  C   UNL A   1      37.824  31.839  31.369  1.00  0.00     0.029 A 
ATOM     45  N   UNL A   1      39.685  30.647  31.726  1.00  0.00    -0.354 N 
ATOM     46  C   UNL A   1      41.193  27.947  28.685  1.00  0.00     0.074 A 
ATOM     47  C   UNL A   1      40.430  28.090  27.464  1.00  0.00     0.031 C 
ATOM     48  C   UNL A   1      38.268  32.136  32.604  1.00  0.00     0.029 A 
ATOM     49  C   UNL A   1      39.431  31.301  32.908  1.00  0.00     0.049 A 
ATOM     50  H   UNL A   1      40.484  30.091  31.577  1.00  0.00     0.167 HD
ATOM     51  C   UNL A   1      42.273  27.144  28.824  1.00  0.00     0.037 A 
ATOM     52  C   UNL A   1      40.034  31.187  34.109  1.00  0.00     0.037 A 
ATOM     53  C   UNL A   1      43.025  27.023  30.042  1.00  0.00     0.049 A 
ATOM     54  C   UNL A   1      41.178  30.215  34.272  1.00  0.00     0.074 A 
ATOM     55  C   UNL A   1      44.141  26.244  30.293  1.00  0.00     0.029 A 
ATOM     56  N   UNL A   1      42.732  27.698  31.218  1.00  0.00    -0.354 N 
ATOM     57  N   UNL A   1      41.727  29.423  33.382  1.00  0.00    -0.248 NA
ATOM     58  C   UNL A   1      41.780  30.112  35.610  1.00  0.00     0.031 C 
ATOM     59  C   UNL A   1      44.485  26.401  31.638  1.00  0.00     0.029 A 
ATOM     60  C   UNL A   1      43.633  27.337  32.205  1.00  0.00     0.049 A 
ATOM     61  H   UNL A   1      41.994  28.340  31.333  1.00  0.00     0.167 HD
ATOM     62  C   UNL A   1      42.763  28.767  34.037  1.00  0.00     0.074 A 
ATOM     63  C   UNL A   1      42.764  29.247  35.402  1.00  0.00     0.031 C 
ATOM     64  C   UNL A   1      43.641  27.856  33.549  1.00  0.00     0.037 A 
BRANCH  51  65
ATOM     65  C   UNL A   1      42.670  26.301  27.648  1.00  0.00     0.064 A 
ATOM     66  C   UNL A   1      43.625  26.727  26.715  1.00  0.00     0.173 A 
ATOM     67  C   UNL A   1      42.097  25.032  27.468  1.00  0.00     0.173 A 
ATOM     68  F   UNL A   1      44.189  27.939  26.829  1.00  0.00    -0.203 F 
ATOM     69  C   UNL A   1      43.971  25.926  25.629  1.00  0.00     0.198 A 
ATOM     70  C   UNL A   1      42.472  24.220  26.403  1.00  0.00     0.198 A 
ATOM     71  F   UNL A   1      41.177  24.575  28.333  1.00  0.00    -0.203 F 
ATOM     72  F   UNL A   1      44.845  26.377  24.718  1.00  0.00    -0.200 F 
ATOM     73  C   UNL A   1      43.402  24.671  25.479  1.00  0.00     0.200 A 
ATOM     74  F   UNL A   1      41.930  23.001  26.269  1.00  0.00    -0.200 F 
ATOM     75  F   UNL A   1      43.743  23.898  24.439  1.00  0.00    -0.200 F 
ENDBRANCH  51  65
BRANCH  52  76
ATOM     76  C   UNL A   1      39.547  31.982  35.269  1.00  0.00     0.064 A 
ATOM     77  C   UNL A   1      38.661  31.426  36.202  1.00  0.00     0.173 A 
ATOM     78  C   UNL A   1      39.934  33.318  35.457  1.00  0.00     0.173 A 
ATOM     79  F   UNL A   1      38.238  30.163  36.051  1.00  0.00    -0.203 F 
ATOM     80  C   UNL A   1      38.164  32.181  37.263  1.00  0.00     0.198 A 
ATOM     81  C   UNL A   1      39.462  34.062  36.538  1.00  0.00     0.198 A 
ATOM     82  F   UNL A   1      40.775  33.903  34.592  1.00  0.00    -0.203 F 
ATOM     83  F   UNL A   1      37.275  31.639  38.108  1.00  0.00    -0.200 F 
ATOM     84  C   UNL A   1      38.570  33.495  37.435  1.00  0.00     0.200 A 
ATOM     85  F   UNL A   1      39.866  35.327  36.705  1.00  0.00    -0.200 F 
ATOM     86  F   UNL A   1      38.093  34.218  38.457  1.00  0.00    -0.200 F 
ENDBRANCH  52  76
BRANCH  64  87
ATOM     87  C   UNL A   1      44.737  27.372  34.454  1.00  0.00     0.064 A 
ATOM     88  C   UNL A   1      45.972  28.028  34.547  1.00  0.00     0.173 A 
ATOM     89  C   UNL A   1      44.498  26.293  35.322  1.00  0.00     0.173 A 
ATOM     90  F   UNL A   1      46.253  29.056  33.733  1.00  0.00    -0.203 F 
ATOM     91  C   UNL A   1      46.930  27.618  35.471  1.00  0.00     0.198 A 
ATOM     92  C   UNL A   1      45.445  25.907  36.265  1.00  0.00     0.198 A 
ATOM     93  F   UNL A   1      43.329  25.637  35.279  1.00  0.00    -0.203 F 
ATOM     94  F   UNL A   1      48.115  28.242  35.527  1.00  0.00    -0.200 F 
ATOM     95  C   UNL A   1      46.661  26.569  36.338  1.00  0.00     0.200 A 
ATOM     96  F   UNL A   1      45.173  24.907  37.115  1.00  0.00    -0.200 F 
ATOM     97  F   UNL A   1      47.573  26.195  37.246  1.00  0.00    -0.200 F 
ENDBRANCH  64  87
ENDBRANCH  38  39
ENDBRANCH  31  33
ENDBRANCH  30  31
ENDBRANCH  29  30
ENDBRANCH  28  29
ENDBRANCH  27  28
ENDBRANCH  26  27
ENDBRANCH   1  26
TORSDOF 21
ENDMDL
