MODEL 1
REMARK VINA RESULT:     -10.8      0.000      0.000
REMARK SMILES CCN(CCC(=O)OCCOCCOCCOC(=O)c1ccc(-c2c3nc(c(-c4c(F)c(F)c(F)c(F)c4F)c4ccc([nH]4)c(-c4c(F)c(F)c(F)c(F)c4F)c4nc(c(-c5c(F)c(F)c(F)c(F)c5F)c5ccc2[nH]5)C=C4)C=C3)cc1)C(=O)c1cc(Cl)ccc1F
REMARK SMILES IDX 12 1 11 2 10 3 9 4 8 5 6 6 7 7 5 8 4 9 3 10 2 11 1 12 83 13
REMARK SMILES IDX 84 14 85 15 86 16 91 17 87 18 90 19 92 20 88 21 89 22 13 23
REMARK SMILES IDX 14 24 15 25 16 26 17 27 18 28 19 29 20 30 21 31 82 32 22 33
REMARK SMILES IDX 81 34 23 35 24 36 25 37 75 38 26 39 80 40 74 41 76 42 27 43
REMARK SMILES IDX 79 44 73 45 72 46 28 48 60 49 40 50 59 51 41 52 44 53 58 54
REMARK SMILES IDX 77 55 42 56 43 57 57 59 78 60 45 61 29 62 30 63 38 64 31 65
REMARK SMILES IDX 32 66 36 67 39 68 33 69 34 70 37 71 35 72 61 73 62 74 70 75
REMARK SMILES IDX 63 76 64 77 68 78 71 79 65 80 66 81 69 82 67 83 46 84 47 85
REMARK SMILES IDX 55 86 48 87 49 88 53 89 56 90 50 91 51 92 54 93 52 94
REMARK H PARENT 76 47 44 58
REMARK Flexibility Score: inf
ROOT
ATOM      1  C   UNL A   1      41.838  22.107  27.950  1.00  0.00     0.188 C 
ENDROOT
BRANCH   1   2
ATOM      2  O   UNL A   1      40.416  22.562  27.569  1.00  0.00    -0.376 OA
BRANCH   2   3
ATOM      3  C   UNL A   1      39.207  23.923  26.737  1.00  0.00     0.202 C 
BRANCH   3   4
ATOM      4  C   UNL A   1      37.692  23.707  25.757  1.00  0.00     0.261 C 
BRANCH   4   5
ATOM      5  O   UNL A   1      36.472  22.833  26.182  1.00  0.00    -0.463 OA
BRANCH   5   6
ATOM      6  C   UNL A   1      35.080  22.785  26.077  1.00  0.00     0.307 C 
ATOM      7  O   UNL A   1      34.583  21.651  26.032  1.00  0.00    -0.252 OA
BRANCH   6   8
ATOM      8  C   UNL A   1      34.031  24.063  25.977  1.00  0.00     0.144 C 
BRANCH   8   9
ATOM      9  C   UNL A   1      33.737  25.029  24.657  1.00  0.00     0.131 C 
BRANCH   9  10
ATOM     10  N   UNL A   1      32.270  25.544  24.298  1.00  0.00    -0.338 N 
BRANCH  10  11
ATOM     11  C   UNL A   1      31.776  25.102  22.989  1.00  0.00     0.116 C 
ATOM     12  C   UNL A   1      32.895  24.761  22.002  1.00  0.00     0.027 C 
ENDBRANCH  10  11
BRANCH  10  13
ATOM     13  C   UNL A   1      31.249  26.275  25.072  1.00  0.00     0.256 C 
ATOM     14  O   UNL A   1      30.788  25.868  26.138  1.00  0.00    -0.269 OA
BRANCH  13  15
ATOM     15  C   UNL A   1      30.692  27.560  24.595  1.00  0.00     0.077 A 
ATOM     16  C   UNL A   1      29.515  28.023  23.337  1.00  0.00     0.037 A 
ATOM     17  C   UNL A   1      31.440  28.818  25.543  1.00  0.00     0.136 A 
ATOM     18  C   UNL A   1      29.077  29.761  23.127  1.00  0.00     0.042 A 
ATOM     19  C   UNL A   1      31.043  30.604  25.369  1.00  0.00     0.041 A 
ATOM     20  F   UNL A   1      32.672  28.355  25.563  1.00  0.00    -0.206 F 
ATOM     21  Cl  UNL A   1      27.805  30.190  22.051  1.00  0.00    -0.084 Cl
ATOM     22  C   UNL A   1      29.795  31.060  24.159  1.00  0.00     0.023 A 
ENDBRANCH  13  15
ENDBRANCH  10  13
ENDBRANCH   9  10
ENDBRANCH   8   9
ENDBRANCH   6   8
ENDBRANCH   5   6
ENDBRANCH   4   5
ENDBRANCH   3   4
ENDBRANCH   2   3
ENDBRANCH   1   2
BRANCH   1  23
ATOM     23  C   UNL A   1      42.648  21.593  26.727  1.00  0.00     0.188 C 
BRANCH  23  24
ATOM     24  O   UNL A   1      42.565  22.297  25.499  1.00  0.00    -0.376 OA
BRANCH  24  25
ATOM     25  C   UNL A   1      43.710  22.318  24.659  1.00  0.00     0.202 C 
BRANCH  25  26
ATOM     26  C   UNL A   1      44.659  23.500  24.848  1.00  0.00     0.261 C 
BRANCH  26  27
ATOM     27  O   UNL A   1      43.976  24.747  24.628  1.00  0.00    -0.460 OA
BRANCH  27  28
ATOM     28  C   UNL A   1      44.576  25.839  25.146  1.00  0.00     0.338 C 
ATOM     29  O   UNL A   1      45.624  26.364  24.790  1.00  0.00    -0.246 OA
BRANCH  28  30
ATOM     30  C   UNL A   1      43.659  26.466  26.108  1.00  0.00     0.060 A 
ATOM     31  C   UNL A   1      43.907  27.791  26.502  1.00  0.00     0.016 A 
ATOM     32  C   UNL A   1      42.607  25.739  26.662  1.00  0.00     0.016 A 
ATOM     33  C   UNL A   1      43.129  28.381  27.490  1.00  0.00     0.010 A 
ATOM     34  C   UNL A   1      41.849  26.318  27.676  1.00  0.00     0.010 A 
ATOM     35  C   UNL A   1      42.139  27.623  28.121  1.00  0.00    -0.014 A 
BRANCH  35  36
ATOM     36  C   UNL A   1      41.572  28.081  29.406  1.00  0.00     0.031 A 
ATOM     37  C   UNL A   1      40.294  28.870  29.358  1.00  0.00     0.074 A 
ATOM     38  C   UNL A   1      42.194  27.830  30.568  1.00  0.00     0.049 A 
ATOM     39  N   UNL A   1      39.687  29.527  30.310  1.00  0.00    -0.248 NA
ATOM     40  C   UNL A   1      39.613  28.939  28.052  1.00  0.00     0.031 C 
ATOM     41  C   UNL A   1      43.404  27.025  30.724  1.00  0.00     0.029 A 
ATOM     42  N   UNL A   1      41.905  28.259  31.838  1.00  0.00    -0.354 N 
ATOM     43  C   UNL A   1      38.577  30.111  29.713  1.00  0.00     0.074 A 
ATOM     44  C   UNL A   1      38.591  29.738  28.317  1.00  0.00     0.031 C 
ATOM     45  C   UNL A   1      43.780  27.053  32.014  1.00  0.00     0.029 A 
ATOM     46  C   UNL A   1      42.863  27.915  32.759  1.00  0.00     0.049 A 
ATOM     47  H   UNL A   1      41.091  28.763  32.065  1.00  0.00     0.167 HD
ATOM     48  C   UNL A   1      37.638  30.895  30.286  1.00  0.00     0.037 A 
ATOM     49  C   UNL A   1      43.002  28.302  34.042  1.00  0.00     0.037 A 
ATOM     50  C   UNL A   1      37.632  31.242  31.681  1.00  0.00     0.049 A 
ATOM     51  C   UNL A   1      41.973  29.234  34.635  1.00  0.00     0.074 A 
ATOM     52  C   UNL A   1      36.697  31.982  32.380  1.00  0.00     0.029 A 
ATOM     53  N   UNL A   1      38.621  30.880  32.585  1.00  0.00    -0.354 N 
ATOM     54  N   UNL A   1      40.899  29.747  34.083  1.00  0.00    -0.248 NA
ATOM     55  C   UNL A   1      42.178  29.647  36.031  1.00  0.00     0.031 C 
ATOM     56  C   UNL A   1      37.156  32.130  33.692  1.00  0.00     0.029 A 
ATOM     57  C   UNL A   1      38.341  31.423  33.827  1.00  0.00     0.049 A 
ATOM     58  H   UNL A   1      39.402  30.322  32.374  1.00  0.00     0.167 HD
ATOM     59  C   UNL A   1      40.289  30.514  35.068  1.00  0.00     0.074 A 
ATOM     60  C   UNL A   1      41.101  30.382  36.259  1.00  0.00     0.031 C 
ATOM     61  C   UNL A   1      39.163  31.266  34.998  1.00  0.00     0.037 A 
BRANCH  48  62
ATOM     62  C   UNL A   1      36.562  31.470  29.414  1.00  0.00     0.064 A 
ATOM     63  C   UNL A   1      35.531  30.680  28.885  1.00  0.00     0.173 A 
ATOM     64  C   UNL A   1      36.521  32.853  29.173  1.00  0.00     0.173 A 
ATOM     65  F   UNL A   1      35.533  29.353  29.071  1.00  0.00    -0.203 F 
ATOM     66  C   UNL A   1      34.501  31.255  28.144  1.00  0.00     0.198 A 
ATOM     67  C   UNL A   1      35.475  33.425  28.457  1.00  0.00     0.198 A 
ATOM     68  F   UNL A   1      37.486  33.651  29.654  1.00  0.00    -0.203 F 
ATOM     69  F   UNL A   1      33.538  30.479  27.626  1.00  0.00    -0.200 F 
ATOM     70  C   UNL A   1      34.466  32.627  27.943  1.00  0.00     0.200 A 
ATOM     71  F   UNL A   1      35.438  34.753  28.275  1.00  0.00    -0.200 F 
ATOM     72  F   UNL A   1      33.460  33.179  27.252  1.00  0.00    -0.200 F 
ENDBRANCH  48  62
BRANCH  49  73
ATOM     73  C   UNL A   1      44.179  27.864  34.840  1.00  0.00     0.064 A 
ATOM     74  C   UNL A   1      45.379  28.589  34.821  1.00  0.00     0.173 A 
ATOM     75  C   UNL A   1      44.150  26.678  35.590  1.00  0.00     0.173 A 
ATOM     76  F   UNL A   1      45.468  29.716  34.098  1.00  0.00    -0.203 F 
ATOM     77  C   UNL A   1      46.513  28.126  35.486  1.00  0.00     0.198 A 
ATOM     78  C   UNL A   1      45.272  26.236  36.286  1.00  0.00     0.198 A 
ATOM     79  F   UNL A   1      43.030  25.943  35.643  1.00  0.00    -0.203 F 
ATOM     80  F   UNL A   1      47.666  28.800  35.386  1.00  0.00    -0.200 F 
ATOM     81  C   UNL A   1      46.458  26.952  36.221  1.00  0.00     0.200 A 
ATOM     82  F   UNL A   1      45.210  25.106  37.006  1.00  0.00    -0.200 F 
ATOM     83  F   UNL A   1      47.551  26.501  36.851  1.00  0.00    -0.200 F 
ENDBRANCH  49  73
BRANCH  61  84
ATOM     84  C   UNL A   1      38.727  31.976  36.248  1.00  0.00     0.064 A 
ATOM     85  C   UNL A   1      37.952  31.336  37.225  1.00  0.00     0.173 A 
ATOM     86  C   UNL A   1      39.136  33.297  36.493  1.00  0.00     0.173 A 
ATOM     87  F   UNL A   1      37.525  30.079  37.032  1.00  0.00    -0.203 F 
ATOM     88  C   UNL A   1      37.581  32.000  38.391  1.00  0.00     0.198 A 
ATOM     89  C   UNL A   1      38.795  33.944  37.676  1.00  0.00     0.198 A 
ATOM     90  F   UNL A   1      39.888  33.950  35.594  1.00  0.00    -0.203 F 
ATOM     91  F   UNL A   1      36.798  31.387  39.289  1.00  0.00    -0.200 F 
ATOM     92  C   UNL A   1      38.011  33.300  38.620  1.00  0.00     0.200 A 
ATOM     93  F   UNL A   1      39.228  35.192  37.903  1.00  0.00    -0.200 F 
ATOM     94  F   UNL A   1      37.664  33.931  39.749  1.00  0.00    -0.200 F 
ENDBRANCH  61  84
ENDBRANCH  35  36
ENDBRANCH  28  30
ENDBRANCH  27  28
ENDBRANCH  26  27
ENDBRANCH  25  26
ENDBRANCH  24  25
ENDBRANCH  23  24
ENDBRANCH   1  23
TORSDOF 22
ENDMDL
MODEL 2
REMARK VINA RESULT:     -10.5      2.569      3.893
REMARK SMILES CCN(CCC(=O)OCCOCCOCCOC(=O)c1ccc(-c2c3nc(c(-c4c(F)c(F)c(F)c(F)c4F)c4ccc([nH]4)c(-c4c(F)c(F)c(F)c(F)c4F)c4nc(c(-c5c(F)c(F)c(F)c(F)c5F)c5ccc2[nH]5)C=C4)C=C3)cc1)C(=O)c1cc(Cl)ccc1F
REMARK SMILES IDX 12 1 11 2 10 3 9 4 8 5 6 6 7 7 5 8 4 9 3 10 2 11 1 12 83 13
REMARK SMILES IDX 84 14 85 15 86 16 91 17 87 18 90 19 92 20 88 21 89 22 13 23
REMARK SMILES IDX 14 24 15 25 16 26 17 27 18 28 19 29 20 30 21 31 82 32 22 33
REMARK SMILES IDX 81 34 23 35 24 36 25 37 75 38 26 39 80 40 74 41 76 42 27 43
REMARK SMILES IDX 79 44 73 45 72 46 28 48 60 49 40 50 59 51 41 52 44 53 58 54
REMARK SMILES IDX 77 55 42 56 43 57 57 59 78 60 45 61 29 62 30 63 38 64 31 65
REMARK SMILES IDX 32 66 36 67 39 68 33 69 34 70 37 71 35 72 61 73 62 74 70 75
REMARK SMILES IDX 63 76 64 77 68 78 71 79 65 80 66 81 69 82 67 83 46 84 47 85
REMARK SMILES IDX 55 86 48 87 49 88 53 89 56 90 50 91 51 92 54 93 52 94
REMARK H PARENT 76 47 44 58
REMARK Flexibility Score: inf
ROOT
ATOM      1  C   UNL A   1      41.204  21.589  26.933  1.00  0.00     0.188 C 
ENDROOT
BRANCH   1   2
ATOM      2  O   UNL A   1      40.010  21.406  25.977  1.00  0.00    -0.376 OA
BRANCH   2   3
ATOM      3  C   UNL A   1      38.171  21.941  25.394  1.00  0.00     0.202 C 
BRANCH   3   4
ATOM      4  C   UNL A   1      37.304  23.530  25.549  1.00  0.00     0.261 C 
BRANCH   4   5
ATOM      5  O   UNL A   1      35.784  23.747  25.275  1.00  0.00    -0.463 OA
BRANCH   5   6
ATOM      6  C   UNL A   1      34.611  24.154  25.916  1.00  0.00     0.307 C 
ATOM      7  O   UNL A   1      34.095  25.194  25.482  1.00  0.00    -0.252 OA
BRANCH   6   8
ATOM      8  C   UNL A   1      33.856  23.425  27.198  1.00  0.00     0.144 C 
BRANCH   8   9
ATOM      9  C   UNL A   1      32.718  22.216  27.147  1.00  0.00     0.131 C 
BRANCH   9  10
ATOM     10  N   UNL A   1      31.983  21.805  25.792  1.00  0.00    -0.338 N 
BRANCH  10  11
ATOM     11  C   UNL A   1      30.707  22.491  25.563  1.00  0.00     0.116 C 
ATOM     12  C   UNL A   1      29.867  22.650  26.832  1.00  0.00     0.027 C 
ENDBRANCH  10  11
BRANCH  10  13
ATOM     13  C   UNL A   1      32.387  20.963  24.650  1.00  0.00     0.256 C 
ATOM     14  O   UNL A   1      32.310  21.331  23.478  1.00  0.00    -0.269 OA
BRANCH  13  15
ATOM     15  C   UNL A   1      32.901  19.590  24.847  1.00  0.00     0.077 A 
ATOM     16  C   UNL A   1      32.158  18.024  25.265  1.00  0.00     0.037 A 
ATOM     17  C   UNL A   1      34.626  19.657  24.597  1.00  0.00     0.136 A 
ATOM     18  C   UNL A   1      33.190  16.545  25.349  1.00  0.00     0.042 A 
ATOM     19  C   UNL A   1      35.730  18.190  24.679  1.00  0.00     0.041 A 
ATOM     20  F   UNL A   1      34.881  20.783  25.229  1.00  0.00    -0.206 F 
ATOM     21  Cl  UNL A   1      32.450  15.007  25.561  1.00  0.00    -0.084 Cl
ATOM     22  C   UNL A   1      34.966  16.598  25.018  1.00  0.00     0.023 A 
ENDBRANCH  13  15
ENDBRANCH  10  13
ENDBRANCH   9  10
ENDBRANCH   8   9
ENDBRANCH   6   8
ENDBRANCH   5   6
ENDBRANCH   4   5
ENDBRANCH   3   4
ENDBRANCH   2   3
ENDBRANCH   1   2
BRANCH   1  23
ATOM     23  C   UNL A   1      42.393  20.650  26.588  1.00  0.00     0.188 C 
BRANCH  23  24
ATOM     24  O   UNL A   1      43.603  21.215  26.109  1.00  0.00    -0.376 OA
BRANCH  24  25
ATOM     25  C   UNL A   1      43.525  22.186  25.075  1.00  0.00     0.202 C 
BRANCH  25  26
ATOM     26  C   UNL A   1      44.384  23.435  25.262  1.00  0.00     0.261 C 
BRANCH  26  27
ATOM     27  O   UNL A   1      43.658  24.619  24.888  1.00  0.00    -0.460 OA
BRANCH  27  28
ATOM     28  C   UNL A   1      44.242  25.789  25.218  1.00  0.00     0.338 C 
ATOM     29  O   UNL A   1      45.226  26.311  24.708  1.00  0.00    -0.246 OA
BRANCH  28  30
ATOM     30  C   UNL A   1      43.380  26.488  26.181  1.00  0.00     0.060 A 
ATOM     31  C   UNL A   1      43.766  27.765  26.620  1.00  0.00     0.016 A 
ATOM     32  C   UNL A   1      42.243  25.867  26.695  1.00  0.00     0.016 A 
ATOM     33  C   UNL A   1      43.037  28.410  27.611  1.00  0.00     0.010 A 
ATOM     34  C   UNL A   1      41.532  26.499  27.712  1.00  0.00     0.010 A 
ATOM     35  C   UNL A   1      41.956  27.750  28.201  1.00  0.00    -0.014 A 
BRANCH  35  36
ATOM     36  C   UNL A   1      41.416  28.233  29.488  1.00  0.00     0.031 A 
ATOM     37  C   UNL A   1      40.162  29.059  29.449  1.00  0.00     0.074 A 
ATOM     38  C   UNL A   1      42.042  27.970  30.646  1.00  0.00     0.049 A 
ATOM     39  N   UNL A   1      39.585  29.740  30.404  1.00  0.00    -0.248 NA
ATOM     40  C   UNL A   1      39.470  29.140  28.150  1.00  0.00     0.031 C 
ATOM     41  C   UNL A   1      43.230  27.131  30.794  1.00  0.00     0.029 A 
ATOM     42  N   UNL A   1      41.780  28.415  31.916  1.00  0.00    -0.354 N 
ATOM     43  C   UNL A   1      38.486  30.353  29.814  1.00  0.00     0.074 A 
ATOM     44  C   UNL A   1      38.474  29.971  28.420  1.00  0.00     0.031 C 
ATOM     45  C   UNL A   1      43.620  27.155  32.081  1.00  0.00     0.029 A 
ATOM     46  C   UNL A   1      42.737  28.048  32.829  1.00  0.00     0.049 A 
ATOM     47  H   UNL A   1      40.984  28.944  32.148  1.00  0.00     0.167 HD
ATOM     48  C   UNL A   1      37.577  31.168  30.392  1.00  0.00     0.037 A 
ATOM     49  C   UNL A   1      42.900  28.438  34.108  1.00  0.00     0.037 A 
ATOM     50  C   UNL A   1      37.596  31.523  31.784  1.00  0.00     0.049 A 
ATOM     51  C   UNL A   1      41.906  29.404  34.706  1.00  0.00     0.074 A 
ATOM     52  C   UNL A   1      36.691  32.295  32.489  1.00  0.00     0.029 A 
ATOM     53  N   UNL A   1      38.583  31.137  32.680  1.00  0.00    -0.354 N 
ATOM     54  N   UNL A   1      40.842  29.945  34.162  1.00  0.00    -0.248 NA
ATOM     55  C   UNL A   1      42.138  29.819  36.098  1.00  0.00     0.031 C 
ATOM     56  C   UNL A   1      37.167  32.436  33.795  1.00  0.00     0.029 A 
ATOM     57  C   UNL A   1      38.333  31.696  33.922  1.00  0.00     0.049 A 
ATOM     58  H   UNL A   1      39.345  30.554  32.465  1.00  0.00     0.167 HD
ATOM     59  C   UNL A   1      40.265  30.736  35.148  1.00  0.00     0.074 A 
ATOM     60  C   UNL A   1      41.086  30.587  36.332  1.00  0.00     0.031 C 
ATOM     61  C   UNL A   1      39.162  31.521  35.086  1.00  0.00     0.037 A 
BRANCH  48  62
ATOM     62  C   UNL A   1      36.509  31.770  29.528  1.00  0.00     0.064 A 
ATOM     63  C   UNL A   1      35.446  31.009  29.020  1.00  0.00     0.173 A 
ATOM     64  C   UNL A   1      36.512  33.150  29.273  1.00  0.00     0.173 A 
ATOM     65  F   UNL A   1      35.407  29.684  29.219  1.00  0.00    -0.203 F 
ATOM     66  C   UNL A   1      34.426  31.610  28.285  1.00  0.00     0.198 A 
ATOM     67  C   UNL A   1      35.476  33.750  28.564  1.00  0.00     0.198 A 
ATOM     68  F   UNL A   1      37.508  33.921  29.733  1.00  0.00    -0.203 F 
ATOM     69  F   UNL A   1      33.432  30.862  27.787  1.00  0.00    -0.200 F 
ATOM     70  C   UNL A   1      34.434  32.981  28.070  1.00  0.00     0.200 A 
ATOM     71  F   UNL A   1      35.480  35.076  28.368  1.00  0.00    -0.200 F 
ATOM     72  F   UNL A   1      33.438  33.559  27.386  1.00  0.00    -0.200 F 
ENDBRANCH  48  62
BRANCH  49  73
ATOM     73  C   UNL A   1      44.072  27.970  34.897  1.00  0.00     0.064 A 
ATOM     74  C   UNL A   1      45.279  28.682  34.894  1.00  0.00     0.173 A 
ATOM     75  C   UNL A   1      44.030  26.769  35.621  1.00  0.00     0.173 A 
ATOM     76  F   UNL A   1      45.382  29.823  34.196  1.00  0.00    -0.203 F 
ATOM     77  C   UNL A   1      46.408  28.192  35.549  1.00  0.00     0.198 A 
ATOM     78  C   UNL A   1      45.147  26.298  36.308  1.00  0.00     0.198 A 
ATOM     79  F   UNL A   1      42.901  26.044  35.658  1.00  0.00    -0.203 F 
ATOM     80  F   UNL A   1      47.569  28.856  35.465  1.00  0.00    -0.200 F 
ATOM     81  C   UNL A   1      46.340  27.003  36.259  1.00  0.00     0.200 A 
ATOM     82  F   UNL A   1      45.072  25.154  37.002  1.00  0.00    -0.200 F 
ATOM     83  F   UNL A   1      47.428  26.526  36.879  1.00  0.00    -0.200 F 
ENDBRANCH  49  73
BRANCH  61  84
ATOM     84  C   UNL A   1      38.759  32.251  36.335  1.00  0.00     0.064 A 
ATOM     85  C   UNL A   1      38.011  31.628  37.343  1.00  0.00     0.173 A 
ATOM     86  C   UNL A   1      39.177  33.575  36.549  1.00  0.00     0.173 A 
ATOM     87  F   UNL A   1      37.577  30.369  37.180  1.00  0.00    -0.203 F 
ATOM     88  C   UNL A   1      37.672  32.311  38.508  1.00  0.00     0.198 A 
ATOM     89  C   UNL A   1      38.868  34.241  37.730  1.00  0.00     0.198 A 
ATOM     90  F   UNL A   1      39.906  34.213  35.620  1.00  0.00    -0.203 F 
ATOM     91  F   UNL A   1      36.912  31.712  39.435  1.00  0.00    -0.200 F 
ATOM     92  C   UNL A   1      38.109  33.613  38.704  1.00  0.00     0.200 A 
ATOM     93  F   UNL A   1      39.309  35.492  37.926  1.00  0.00    -0.200 F 
ATOM     94  F   UNL A   1      37.793  34.262  39.833  1.00  0.00    -0.200 F 
ENDBRANCH  61  84
ENDBRANCH  35  36
ENDBRANCH  28  30
ENDBRANCH  27  28
ENDBRANCH  26  27
ENDBRANCH  25  26
ENDBRANCH  24  25
ENDBRANCH  23  24
ENDBRANCH   1  23
TORSDOF 22
ENDMDL
MODEL 3
REMARK VINA RESULT:     -10.4      5.119      9.876
REMARK SMILES CCN(CCC(=O)OCCOCCOCCOC(=O)c1ccc(-c2c3nc(c(-c4c(F)c(F)c(F)c(F)c4F)c4ccc([nH]4)c(-c4c(F)c(F)c(F)c(F)c4F)c4nc(c(-c5c(F)c(F)c(F)c(F)c5F)c5ccc2[nH]5)C=C4)C=C3)cc1)C(=O)c1cc(Cl)ccc1F
REMARK SMILES IDX 12 1 11 2 10 3 9 4 8 5 6 6 7 7 5 8 4 9 3 10 2 11 1 12 83 13
REMARK SMILES IDX 84 14 85 15 86 16 91 17 87 18 90 19 92 20 88 21 89 22 13 23
REMARK SMILES IDX 14 24 15 25 16 26 17 27 18 28 19 29 20 30 21 31 82 32 22 33
REMARK SMILES IDX 81 34 23 35 24 36 25 37 75 38 26 39 80 40 74 41 76 42 27 43
REMARK SMILES IDX 79 44 73 45 72 46 28 48 60 49 40 50 59 51 41 52 44 53 58 54
REMARK SMILES IDX 77 55 42 56 43 57 57 59 78 60 45 61 29 62 30 63 38 64 31 65
REMARK SMILES IDX 32 66 36 67 39 68 33 69 34 70 37 71 35 72 61 73 62 74 70 75
REMARK SMILES IDX 63 76 64 77 68 78 71 79 65 80 66 81 69 82 67 83 46 84 47 85
REMARK SMILES IDX 55 86 48 87 49 88 53 89 56 90 50 91 51 92 54 93 52 94
REMARK H PARENT 76 47 44 58
REMARK Flexibility Score: inf
ROOT
ATOM      1  C   UNL A   1      39.681  22.621  26.882  1.00  0.00     0.188 C 
ENDROOT
BRANCH   1   2
ATOM      2  O   UNL A   1      38.497  22.558  25.898  1.00  0.00    -0.376 OA
BRANCH   2   3
ATOM      3  C   UNL A   1      37.346  21.496  24.652  1.00  0.00     0.202 C 
BRANCH   3   4
ATOM      4  C   UNL A   1      36.103  20.217  25.002  1.00  0.00     0.261 C 
BRANCH   4   5
ATOM      5  O   UNL A   1      34.603  20.497  25.324  1.00  0.00    -0.463 OA
BRANCH   5   6
ATOM      6  C   UNL A   1      33.321  20.029  25.023  1.00  0.00     0.307 C 
ATOM      7  O   UNL A   1      32.987  18.978  25.587  1.00  0.00    -0.252 OA
BRANCH   6   8
ATOM      8  C   UNL A   1      32.220  20.701  23.983  1.00  0.00     0.144 C 
BRANCH   8   9
ATOM      9  C   UNL A   1      32.372  22.115  23.124  1.00  0.00     0.131 C 
BRANCH   9  10
ATOM     10  N   UNL A   1      32.591  23.521  23.846  1.00  0.00    -0.338 N 
BRANCH  10  11
ATOM     11  C   UNL A   1      32.223  23.538  25.266  1.00  0.00     0.116 C 
ATOM     12  C   UNL A   1      33.427  23.671  26.202  1.00  0.00     0.027 C 
ENDBRANCH  10  11
BRANCH  10  13
ATOM     13  C   UNL A   1      33.210  24.786  23.406  1.00  0.00     0.256 C 
ATOM     14  O   UNL A   1      34.249  24.837  22.748  1.00  0.00    -0.269 OA
BRANCH  13  15
ATOM     15  C   UNL A   1      32.617  26.097  23.751  1.00  0.00     0.077 A 
ATOM     16  C   UNL A   1      32.816  27.242  25.103  1.00  0.00     0.037 A 
ATOM     17  C   UNL A   1      31.486  26.489  22.483  1.00  0.00     0.136 A 
ATOM     18  C   UNL A   1      31.903  28.799  25.090  1.00  0.00     0.042 A 
ATOM     19  C   UNL A   1      30.520  28.051  22.419  1.00  0.00     0.041 A 
ATOM     20  F   UNL A   1      30.942  25.301  22.319  1.00  0.00    -0.206 F 
ATOM     21  Cl  UNL A   1      32.236  29.986  26.289  1.00  0.00    -0.084 Cl
ATOM     22  C   UNL A   1      30.785  29.241  23.740  1.00  0.00     0.023 A 
ENDBRANCH  13  15
ENDBRANCH  10  13
ENDBRANCH   9  10
ENDBRANCH   8   9
ENDBRANCH   6   8
ENDBRANCH   5   6
ENDBRANCH   4   5
ENDBRANCH   3   4
ENDBRANCH   2   3
ENDBRANCH   1   2
BRANCH   1  23
ATOM     23  C   UNL A   1      41.021  22.176  26.232  1.00  0.00     0.188 C 
BRANCH  23  24
ATOM     24  O   UNL A   1      41.844  21.245  26.916  1.00  0.00    -0.376 OA
BRANCH  24  25
ATOM     25  C   UNL A   1      41.499  19.869  26.846  1.00  0.00     0.202 C 
BRANCH  25  26
ATOM     26  C   UNL A   1      42.242  19.043  25.798  1.00  0.00     0.261 C 
BRANCH  26  27
ATOM     27  O   UNL A   1      43.657  19.300  25.851  1.00  0.00    -0.460 OA
BRANCH  27  28
ATOM     28  C   UNL A   1      44.220  19.703  24.693  1.00  0.00     0.338 C 
ATOM     29  O   UNL A   1      44.185  19.145  23.603  1.00  0.00    -0.246 OA
BRANCH  28  30
ATOM     30  C   UNL A   1      44.733  21.068  24.872  1.00  0.00     0.060 A 
ATOM     31  C   UNL A   1      45.270  21.423  26.119  1.00  0.00     0.016 A 
ATOM     32  C   UNL A   1      44.626  22.005  23.845  1.00  0.00     0.016 A 
ATOM     33  C   UNL A   1      45.663  22.733  26.361  1.00  0.00     0.010 A 
ATOM     34  C   UNL A   1      44.988  23.325  24.098  1.00  0.00     0.010 A 
ATOM     35  C   UNL A   1      45.464  23.698  25.369  1.00  0.00    -0.014 A 
BRANCH  35  36
ATOM     36  C   UNL A   1      45.508  25.132  25.723  1.00  0.00     0.031 A 
ATOM     37  C   UNL A   1      46.839  25.825  25.647  1.00  0.00     0.074 A 
ATOM     38  C   UNL A   1      44.405  25.781  26.127  1.00  0.00     0.049 A 
ATOM     39  N   UNL A   1      47.180  27.016  26.063  1.00  0.00    -0.248 NA
ATOM     40  C   UNL A   1      47.941  25.065  25.031  1.00  0.00     0.031 C 
ATOM     41  C   UNL A   1      43.059  25.213  26.177  1.00  0.00     0.029 A 
ATOM     42  N   UNL A   1      44.254  27.057  26.605  1.00  0.00    -0.354 N 
ATOM     43  C   UNL A   1      48.537  27.133  25.788  1.00  0.00     0.074 A 
ATOM     44  C   UNL A   1      48.962  25.895  25.175  1.00  0.00     0.031 C 
ATOM     45  C   UNL A   1      42.222  26.126  26.701  1.00  0.00     0.029 A 
ATOM     46  C   UNL A   1      42.986  27.319  27.064  1.00  0.00     0.049 A 
ATOM     47  H   UNL A   1      44.982  27.719  26.618  1.00  0.00     0.167 HD
ATOM     48  C   UNL A   1      49.350  28.183  26.037  1.00  0.00     0.037 A 
ATOM     49  C   UNL A   1      42.520  28.384  27.745  1.00  0.00     0.037 A 
ATOM     50  C   UNL A   1      48.904  29.413  26.632  1.00  0.00     0.049 A 
ATOM     51  C   UNL A   1      43.470  29.512  28.068  1.00  0.00     0.074 A 
ATOM     52  C   UNL A   1      49.630  30.564  26.878  1.00  0.00     0.029 A 
ATOM     53  N   UNL A   1      47.615  29.642  27.089  1.00  0.00    -0.354 N 
ATOM     54  N   UNL A   1      44.741  29.642  27.767  1.00  0.00    -0.248 NA
ATOM     55  C   UNL A   1      42.922  30.642  28.833  1.00  0.00     0.031 C 
ATOM     56  C   UNL A   1      48.799  31.465  27.547  1.00  0.00     0.029 A 
ATOM     57  C   UNL A   1      47.536  30.902  27.659  1.00  0.00     0.049 A 
ATOM     58  H   UNL A   1      46.868  29.006  27.019  1.00  0.00     0.167 HD
ATOM     59  C   UNL A   1      45.133  30.873  28.277  1.00  0.00     0.074 A 
ATOM     60  C   UNL A   1      43.960  31.462  28.888  1.00  0.00     0.031 C 
ATOM     61  C   UNL A   1      46.352  31.466  28.250  1.00  0.00     0.037 A 
BRANCH  48  62
ATOM     62  C   UNL A   1      50.808  28.047  25.711  1.00  0.00     0.064 A 
ATOM     63  C   UNL A   1      51.307  28.277  24.421  1.00  0.00     0.173 A 
ATOM     64  C   UNL A   1      51.728  27.760  26.731  1.00  0.00     0.173 A 
ATOM     65  F   UNL A   1      50.467  28.536  23.408  1.00  0.00    -0.203 F 
ATOM     66  C   UNL A   1      52.675  28.221  24.165  1.00  0.00     0.198 A 
ATOM     67  C   UNL A   1      53.096  27.734  26.477  1.00  0.00     0.198 A 
ATOM     68  F   UNL A   1      51.301  27.529  27.982  1.00  0.00    -0.203 F 
ATOM     69  F   UNL A   1      53.130  28.419  22.919  1.00  0.00    -0.200 F 
ATOM     70  C   UNL A   1      53.568  27.964  25.194  1.00  0.00     0.200 A 
ATOM     71  F   UNL A   1      53.957  27.498  27.476  1.00  0.00    -0.200 F 
ATOM     72  F   UNL A   1      54.885  27.937  24.950  1.00  0.00    -0.200 F 
ENDBRANCH  48  62
BRANCH  49  73
ATOM     73  C   UNL A   1      41.110  28.419  28.220  1.00  0.00     0.064 A 
ATOM     74  C   UNL A   1      40.082  28.911  27.403  1.00  0.00     0.173 A 
ATOM     75  C   UNL A   1      40.770  28.022  29.522  1.00  0.00     0.173 A 
ATOM     76  F   UNL A   1      40.359  29.329  26.158  1.00  0.00    -0.203 F 
ATOM     77  C   UNL A   1      38.780  29.041  27.882  1.00  0.00     0.198 A 
ATOM     78  C   UNL A   1      39.460  28.116  29.987  1.00  0.00     0.198 A 
ATOM     79  F   UNL A   1      41.713  27.546  30.348  1.00  0.00    -0.203 F 
ATOM     80  F   UNL A   1      37.834  29.585  27.104  1.00  0.00    -0.200 F 
ATOM     81  C   UNL A   1      38.469  28.640  29.172  1.00  0.00     0.200 A 
ATOM     82  F   UNL A   1      39.163  27.715  31.231  1.00  0.00    -0.200 F 
ATOM     83  F   UNL A   1      37.219  28.775  29.636  1.00  0.00    -0.200 F 
ENDBRANCH  49  73
BRANCH  61  84
ATOM     84  C   UNL A   1      46.472  32.830  28.869  1.00  0.00     0.064 A 
ATOM     85  C   UNL A   1      46.206  33.996  28.138  1.00  0.00     0.173 A 
ATOM     86  C   UNL A   1      46.804  32.965  30.227  1.00  0.00     0.173 A 
ATOM     87  F   UNL A   1      45.898  33.919  26.835  1.00  0.00    -0.203 F 
ATOM     88  C   UNL A   1      46.294  35.250  28.736  1.00  0.00     0.198 A 
ATOM     89  C   UNL A   1      46.855  34.218  30.830  1.00  0.00     0.198 A 
ATOM     90  F   UNL A   1      47.057  31.879  30.974  1.00  0.00    -0.203 F 
ATOM     91  F   UNL A   1      46.086  36.354  28.006  1.00  0.00    -0.200 F 
ATOM     92  C   UNL A   1      46.609  35.359  30.083  1.00  0.00     0.200 A 
ATOM     93  F   UNL A   1      47.139  34.319  32.136  1.00  0.00    -0.200 F 
ATOM     94  F   UNL A   1      46.678  36.566  30.659  1.00  0.00    -0.200 F 
ENDBRANCH  61  84
ENDBRANCH  35  36
ENDBRANCH  28  30
ENDBRANCH  27  28
ENDBRANCH  26  27
ENDBRANCH  25  26
ENDBRANCH  24  25
ENDBRANCH  23  24
ENDBRANCH   1  23
TORSDOF 22
ENDMDL
