MODEL 1
REMARK VINA RESULT:     -11.7      0.000      0.000
REMARK SMILES CCCOc1ccccc1O[C@@H]1CC[C@@]([NH3+])(C(=O)OCCOCCOCCOC(=O)c2ccc(-c3c4nc(c(-c5c(F)c(F)c(F)c(F)c5F)c5ccc([nH]5)c(-c5c(F)c(F)c(F)c(F)c5F)c5nc(c(-c6c(F)c(F)c(F)c(F)c6F)c6ccc3[nH]6)C=C5)C=C4)cc2)C1
REMARK SMILES IDX 22 1 21 2 20 3 19 4 17 5 18 6 15 7 12 8 13 9 94 10 14 11
REMARK SMILES IDX 11 12 10 13 5 14 6 15 7 16 9 17 8 18 4 19 3 20 2 21 1 22
REMARK SMILES IDX 16 23 23 27 24 28 25 29 26 30 27 31 28 32 29 33 30 34 31 35
REMARK SMILES IDX 32 36 93 37 33 38 92 39 34 40 35 41 36 42 86 43 37 44 91 45
REMARK SMILES IDX 85 46 87 47 38 48 90 49 84 50 83 51 39 53 71 54 51 55 70 56
REMARK SMILES IDX 52 57 55 58 69 59 88 60 53 61 54 62 68 64 89 65 56 66 40 67
REMARK SMILES IDX 41 68 49 69 42 70 43 71 47 72 50 73 44 74 45 75 48 76 46 77
REMARK SMILES IDX 72 78 73 79 81 80 74 81 75 82 79 83 82 84 76 85 77 86 80 87
REMARK SMILES IDX 78 88 57 89 58 90 66 91 59 92 60 93 64 94 67 95 61 96 62 97
REMARK SMILES IDX 65 98 63 99
REMARK H PARENT 16 24 16 25 16 26 87 52 55 63
REMARK Flexibility Score: inf
ROOT
ATOM      1  O   UNL A   1      33.166  31.840  27.468  1.00  0.00    -0.376 OA
ENDROOT
BRANCH   1   2
ATOM      2  C   UNL A   1      33.245  30.534  26.917  1.00  0.00     0.202 C 
BRANCH   2   3
ATOM      3  C   UNL A   1      31.981  29.674  26.593  1.00  0.00     0.261 C 
BRANCH   3   4
ATOM      4  O   UNL A   1      31.621  29.416  25.209  1.00  0.00    -0.459 OA
BRANCH   4   5
ATOM      5  C   UNL A   1      32.185  28.350  24.521  1.00  0.00     0.368 C 
ATOM      6  O   UNL A   1      33.347  28.316  24.130  1.00  0.00    -0.245 OA
BRANCH   5   7
ATOM      7  C   UNL A   1      31.073  27.070  24.244  1.00  0.00     0.196 C 
ATOM      8  C   UNL A   1      31.902  23.883  24.418  1.00  0.00     0.180 C 
ATOM      9  C   UNL A   1      30.911  24.388  26.113  1.00  0.00     0.052 C 
ATOM     10  C   UNL A   1      31.840  25.519  23.177  1.00  0.00     0.126 C 
ATOM     11  C   UNL A   1      30.506  26.340  26.014  1.00  0.00     0.085 C 
BRANCH   8  12
ATOM     12  O   UNL A   1      32.109  22.608  23.906  1.00  0.00    -0.486 OA
BRANCH  12  13
ATOM     13  C   UNL A   1      33.209  22.015  24.355  1.00  0.00     0.161 A 
ATOM     14  C   UNL A   1      33.403  20.660  24.255  1.00  0.00     0.161 A 
ATOM     15  C   UNL A   1      34.572  20.144  24.805  1.00  0.00     0.050 A 
ATOM     16  C   UNL A   1      35.503  20.993  25.435  1.00  0.00     0.004 A 
ATOM     17  C   UNL A   1      34.095  22.871  25.011  1.00  0.00     0.050 A 
ATOM     18  C   UNL A   1      35.253  22.357  25.560  1.00  0.00     0.004 A 
BRANCH  14  19
ATOM     19  O   UNL A   1      32.385  19.820  23.936  1.00  0.00    -0.490 OA
BRANCH  19  20
ATOM     20  C   UNL A   1      32.421  18.418  23.299  1.00  0.00     0.229 C 
BRANCH  20  21
ATOM     21  C   UNL A   1      33.800  16.738  23.510  1.00  0.00     0.038 C 
ATOM     22  C   UNL A   1      34.884  16.284  24.863  1.00  0.00     0.007 C 
ENDBRANCH  20  21
ENDBRANCH  19  20
ENDBRANCH  14  19
ENDBRANCH  12  13
ENDBRANCH   8  12
BRANCH   7  23
ATOM     23  N   UNL A   1      29.949  27.821  23.628  1.00  0.00    -0.343 N 
ATOM     24  H   UNL A   1      30.158  28.820  23.647  1.00  0.00     0.345 HD
ATOM     25  H   UNL A   1      29.093  27.642  24.152  1.00  0.00     0.345 HD
ATOM     26  H   UNL A   1      29.827  27.518  22.662  1.00  0.00     0.345 HD
ENDBRANCH   7  23
ENDBRANCH   5   7
ENDBRANCH   4   5
ENDBRANCH   3   4
ENDBRANCH   2   3
ENDBRANCH   1   2
BRANCH   1  27
ATOM     27  C   UNL A   1      34.265  32.279  28.230  1.00  0.00     0.188 C 
BRANCH  27  28
ATOM     28  C   UNL A   1      34.935  33.619  27.907  1.00  0.00     0.188 C 
BRANCH  28  29
ATOM     29  O   UNL A   1      35.027  34.559  28.931  1.00  0.00    -0.376 OA
BRANCH  29  30
ATOM     30  C   UNL A   1      34.040  34.568  29.931  1.00  0.00     0.202 C 
BRANCH  30  31
ATOM     31  C   UNL A   1      34.251  34.084  31.387  1.00  0.00     0.261 C 
BRANCH  31  32
ATOM     32  O   UNL A   1      34.475  32.684  31.660  1.00  0.00    -0.460 OA
BRANCH  32  33
ATOM     33  C   UNL A   1      35.480  32.390  32.533  1.00  0.00     0.338 C 
ATOM     34  O   UNL A   1      35.452  32.550  33.743  1.00  0.00    -0.246 OA
BRANCH  33  35
ATOM     35  C   UNL A   1      36.568  31.626  31.863  1.00  0.00     0.060 A 
ATOM     36  C   UNL A   1      37.607  31.110  32.650  1.00  0.00     0.016 A 
ATOM     37  C   UNL A   1      36.632  31.482  30.477  1.00  0.00     0.016 A 
ATOM     38  C   UNL A   1      38.694  30.443  32.063  1.00  0.00     0.010 A 
ATOM     39  C   UNL A   1      37.737  30.835  29.887  1.00  0.00     0.010 A 
ATOM     40  C   UNL A   1      38.781  30.309  30.674  1.00  0.00    -0.014 A 
BRANCH  40  41
ATOM     41  C   UNL A   1      40.036  29.785  30.053  1.00  0.00     0.031 A 
ATOM     42  C   UNL A   1      41.221  30.706  29.928  1.00  0.00     0.074 A 
ATOM     43  C   UNL A   1      40.164  28.508  29.643  1.00  0.00     0.049 A 
ATOM     44  N   UNL A   1      42.373  30.515  29.336  1.00  0.00    -0.248 NA
ATOM     45  C   UNL A   1      41.083  32.022  30.568  1.00  0.00     0.031 C 
ATOM     46  C   UNL A   1      39.151  27.468  29.788  1.00  0.00     0.029 A 
ATOM     47  N   UNL A   1      41.210  27.868  29.012  1.00  0.00    -0.354 N 
ATOM     48  C   UNL A   1      43.089  31.692  29.512  1.00  0.00     0.074 A 
ATOM     49  C   UNL A   1      42.238  32.593  30.260  1.00  0.00     0.031 C 
ATOM     50  C   UNL A   1      39.617  26.325  29.255  1.00  0.00     0.029 A 
ATOM     51  C   UNL A   1      40.940  26.562  28.672  1.00  0.00     0.049 A 
ATOM     52  H   UNL A   1      42.072  28.305  28.821  1.00  0.00     0.167 HD
ATOM     53  C   UNL A   1      44.336  32.001  29.080  1.00  0.00     0.037 A 
ATOM     54  C   UNL A   1      41.651  25.676  27.942  1.00  0.00     0.037 A 
ATOM     55  C   UNL A   1      45.184  31.113  28.325  1.00  0.00     0.049 A 
ATOM     56  C   UNL A   1      42.989  26.086  27.364  1.00  0.00     0.074 A 
ATOM     57  C   UNL A   1      46.456  31.349  27.833  1.00  0.00     0.029 A 
ATOM     58  N   UNL A   1      44.841  29.825  27.939  1.00  0.00    -0.354 N 
ATOM     59  N   UNL A   1      43.649  27.209  27.509  1.00  0.00    -0.248 NA
ATOM     60  C   UNL A   1      43.677  25.103  26.510  1.00  0.00     0.031 C 
ATOM     61  C   UNL A   1      46.851  30.237  27.083  1.00  0.00     0.029 A 
ATOM     62  C   UNL A   1      45.864  29.270  27.184  1.00  0.00     0.049 A 
ATOM     63  H   UNL A   1      43.998  29.372  28.167  1.00  0.00     0.167 HD
ATOM     64  C   UNL A   1      44.836  27.054  26.799  1.00  0.00     0.074 A 
ATOM     65  C   UNL A   1      44.816  25.723  26.235  1.00  0.00     0.031 C 
ATOM     66  C   UNL A   1      45.851  27.938  26.632  1.00  0.00     0.037 A 
BRANCH  53  67
ATOM     67  C   UNL A   1      44.838  33.391  29.354  1.00  0.00     0.064 A 
ATOM     68  C   UNL A   1      44.621  34.453  28.465  1.00  0.00     0.173 A 
ATOM     69  C   UNL A   1      45.531  33.665  30.544  1.00  0.00     0.173 A 
ATOM     70  F   UNL A   1      43.975  34.245  27.307  1.00  0.00    -0.203 F 
ATOM     71  C   UNL A   1      45.112  35.728  28.739  1.00  0.00     0.198 A 
ATOM     72  C   UNL A   1      45.984  34.947  30.833  1.00  0.00     0.198 A 
ATOM     73  F   UNL A   1      45.758  32.688  31.435  1.00  0.00    -0.203 F 
ATOM     74  F   UNL A   1      44.949  36.713  27.845  1.00  0.00    -0.200 F 
ATOM     75  C   UNL A   1      45.786  35.976  29.925  1.00  0.00     0.200 A 
ATOM     76  F   UNL A   1      46.617  35.188  31.990  1.00  0.00    -0.200 F 
ATOM     77  F   UNL A   1      46.252  37.203  30.190  1.00  0.00    -0.200 F 
ENDBRANCH  53  67
BRANCH  54  78
ATOM     78  C   UNL A   1      41.100  24.320  27.646  1.00  0.00     0.064 A 
ATOM     79  C   UNL A   1      41.659  23.163  28.211  1.00  0.00     0.173 A 
ATOM     80  C   UNL A   1      40.045  24.147  26.737  1.00  0.00     0.173 A 
ATOM     81  F   UNL A   1      42.697  23.263  29.054  1.00  0.00    -0.203 F 
ATOM     82  C   UNL A   1      41.201  21.892  27.860  1.00  0.00     0.198 A 
ATOM     83  C   UNL A   1      39.562  22.880  26.418  1.00  0.00     0.198 A 
ATOM     84  F   UNL A   1      39.483  25.213  26.148  1.00  0.00    -0.203 F 
ATOM     85  F   UNL A   1      41.803  20.803  28.360  1.00  0.00    -0.200 F 
ATOM     86  C   UNL A   1      40.147  21.752  26.971  1.00  0.00     0.200 A 
ATOM     87  F   UNL A   1      38.537  22.750  25.563  1.00  0.00    -0.200 F 
ATOM     88  F   UNL A   1      39.710  20.531  26.633  1.00  0.00    -0.200 F 
ENDBRANCH  54  78
BRANCH  66  89
ATOM     89  C   UNL A   1      47.063  27.486  25.861  1.00  0.00     0.064 A 
ATOM     90  C   UNL A   1      47.180  27.668  24.475  1.00  0.00     0.173 A 
ATOM     91  C   UNL A   1      48.151  26.903  26.533  1.00  0.00     0.173 A 
ATOM     92  F   UNL A   1      46.171  28.211  23.777  1.00  0.00    -0.203 F 
ATOM     93  C   UNL A   1      48.321  27.255  23.789  1.00  0.00     0.198 A 
ATOM     94  C   UNL A   1      49.306  26.529  25.851  1.00  0.00     0.198 A 
ATOM     95  F   UNL A   1      48.102  26.712  27.861  1.00  0.00    -0.203 F 
ATOM     96  F   UNL A   1      48.385  27.389  22.457  1.00  0.00    -0.200 F 
ATOM     97  C   UNL A   1      49.387  26.696  24.478  1.00  0.00     0.200 A 
ATOM     98  F   UNL A   1      50.342  26.010  26.525  1.00  0.00    -0.200 F 
ATOM     99  F   UNL A   1      50.488  26.311  23.818  1.00  0.00    -0.200 F 
ENDBRANCH  66  89
ENDBRANCH  40  41
ENDBRANCH  33  35
ENDBRANCH  32  33
ENDBRANCH  31  32
ENDBRANCH  30  31
ENDBRANCH  29  30
ENDBRANCH  28  29
ENDBRANCH  27  28
ENDBRANCH   1  27
TORSDOF 23
ENDMDL
MODEL 2
REMARK VINA RESULT:     -11.5      5.079     10.820
REMARK SMILES CCCOc1ccccc1O[C@@H]1CC[C@@]([NH3+])(C(=O)OCCOCCOCCOC(=O)c2ccc(-c3c4nc(c(-c5c(F)c(F)c(F)c(F)c5F)c5ccc([nH]5)c(-c5c(F)c(F)c(F)c(F)c5F)c5nc(c(-c6c(F)c(F)c(F)c(F)c6F)c6ccc3[nH]6)C=C5)C=C4)cc2)C1
REMARK SMILES IDX 22 1 21 2 20 3 19 4 17 5 18 6 15 7 12 8 13 9 94 10 14 11
REMARK SMILES IDX 11 12 10 13 5 14 6 15 7 16 9 17 8 18 4 19 3 20 2 21 1 22
REMARK SMILES IDX 16 23 23 27 24 28 25 29 26 30 27 31 28 32 29 33 30 34 31 35
REMARK SMILES IDX 32 36 93 37 33 38 92 39 34 40 35 41 36 42 86 43 37 44 91 45
REMARK SMILES IDX 85 46 87 47 38 48 90 49 84 50 83 51 39 53 71 54 51 55 70 56
REMARK SMILES IDX 52 57 55 58 69 59 88 60 53 61 54 62 68 64 89 65 56 66 40 67
REMARK SMILES IDX 41 68 49 69 42 70 43 71 47 72 50 73 44 74 45 75 48 76 46 77
REMARK SMILES IDX 72 78 73 79 81 80 74 81 75 82 79 83 82 84 76 85 77 86 80 87
REMARK SMILES IDX 78 88 57 89 58 90 66 91 59 92 60 93 64 94 67 95 61 96 62 97
REMARK SMILES IDX 65 98 63 99
REMARK H PARENT 16 24 16 25 16 26 87 52 55 63
REMARK Flexibility Score: inf
ROOT
ATOM      1  O   UNL A   1      39.168  19.108  25.385  1.00  0.00    -0.376 OA
ENDROOT
BRANCH   1   2
ATOM      2  C   UNL A   1      38.005  19.669  24.796  1.00  0.00     0.202 C 
BRANCH   2   3
ATOM      3  C   UNL A   1      37.557  21.145  25.048  1.00  0.00     0.261 C 
BRANCH   3   4
ATOM      4  O   UNL A   1      36.463  21.418  25.965  1.00  0.00    -0.459 OA
BRANCH   4   5
ATOM      5  C   UNL A   1      35.716  22.583  25.843  1.00  0.00     0.368 C 
ATOM      6  O   UNL A   1      36.197  23.704  25.723  1.00  0.00    -0.245 OA
BRANCH   5   7
ATOM      7  C   UNL A   1      34.022  22.298  25.903  1.00  0.00     0.196 C 
ATOM      8  C   UNL A   1      31.792  24.385  24.660  1.00  0.00     0.180 C 
ATOM      9  C   UNL A   1      32.016  22.834  23.374  1.00  0.00     0.052 C 
ATOM     10  C   UNL A   1      32.917  23.951  26.323  1.00  0.00     0.126 C 
ATOM     11  C   UNL A   1      33.435  21.641  24.112  1.00  0.00     0.085 C 
BRANCH   8  12
ATOM     12  O   UNL A   1      30.733  25.282  24.729  1.00  0.00    -0.486 OA
BRANCH  12  13
ATOM     13  C   UNL A   1      31.099  26.537  24.965  1.00  0.00     0.161 A 
ATOM     14  C   UNL A   1      30.529  27.600  24.311  1.00  0.00     0.161 A 
ATOM     15  C   UNL A   1      31.027  28.866  24.604  1.00  0.00     0.050 A 
ATOM     16  C   UNL A   1      32.072  29.027  25.534  1.00  0.00     0.004 A 
ATOM     17  C   UNL A   1      32.163  26.665  25.858  1.00  0.00     0.050 A 
ATOM     18  C   UNL A   1      32.660  27.921  26.145  1.00  0.00     0.004 A 
BRANCH  14  19
ATOM     19  O   UNL A   1      29.756  27.423  23.209  1.00  0.00    -0.490 OA
BRANCH  19  20
ATOM     20  C   UNL A   1      28.577  28.263  22.680  1.00  0.00     0.229 C 
BRANCH  20  21
ATOM     21  C   UNL A   1      27.553  30.023  23.467  1.00  0.00     0.038 C 
ATOM     22  C   UNL A   1      27.922  31.767  23.278  1.00  0.00     0.007 C 
ENDBRANCH  20  21
ENDBRANCH  19  20
ENDBRANCH  14  19
ENDBRANCH  12  13
ENDBRANCH   8  12
BRANCH   7  23
ATOM     23  N   UNL A   1      33.973  21.186  26.887  1.00  0.00    -0.343 N 
ATOM     24  H   UNL A   1      33.272  21.393  27.598  1.00  0.00     0.345 HD
ATOM     25  H   UNL A   1      34.887  21.083  27.328  1.00  0.00     0.345 HD
ATOM     26  H   UNL A   1      33.726  20.320  26.408  1.00  0.00     0.345 HD
ENDBRANCH   7  23
ENDBRANCH   5   7
ENDBRANCH   4   5
ENDBRANCH   3   4
ENDBRANCH   2   3
ENDBRANCH   1   2
BRANCH   1  27
ATOM     27  C   UNL A   1      40.090  20.006  25.956  1.00  0.00     0.188 C 
BRANCH  27  28
ATOM     28  C   UNL A   1      41.505  19.532  26.305  1.00  0.00     0.188 C 
BRANCH  28  29
ATOM     29  O   UNL A   1      42.369  19.244  25.252  1.00  0.00    -0.376 OA
BRANCH  29  30
ATOM     30  C   UNL A   1      43.638  19.848  25.234  1.00  0.00     0.202 C 
BRANCH  30  31
ATOM     31  C   UNL A   1      43.928  21.309  25.660  1.00  0.00     0.261 C 
BRANCH  31  32
ATOM     32  O   UNL A   1      43.125  22.389  25.136  1.00  0.00    -0.460 OA
BRANCH  32  33
ATOM     33  C   UNL A   1      43.728  23.608  25.055  1.00  0.00     0.338 C 
ATOM     34  O   UNL A   1      44.557  23.949  24.226  1.00  0.00    -0.246 OA
BRANCH  33  35
ATOM     35  C   UNL A   1      43.090  24.585  25.980  1.00  0.00     0.060 A 
ATOM     36  C   UNL A   1      43.600  25.890  26.032  1.00  0.00     0.016 A 
ATOM     37  C   UNL A   1      42.064  24.224  26.853  1.00  0.00     0.016 A 
ATOM     38  C   UNL A   1      43.084  26.832  26.936  1.00  0.00     0.010 A 
ATOM     39  C   UNL A   1      41.564  25.163  27.779  1.00  0.00     0.010 A 
ATOM     40  C   UNL A   1      42.069  26.476  27.831  1.00  0.00    -0.014 A 
BRANCH  40  41
ATOM     41  C   UNL A   1      41.675  27.420  28.921  1.00  0.00     0.031 A 
ATOM     42  C   UNL A   1      42.474  27.426  30.198  1.00  0.00     0.074 A 
ATOM     43  C   UNL A   1      40.661  28.298  28.790  1.00  0.00     0.049 A 
ATOM     44  N   UNL A   1      42.263  28.073  31.317  1.00  0.00    -0.248 NA
ATOM     45  C   UNL A   1      43.681  26.587  30.205  1.00  0.00     0.031 C 
ATOM     46  C   UNL A   1      39.859  28.489  27.586  1.00  0.00     0.029 A 
ATOM     47  N   UNL A   1      40.127  29.195  29.691  1.00  0.00    -0.354 N 
ATOM     48  C   UNL A   1      43.297  27.704  32.167  1.00  0.00     0.074 A 
ATOM     49  C   UNL A   1      44.130  26.771  31.438  1.00  0.00     0.031 C 
ATOM     50  C   UNL A   1      38.932  29.434  27.823  1.00  0.00     0.029 A 
ATOM     51  C   UNL A   1      39.029  29.875  29.216  1.00  0.00     0.049 A 
ATOM     52  H   UNL A   1      40.498  29.337  30.593  1.00  0.00     0.167 HD
ATOM     53  C   UNL A   1      43.527  28.096  33.445  1.00  0.00     0.037 A 
ATOM     54  C   UNL A   1      38.177  30.718  29.839  1.00  0.00     0.037 A 
ATOM     55  C   UNL A   1      42.697  29.015  34.181  1.00  0.00     0.049 A 
ATOM     56  C   UNL A   1      38.383  31.044  31.303  1.00  0.00     0.074 A 
ATOM     57  C   UNL A   1      42.847  29.456  35.485  1.00  0.00     0.029 A 
ATOM     58  N   UNL A   1      41.552  29.623  33.685  1.00  0.00    -0.354 N 
ATOM     59  N   UNL A   1      39.345  30.671  32.111  1.00  0.00    -0.248 NA
ATOM     60  C   UNL A   1      37.374  31.905  31.944  1.00  0.00     0.031 C 
ATOM     61  C   UNL A   1      41.753  30.265  35.804  1.00  0.00     0.029 A 
ATOM     62  C   UNL A   1      40.969  30.405  34.671  1.00  0.00     0.049 A 
ATOM     63  H   UNL A   1      41.206  29.515  32.771  1.00  0.00     0.167 HD
ATOM     64  C   UNL A   1      39.078  31.275  33.335  1.00  0.00     0.074 A 
ATOM     65  C   UNL A   1      37.871  32.053  33.163  1.00  0.00     0.031 C 
ATOM     66  C   UNL A   1      39.773  31.192  34.497  1.00  0.00     0.037 A 
BRANCH  53  67
ATOM     67  C   UNL A   1      44.695  27.473  34.159  1.00  0.00     0.064 A 
ATOM     68  C   UNL A   1      44.575  26.286  34.895  1.00  0.00     0.173 A 
ATOM     69  C   UNL A   1      45.963  28.071  34.082  1.00  0.00     0.173 A 
ATOM     70  F   UNL A   1      43.383  25.680  35.012  1.00  0.00    -0.203 F 
ATOM     71  C   UNL A   1      45.672  25.742  35.560  1.00  0.00     0.198 A 
ATOM     72  C   UNL A   1      47.065  27.502  34.712  1.00  0.00     0.198 A 
ATOM     73  F   UNL A   1      46.137  29.203  33.384  1.00  0.00    -0.203 F 
ATOM     74  F   UNL A   1      45.519  24.642  36.310  1.00  0.00    -0.200 F 
ATOM     75  C   UNL A   1      46.916  26.345  35.462  1.00  0.00     0.200 A 
ATOM     76  F   UNL A   1      48.270  28.077  34.599  1.00  0.00    -0.200 F 
ATOM     77  F   UNL A   1      47.971  25.817  36.096  1.00  0.00    -0.200 F 
ENDBRANCH  53  67
BRANCH  54  78
ATOM     78  C   UNL A   1      36.999  31.279  29.113  1.00  0.00     0.064 A 
ATOM     79  C   UNL A   1      36.941  32.632  28.743  1.00  0.00     0.173 A 
ATOM     80  C   UNL A   1      35.872  30.488  28.836  1.00  0.00     0.173 A 
ATOM     81  F   UNL A   1      37.970  33.446  29.020  1.00  0.00    -0.203 F 
ATOM     82  C   UNL A   1      35.801  33.172  28.148  1.00  0.00     0.198 A 
ATOM     83  C   UNL A   1      34.749  31.019  28.206  1.00  0.00     0.198 A 
ATOM     84  F   UNL A   1      35.858  29.193  29.184  1.00  0.00    -0.203 F 
ATOM     85  F   UNL A   1      35.748  34.483  27.873  1.00  0.00    -0.200 F 
ATOM     86  C   UNL A   1      34.709  32.364  27.872  1.00  0.00     0.200 A 
ATOM     87  F   UNL A   1      33.699  30.231  27.934  1.00  0.00    -0.200 F 
ATOM     88  F   UNL A   1      33.613  32.884  27.304  1.00  0.00    -0.200 F 
ENDBRANCH  54  78
BRANCH  66  89
ATOM     89  C   UNL A   1      39.293  32.009  35.668  1.00  0.00     0.064 A 
ATOM     90  C   UNL A   1      38.418  31.491  36.634  1.00  0.00     0.173 A 
ATOM     91  C   UNL A   1      39.761  33.321  35.852  1.00  0.00     0.173 A 
ATOM     92  F   UNL A   1      37.931  30.248  36.508  1.00  0.00    -0.203 F 
ATOM     93  C   UNL A   1      38.003  32.264  37.718  1.00  0.00     0.198 A 
ATOM     94  C   UNL A   1      39.377  34.076  36.958  1.00  0.00     0.198 A 
ATOM     95  F   UNL A   1      40.609  33.868  34.967  1.00  0.00    -0.203 F 
ATOM     96  F   UNL A   1      37.122  31.766  38.596  1.00  0.00    -0.200 F 
ATOM     97  C   UNL A   1      38.491  33.551  37.884  1.00  0.00     0.200 A 
ATOM     98  F   UNL A   1      39.869  35.312  37.127  1.00  0.00    -0.200 F 
ATOM     99  F   UNL A   1      38.101  34.289  38.934  1.00  0.00    -0.200 F 
ENDBRANCH  66  89
ENDBRANCH  40  41
ENDBRANCH  33  35
ENDBRANCH  32  33
ENDBRANCH  31  32
ENDBRANCH  30  31
ENDBRANCH  29  30
ENDBRANCH  28  29
ENDBRANCH  27  28
ENDBRANCH   1  27
TORSDOF 23
ENDMDL
MODEL 3
REMARK VINA RESULT:     -11.2      1.287      2.341
REMARK SMILES CCCOc1ccccc1O[C@@H]1CC[C@@]([NH3+])(C(=O)OCCOCCOCCOC(=O)c2ccc(-c3c4nc(c(-c5c(F)c(F)c(F)c(F)c5F)c5ccc([nH]5)c(-c5c(F)c(F)c(F)c(F)c5F)c5nc(c(-c6c(F)c(F)c(F)c(F)c6F)c6ccc3[nH]6)C=C5)C=C4)cc2)C1
REMARK SMILES IDX 22 1 21 2 20 3 19 4 17 5 18 6 15 7 12 8 13 9 94 10 14 11
REMARK SMILES IDX 11 12 10 13 5 14 6 15 7 16 9 17 8 18 4 19 3 20 2 21 1 22
REMARK SMILES IDX 16 23 23 27 24 28 25 29 26 30 27 31 28 32 29 33 30 34 31 35
REMARK SMILES IDX 32 36 93 37 33 38 92 39 34 40 35 41 36 42 86 43 37 44 91 45
REMARK SMILES IDX 85 46 87 47 38 48 90 49 84 50 83 51 39 53 71 54 51 55 70 56
REMARK SMILES IDX 52 57 55 58 69 59 88 60 53 61 54 62 68 64 89 65 56 66 40 67
REMARK SMILES IDX 41 68 49 69 42 70 43 71 47 72 50 73 44 74 45 75 48 76 46 77
REMARK SMILES IDX 72 78 73 79 81 80 74 81 75 82 79 83 82 84 76 85 77 86 80 87
REMARK SMILES IDX 78 88 57 89 58 90 66 91 59 92 60 93 64 94 67 95 61 96 62 97
REMARK SMILES IDX 65 98 63 99
REMARK H PARENT 16 24 16 25 16 26 87 52 55 63
REMARK Flexibility Score: inf
ROOT
ATOM      1  O   UNL A   1      34.435  34.408  28.082  1.00  0.00    -0.376 OA
ENDROOT
BRANCH   1   2
ATOM      2  C   UNL A   1      33.739  33.201  28.353  1.00  0.00     0.202 C 
BRANCH   2   3
ATOM      3  C   UNL A   1      34.299  31.796  27.957  1.00  0.00     0.261 C 
BRANCH   3   4
ATOM      4  O   UNL A   1      33.385  30.754  27.517  1.00  0.00    -0.459 OA
BRANCH   4   5
ATOM      5  C   UNL A   1      33.872  29.573  26.974  1.00  0.00     0.368 C 
ATOM      6  O   UNL A   1      34.971  29.094  27.233  1.00  0.00    -0.245 OA
BRANCH   5   7
ATOM      7  C   UNL A   1      32.779  28.848  25.864  1.00  0.00     0.196 C 
ATOM      8  C   UNL A   1      32.857  25.647  25.078  1.00  0.00     0.180 C 
ATOM      9  C   UNL A   1      31.337  25.957  26.383  1.00  0.00     0.052 C 
ATOM     10  C   UNL A   1      33.638  27.491  24.619  1.00  0.00     0.126 C 
ATOM     11  C   UNL A   1      31.378  27.883  26.907  1.00  0.00     0.085 C 
BRANCH   8  12
ATOM     12  O   UNL A   1      33.031  24.566  24.222  1.00  0.00    -0.486 OA
BRANCH  12  13
ATOM     13  C   UNL A   1      33.996  23.731  24.591  1.00  0.00     0.161 A 
ATOM     14  C   UNL A   1      34.137  22.485  24.035  1.00  0.00     0.161 A 
ATOM     15  C   UNL A   1      35.155  21.679  24.536  1.00  0.00     0.050 A 
ATOM     16  C   UNL A   1      35.993  22.141  25.570  1.00  0.00     0.004 A 
ATOM     17  C   UNL A   1      34.784  24.197  25.644  1.00  0.00     0.050 A 
ATOM     18  C   UNL A   1      35.791  23.395  26.143  1.00  0.00     0.004 A 
BRANCH  14  19
ATOM     19  O   UNL A   1      33.157  21.932  23.276  1.00  0.00    -0.490 OA
BRANCH  19  20
ATOM     20  C   UNL A   1      32.279  20.693  23.541  1.00  0.00     0.229 C 
BRANCH  20  21
ATOM     21  C   UNL A   1      32.442  18.609  22.911  1.00  0.00     0.038 C 
ATOM     22  C   UNL A   1      33.645  17.353  23.343  1.00  0.00     0.007 C 
ENDBRANCH  20  21
ENDBRANCH  19  20
ENDBRANCH  14  19
ENDBRANCH  12  13
ENDBRANCH   8  12
BRANCH   7  23
ATOM     23  N   UNL A   1      32.193  30.060  25.237  1.00  0.00    -0.343 N 
ATOM     24  H   UNL A   1      32.449  30.090  24.250  1.00  0.00     0.345 HD
ATOM     25  H   UNL A   1      32.550  30.892  25.707  1.00  0.00     0.345 HD
ATOM     26  H   UNL A   1      31.177  30.030  25.324  1.00  0.00     0.345 HD
ENDBRANCH   7  23
ENDBRANCH   5   7
ENDBRANCH   4   5
ENDBRANCH   3   4
ENDBRANCH   2   3
ENDBRANCH   1   2
BRANCH   1  27
ATOM     27  C   UNL A   1      33.882  35.593  28.607  1.00  0.00     0.188 C 
BRANCH  27  28
ATOM     28  C   UNL A   1      32.905  35.525  29.786  1.00  0.00     0.188 C 
BRANCH  28  29
ATOM     29  O   UNL A   1      33.252  36.201  30.953  1.00  0.00    -0.376 OA
BRANCH  29  30
ATOM     30  C   UNL A   1      33.213  35.505  32.173  1.00  0.00     0.202 C 
BRANCH  30  31
ATOM     31  C   UNL A   1      34.385  34.681  32.761  1.00  0.00     0.261 C 
BRANCH  31  32
ATOM     32  O   UNL A   1      35.411  34.158  31.889  1.00  0.00    -0.460 OA
BRANCH  32  33
ATOM     33  C   UNL A   1      35.540  32.801  31.851  1.00  0.00     0.338 C 
ATOM     34  O   UNL A   1      34.637  31.988  31.967  1.00  0.00    -0.246 OA
BRANCH  33  35
ATOM     35  C   UNL A   1      36.909  32.404  31.423  1.00  0.00     0.060 A 
ATOM     36  C   UNL A   1      37.269  32.582  30.079  1.00  0.00     0.016 A 
ATOM     37  C   UNL A   1      37.811  31.786  32.289  1.00  0.00     0.016 A 
ATOM     38  C   UNL A   1      38.521  32.161  29.605  1.00  0.00     0.010 A 
ATOM     39  C   UNL A   1      39.058  31.340  31.805  1.00  0.00     0.010 A 
ATOM     40  C   UNL A   1      39.427  31.522  30.459  1.00  0.00    -0.014 A 
BRANCH  40  41
ATOM     41  C   UNL A   1      40.663  30.896  29.898  1.00  0.00     0.031 A 
ATOM     42  C   UNL A   1      41.891  31.750  29.723  1.00  0.00     0.074 A 
ATOM     43  C   UNL A   1      40.736  29.587  29.585  1.00  0.00     0.049 A 
ATOM     44  N   UNL A   1      43.040  31.462  29.163  1.00  0.00    -0.248 NA
ATOM     45  C   UNL A   1      41.808  33.115  30.261  1.00  0.00     0.031 C 
ATOM     46  C   UNL A   1      39.674  28.609  29.791  1.00  0.00     0.029 A 
ATOM     47  N   UNL A   1      41.758  28.855  29.018  1.00  0.00    -0.354 N 
ATOM     48  C   UNL A   1      43.808  32.615  29.262  1.00  0.00     0.074 A 
ATOM     49  C   UNL A   1      42.992  33.608  29.929  1.00  0.00     0.031 C 
ATOM     50  C   UNL A   1      40.092  27.408  29.350  1.00  0.00     0.029 A 
ATOM     51  C   UNL A   1      41.431  27.541  28.771  1.00  0.00     0.049 A 
ATOM     52  H   UNL A   1      42.642  29.237  28.808  1.00  0.00     0.167 HD
ATOM     53  C   UNL A   1      45.073  32.834  28.827  1.00  0.00     0.037 A 
ATOM     54  C   UNL A   1      42.108  26.571  28.119  1.00  0.00     0.037 A 
ATOM     55  C   UNL A   1      45.887  31.854  28.153  1.00  0.00     0.049 A 
ATOM     56  C   UNL A   1      43.470  26.875  27.532  1.00  0.00     0.074 A 
ATOM     57  C   UNL A   1      47.175  31.994  27.664  1.00  0.00     0.029 A 
ATOM     58  N   UNL A   1      45.489  30.558  27.858  1.00  0.00    -0.354 N 
ATOM     59  N   UNL A   1      44.180  27.975  27.603  1.00  0.00    -0.248 NA
ATOM     60  C   UNL A   1      44.122  25.801  26.763  1.00  0.00     0.031 C 
ATOM     61  C   UNL A   1      47.525  30.813  27.004  1.00  0.00     0.029 A 
ATOM     62  C   UNL A   1      46.494  29.903  27.161  1.00  0.00     0.049 A 
ATOM     63  H   UNL A   1      44.622  30.163  28.106  1.00  0.00     0.167 HD
ATOM     64  C   UNL A   1      45.367  27.714  26.925  1.00  0.00     0.074 A 
ATOM     65  C   UNL A   1      45.291  26.346  26.460  1.00  0.00     0.031 C 
ATOM     66  C   UNL A   1      46.424  28.535  26.709  1.00  0.00     0.037 A 
BRANCH  53  67
ATOM     67  C   UNL A   1      45.636  34.216  29.005  1.00  0.00     0.064 A 
ATOM     68  C   UNL A   1      46.378  34.582  30.138  1.00  0.00     0.173 A 
ATOM     69  C   UNL A   1      45.444  35.185  28.007  1.00  0.00     0.173 A 
ATOM     70  F   UNL A   1      46.581  33.698  31.127  1.00  0.00    -0.203 F 
ATOM     71  C   UNL A   1      46.873  35.876  30.282  1.00  0.00     0.198 A 
ATOM     72  C   UNL A   1      45.976  36.464  28.136  1.00  0.00     0.198 A 
ATOM     73  F   UNL A   1      44.750  34.888  26.899  1.00  0.00    -0.203 F 
ATOM     74  F   UNL A   1      47.524  36.220  31.401  1.00  0.00    -0.200 F 
ATOM     75  C   UNL A   1      46.679  36.813  29.279  1.00  0.00     0.200 A 
ATOM     76  F   UNL A   1      45.803  37.362  27.156  1.00  0.00    -0.200 F 
ATOM     77  F   UNL A   1      47.161  38.055  29.417  1.00  0.00    -0.200 F 
ENDBRANCH  53  67
BRANCH  54  78
ATOM     78  C   UNL A   1      41.498  25.224  27.916  1.00  0.00     0.064 A 
ATOM     79  C   UNL A   1      41.978  24.092  28.593  1.00  0.00     0.173 A 
ATOM     80  C   UNL A   1      40.465  25.027  26.986  1.00  0.00     0.173 A 
ATOM     81  F   UNL A   1      42.993  24.211  29.461  1.00  0.00    -0.203 F 
ATOM     82  C   UNL A   1      41.467  22.821  28.332  1.00  0.00     0.198 A 
ATOM     83  C   UNL A   1      39.927  23.762  26.755  1.00  0.00     0.198 A 
ATOM     84  F   UNL A   1      39.977  26.066  26.293  1.00  0.00    -0.203 F 
ATOM     85  F   UNL A   1      41.996  21.749  28.940  1.00  0.00    -0.200 F 
ATOM     86  C   UNL A   1      40.436  22.658  27.420  1.00  0.00     0.200 A 
ATOM     87  F   UNL A   1      38.924  23.612  25.878  1.00  0.00    -0.200 F 
ATOM     88  F   UNL A   1      39.947  21.436  27.167  1.00  0.00    -0.200 F 
ENDBRANCH  54  78
BRANCH  66  89
ATOM     89  C   UNL A   1      47.622  27.971  25.991  1.00  0.00     0.064 A 
ATOM     90  C   UNL A   1      48.758  27.512  26.674  1.00  0.00     0.173 A 
ATOM     91  C   UNL A   1      47.611  27.843  24.592  1.00  0.00     0.173 A 
ATOM     92  F   UNL A   1      48.830  27.616  28.010  1.00  0.00    -0.203 F 
ATOM     93  C   UNL A   1      49.846  26.979  25.985  1.00  0.00     0.198 A 
ATOM     94  C   UNL A   1      48.682  27.272  23.909  1.00  0.00     0.198 A 
ATOM     95  F   UNL A   1      46.548  28.255  23.882  1.00  0.00    -0.203 F 
ATOM     96  F   UNL A   1      50.942  26.599  26.657  1.00  0.00    -0.200 F 
ATOM     97  C   UNL A   1      49.803  26.850  24.605  1.00  0.00     0.200 A 
ATOM     98  F   UNL A   1      48.627  27.129  22.577  1.00  0.00    -0.200 F 
ATOM     99  F   UNL A   1      50.846  26.325  23.946  1.00  0.00    -0.200 F 
ENDBRANCH  66  89
ENDBRANCH  40  41
ENDBRANCH  33  35
ENDBRANCH  32  33
ENDBRANCH  31  32
ENDBRANCH  30  31
ENDBRANCH  29  30
ENDBRANCH  28  29
ENDBRANCH  27  28
ENDBRANCH   1  27
TORSDOF 23
ENDMDL
