MODEL 1
REMARK VINA RESULT:     -12.5      0.000      0.000
REMARK SMILES O=C(OCCOCCOCCOC(=O)c1ccc(N2C(=O)[C@@H]3N=NC(c4ccccc4)=C3[C@H]2c2cccc(Br)c2)cc1)c1ccc(-c2c3nc(c(-c4c(F)c(F)c(F)c(F)c4F)c4ccc([nH]4)c(-c4c(F)c(F)c(F)c(F)c4F)c4nc(c(-c5c(F)c(F)c(F)c(F)c5F)c5ccc2[nH]5)C=C4)C=C3)cc1
REMARK SMILES IDX 7 1 6 2 5 3 4 4 3 5 2 6 1 7 43 8 44 9 105 10 45 11 104 12
REMARK SMILES IDX 46 13 47 14 48 15 98 16 49 17 103 18 97 19 99 20 50 21
REMARK SMILES IDX 102 22 96 23 95 24 51 26 83 27 63 28 82 29 64 30 67 31 81 32
REMARK SMILES IDX 100 33 65 34 66 35 80 37 101 38 68 39 52 40 53 41 61 42
REMARK SMILES IDX 54 43 55 44 59 45 62 46 56 47 57 48 60 49 58 50 84 51 85 52
REMARK SMILES IDX 93 53 86 54 87 55 91 56 94 57 88 58 89 59 92 60 90 61 69 62
REMARK SMILES IDX 70 63 78 64 71 65 72 66 76 67 79 68 73 69 74 70 77 71 75 72
REMARK SMILES IDX 8 73 9 74 10 75 11 76 12 77 13 78 14 79 15 80 16 81 42 82
REMARK SMILES IDX 17 83 41 84 18 85 19 86 20 87 33 88 22 89 21 90 32 91 23 92
REMARK SMILES IDX 25 93 24 94 34 95 35 96 40 97 36 98 38 99 37 100 39 101
REMARK SMILES IDX 26 102 27 103 31 104 28 105 30 106 29 107
REMARK H PARENT 99 25 67 36
REMARK Flexibility Score: inf
ROOT
ATOM      1  C   UNL A   1      45.242  20.167  24.479  1.00  0.00     0.188 C 
ENDROOT
BRANCH   1   2
ATOM      2  O   UNL A   1      44.461  21.304  24.155  1.00  0.00    -0.376 OA
BRANCH   2   3
ATOM      3  C   UNL A   1      45.124  22.549  24.044  1.00  0.00     0.202 C 
BRANCH   3   4
ATOM      4  C   UNL A   1      44.425  23.761  24.668  1.00  0.00     0.261 C 
BRANCH   4   5
ATOM      5  O   UNL A   1      43.810  23.540  25.946  1.00  0.00    -0.460 OA
BRANCH   5   6
ATOM      6  C   UNL A   1      44.030  24.108  27.145  1.00  0.00     0.338 C 
ATOM      7  O   UNL A   1      44.142  23.396  28.141  1.00  0.00    -0.246 OA
BRANCH   6   8
ATOM      8  C   UNL A   1      43.929  25.572  27.360  1.00  0.00     0.060 A 
ATOM      9  C   UNL A   1      44.662  26.297  28.298  1.00  0.00     0.016 A 
ATOM     10  C   UNL A   1      42.938  26.231  26.604  1.00  0.00     0.016 A 
ATOM     11  C   UNL A   1      44.335  27.621  28.558  1.00  0.00     0.010 A 
ATOM     12  C   UNL A   1      42.611  27.555  26.860  1.00  0.00     0.010 A 
ATOM     13  C   UNL A   1      43.261  28.219  27.894  1.00  0.00    -0.014 A 
BRANCH  13  14
ATOM     14  C   UNL A   1      42.793  29.504  28.405  1.00  0.00     0.031 A 
ATOM     15  C   UNL A   1      43.590  30.710  28.054  1.00  0.00     0.074 A 
ATOM     16  C   UNL A   1      41.673  29.595  29.150  1.00  0.00     0.049 A 
ATOM     17  N   UNL A   1      44.131  31.576  28.852  1.00  0.00    -0.248 NA
ATOM     18  C   UNL A   1      43.851  30.959  26.630  1.00  0.00     0.031 C 
ATOM     19  C   UNL A   1      40.654  28.565  29.377  1.00  0.00     0.029 A 
ATOM     20  N   UNL A   1      41.161  30.684  29.792  1.00  0.00    -0.354 N 
ATOM     21  C   UNL A   1      44.671  32.570  28.034  1.00  0.00     0.074 A 
ATOM     22  C   UNL A   1      44.555  32.091  26.681  1.00  0.00     0.031 C 
ATOM     23  C   UNL A   1      39.553  29.140  29.908  1.00  0.00     0.029 A 
ATOM     24  C   UNL A   1      39.839  30.537  30.179  1.00  0.00     0.049 A 
ATOM     25  H   UNL A   1      41.682  31.501  29.965  1.00  0.00     0.167 HD
ATOM     26  C   UNL A   1      45.004  33.798  28.520  1.00  0.00     0.037 A 
ATOM     27  C   UNL A   1      39.008  31.512  30.616  1.00  0.00     0.037 A 
ATOM     28  C   UNL A   1      45.254  33.762  29.936  1.00  0.00     0.049 A 
ATOM     29  C   UNL A   1      39.838  32.645  31.089  1.00  0.00     0.074 A 
ATOM     30  C   UNL A   1      46.150  33.092  30.749  1.00  0.00     0.029 A 
ATOM     31  N   UNL A   1      44.329  34.300  30.793  1.00  0.00    -0.354 N 
ATOM     32  N   UNL A   1      40.571  32.619  32.167  1.00  0.00    -0.248 NA
ATOM     33  C   UNL A   1      40.164  33.695  30.136  1.00  0.00     0.031 C 
ATOM     34  C   UNL A   1      45.444  32.849  31.964  1.00  0.00     0.029 A 
ATOM     35  C   UNL A   1      44.174  33.407  31.819  1.00  0.00     0.049 A 
ATOM     36  H   UNL A   1      43.865  35.163  30.690  1.00  0.00     0.167 HD
ATOM     37  C   UNL A   1      41.697  33.362  31.844  1.00  0.00     0.074 A 
ATOM     38  C   UNL A   1      41.341  34.087  30.629  1.00  0.00     0.031 C 
ATOM     39  C   UNL A   1      42.903  33.106  32.429  1.00  0.00     0.037 A 
BRANCH  26  40
ATOM     40  C   UNL A   1      44.775  35.095  27.772  1.00  0.00     0.064 A 
ATOM     41  C   UNL A   1      45.849  35.996  27.607  1.00  0.00     0.173 A 
ATOM     42  C   UNL A   1      43.496  35.624  27.497  1.00  0.00     0.173 A 
ATOM     43  F   UNL A   1      47.112  35.608  27.843  1.00  0.00    -0.203 F 
ATOM     44  C   UNL A   1      45.645  37.343  27.299  1.00  0.00     0.198 A 
ATOM     45  C   UNL A   1      43.300  36.958  27.138  1.00  0.00     0.198 A 
ATOM     46  F   UNL A   1      42.377  34.912  27.670  1.00  0.00    -0.203 F 
ATOM     47  F   UNL A   1      46.684  38.189  27.294  1.00  0.00    -0.200 F 
ATOM     48  C   UNL A   1      44.369  37.826  27.077  1.00  0.00     0.200 A 
ATOM     49  F   UNL A   1      42.056  37.410  26.937  1.00  0.00    -0.200 F 
ATOM     50  F   UNL A   1      44.163  39.131  26.855  1.00  0.00    -0.200 F 
ENDBRANCH  26  40
BRANCH  27  51
ATOM     51  C   UNL A   1      37.554  31.627  30.363  1.00  0.00     0.064 A 
ATOM     52  C   UNL A   1      36.666  32.015  31.376  1.00  0.00     0.173 A 
ATOM     53  C   UNL A   1      37.038  31.599  29.051  1.00  0.00     0.173 A 
ATOM     54  F   UNL A   1      37.091  32.119  32.643  1.00  0.00    -0.203 F 
ATOM     55  C   UNL A   1      35.342  32.364  31.090  1.00  0.00     0.198 A 
ATOM     56  C   UNL A   1      35.716  31.933  28.769  1.00  0.00     0.198 A 
ATOM     57  F   UNL A   1      37.833  31.335  28.003  1.00  0.00    -0.203 F 
ATOM     58  F   UNL A   1      34.535  32.785  32.075  1.00  0.00    -0.200 F 
ATOM     59  C   UNL A   1      34.869  32.328  29.788  1.00  0.00     0.200 A 
ATOM     60  F   UNL A   1      35.284  31.928  27.501  1.00  0.00    -0.200 F 
ATOM     61  F   UNL A   1      33.616  32.710  29.509  1.00  0.00    -0.200 F 
ENDBRANCH  27  51
BRANCH  39  62
ATOM     62  C   UNL A   1      42.921  32.204  33.627  1.00  0.00     0.064 A 
ATOM     63  C   UNL A   1      42.907  30.800  33.539  1.00  0.00     0.173 A 
ATOM     64  C   UNL A   1      43.105  32.772  34.895  1.00  0.00     0.173 A 
ATOM     65  F   UNL A   1      42.850  30.186  32.351  1.00  0.00    -0.203 F 
ATOM     66  C   UNL A   1      43.017  30.006  34.678  1.00  0.00     0.198 A 
ATOM     67  C   UNL A   1      43.250  31.974  36.027  1.00  0.00     0.198 A 
ATOM     68  F   UNL A   1      43.192  34.104  35.029  1.00  0.00    -0.203 F 
ATOM     69  F   UNL A   1      42.990  28.669  34.570  1.00  0.00    -0.200 F 
ATOM     70  C   UNL A   1      43.194  30.593  35.920  1.00  0.00     0.200 A 
ATOM     71  F   UNL A   1      43.476  32.544  37.219  1.00  0.00    -0.200 F 
ATOM     72  F   UNL A   1      43.342  29.828  37.010  1.00  0.00    -0.200 F 
ENDBRANCH  39  62
ENDBRANCH  13  14
ENDBRANCH   6   8
ENDBRANCH   5   6
ENDBRANCH   4   5
ENDBRANCH   3   4
ENDBRANCH   2   3
ENDBRANCH   1   2
BRANCH   1  73
ATOM     73  C   UNL A   1      44.422  18.937  24.930  1.00  0.00     0.188 C 
BRANCH  73  74
ATOM     74  O   UNL A   1      43.005  18.979  25.036  1.00  0.00    -0.376 OA
BRANCH  74  75
ATOM     75  C   UNL A   1      42.385  19.119  26.301  1.00  0.00     0.202 C 
BRANCH  75  76
ATOM     76  C   UNL A   1      41.943  20.523  26.733  1.00  0.00     0.261 C 
BRANCH  76  77
ATOM     77  O   UNL A   1      40.555  20.841  26.531  1.00  0.00    -0.460 OA
BRANCH  77  78
ATOM     78  C   UNL A   1      40.195  22.096  26.873  1.00  0.00     0.338 C 
ATOM     79  O   UNL A   1      40.826  22.892  27.569  1.00  0.00    -0.246 OA
BRANCH  78  80
ATOM     80  C   UNL A   1      38.911  22.465  26.256  1.00  0.00     0.060 A 
ATOM     81  C   UNL A   1      38.357  23.721  26.519  1.00  0.00     0.018 A 
ATOM     82  C   UNL A   1      38.185  21.519  25.533  1.00  0.00     0.018 A 
ATOM     83  C   UNL A   1      37.062  24.020  26.086  1.00  0.00     0.027 A 
ATOM     84  C   UNL A   1      36.874  21.815  25.132  1.00  0.00     0.027 A 
ATOM     85  C   UNL A   1      36.290  23.048  25.439  1.00  0.00     0.045 A 
BRANCH  85  86
ATOM     86  N   UNL A   1      34.924  23.312  25.151  1.00  0.00    -0.299 N 
ATOM     87  C   UNL A   1      33.948  23.231  26.189  1.00  0.00     0.259 C 
ATOM     88  C   UNL A   1      34.344  22.925  23.838  1.00  0.00     0.152 C 
ATOM     89  C   UNL A   1      32.629  22.884  25.544  1.00  0.00     0.248 C 
ATOM     90  O   UNL A   1      34.141  23.390  27.385  1.00  0.00    -0.271 OA
ATOM     91  C   UNL A   1      33.189  22.155  24.378  1.00  0.00     0.021 C 
ATOM     92  N   UNL A   1      31.852  21.850  26.234  1.00  0.00    -0.170 NA
ATOM     93  C   UNL A   1      32.670  20.925  24.433  1.00  0.00     0.097 C 
ATOM     94  N   UNL A   1      31.804  20.817  25.507  1.00  0.00    -0.154 NA
BRANCH  88  95
ATOM     95  C   UNL A   1      33.889  24.156  23.023  1.00  0.00    -0.020 A 
ATOM     96  C   UNL A   1      33.187  24.037  21.805  1.00  0.00     0.006 A 
ATOM     97  C   UNL A   1      34.127  25.459  23.487  1.00  0.00     0.022 A 
ATOM     98  C   UNL A   1      32.639  25.152  21.159  1.00  0.00     0.002 A 
ATOM     99  C   UNL A   1      33.575  26.573  22.843  1.00  0.00     0.018 A 
ATOM    100  C   UNL A   1      32.814  26.423  21.691  1.00  0.00     0.016 A 
ATOM    101  Br  UNL A   1      33.847  28.302  23.562  1.00  0.00    -0.051 Br
ENDBRANCH  88  95
BRANCH  93 102
ATOM    102  C   UNL A   1      33.077  19.666  23.802  1.00  0.00     0.002 A 
ATOM    103  C   UNL A   1      32.263  19.033  22.856  1.00  0.00     0.010 A 
ATOM    104  C   UNL A   1      34.133  18.943  24.382  1.00  0.00     0.010 A 
ATOM    105  C   UNL A   1      32.467  17.683  22.541  1.00  0.00     0.001 A 
ATOM    106  C   UNL A   1      34.331  17.595  24.071  1.00  0.00     0.001 A 
ATOM    107  C   UNL A   1      33.485  16.961  23.165  1.00  0.00     0.000 A 
ENDBRANCH  93 102
ENDBRANCH  85  86
ENDBRANCH  78  80
ENDBRANCH  77  78
ENDBRANCH  76  77
ENDBRANCH  75  76
ENDBRANCH  74  75
ENDBRANCH  73  74
ENDBRANCH   1  73
TORSDOF 20
ENDMDL
MODEL 2
REMARK VINA RESULT:     -12.3      4.471      9.644
REMARK SMILES O=C(OCCOCCOCCOC(=O)c1ccc(N2C(=O)[C@@H]3N=NC(c4ccccc4)=C3[C@H]2c2cccc(Br)c2)cc1)c1ccc(-c2c3nc(c(-c4c(F)c(F)c(F)c(F)c4F)c4ccc([nH]4)c(-c4c(F)c(F)c(F)c(F)c4F)c4nc(c(-c5c(F)c(F)c(F)c(F)c5F)c5ccc2[nH]5)C=C4)C=C3)cc1
REMARK SMILES IDX 7 1 6 2 5 3 4 4 3 5 2 6 1 7 43 8 44 9 105 10 45 11 104 12
REMARK SMILES IDX 46 13 47 14 48 15 98 16 49 17 103 18 97 19 99 20 50 21
REMARK SMILES IDX 102 22 96 23 95 24 51 26 83 27 63 28 82 29 64 30 67 31 81 32
REMARK SMILES IDX 100 33 65 34 66 35 80 37 101 38 68 39 52 40 53 41 61 42
REMARK SMILES IDX 54 43 55 44 59 45 62 46 56 47 57 48 60 49 58 50 84 51 85 52
REMARK SMILES IDX 93 53 86 54 87 55 91 56 94 57 88 58 89 59 92 60 90 61 69 62
REMARK SMILES IDX 70 63 78 64 71 65 72 66 76 67 79 68 73 69 74 70 77 71 75 72
REMARK SMILES IDX 8 73 9 74 10 75 11 76 12 77 13 78 14 79 15 80 16 81 42 82
REMARK SMILES IDX 17 83 41 84 18 85 19 86 20 87 33 88 22 89 21 90 32 91 23 92
REMARK SMILES IDX 25 93 24 94 34 95 35 96 40 97 36 98 38 99 37 100 39 101
REMARK SMILES IDX 26 102 27 103 31 104 28 105 30 106 29 107
REMARK H PARENT 99 25 67 36
REMARK Flexibility Score: inf
ROOT
ATOM      1  C   UNL A   1      33.687  28.551  27.066  1.00  0.00     0.188 C 
ENDROOT
BRANCH   1   2
ATOM      2  O   UNL A   1      34.261  29.673  27.714  1.00  0.00    -0.376 OA
BRANCH   2   3
ATOM      3  C   UNL A   1      33.770  30.954  27.371  1.00  0.00     0.202 C 
BRANCH   3   4
ATOM      4  C   UNL A   1      34.267  32.133  28.216  1.00  0.00     0.261 C 
BRANCH   4   5
ATOM      5  O   UNL A   1      35.494  31.918  28.929  1.00  0.00    -0.460 OA
BRANCH   5   6
ATOM      6  C   UNL A   1      35.726  31.600  30.215  1.00  0.00     0.338 C 
ATOM      7  O   UNL A   1      35.027  32.095  31.097  1.00  0.00    -0.246 OA
BRANCH   6   8
ATOM      8  C   UNL A   1      36.929  30.843  30.640  1.00  0.00     0.060 A 
ATOM      9  C   UNL A   1      38.143  31.414  31.018  1.00  0.00     0.016 A 
ATOM     10  C   UNL A   1      36.827  29.440  30.552  1.00  0.00     0.016 A 
ATOM     11  C   UNL A   1      39.262  30.609  31.191  1.00  0.00     0.010 A 
ATOM     12  C   UNL A   1      37.942  28.632  30.727  1.00  0.00     0.010 A 
ATOM     13  C   UNL A   1      39.173  29.233  30.968  1.00  0.00    -0.014 A 
BRANCH  13  14
ATOM     14  C   UNL A   1      40.426  28.488  30.891  1.00  0.00     0.031 A 
ATOM     15  C   UNL A   1      41.226  28.366  32.139  1.00  0.00     0.074 A 
ATOM     16  C   UNL A   1      40.832  27.917  29.739  1.00  0.00     0.049 A 
ATOM     17  N   UNL A   1      42.457  28.716  32.342  1.00  0.00    -0.248 NA
ATOM     18  C   UNL A   1      40.553  27.822  33.326  1.00  0.00     0.031 C 
ATOM     19  C   UNL A   1      40.063  27.731  28.504  1.00  0.00     0.029 A 
ATOM     20  N   UNL A   1      42.012  27.290  29.467  1.00  0.00    -0.354 N 
ATOM     21  C   UNL A   1      42.771  28.295  33.635  1.00  0.00     0.074 A 
ATOM     22  C   UNL A   1      41.538  27.842  34.225  1.00  0.00     0.031 C 
ATOM     23  C   UNL A   1      40.708  26.851  27.708  1.00  0.00     0.029 A 
ATOM     24  C   UNL A   1      41.986  26.522  28.313  1.00  0.00     0.049 A 
ATOM     25  H   UNL A   1      42.810  27.374  30.036  1.00  0.00     0.167 HD
ATOM     26  C   UNL A   1      44.059  28.177  34.060  1.00  0.00     0.037 A 
ATOM     27  C   UNL A   1      42.911  25.616  27.921  1.00  0.00     0.037 A 
ATOM     28  C   UNL A   1      44.952  29.006  33.295  1.00  0.00     0.049 A 
ATOM     29  C   UNL A   1      44.178  25.916  28.630  1.00  0.00     0.074 A 
ATOM     30  C   UNL A   1      45.055  30.364  33.057  1.00  0.00     0.029 A 
ATOM     31  N   UNL A   1      45.795  28.420  32.386  1.00  0.00    -0.354 N 
ATOM     32  N   UNL A   1      44.923  26.959  28.393  1.00  0.00    -0.248 NA
ATOM     33  C   UNL A   1      44.424  25.246  29.898  1.00  0.00     0.031 C 
ATOM     34  C   UNL A   1      45.549  30.474  31.724  1.00  0.00     0.029 A 
ATOM     35  C   UNL A   1      45.736  29.177  31.247  1.00  0.00     0.049 A 
ATOM     36  H   UNL A   1      46.339  27.610  32.526  1.00  0.00     0.167 HD
ATOM     37  C   UNL A   1      45.423  27.322  29.635  1.00  0.00     0.074 A 
ATOM     38  C   UNL A   1      45.174  26.172  30.498  1.00  0.00     0.031 C 
ATOM     39  C   UNL A   1      45.738  28.620  29.918  1.00  0.00     0.037 A 
BRANCH  26  40
ATOM     40  C   UNL A   1      44.558  27.057  34.949  1.00  0.00     0.064 A 
ATOM     41  C   UNL A   1      44.277  25.719  34.598  1.00  0.00     0.173 A 
ATOM     42  C   UNL A   1      45.014  27.250  36.271  1.00  0.00     0.173 A 
ATOM     43  F   UNL A   1      43.834  25.411  33.369  1.00  0.00    -0.203 F 
ATOM     44  C   UNL A   1      44.342  24.679  35.529  1.00  0.00     0.198 A 
ATOM     45  C   UNL A   1      45.129  26.201  37.183  1.00  0.00     0.198 A 
ATOM     46  F   UNL A   1      45.260  28.467  36.769  1.00  0.00    -0.203 F 
ATOM     47  F   UNL A   1      43.929  23.452  35.186  1.00  0.00    -0.200 F 
ATOM     48  C   UNL A   1      44.757  24.923  36.825  1.00  0.00     0.200 A 
ATOM     49  F   UNL A   1      45.522  26.459  38.437  1.00  0.00    -0.200 F 
ATOM     50  F   UNL A   1      44.750  23.944  37.739  1.00  0.00    -0.200 F 
ENDBRANCH  26  40
BRANCH  27  51
ATOM     51  C   UNL A   1      42.669  24.342  27.207  1.00  0.00     0.064 A 
ATOM     52  C   UNL A   1      43.021  24.182  25.860  1.00  0.00     0.173 A 
ATOM     53  C   UNL A   1      42.311  23.172  27.907  1.00  0.00     0.173 A 
ATOM     54  F   UNL A   1      43.424  25.237  25.138  1.00  0.00    -0.203 F 
ATOM     55  C   UNL A   1      43.026  22.922  25.252  1.00  0.00     0.198 A 
ATOM     56  C   UNL A   1      42.302  21.919  27.297  1.00  0.00     0.198 A 
ATOM     57  F   UNL A   1      42.052  23.206  29.223  1.00  0.00    -0.203 F 
ATOM     58  F   UNL A   1      43.423  22.798  23.977  1.00  0.00    -0.200 F 
ATOM     59  C   UNL A   1      42.672  21.792  25.971  1.00  0.00     0.200 A 
ATOM     60  F   UNL A   1      41.992  20.831  28.015  1.00  0.00    -0.200 F 
ATOM     61  F   UNL A   1      42.725  20.581  25.402  1.00  0.00    -0.200 F 
ENDBRANCH  27  51
BRANCH  39  62
ATOM     62  C   UNL A   1      45.800  29.589  28.775  1.00  0.00     0.064 A 
ATOM     63  C   UNL A   1      44.669  30.230  28.241  1.00  0.00     0.173 A 
ATOM     64  C   UNL A   1      47.056  29.990  28.301  1.00  0.00     0.173 A 
ATOM     65  F   UNL A   1      43.445  29.982  28.725  1.00  0.00    -0.203 F 
ATOM     66  C   UNL A   1      44.790  31.191  27.240  1.00  0.00     0.198 A 
ATOM     67  C   UNL A   1      47.176  30.976  27.324  1.00  0.00     0.198 A 
ATOM     68  F   UNL A   1      48.173  29.459  28.820  1.00  0.00    -0.203 F 
ATOM     69  F   UNL A   1      43.694  31.781  26.738  1.00  0.00    -0.200 F 
ATOM     70  C   UNL A   1      46.043  31.567  26.786  1.00  0.00     0.200 A 
ATOM     71  F   UNL A   1      48.392  31.377  26.927  1.00  0.00    -0.200 F 
ATOM     72  F   UNL A   1      46.162  32.521  25.853  1.00  0.00    -0.200 F 
ENDBRANCH  39  62
ENDBRANCH  13  14
ENDBRANCH   6   8
ENDBRANCH   5   6
ENDBRANCH   4   5
ENDBRANCH   3   4
ENDBRANCH   2   3
ENDBRANCH   1   2
BRANCH   1  73
ATOM     73  C   UNL A   1      32.142  28.524  27.089  1.00  0.00     0.188 C 
BRANCH  73  74
ATOM     74  O   UNL A   1      31.374  28.516  25.892  1.00  0.00    -0.376 OA
BRANCH  74  75
ATOM     75  C   UNL A   1      31.399  29.629  25.017  1.00  0.00     0.202 C 
BRANCH  75  76
ATOM     76  C   UNL A   1      30.416  29.639  23.839  1.00  0.00     0.261 C 
BRANCH  76  77
ATOM     77  O   UNL A   1      30.607  28.616  22.846  1.00  0.00    -0.460 OA
BRANCH  77  78
ATOM     78  C   UNL A   1      31.889  28.255  22.630  1.00  0.00     0.338 C 
ATOM     79  O   UNL A   1      32.817  28.974  22.260  1.00  0.00    -0.246 OA
BRANCH  78  80
ATOM     80  C   UNL A   1      32.097  26.832  22.944  1.00  0.00     0.060 A 
ATOM     81  C   UNL A   1      31.005  25.960  22.938  1.00  0.00     0.018 A 
ATOM     82  C   UNL A   1      33.343  26.387  23.383  1.00  0.00     0.018 A 
ATOM     83  C   UNL A   1      31.153  24.650  23.403  1.00  0.00     0.027 A 
ATOM     84  C   UNL A   1      33.475  25.083  23.880  1.00  0.00     0.027 A 
ATOM     85  C   UNL A   1      32.376  24.219  23.931  1.00  0.00     0.045 A 
BRANCH  85  86
ATOM     86  N   UNL A   1      32.466  22.942  24.546  1.00  0.00    -0.299 N 
ATOM     87  C   UNL A   1      32.118  22.788  25.922  1.00  0.00     0.259 C 
ATOM     88  C   UNL A   1      33.541  21.993  24.156  1.00  0.00     0.152 C 
ATOM     89  C   UNL A   1      32.905  21.618  26.459  1.00  0.00     0.248 C 
ATOM     90  O   UNL A   1      31.343  23.484  26.561  1.00  0.00    -0.271 OA
ATOM     91  C   UNL A   1      34.056  21.738  25.529  1.00  0.00     0.021 C 
ATOM     92  N   UNL A   1      33.521  21.833  27.772  1.00  0.00    -0.170 NA
ATOM     93  C   UNL A   1      35.134  21.897  26.302  1.00  0.00     0.097 C 
ATOM     94  N   UNL A   1      34.778  21.855  27.639  1.00  0.00    -0.154 NA
BRANCH  88  95
ATOM     95  C   UNL A   1      32.972  20.714  23.503  1.00  0.00    -0.020 A 
ATOM     96  C   UNL A   1      32.190  20.749  22.329  1.00  0.00     0.006 A 
ATOM     97  C   UNL A   1      33.247  19.445  24.038  1.00  0.00     0.022 A 
ATOM     98  C   UNL A   1      31.817  19.578  21.658  1.00  0.00     0.002 A 
ATOM     99  C   UNL A   1      32.878  18.275  23.364  1.00  0.00     0.018 A 
ATOM    100  C   UNL A   1      32.182  18.336  22.164  1.00  0.00     0.016 A 
ATOM    101  Br  UNL A   1      33.354  16.591  24.081  1.00  0.00    -0.051 Br
ENDBRANCH  88  95
BRANCH  93 102
ATOM    102  C   UNL A   1      36.479  22.404  26.008  1.00  0.00     0.002 A 
ATOM    103  C   UNL A   1      37.548  21.531  25.778  1.00  0.00     0.010 A 
ATOM    104  C   UNL A   1      36.750  23.757  26.269  1.00  0.00     0.010 A 
ATOM    105  C   UNL A   1      38.867  21.994  25.867  1.00  0.00     0.001 A 
ATOM    106  C   UNL A   1      38.067  24.216  26.363  1.00  0.00     0.001 A 
ATOM    107  C   UNL A   1      39.125  23.330  26.181  1.00  0.00     0.000 A 
ENDBRANCH  93 102
ENDBRANCH  85  86
ENDBRANCH  78  80
ENDBRANCH  77  78
ENDBRANCH  76  77
ENDBRANCH  75  76
ENDBRANCH  74  75
ENDBRANCH  73  74
ENDBRANCH   1  73
TORSDOF 20
ENDMDL
MODEL 3
REMARK VINA RESULT:     -12.0      5.006     10.594
REMARK SMILES O=C(OCCOCCOCCOC(=O)c1ccc(N2C(=O)[C@@H]3N=NC(c4ccccc4)=C3[C@H]2c2cccc(Br)c2)cc1)c1ccc(-c2c3nc(c(-c4c(F)c(F)c(F)c(F)c4F)c4ccc([nH]4)c(-c4c(F)c(F)c(F)c(F)c4F)c4nc(c(-c5c(F)c(F)c(F)c(F)c5F)c5ccc2[nH]5)C=C4)C=C3)cc1
REMARK SMILES IDX 7 1 6 2 5 3 4 4 3 5 2 6 1 7 43 8 44 9 105 10 45 11 104 12
REMARK SMILES IDX 46 13 47 14 48 15 98 16 49 17 103 18 97 19 99 20 50 21
REMARK SMILES IDX 102 22 96 23 95 24 51 26 83 27 63 28 82 29 64 30 67 31 81 32
REMARK SMILES IDX 100 33 65 34 66 35 80 37 101 38 68 39 52 40 53 41 61 42
REMARK SMILES IDX 54 43 55 44 59 45 62 46 56 47 57 48 60 49 58 50 84 51 85 52
REMARK SMILES IDX 93 53 86 54 87 55 91 56 94 57 88 58 89 59 92 60 90 61 69 62
REMARK SMILES IDX 70 63 78 64 71 65 72 66 76 67 79 68 73 69 74 70 77 71 75 72
REMARK SMILES IDX 8 73 9 74 10 75 11 76 12 77 13 78 14 79 15 80 16 81 42 82
REMARK SMILES IDX 17 83 41 84 18 85 19 86 20 87 33 88 22 89 21 90 32 91 23 92
REMARK SMILES IDX 25 93 24 94 34 95 35 96 40 97 36 98 38 99 37 100 39 101
REMARK SMILES IDX 26 102 27 103 31 104 28 105 30 106 29 107
REMARK H PARENT 99 25 67 36
REMARK Flexibility Score: inf
ROOT
ATOM      1  C   UNL A   1      34.933  35.365  32.787  1.00  0.00     0.188 C 
ENDROOT
BRANCH   1   2
ATOM      2  O   UNL A   1      34.774  34.961  34.137  1.00  0.00    -0.376 OA
BRANCH   2   3
ATOM      3  C   UNL A   1      35.669  33.990  34.643  1.00  0.00     0.202 C 
BRANCH   3   4
ATOM      4  C   UNL A   1      36.532  33.245  33.618  1.00  0.00     0.261 C 
BRANCH   4   5
ATOM      5  O   UNL A   1      35.997  32.004  33.134  1.00  0.00    -0.460 OA
BRANCH   5   6
ATOM      6  C   UNL A   1      36.468  31.129  32.229  1.00  0.00     0.338 C 
ATOM      7  O   UNL A   1      35.732  30.736  31.325  1.00  0.00    -0.246 OA
BRANCH   6   8
ATOM      8  C   UNL A   1      37.775  30.446  32.391  1.00  0.00     0.060 A 
ATOM      9  C   UNL A   1      39.016  31.079  32.396  1.00  0.00     0.016 A 
ATOM     10  C   UNL A   1      37.722  29.038  32.445  1.00  0.00     0.016 A 
ATOM     11  C   UNL A   1      40.179  30.323  32.341  1.00  0.00     0.010 A 
ATOM     12  C   UNL A   1      38.883  28.279  32.393  1.00  0.00     0.010 A 
ATOM     13  C   UNL A   1      40.104  28.930  32.261  1.00  0.00    -0.014 A 
BRANCH  13  14
ATOM     14  C   UNL A   1      41.331  28.215  31.925  1.00  0.00     0.031 A 
ATOM     15  C   UNL A   1      42.303  27.973  33.025  1.00  0.00     0.074 A 
ATOM     16  C   UNL A   1      41.564  27.773  30.672  1.00  0.00     0.049 A 
ATOM     17  N   UNL A   1      43.552  28.316  33.083  1.00  0.00    -0.248 NA
ATOM     18  C   UNL A   1      41.808  27.298  34.232  1.00  0.00     0.031 C 
ATOM     19  C   UNL A   1      40.624  27.707  29.549  1.00  0.00     0.029 A 
ATOM     20  N   UNL A   1      42.691  27.194  30.168  1.00  0.00    -0.354 N 
ATOM     21  C   UNL A   1      44.049  27.766  34.266  1.00  0.00     0.074 A 
ATOM     22  C   UNL A   1      42.913  27.237  34.976  1.00  0.00     0.031 C 
ATOM     23  C   UNL A   1      41.144  26.925  28.579  1.00  0.00     0.029 A 
ATOM     24  C   UNL A   1      42.496  26.551  28.956  1.00  0.00     0.049 A 
ATOM     25  H   UNL A   1      43.563  27.228  30.622  1.00  0.00     0.167 HD
ATOM     26  C   UNL A   1      45.384  27.621  34.485  1.00  0.00     0.037 A 
ATOM     27  C   UNL A   1      43.353  25.703  28.340  1.00  0.00     0.037 A 
ATOM     28  C   UNL A   1      46.159  28.537  33.691  1.00  0.00     0.049 A 
ATOM     29  C   UNL A   1      44.709  25.944  28.886  1.00  0.00     0.074 A 
ATOM     30  C   UNL A   1      46.229  29.913  33.586  1.00  0.00     0.029 A 
ATOM     31  N   UNL A   1      46.859  28.061  32.613  1.00  0.00    -0.354 N 
ATOM     32  N   UNL A   1      45.414  27.016  28.656  1.00  0.00    -0.248 NA
ATOM     33  C   UNL A   1      45.135  25.148  30.027  1.00  0.00     0.031 C 
ATOM     34  C   UNL A   1      46.525  30.170  32.214  1.00  0.00     0.029 A 
ATOM     35  C   UNL A   1      46.637  28.933  31.581  1.00  0.00     0.049 A 
ATOM     36  H   UNL A   1      47.416  27.248  32.586  1.00  0.00     0.167 HD
ATOM     37  C   UNL A   1      46.090  27.253  29.844  1.00  0.00     0.074 A 
ATOM     38  C   UNL A   1      45.967  26.016  30.608  1.00  0.00     0.031 C 
ATOM     39  C   UNL A   1      46.446  28.518  30.214  1.00  0.00     0.037 A 
BRANCH  26  40
ATOM     40  C   UNL A   1      46.005  26.420  35.169  1.00  0.00     0.064 A 
ATOM     41  C   UNL A   1      46.772  26.611  36.338  1.00  0.00     0.173 A 
ATOM     42  C   UNL A   1      46.143  25.156  34.557  1.00  0.00     0.173 A 
ATOM     43  F   UNL A   1      46.726  27.774  37.006  1.00  0.00    -0.203 F 
ATOM     44  C   UNL A   1      47.683  25.653  36.791  1.00  0.00     0.198 A 
ATOM     45  C   UNL A   1      47.014  24.181  35.043  1.00  0.00     0.198 A 
ATOM     46  F   UNL A   1      45.530  24.849  33.408  1.00  0.00    -0.203 F 
ATOM     47  F   UNL A   1      48.490  25.938  37.822  1.00  0.00    -0.200 F 
ATOM     48  C   UNL A   1      47.813  24.443  36.136  1.00  0.00     0.200 A 
ATOM     49  F   UNL A   1      47.134  23.019  34.388  1.00  0.00    -0.200 F 
ATOM     50  F   UNL A   1      48.736  23.554  36.522  1.00  0.00    -0.200 F 
ENDBRANCH  26  40
BRANCH  27  51
ATOM     51  C   UNL A   1      43.006  24.509  27.538  1.00  0.00     0.064 A 
ATOM     52  C   UNL A   1      43.275  24.449  26.163  1.00  0.00     0.173 A 
ATOM     53  C   UNL A   1      42.629  23.300  28.157  1.00  0.00     0.173 A 
ATOM     54  F   UNL A   1      43.690  25.543  25.510  1.00  0.00    -0.203 F 
ATOM     55  C   UNL A   1      43.181  23.248  25.453  1.00  0.00     0.198 A 
ATOM     56  C   UNL A   1      42.523  22.106  27.446  1.00  0.00     0.198 A 
ATOM     57  F   UNL A   1      42.446  23.232  29.485  1.00  0.00    -0.203 F 
ATOM     58  F   UNL A   1      43.500  23.216  24.151  1.00  0.00    -0.200 F 
ATOM     59  C   UNL A   1      42.811  22.077  26.095  1.00  0.00     0.200 A 
ATOM     60  F   UNL A   1      42.198  20.976  28.089  1.00  0.00    -0.200 F 
ATOM     61  F   UNL A   1      42.771  20.918  25.425  1.00  0.00    -0.200 F 
ENDBRANCH  27  51
BRANCH  39  62
ATOM     62  C   UNL A   1      46.344  29.602  29.183  1.00  0.00     0.064 A 
ATOM     63  C   UNL A   1      47.419  30.000  28.369  1.00  0.00     0.173 A 
ATOM     64  C   UNL A   1      45.086  30.155  28.909  1.00  0.00     0.173 A 
ATOM     65  F   UNL A   1      48.626  29.432  28.497  1.00  0.00    -0.203 F 
ATOM     66  C   UNL A   1      47.250  30.949  27.364  1.00  0.00     0.198 A 
ATOM     67  C   UNL A   1      44.913  31.077  27.880  1.00  0.00     0.198 A 
ATOM     68  F   UNL A   1      44.011  29.763  29.611  1.00  0.00    -0.203 F 
ATOM     69  F   UNL A   1      48.294  31.321  26.608  1.00  0.00    -0.200 F 
ATOM     70  C   UNL A   1      45.996  31.482  27.116  1.00  0.00     0.200 A 
ATOM     71  F   UNL A   1      43.688  31.549  27.607  1.00  0.00    -0.200 F 
ATOM     72  F   UNL A   1      45.825  32.364  26.122  1.00  0.00    -0.200 F 
ENDBRANCH  39  62
ENDBRANCH  13  14
ENDBRANCH   6   8
ENDBRANCH   5   6
ENDBRANCH   4   5
ENDBRANCH   3   4
ENDBRANCH   2   3
ENDBRANCH   1   2
BRANCH   1  73
ATOM     73  C   UNL A   1      33.645  35.272  31.939  1.00  0.00     0.188 C 
BRANCH  73  74
ATOM     74  O   UNL A   1      33.596  34.527  30.728  1.00  0.00    -0.376 OA
BRANCH  74  75
ATOM     75  C   UNL A   1      34.763  33.905  30.222  1.00  0.00     0.202 C 
BRANCH  75  76
ATOM     76  C   UNL A   1      35.078  34.075  28.730  1.00  0.00     0.261 C 
BRANCH  76  77
ATOM     77  O   UNL A   1      34.644  33.011  27.866  1.00  0.00    -0.460 OA
BRANCH  77  78
ATOM     78  C   UNL A   1      35.374  31.877  27.937  1.00  0.00     0.338 C 
ATOM     79  O   UNL A   1      36.521  31.751  28.367  1.00  0.00    -0.246 OA
BRANCH  78  80
ATOM     80  C   UNL A   1      34.600  30.720  27.462  1.00  0.00     0.060 A 
ATOM     81  C   UNL A   1      35.223  29.472  27.356  1.00  0.00     0.018 A 
ATOM     82  C   UNL A   1      33.301  30.894  26.985  1.00  0.00     0.018 A 
ATOM     83  C   UNL A   1      34.557  28.407  26.743  1.00  0.00     0.027 A 
ATOM     84  C   UNL A   1      32.654  29.830  26.342  1.00  0.00     0.027 A 
ATOM     85  C   UNL A   1      33.289  28.594  26.180  1.00  0.00     0.045 A 
BRANCH  85  86
ATOM     86  N   UNL A   1      32.695  27.550  25.422  1.00  0.00    -0.299 N 
ATOM     87  C   UNL A   1      33.150  27.286  24.095  1.00  0.00     0.259 C 
ATOM     88  C   UNL A   1      31.247  27.249  25.562  1.00  0.00     0.152 C 
ATOM     89  C   UNL A   1      31.997  26.679  23.334  1.00  0.00     0.248 C 
ATOM     90  O   UNL A   1      34.260  27.526  23.644  1.00  0.00    -0.271 OA
ATOM     91  C   UNL A   1      30.911  27.326  24.113  1.00  0.00     0.021 C 
ATOM     92  N   UNL A   1      31.793  27.212  21.984  1.00  0.00    -0.170 NA
ATOM     93  C   UNL A   1      30.194  28.024  23.229  1.00  0.00     0.097 C 
ATOM     94  N   UNL A   1      30.703  27.852  21.953  1.00  0.00    -0.154 NA
BRANCH  88  95
ATOM     95  C   UNL A   1      31.005  25.836  26.138  1.00  0.00    -0.020 A 
ATOM     96  C   UNL A   1      29.715  25.270  26.231  1.00  0.00     0.006 A 
ATOM     97  C   UNL A   1      32.076  25.034  26.562  1.00  0.00     0.022 A 
ATOM     98  C   UNL A   1      29.523  23.933  26.602  1.00  0.00     0.002 A 
ATOM     99  C   UNL A   1      31.884  23.696  26.928  1.00  0.00     0.018 A 
ATOM    100  C   UNL A   1      30.613  23.136  26.930  1.00  0.00     0.016 A 
ATOM    101  Br  UNL A   1      33.373  22.631  27.402  1.00  0.00    -0.051 Br
ENDBRANCH  88  95
BRANCH  93 102
ATOM    102  C   UNL A   1      29.237  29.122  23.398  1.00  0.00     0.002 A 
ATOM    103  C   UNL A   1      27.994  29.107  22.753  1.00  0.00     0.010 A 
ATOM    104  C   UNL A   1      29.698  30.325  23.955  1.00  0.00     0.010 A 
ATOM    105  C   UNL A   1      27.257  30.290  22.617  1.00  0.00     0.001 A 
ATOM    106  C   UNL A   1      28.964  31.506  23.812  1.00  0.00     0.001 A 
ATOM    107  C   UNL A   1      27.753  31.491  23.127  1.00  0.00     0.000 A 
ENDBRANCH  93 102
ENDBRANCH  85  86
ENDBRANCH  78  80
ENDBRANCH  77  78
ENDBRANCH  76  77
ENDBRANCH  75  76
ENDBRANCH  74  75
ENDBRANCH  73  74
ENDBRANCH   1  73
TORSDOF 20
ENDMDL
