MODEL 1
REMARK VINA RESULT:      -9.0      0.000      0.000
REMARK SMILES C[C@@H](C(=O)OCCOCCOCCOC(=O)c1ccc(-c2c3nc(c(-c4c(F)c(F)c(F)c(F)c4F)c4ccc([nH]4)c(-c4c(F)c(F)c(F)c(F)c4F)c4nc(c(-c5c(F)c(F)c(F)c(F)c5F)c5ccc2[nH]5)C=C4)C=C3)cc1)c1ccc(C[C@H]2CCCC2=O)cc1
REMARK SMILES IDX 9 1 8 2 7 3 6 4 5 5 3 6 4 7 2 8 1 9 80 10 81 11 92 12 82 13
REMARK SMILES IDX 91 14 83 15 84 16 85 17 86 18 89 19 87 20 88 21 90 22 10 23
REMARK SMILES IDX 11 24 12 25 13 26 14 27 15 28 16 29 17 30 18 31 79 32 19 33
REMARK SMILES IDX 78 34 20 35 21 36 22 37 72 38 23 39 77 40 71 41 73 42 24 43
REMARK SMILES IDX 76 44 70 45 69 46 25 48 57 49 37 50 56 51 38 52 41 53 55 54
REMARK SMILES IDX 74 55 39 56 40 57 54 59 75 60 42 61 26 62 27 63 35 64 28 65
REMARK SMILES IDX 29 66 33 67 36 68 30 69 31 70 34 71 32 72 58 73 59 74 67 75
REMARK SMILES IDX 60 76 61 77 65 78 68 79 62 80 63 81 66 82 64 83 43 84 44 85
REMARK SMILES IDX 52 86 45 87 46 88 50 89 53 90 47 91 48 92 51 93 49 94
REMARK H PARENT 73 47 41 58
REMARK Flexibility Score: inf
ROOT
ATOM      1  C   UNL A   1      32.691  35.979  31.971  1.00  0.00     0.188 C 
ENDROOT
BRANCH   1   2
ATOM      2  O   UNL A   1      33.817  36.474  32.683  1.00  0.00    -0.376 OA
BRANCH   2   3
ATOM      3  C   UNL A   1      35.028  35.717  32.643  1.00  0.00     0.202 C 
BRANCH   3   4
ATOM      4  C   UNL A   1      35.368  34.770  33.811  1.00  0.00     0.261 C 
BRANCH   4   5
ATOM      5  O   UNL A   1      36.721  34.887  34.301  1.00  0.00    -0.463 OA
BRANCH   5   6
ATOM      6  C   UNL A   1      37.606  33.935  33.902  1.00  0.00     0.313 C 
ATOM      7  O   UNL A   1      38.411  34.095  32.989  1.00  0.00    -0.252 OA
BRANCH   6   8
ATOM      8  C   UNL A   1      37.580  32.658  34.763  1.00  0.00     0.126 C 
ATOM      9  C   UNL A   1      37.644  32.925  36.277  1.00  0.00     0.025 C 
BRANCH   8  10
ATOM     10  C   UNL A   1      38.490  31.521  34.265  1.00  0.00    -0.034 A 
ATOM     11  C   UNL A   1      37.987  30.454  33.503  1.00  0.00     0.005 A 
ATOM     12  C   UNL A   1      39.835  31.437  34.665  1.00  0.00     0.005 A 
ATOM     13  C   UNL A   1      38.776  29.343  33.182  1.00  0.00     0.004 A 
ATOM     14  C   UNL A   1      40.616  30.306  34.377  1.00  0.00     0.004 A 
ATOM     15  C   UNL A   1      40.077  29.225  33.674  1.00  0.00    -0.047 A 
BRANCH  15  16
ATOM     16  C   UNL A   1      40.862  27.943  33.505  1.00  0.00     0.047 C 
BRANCH  16  17
ATOM     17  C   UNL A   1      42.212  27.851  34.234  1.00  0.00     0.060 C 
ATOM     18  C   UNL A   1      42.162  27.347  35.679  1.00  0.00     0.012 C 
ATOM     19  C   UNL A   1      43.171  26.872  33.596  1.00  0.00     0.136 C 
ATOM     20  C   UNL A   1      42.455  25.853  35.621  1.00  0.00     0.009 C 
ATOM     21  C   UNL A   1      43.432  25.667  34.467  1.00  0.00     0.076 C 
ATOM     22  O   UNL A   1      43.687  27.042  32.495  1.00  0.00    -0.299 OA
ENDBRANCH  16  17
ENDBRANCH  15  16
ENDBRANCH   8  10
ENDBRANCH   6   8
ENDBRANCH   5   6
ENDBRANCH   4   5
ENDBRANCH   3   4
ENDBRANCH   2   3
ENDBRANCH   1   2
BRANCH   1  23
ATOM     23  C   UNL A   1      32.800  35.808  30.447  1.00  0.00     0.188 C 
BRANCH  23  24
ATOM     24  O   UNL A   1      33.139  34.513  30.018  1.00  0.00    -0.376 OA
BRANCH  24  25
ATOM     25  C   UNL A   1      33.664  34.318  28.717  1.00  0.00     0.202 C 
BRANCH  25  26
ATOM     26  C   UNL A   1      34.803  33.326  28.406  1.00  0.00     0.261 C 
BRANCH  26  27
ATOM     27  O   UNL A   1      34.789  32.052  29.066  1.00  0.00    -0.460 OA
BRANCH  27  28
ATOM     28  C   UNL A   1      34.798  30.949  28.284  1.00  0.00     0.338 C 
ATOM     29  O   UNL A   1      33.969  30.632  27.442  1.00  0.00    -0.246 OA
BRANCH  28  30
ATOM     30  C   UNL A   1      36.119  30.303  28.446  1.00  0.00     0.060 A 
ATOM     31  C   UNL A   1      36.424  29.664  29.658  1.00  0.00     0.016 A 
ATOM     32  C   UNL A   1      37.041  30.303  27.399  1.00  0.00     0.016 A 
ATOM     33  C   UNL A   1      37.658  29.037  29.831  1.00  0.00     0.010 A 
ATOM     34  C   UNL A   1      38.290  29.703  27.584  1.00  0.00     0.010 A 
ATOM     35  C   UNL A   1      38.614  29.092  28.809  1.00  0.00    -0.014 A 
BRANCH  35  36
ATOM     36  C   UNL A   1      40.014  28.686  29.082  1.00  0.00     0.031 A 
ATOM     37  C   UNL A   1      40.880  29.612  29.891  1.00  0.00     0.074 A 
ATOM     38  C   UNL A   1      40.512  27.525  28.626  1.00  0.00     0.049 A 
ATOM     39  N   UNL A   1      42.147  29.513  30.200  1.00  0.00    -0.248 NA
ATOM     40  C   UNL A   1      40.225  30.821  30.415  1.00  0.00     0.031 C 
ATOM     41  C   UNL A   1      39.768  26.531  27.859  1.00  0.00     0.029 A 
ATOM     42  N   UNL A   1      41.770  26.987  28.749  1.00  0.00    -0.354 N 
ATOM     43  C   UNL A   1      42.449  30.658  30.923  1.00  0.00     0.074 A 
ATOM     44  C   UNL A   1      41.236  31.443  30.999  1.00  0.00     0.031 C 
ATOM     45  C   UNL A   1      40.580  25.494  27.589  1.00  0.00     0.029 A 
ATOM     46  C   UNL A   1      41.912  25.772  28.126  1.00  0.00     0.049 A 
ATOM     47  H   UNL A   1      42.501  27.431  29.237  1.00  0.00     0.167 HD
ATOM     48  C   UNL A   1      43.631  31.024  31.472  1.00  0.00     0.037 A 
ATOM     49  C   UNL A   1      42.998  24.984  27.992  1.00  0.00     0.037 A 
ATOM     50  C   UNL A   1      44.835  30.239  31.396  1.00  0.00     0.049 A 
ATOM     51  C   UNL A   1      44.317  25.440  28.568  1.00  0.00     0.074 A 
ATOM     52  C   UNL A   1      46.079  30.517  31.935  1.00  0.00     0.029 A 
ATOM     53  N   UNL A   1      44.950  29.027  30.729  1.00  0.00    -0.354 N 
ATOM     54  N   UNL A   1      44.594  26.514  29.270  1.00  0.00    -0.248 NA
ATOM     55  C   UNL A   1      45.482  24.577  28.321  1.00  0.00     0.031 C 
ATOM     56  C   UNL A   1      46.961  29.505  31.542  1.00  0.00     0.029 A 
ATOM     57  C   UNL A   1      46.251  28.560  30.819  1.00  0.00     0.049 A 
ATOM     58  H   UNL A   1      44.214  28.568  30.262  1.00  0.00     0.167 HD
ATOM     59  C   UNL A   1      45.951  26.443  29.564  1.00  0.00     0.074 A 
ATOM     60  C   UNL A   1      46.439  25.209  28.985  1.00  0.00     0.031 C 
ATOM     61  C   UNL A   1      46.724  27.323  30.250  1.00  0.00     0.037 A 
BRANCH  48  62
ATOM     62  C   UNL A   1      43.693  32.355  32.163  1.00  0.00     0.064 A 
ATOM     63  C   UNL A   1      43.792  33.559  31.451  1.00  0.00     0.173 A 
ATOM     64  C   UNL A   1      43.621  32.425  33.563  1.00  0.00     0.173 A 
ATOM     65  F   UNL A   1      43.879  33.547  30.113  1.00  0.00    -0.203 F 
ATOM     66  C   UNL A   1      43.845  34.782  32.116  1.00  0.00     0.198 A 
ATOM     67  C   UNL A   1      43.640  33.650  34.223  1.00  0.00     0.198 A 
ATOM     68  F   UNL A   1      43.524  31.303  34.293  1.00  0.00    -0.203 F 
ATOM     69  F   UNL A   1      43.993  35.916  31.417  1.00  0.00    -0.200 F 
ATOM     70  C   UNL A   1      43.761  34.827  33.499  1.00  0.00     0.200 A 
ATOM     71  F   UNL A   1      43.543  33.692  35.559  1.00  0.00    -0.200 F 
ATOM     72  F   UNL A   1      43.802  36.005  34.137  1.00  0.00    -0.200 F 
ENDBRANCH  48  62
BRANCH  49  73
ATOM     73  C   UNL A   1      42.897  23.688  27.268  1.00  0.00     0.064 A 
ATOM     74  C   UNL A   1      42.405  22.541  27.908  1.00  0.00     0.173 A 
ATOM     75  C   UNL A   1      43.322  23.557  25.938  1.00  0.00     0.173 A 
ATOM     76  F   UNL A   1      42.023  22.602  29.193  1.00  0.00    -0.203 F 
ATOM     77  C   UNL A   1      42.370  21.310  27.254  1.00  0.00     0.198 A 
ATOM     78  C   UNL A   1      43.252  22.335  25.273  1.00  0.00     0.198 A 
ATOM     79  F   UNL A   1      43.818  24.619  25.284  1.00  0.00    -0.203 F 
ATOM     80  F   UNL A   1      41.972  20.214  27.916  1.00  0.00    -0.200 F 
ATOM     81  C   UNL A   1      42.787  21.209  25.936  1.00  0.00     0.200 A 
ATOM     82  F   UNL A   1      43.660  22.243  24.000  1.00  0.00    -0.200 F 
ATOM     83  F   UNL A   1      42.772  20.023  25.313  1.00  0.00    -0.200 F 
ENDBRANCH  49  73
BRANCH  61  84
ATOM     84  C   UNL A   1      48.171  26.967  30.458  1.00  0.00     0.064 A 
ATOM     85  C   UNL A   1      48.591  26.161  31.527  1.00  0.00     0.173 A 
ATOM     86  C   UNL A   1      49.145  27.397  29.543  1.00  0.00     0.173 A 
ATOM     87  F   UNL A   1      47.704  25.729  32.436  1.00  0.00    -0.203 F 
ATOM     88  C   UNL A   1      49.934  25.826  31.688  1.00  0.00     0.198 A 
ATOM     89  C   UNL A   1      50.480  27.030  29.686  1.00  0.00     0.198 A 
ATOM     90  F   UNL A   1      48.798  28.159  28.494  1.00  0.00    -0.203 F 
ATOM     91  F   UNL A   1      50.318  25.098  32.746  1.00  0.00    -0.200 F 
ATOM     92  C   UNL A   1      50.876  26.252  30.764  1.00  0.00     0.200 A 
ATOM     93  F   UNL A   1      51.385  27.427  28.780  1.00  0.00    -0.200 F 
ATOM     94  F   UNL A   1      52.164  25.919  30.914  1.00  0.00    -0.200 F 
ENDBRANCH  61  84
ENDBRANCH  35  36
ENDBRANCH  28  30
ENDBRANCH  27  28
ENDBRANCH  26  27
ENDBRANCH  25  26
ENDBRANCH  24  25
ENDBRANCH  23  24
ENDBRANCH   1  23
TORSDOF 20
ENDMDL
MODEL 2
REMARK VINA RESULT:      -8.8      4.585     11.346
REMARK SMILES C[C@@H](C(=O)OCCOCCOCCOC(=O)c1ccc(-c2c3nc(c(-c4c(F)c(F)c(F)c(F)c4F)c4ccc([nH]4)c(-c4c(F)c(F)c(F)c(F)c4F)c4nc(c(-c5c(F)c(F)c(F)c(F)c5F)c5ccc2[nH]5)C=C4)C=C3)cc1)c1ccc(C[C@H]2CCCC2=O)cc1
REMARK SMILES IDX 9 1 8 2 7 3 6 4 5 5 3 6 4 7 2 8 1 9 80 10 81 11 92 12 82 13
REMARK SMILES IDX 91 14 83 15 84 16 85 17 86 18 89 19 87 20 88 21 90 22 10 23
REMARK SMILES IDX 11 24 12 25 13 26 14 27 15 28 16 29 17 30 18 31 79 32 19 33
REMARK SMILES IDX 78 34 20 35 21 36 22 37 72 38 23 39 77 40 71 41 73 42 24 43
REMARK SMILES IDX 76 44 70 45 69 46 25 48 57 49 37 50 56 51 38 52 41 53 55 54
REMARK SMILES IDX 74 55 39 56 40 57 54 59 75 60 42 61 26 62 27 63 35 64 28 65
REMARK SMILES IDX 29 66 33 67 36 68 30 69 31 70 34 71 32 72 58 73 59 74 67 75
REMARK SMILES IDX 60 76 61 77 65 78 68 79 62 80 63 81 66 82 64 83 43 84 44 85
REMARK SMILES IDX 52 86 45 87 46 88 50 89 53 90 47 91 48 92 51 93 49 94
REMARK H PARENT 73 47 41 58
REMARK Flexibility Score: inf
ROOT
ATOM      1  C   UNL A   1      34.650  29.330  27.152  1.00  0.00     0.188 C 
ENDROOT
BRANCH   1   2
ATOM      2  O   UNL A   1      33.350  28.761  27.071  1.00  0.00    -0.376 OA
BRANCH   2   3
ATOM      3  C   UNL A   1      33.164  27.617  26.236  1.00  0.00     0.202 C 
BRANCH   3   4
ATOM      4  C   UNL A   1      32.373  26.407  26.773  1.00  0.00     0.261 C 
BRANCH   4   5
ATOM      5  O   UNL A   1      32.110  25.381  25.792  1.00  0.00    -0.463 OA
BRANCH   5   6
ATOM      6  C   UNL A   1      30.839  24.903  25.725  1.00  0.00     0.313 C 
ATOM      7  O   UNL A   1      30.191  24.554  26.707  1.00  0.00    -0.252 OA
BRANCH   6   8
ATOM      8  C   UNL A   1      30.239  24.925  24.307  1.00  0.00     0.126 C 
ATOM      9  C   UNL A   1      30.988  24.035  23.298  1.00  0.00     0.025 C 
BRANCH   8  10
ATOM     10  C   UNL A   1      29.860  26.323  23.784  1.00  0.00    -0.034 A 
ATOM     11  C   UNL A   1      28.532  26.777  23.792  1.00  0.00     0.005 A 
ATOM     12  C   UNL A   1      30.810  27.147  23.156  1.00  0.00     0.005 A 
ATOM     13  C   UNL A   1      28.162  27.980  23.177  1.00  0.00     0.004 A 
ATOM     14  C   UNL A   1      30.436  28.333  22.506  1.00  0.00     0.004 A 
ATOM     15  C   UNL A   1      29.098  28.736  22.468  1.00  0.00    -0.047 A 
BRANCH  15  16
ATOM     16  C   UNL A   1      28.670  29.922  21.632  1.00  0.00     0.047 C 
BRANCH  16  17
ATOM     17  C   UNL A   1      27.856  31.016  22.341  1.00  0.00     0.060 C 
ATOM     18  C   UNL A   1      28.124  31.188  23.838  1.00  0.00     0.012 C 
ATOM     19  C   UNL A   1      28.135  32.406  21.814  1.00  0.00     0.136 C 
ATOM     20  C   UNL A   1      29.144  32.313  23.964  1.00  0.00     0.009 C 
ATOM     21  C   UNL A   1      28.840  33.277  22.824  1.00  0.00     0.076 C 
ATOM     22  O   UNL A   1      27.817  32.786  20.690  1.00  0.00    -0.299 OA
ENDBRANCH  16  17
ENDBRANCH  15  16
ENDBRANCH   8  10
ENDBRANCH   6   8
ENDBRANCH   5   6
ENDBRANCH   4   5
ENDBRANCH   3   4
ENDBRANCH   2   3
ENDBRANCH   1   2
BRANCH   1  23
ATOM     23  C   UNL A   1      34.837  30.629  27.951  1.00  0.00     0.188 C 
BRANCH  23  24
ATOM     24  O   UNL A   1      34.404  31.796  27.297  1.00  0.00    -0.376 OA
BRANCH  24  25
ATOM     25  C   UNL A   1      33.111  32.310  27.556  1.00  0.00     0.202 C 
BRANCH  25  26
ATOM     26  C   UNL A   1      32.753  33.805  27.427  1.00  0.00     0.261 C 
BRANCH  26  27
ATOM     27  O   UNL A   1      32.396  34.520  28.618  1.00  0.00    -0.460 OA
BRANCH  27  28
ATOM     28  C   UNL A   1      33.311  35.376  29.125  1.00  0.00     0.338 C 
ATOM     29  O   UNL A   1      33.170  36.574  29.329  1.00  0.00    -0.246 OA
BRANCH  28  30
ATOM     30  C   UNL A   1      34.445  34.567  29.625  1.00  0.00     0.060 A 
ATOM     31  C   UNL A   1      34.233  33.680  30.691  1.00  0.00     0.016 A 
ATOM     32  C   UNL A   1      35.702  34.662  29.027  1.00  0.00     0.016 A 
ATOM     33  C   UNL A   1      35.283  32.898  31.174  1.00  0.00     0.010 A 
ATOM     34  C   UNL A   1      36.761  33.902  29.531  1.00  0.00     0.010 A 
ATOM     35  C   UNL A   1      36.564  33.038  30.623  1.00  0.00    -0.014 A 
BRANCH  35  36
ATOM     36  C   UNL A   1      37.733  32.433  31.306  1.00  0.00     0.031 A 
ATOM     37  C   UNL A   1      38.501  31.359  30.586  1.00  0.00     0.074 A 
ATOM     38  C   UNL A   1      38.111  32.824  32.534  1.00  0.00     0.049 A 
ATOM     39  N   UNL A   1      39.509  30.635  30.999  1.00  0.00    -0.248 NA
ATOM     40  C   UNL A   1      38.063  31.056  29.215  1.00  0.00     0.031 C 
ATOM     41  C   UNL A   1      37.469  33.872  33.321  1.00  0.00     0.029 A 
ATOM     42  N   UNL A   1      39.135  32.377  33.334  1.00  0.00    -0.354 N 
ATOM     43  C   UNL A   1      39.803  29.770  29.955  1.00  0.00     0.074 A 
ATOM     44  C   UNL A   1      38.861  30.051  28.893  1.00  0.00     0.031 C 
ATOM     45  C   UNL A   1      38.123  34.000  34.489  1.00  0.00     0.029 A 
ATOM     46  C   UNL A   1      39.200  33.012  34.549  1.00  0.00     0.049 A 
ATOM     47  H   UNL A   1      39.762  31.669  33.061  1.00  0.00     0.167 HD
ATOM     48  C   UNL A   1      40.768  28.823  29.888  1.00  0.00     0.037 A 
ATOM     49  C   UNL A   1      40.026  32.806  35.595  1.00  0.00     0.037 A 
ATOM     50  C   UNL A   1      41.705  28.547  30.947  1.00  0.00     0.049 A 
ATOM     51  C   UNL A   1      41.060  31.709  35.516  1.00  0.00     0.074 A 
ATOM     52  C   UNL A   1      42.731  27.619  30.966  1.00  0.00     0.029 A 
ATOM     53  N   UNL A   1      41.721  29.189  32.177  1.00  0.00    -0.354 N 
ATOM     54  N   UNL A   1      41.349  30.907  34.519  1.00  0.00    -0.248 NA
ATOM     55  C   UNL A   1      41.877  31.480  36.717  1.00  0.00     0.031 C 
ATOM     56  C   UNL A   1      43.328  27.656  32.231  1.00  0.00     0.029 A 
ATOM     57  C   UNL A   1      42.722  28.656  32.973  1.00  0.00     0.049 A 
ATOM     58  H   UNL A   1      41.112  29.915  32.442  1.00  0.00     0.167 HD
ATOM     59  C   UNL A   1      42.390  30.098  34.963  1.00  0.00     0.074 A 
ATOM     60  C   UNL A   1      42.698  30.521  36.313  1.00  0.00     0.031 C 
ATOM     61  C   UNL A   1      43.029  29.094  34.313  1.00  0.00     0.037 A 
BRANCH  48  62
ATOM     62  C   UNL A   1      40.831  27.982  28.647  1.00  0.00     0.064 A 
ATOM     63  C   UNL A   1      41.617  28.345  27.542  1.00  0.00     0.173 A 
ATOM     64  C   UNL A   1      40.115  26.777  28.575  1.00  0.00     0.173 A 
ATOM     65  F   UNL A   1      42.309  29.493  27.554  1.00  0.00    -0.203 F 
ATOM     66  C   UNL A   1      41.661  27.546  26.402  1.00  0.00     0.198 A 
ATOM     67  C   UNL A   1      40.188  25.964  27.447  1.00  0.00     0.198 A 
ATOM     68  F   UNL A   1      39.349  26.383  29.603  1.00  0.00    -0.203 F 
ATOM     69  F   UNL A   1      42.377  27.938  25.339  1.00  0.00    -0.200 F 
ATOM     70  C   UNL A   1      40.954  26.353  26.359  1.00  0.00     0.200 A 
ATOM     71  F   UNL A   1      39.516  24.805  27.413  1.00  0.00    -0.200 F 
ATOM     72  F   UNL A   1      41.006  25.580  25.265  1.00  0.00    -0.200 F 
ENDBRANCH  48  62
BRANCH  49  73
ATOM     73  C   UNL A   1      39.904  33.642  36.820  1.00  0.00     0.064 A 
ATOM     74  C   UNL A   1      38.989  33.312  37.831  1.00  0.00     0.173 A 
ATOM     75  C   UNL A   1      40.667  34.806  36.991  1.00  0.00     0.173 A 
ATOM     76  F   UNL A   1      38.205  32.231  37.698  1.00  0.00    -0.203 F 
ATOM     77  C   UNL A   1      38.823  34.128  38.949  1.00  0.00     0.198 A 
ATOM     78  C   UNL A   1      40.529  35.601  38.127  1.00  0.00     0.198 A 
ATOM     79  F   UNL A   1      41.545  35.179  36.047  1.00  0.00    -0.203 F 
ATOM     80  F   UNL A   1      37.884  33.832  39.858  1.00  0.00    -0.200 F 
ATOM     81  C   UNL A   1      39.598  35.268  39.099  1.00  0.00     0.200 A 
ATOM     82  F   UNL A   1      41.277  36.705  38.265  1.00  0.00    -0.200 F 
ATOM     83  F   UNL A   1      39.426  36.064  40.164  1.00  0.00    -0.200 F 
ENDBRANCH  49  73
BRANCH  61  84
ATOM     84  C   UNL A   1      44.162  28.408  35.027  1.00  0.00     0.064 A 
ATOM     85  C   UNL A   1      43.969  27.235  35.772  1.00  0.00     0.173 A 
ATOM     86  C   UNL A   1      45.470  28.906  34.920  1.00  0.00     0.173 A 
ATOM     87  F   UNL A   1      42.738  26.721  35.914  1.00  0.00    -0.203 F 
ATOM     88  C   UNL A   1      45.037  26.604  36.407  1.00  0.00     0.198 A 
ATOM     89  C   UNL A   1      46.541  28.252  35.526  1.00  0.00     0.198 A 
ATOM     90  F   UNL A   1      45.717  30.017  34.210  1.00  0.00    -0.203 F 
ATOM     91  F   UNL A   1      44.818  25.514  37.155  1.00  0.00    -0.200 F 
ATOM     92  C   UNL A   1      46.322  27.107  36.277  1.00  0.00     0.200 A 
ATOM     93  F   UNL A   1      47.785  28.730  35.381  1.00  0.00    -0.200 F 
ATOM     94  F   UNL A   1      47.349  26.493  36.878  1.00  0.00    -0.200 F 
ENDBRANCH  61  84
ENDBRANCH  35  36
ENDBRANCH  28  30
ENDBRANCH  27  28
ENDBRANCH  26  27
ENDBRANCH  25  26
ENDBRANCH  24  25
ENDBRANCH  23  24
ENDBRANCH   1  23
TORSDOF 20
ENDMDL
MODEL 3
REMARK VINA RESULT:      -8.8      4.284      7.145
REMARK SMILES C[C@@H](C(=O)OCCOCCOCCOC(=O)c1ccc(-c2c3nc(c(-c4c(F)c(F)c(F)c(F)c4F)c4ccc([nH]4)c(-c4c(F)c(F)c(F)c(F)c4F)c4nc(c(-c5c(F)c(F)c(F)c(F)c5F)c5ccc2[nH]5)C=C4)C=C3)cc1)c1ccc(C[C@H]2CCCC2=O)cc1
REMARK SMILES IDX 9 1 8 2 7 3 6 4 5 5 3 6 4 7 2 8 1 9 80 10 81 11 92 12 82 13
REMARK SMILES IDX 91 14 83 15 84 16 85 17 86 18 89 19 87 20 88 21 90 22 10 23
REMARK SMILES IDX 11 24 12 25 13 26 14 27 15 28 16 29 17 30 18 31 79 32 19 33
REMARK SMILES IDX 78 34 20 35 21 36 22 37 72 38 23 39 77 40 71 41 73 42 24 43
REMARK SMILES IDX 76 44 70 45 69 46 25 48 57 49 37 50 56 51 38 52 41 53 55 54
REMARK SMILES IDX 74 55 39 56 40 57 54 59 75 60 42 61 26 62 27 63 35 64 28 65
REMARK SMILES IDX 29 66 33 67 36 68 30 69 31 70 34 71 32 72 58 73 59 74 67 75
REMARK SMILES IDX 60 76 61 77 65 78 68 79 62 80 63 81 66 82 64 83 43 84 44 85
REMARK SMILES IDX 52 86 45 87 46 88 50 89 53 90 47 91 48 92 51 93 49 94
REMARK H PARENT 73 47 41 58
REMARK Flexibility Score: inf
ROOT
ATOM      1  C   UNL A   1      33.722  33.807  28.345  1.00  0.00     0.188 C 
ENDROOT
BRANCH   1   2
ATOM      2  O   UNL A   1      32.824  33.075  27.521  1.00  0.00    -0.376 OA
BRANCH   2   3
ATOM      3  C   UNL A   1      32.819  31.650  27.627  1.00  0.00     0.202 C 
BRANCH   3   4
ATOM      4  C   UNL A   1      32.346  30.803  26.428  1.00  0.00     0.261 C 
BRANCH   4   5
ATOM      5  O   UNL A   1      33.330  29.875  25.925  1.00  0.00    -0.463 OA
BRANCH   5   6
ATOM      6  C   UNL A   1      32.879  28.658  25.518  1.00  0.00     0.313 C 
ATOM      7  O   UNL A   1      31.808  28.176  25.874  1.00  0.00    -0.252 OA
BRANCH   6   8
ATOM      8  C   UNL A   1      33.791  27.969  24.486  1.00  0.00     0.126 C 
ATOM      9  C   UNL A   1      33.939  28.748  23.166  1.00  0.00     0.025 C 
BRANCH   8  10
ATOM     10  C   UNL A   1      33.559  26.456  24.324  1.00  0.00    -0.034 A 
ATOM     11  C   UNL A   1      33.982  25.538  25.300  1.00  0.00     0.005 A 
ATOM     12  C   UNL A   1      33.036  25.922  23.134  1.00  0.00     0.005 A 
ATOM     13  C   UNL A   1      33.915  24.155  25.087  1.00  0.00     0.004 A 
ATOM     14  C   UNL A   1      33.003  24.538  22.903  1.00  0.00     0.004 A 
ATOM     15  C   UNL A   1      33.490  23.641  23.860  1.00  0.00    -0.047 A 
BRANCH  15  16
ATOM     16  C   UNL A   1      33.607  22.166  23.549  1.00  0.00     0.047 C 
BRANCH  16  17
ATOM     17  C   UNL A   1      33.439  21.191  24.725  1.00  0.00     0.060 C 
ATOM     18  C   UNL A   1      32.304  20.172  24.596  1.00  0.00     0.012 C 
ATOM     19  C   UNL A   1      34.639  20.294  24.934  1.00  0.00     0.136 C 
ATOM     20  C   UNL A   1      32.933  18.898  24.044  1.00  0.00     0.009 C 
ATOM     21  C   UNL A   1      34.341  18.847  24.625  1.00  0.00     0.076 C 
ATOM     22  O   UNL A   1      35.732  20.697  25.321  1.00  0.00    -0.299 OA
ENDBRANCH  16  17
ENDBRANCH  15  16
ENDBRANCH   8  10
ENDBRANCH   6   8
ENDBRANCH   5   6
ENDBRANCH   4   5
ENDBRANCH   3   4
ENDBRANCH   2   3
ENDBRANCH   1   2
BRANCH   1  23
ATOM     23  C   UNL A   1      33.261  35.154  28.922  1.00  0.00     0.188 C 
BRANCH  23  24
ATOM     24  O   UNL A   1      32.746  35.095  30.229  1.00  0.00    -0.376 OA
BRANCH  24  25
ATOM     25  C   UNL A   1      33.626  35.169  31.336  1.00  0.00     0.202 C 
BRANCH  25  26
ATOM     26  C   UNL A   1      34.189  33.925  32.053  1.00  0.00     0.261 C 
BRANCH  26  27
ATOM     27  O   UNL A   1      35.567  33.587  31.840  1.00  0.00    -0.460 OA
BRANCH  27  28
ATOM     28  C   UNL A   1      36.135  32.724  32.711  1.00  0.00     0.338 C 
ATOM     29  O   UNL A   1      35.748  32.449  33.838  1.00  0.00    -0.246 OA
BRANCH  28  30
ATOM     30  C   UNL A   1      37.179  31.976  31.975  1.00  0.00     0.060 A 
ATOM     31  C   UNL A   1      38.131  31.241  32.698  1.00  0.00     0.016 A 
ATOM     32  C   UNL A   1      37.200  31.976  30.580  1.00  0.00     0.016 A 
ATOM     33  C   UNL A   1      39.117  30.518  32.027  1.00  0.00     0.010 A 
ATOM     34  C   UNL A   1      38.207  31.277  29.909  1.00  0.00     0.010 A 
ATOM     35  C   UNL A   1      39.186  30.569  30.629  1.00  0.00    -0.014 A 
BRANCH  35  36
ATOM     36  C   UNL A   1      40.384  30.047  29.927  1.00  0.00     0.031 A 
ATOM     37  C   UNL A   1      41.552  30.972  29.726  1.00  0.00     0.074 A 
ATOM     38  C   UNL A   1      40.440  28.783  29.477  1.00  0.00     0.049 A 
ATOM     39  N   UNL A   1      42.674  30.772  29.084  1.00  0.00    -0.248 NA
ATOM     40  C   UNL A   1      41.430  32.311  30.323  1.00  0.00     0.031 C 
ATOM     41  C   UNL A   1      39.390  27.782  29.636  1.00  0.00     0.029 A 
ATOM     42  N   UNL A   1      41.434  28.126  28.792  1.00  0.00    -0.354 N 
ATOM     43  C   UNL A   1      43.375  31.967  29.172  1.00  0.00     0.074 A 
ATOM     44  C   UNL A   1      42.549  32.890  29.919  1.00  0.00     0.031 C 
ATOM     45  C   UNL A   1      39.799  26.630  29.076  1.00  0.00     0.029 A 
ATOM     46  C   UNL A   1      41.121  26.826  28.481  1.00  0.00     0.049 A 
ATOM     47  H   UNL A   1      42.290  28.548  28.547  1.00  0.00     0.167 HD
ATOM     48  C   UNL A   1      44.596  32.268  28.672  1.00  0.00     0.037 A 
ATOM     49  C   UNL A   1      41.816  25.907  27.781  1.00  0.00     0.037 A 
ATOM     50  C   UNL A   1      45.417  31.346  27.930  1.00  0.00     0.049 A 
ATOM     51  C   UNL A   1      43.153  26.285  27.189  1.00  0.00     0.074 A 
ATOM     52  C   UNL A   1      46.677  31.553  27.398  1.00  0.00     0.029 A 
ATOM     53  N   UNL A   1      45.054  30.046  27.607  1.00  0.00    -0.354 N 
ATOM     54  N   UNL A   1      43.822  27.409  27.292  1.00  0.00    -0.248 NA
ATOM     55  C   UNL A   1      43.827  25.266  26.369  1.00  0.00     0.031 C 
ATOM     56  C   UNL A   1      47.049  30.400  26.698  1.00  0.00     0.029 A 
ATOM     57  C   UNL A   1      46.054  29.450  26.856  1.00  0.00     0.049 A 
ATOM     58  H   UNL A   1      44.210  29.614  27.872  1.00  0.00     0.167 HD
ATOM     59  C   UNL A   1      44.999  27.225  26.573  1.00  0.00     0.074 A 
ATOM     60  C   UNL A   1      44.963  25.872  26.057  1.00  0.00     0.031 C 
ATOM     61  C   UNL A   1      46.014  28.097  26.358  1.00  0.00     0.037 A 
BRANCH  48  62
ATOM     62  C   UNL A   1      45.101  33.668  28.869  1.00  0.00     0.064 A 
ATOM     63  C   UNL A   1      45.904  34.022  29.963  1.00  0.00     0.173 A 
ATOM     64  C   UNL A   1      44.799  34.664  27.928  1.00  0.00     0.173 A 
ATOM     65  F   UNL A   1      46.209  33.112  30.899  1.00  0.00    -0.203 F 
ATOM     66  C   UNL A   1      46.362  35.327  30.122  1.00  0.00     0.198 A 
ATOM     67  C   UNL A   1      45.286  35.960  28.072  1.00  0.00     0.198 A 
ATOM     68  F   UNL A   1      44.036  34.380  26.861  1.00  0.00    -0.203 F 
ATOM     69  F   UNL A   1      47.084  35.655  31.203  1.00  0.00    -0.200 F 
ATOM     70  C   UNL A   1      46.060  36.292  29.173  1.00  0.00     0.200 A 
ATOM     71  F   UNL A   1      45.006  36.887  27.145  1.00  0.00    -0.200 F 
ATOM     72  F   UNL A   1      46.511  37.546  29.322  1.00  0.00    -0.200 F 
ENDBRANCH  48  62
BRANCH  49  73
ATOM     73  C   UNL A   1      41.260  24.541  27.582  1.00  0.00     0.064 A 
ATOM     74  C   UNL A   1      41.850  23.425  28.195  1.00  0.00     0.173 A 
ATOM     75  C   UNL A   1      40.155  24.315  26.749  1.00  0.00     0.173 A 
ATOM     76  F   UNL A   1      42.935  23.582  28.969  1.00  0.00    -0.203 F 
ATOM     77  C   UNL A   1      41.373  22.137  27.958  1.00  0.00     0.198 A 
ATOM     78  C   UNL A   1      39.655  23.031  26.543  1.00  0.00     0.198 A 
ATOM     79  F   UNL A   1      39.563  25.345  26.123  1.00  0.00    -0.203 F 
ATOM     80  F   UNL A   1      42.006  21.083  28.492  1.00  0.00    -0.200 F 
ATOM     81  C   UNL A   1      40.272  21.942  27.138  1.00  0.00     0.200 A 
ATOM     82  F   UNL A   1      38.594  22.847  25.745  1.00  0.00    -0.200 F 
ATOM     83  F   UNL A   1      39.825  20.702  26.895  1.00  0.00    -0.200 F 
ENDBRANCH  49  73
BRANCH  61  84
ATOM     84  C   UNL A   1      47.199  27.610  25.569  1.00  0.00     0.064 A 
ATOM     85  C   UNL A   1      47.261  27.729  24.172  1.00  0.00     0.173 A 
ATOM     86  C   UNL A   1      48.312  27.065  26.228  1.00  0.00     0.173 A 
ATOM     87  F   UNL A   1      46.222  28.235  23.491  1.00  0.00    -0.203 F 
ATOM     88  C   UNL A   1      48.379  27.292  23.464  1.00  0.00     0.198 A 
ATOM     89  C   UNL A   1      49.442  26.662  25.520  1.00  0.00     0.198 A 
ATOM     90  F   UNL A   1      48.314  26.939  27.563  1.00  0.00    -0.203 F 
ATOM     91  F   UNL A   1      48.393  27.368  22.126  1.00  0.00    -0.200 F 
ATOM     92  C   UNL A   1      49.471  26.767  24.138  1.00  0.00     0.200 A 
ATOM     93  F   UNL A   1      50.504  26.174  26.177  1.00  0.00    -0.200 F 
ATOM     94  F   UNL A   1      50.549  26.358  23.456  1.00  0.00    -0.200 F 
ENDBRANCH  61  84
ENDBRANCH  35  36
ENDBRANCH  28  30
ENDBRANCH  27  28
ENDBRANCH  26  27
ENDBRANCH  25  26
ENDBRANCH  24  25
ENDBRANCH  23  24
ENDBRANCH   1  23
TORSDOF 20
ENDMDL
