MODEL 1
REMARK VINA RESULT:     -11.0      0.000      0.000
REMARK SMILES O=C(OCCOCCOCCOC(=O)[C@@H](c1ccccc1)[C@H](C(=O)c1ccccc1)c1ccccc1)c1ccc(-c2c3nc(c(-c4c(F)c(F)c(F)c(F)c4F)c4ccc([nH]4)c(-c4c(F)c(F)c(F)c(F)c4F)c4nc(c(-c5c(F)c(F)c(F)c(F)c5F)c5ccc2[nH]5)C=C4)C=C3)cc1
REMARK SMILES IDX 8 1 7 2 6 3 5 4 4 5 3 6 2 7 1 8 37 9 38 10 99 11 39 12 98 13
REMARK SMILES IDX 40 14 41 15 42 16 92 17 43 18 97 19 91 20 93 21 44 22 96 23
REMARK SMILES IDX 90 24 89 25 45 27 77 28 57 29 76 30 58 31 61 32 75 33 94 34
REMARK SMILES IDX 59 35 60 36 74 38 95 39 62 40 46 41 47 42 55 43 48 44 49 45
REMARK SMILES IDX 53 46 56 47 50 48 51 49 54 50 52 51 78 52 79 53 87 54 80 55
REMARK SMILES IDX 81 56 85 57 88 58 82 59 83 60 86 61 84 62 63 63 64 64 72 65
REMARK SMILES IDX 65 66 66 67 70 68 73 69 67 70 68 71 71 72 69 73 9 74 10 75
REMARK SMILES IDX 11 76 12 77 13 78 14 79 15 80 16 81 17 82 21 83 18 84 20 85
REMARK SMILES IDX 19 86 22 87 31 88 32 89 36 90 33 91 35 92 34 93 23 94 24 95
REMARK SMILES IDX 25 96 26 97 30 98 27 99 29 100 28 101
REMARK H PARENT 93 26 61 37
REMARK Flexibility Score: inf
ROOT
ATOM      1  C   UNL A   1      40.905  21.434  27.500  1.00  0.00     0.188 C 
ENDROOT
BRANCH   1   2
ATOM      2  C   UNL A   1      41.898  20.552  26.749  1.00  0.00     0.188 C 
BRANCH   2   3
ATOM      3  O   UNL A   1      42.406  21.158  25.551  1.00  0.00    -0.376 OA
BRANCH   3   4
ATOM      4  C   UNL A   1      43.827  21.335  25.587  1.00  0.00     0.202 C 
BRANCH   4   5
ATOM      5  C   UNL A   1      44.420  22.177  24.446  1.00  0.00     0.261 C 
BRANCH   5   6
ATOM      6  O   UNL A   1      43.932  23.526  24.389  1.00  0.00    -0.460 OA
BRANCH   6   7
ATOM      7  C   UNL A   1      44.384  24.640  25.008  1.00  0.00     0.338 C 
ATOM      8  O   UNL A   1      45.443  25.125  24.606  1.00  0.00    -0.246 OA
BRANCH   7   9
ATOM      9  C   UNL A   1      43.722  25.311  26.175  1.00  0.00     0.060 A 
ATOM     10  C   UNL A   1      42.844  24.717  27.083  1.00  0.00     0.016 A 
ATOM     11  C   UNL A   1      44.111  26.641  26.431  1.00  0.00     0.016 A 
ATOM     12  C   UNL A   1      42.391  25.392  28.218  1.00  0.00     0.010 A 
ATOM     13  C   UNL A   1      43.692  27.314  27.586  1.00  0.00     0.010 A 
ATOM     14  C   UNL A   1      42.823  26.688  28.489  1.00  0.00    -0.014 A 
BRANCH  14  15
ATOM     15  C   UNL A   1      42.207  27.427  29.612  1.00  0.00     0.031 A 
ATOM     16  C   UNL A   1      42.911  27.377  30.926  1.00  0.00     0.074 A 
ATOM     17  C   UNL A   1      41.098  28.175  29.453  1.00  0.00     0.049 A 
ATOM     18  N   UNL A   1      42.625  27.994  32.039  1.00  0.00    -0.248 NA
ATOM     19  C   UNL A   1      44.099  26.510  30.999  1.00  0.00     0.031 C 
ATOM     20  C   UNL A   1      40.353  28.290  28.211  1.00  0.00     0.029 A 
ATOM     21  N   UNL A   1      40.405  28.981  30.322  1.00  0.00    -0.354 N 
ATOM     22  C   UNL A   1      43.597  27.592  32.935  1.00  0.00     0.074 A 
ATOM     23  C   UNL A   1      44.437  26.625  32.269  1.00  0.00     0.031 C 
ATOM     24  C   UNL A   1      39.298  29.098  28.390  1.00  0.00     0.029 A 
ATOM     25  C   UNL A   1      39.315  29.604  29.750  1.00  0.00     0.049 A 
ATOM     26  H   UNL A   1      40.661  29.105  31.264  1.00  0.00     0.167 HD
ATOM     27  C   UNL A   1      43.792  28.023  34.200  1.00  0.00     0.037 A 
ATOM     28  C   UNL A   1      38.456  30.509  30.259  1.00  0.00     0.037 A 
ATOM     29  C   UNL A   1      42.932  28.963  34.857  1.00  0.00     0.049 A 
ATOM     30  C   UNL A   1      38.682  30.946  31.683  1.00  0.00     0.074 A 
ATOM     31  C   UNL A   1      42.983  29.421  36.158  1.00  0.00     0.029 A 
ATOM     32  N   UNL A   1      41.847  29.584  34.249  1.00  0.00    -0.354 N 
ATOM     33  N   UNL A   1      39.638  30.594  32.511  1.00  0.00    -0.248 NA
ATOM     34  C   UNL A   1      37.724  31.907  32.245  1.00  0.00     0.031 C 
ATOM     35  C   UNL A   1      41.901  30.286  36.351  1.00  0.00     0.029 A 
ATOM     36  C   UNL A   1      41.210  30.412  35.155  1.00  0.00     0.049 A 
ATOM     37  H   UNL A   1      41.573  29.455  33.311  1.00  0.00     0.167 HD
ATOM     38  C   UNL A   1      39.404  31.295  33.682  1.00  0.00     0.074 A 
ATOM     39  C   UNL A   1      38.250  32.138  33.439  1.00  0.00     0.031 C 
ATOM     40  C   UNL A   1      40.061  31.233  34.866  1.00  0.00     0.037 A 
BRANCH  27  41
ATOM     41  C   UNL A   1      44.958  27.426  34.920  1.00  0.00     0.064 A 
ATOM     42  C   UNL A   1      44.826  26.248  35.674  1.00  0.00     0.173 A 
ATOM     43  C   UNL A   1      46.187  28.097  34.953  1.00  0.00     0.173 A 
ATOM     44  F   UNL A   1      43.650  25.599  35.713  1.00  0.00    -0.203 F 
ATOM     45  C   UNL A   1      45.871  25.787  36.468  1.00  0.00     0.198 A 
ATOM     46  C   UNL A   1      47.240  27.616  35.725  1.00  0.00     0.198 A 
ATOM     47  F   UNL A   1      46.352  29.240  34.271  1.00  0.00    -0.203 F 
ATOM     48  F   UNL A   1      45.694  24.712  37.249  1.00  0.00    -0.200 F 
ATOM     49  C   UNL A   1      47.077  26.471  36.492  1.00  0.00     0.200 A 
ATOM     50  F   UNL A   1      48.402  28.281  35.756  1.00  0.00    -0.200 F 
ATOM     51  F   UNL A   1      48.075  26.041  37.275  1.00  0.00    -0.200 F 
ENDBRANCH  27  41
BRANCH  28  52
ATOM     52  C   UNL A   1      37.349  31.096  29.444  1.00  0.00     0.064 A 
ATOM     53  C   UNL A   1      37.393  32.436  29.021  1.00  0.00     0.173 A 
ATOM     54  C   UNL A   1      36.198  30.364  29.114  1.00  0.00     0.173 A 
ATOM     55  F   UNL A   1      38.466  33.191  29.300  1.00  0.00    -0.203 F 
ATOM     56  C   UNL A   1      36.321  33.027  28.352  1.00  0.00     0.198 A 
ATOM     57  C   UNL A   1      35.144  30.944  28.406  1.00  0.00     0.198 A 
ATOM     58  F   UNL A   1      36.085  29.080  29.485  1.00  0.00    -0.203 F 
ATOM     59  F   UNL A   1      36.376  34.324  28.019  1.00  0.00    -0.200 F 
ATOM     60  C   UNL A   1      35.199  32.279  28.040  1.00  0.00     0.200 A 
ATOM     61  F   UNL A   1      34.066  30.212  28.091  1.00  0.00    -0.200 F 
ATOM     62  F   UNL A   1      34.169  32.846  27.395  1.00  0.00    -0.200 F 
ENDBRANCH  28  52
BRANCH  40  63
ATOM     63  C   UNL A   1      39.537  32.101  35.970  1.00  0.00     0.064 A 
ATOM     64  C   UNL A   1      40.059  33.383  36.200  1.00  0.00     0.173 A 
ATOM     65  C   UNL A   1      38.486  31.656  36.783  1.00  0.00     0.173 A 
ATOM     66  F   UNL A   1      41.077  33.842  35.457  1.00  0.00    -0.203 F 
ATOM     67  C   UNL A   1      39.566  34.176  37.230  1.00  0.00     0.198 A 
ATOM     68  C   UNL A   1      37.971  32.469  37.786  1.00  0.00     0.198 A 
ATOM     69  F   UNL A   1      37.953  30.439  36.595  1.00  0.00    -0.203 F 
ATOM     70  F   UNL A   1      40.119  35.372  37.472  1.00  0.00    -0.200 F 
ATOM     71  C   UNL A   1      38.518  33.722  38.016  1.00  0.00     0.200 A 
ATOM     72  F   UNL A   1      36.948  32.036  38.535  1.00  0.00    -0.200 F 
ATOM     73  F   UNL A   1      38.039  34.492  39.003  1.00  0.00    -0.200 F 
ENDBRANCH  40  63
ENDBRANCH  14  15
ENDBRANCH   7   9
ENDBRANCH   6   7
ENDBRANCH   5   6
ENDBRANCH   4   5
ENDBRANCH   3   4
ENDBRANCH   2   3
ENDBRANCH   1   2
BRANCH   1  74
ATOM     74  O   UNL A   1      40.181  22.393  26.736  1.00  0.00    -0.376 OA
BRANCH  74  75
ATOM     75  C   UNL A   1      38.953  22.000  26.139  1.00  0.00     0.202 C 
BRANCH  75  76
ATOM     76  C   UNL A   1      37.855  23.044  25.917  1.00  0.00     0.261 C 
BRANCH  76  77
ATOM     77  O   UNL A   1      36.706  22.639  25.164  1.00  0.00    -0.463 OA
BRANCH  77  78
ATOM     78  C   UNL A   1      35.531  22.800  25.826  1.00  0.00     0.314 C 
ATOM     79  O   UNL A   1      35.336  22.417  26.968  1.00  0.00    -0.252 OA
BRANCH  78  80
ATOM     80  C   UNL A   1      34.425  23.411  24.977  1.00  0.00     0.144 C 
BRANCH  80  81
ATOM     81  C   UNL A   1      33.547  22.481  24.159  1.00  0.00    -0.033 A 
ATOM     82  C   UNL A   1      33.209  22.835  22.834  1.00  0.00     0.004 A 
ATOM     83  C   UNL A   1      33.151  21.226  24.619  1.00  0.00     0.004 A 
ATOM     84  C   UNL A   1      32.462  21.980  22.021  1.00  0.00     0.000 A 
ATOM     85  C   UNL A   1      32.463  20.353  23.779  1.00  0.00     0.000 A 
ATOM     86  C   UNL A   1      32.082  20.734  22.497  1.00  0.00     0.000 A 
ENDBRANCH  80  81
BRANCH  80  87
ATOM     87  C   UNL A   1      33.760  24.633  25.684  1.00  0.00     0.110 C 
BRANCH  87  88
ATOM     88  C   UNL A   1      33.797  26.015  25.015  1.00  0.00    -0.036 A 
ATOM     89  C   UNL A   1      33.724  26.245  23.635  1.00  0.00     0.004 A 
ATOM     90  C   UNL A   1      33.880  27.146  25.855  1.00  0.00     0.004 A 
ATOM     91  C   UNL A   1      33.746  27.546  23.114  1.00  0.00     0.000 A 
ATOM     92  C   UNL A   1      33.887  28.442  25.335  1.00  0.00     0.000 A 
ATOM     93  C   UNL A   1      33.838  28.644  23.961  1.00  0.00     0.000 A 
ENDBRANCH  87  88
BRANCH  87  94
ATOM     94  C   UNL A   1      32.310  24.256  26.094  1.00  0.00     0.171 C 
ATOM     95  O   UNL A   1      32.040  23.526  27.046  1.00  0.00    -0.293 OA
BRANCH  94  96
ATOM     96  C   UNL A   1      31.176  24.896  25.367  1.00  0.00     0.018 A 
ATOM     97  C   UNL A   1      30.716  26.128  25.851  1.00  0.00     0.012 A 
ATOM     98  C   UNL A   1      30.694  24.395  24.154  1.00  0.00     0.012 A 
ATOM     99  C   UNL A   1      29.844  26.897  25.083  1.00  0.00     0.001 A 
ATOM    100  C   UNL A   1      29.806  25.162  23.397  1.00  0.00     0.001 A 
ATOM    101  C   UNL A   1      29.399  26.417  23.852  1.00  0.00     0.000 A 
ENDBRANCH  94  96
ENDBRANCH  87  94
ENDBRANCH  80  87
ENDBRANCH  78  80
ENDBRANCH  77  78
ENDBRANCH  76  77
ENDBRANCH  75  76
ENDBRANCH  74  75
ENDBRANCH   1  74
TORSDOF 22
ENDMDL
MODEL 2
REMARK VINA RESULT:     -11.0      5.158     10.516
REMARK SMILES O=C(OCCOCCOCCOC(=O)[C@@H](c1ccccc1)[C@H](C(=O)c1ccccc1)c1ccccc1)c1ccc(-c2c3nc(c(-c4c(F)c(F)c(F)c(F)c4F)c4ccc([nH]4)c(-c4c(F)c(F)c(F)c(F)c4F)c4nc(c(-c5c(F)c(F)c(F)c(F)c5F)c5ccc2[nH]5)C=C4)C=C3)cc1
REMARK SMILES IDX 8 1 7 2 6 3 5 4 4 5 3 6 2 7 1 8 37 9 38 10 99 11 39 12 98 13
REMARK SMILES IDX 40 14 41 15 42 16 92 17 43 18 97 19 91 20 93 21 44 22 96 23
REMARK SMILES IDX 90 24 89 25 45 27 77 28 57 29 76 30 58 31 61 32 75 33 94 34
REMARK SMILES IDX 59 35 60 36 74 38 95 39 62 40 46 41 47 42 55 43 48 44 49 45
REMARK SMILES IDX 53 46 56 47 50 48 51 49 54 50 52 51 78 52 79 53 87 54 80 55
REMARK SMILES IDX 81 56 85 57 88 58 82 59 83 60 86 61 84 62 63 63 64 64 72 65
REMARK SMILES IDX 65 66 66 67 70 68 73 69 67 70 68 71 71 72 69 73 9 74 10 75
REMARK SMILES IDX 11 76 12 77 13 78 14 79 15 80 16 81 17 82 21 83 18 84 20 85
REMARK SMILES IDX 19 86 22 87 31 88 32 89 36 90 33 91 35 92 34 93 23 94 24 95
REMARK SMILES IDX 25 96 26 97 30 98 27 99 29 100 28 101
REMARK H PARENT 93 26 61 37
REMARK Flexibility Score: inf
ROOT
ATOM      1  C   UNL A   1      34.908  32.804  28.297  1.00  0.00     0.188 C 
ENDROOT
BRANCH   1   2
ATOM      2  C   UNL A   1      33.643  33.657  28.255  1.00  0.00     0.188 C 
BRANCH   2   3
ATOM      3  O   UNL A   1      33.305  34.236  29.524  1.00  0.00    -0.376 OA
BRANCH   3   4
ATOM      4  C   UNL A   1      34.457  34.484  30.337  1.00  0.00     0.202 C 
BRANCH   4   5
ATOM      5  C   UNL A   1      34.440  33.833  31.730  1.00  0.00     0.261 C 
BRANCH   5   6
ATOM      6  O   UNL A   1      35.004  32.514  31.774  1.00  0.00    -0.460 OA
BRANCH   6   7
ATOM      7  C   UNL A   1      36.048  32.040  32.491  1.00  0.00     0.338 C 
ATOM      8  O   UNL A   1      35.940  32.028  33.717  1.00  0.00    -0.246 OA
BRANCH   7   9
ATOM      9  C   UNL A   1      37.350  31.566  31.914  1.00  0.00     0.060 A 
ATOM     10  C   UNL A   1      38.362  30.891  32.598  1.00  0.00     0.016 A 
ATOM     11  C   UNL A   1      37.512  31.733  30.524  1.00  0.00     0.016 A 
ATOM     12  C   UNL A   1      39.476  30.368  31.937  1.00  0.00     0.010 A 
ATOM     13  C   UNL A   1      38.607  31.180  29.847  1.00  0.00     0.010 A 
ATOM     14  C   UNL A   1      39.599  30.493  30.556  1.00  0.00    -0.014 A 
BRANCH  14  15
ATOM     15  C   UNL A   1      40.859  30.066  29.910  1.00  0.00     0.031 A 
ATOM     16  C   UNL A   1      40.898  28.688  29.341  1.00  0.00     0.074 A 
ATOM     17  C   UNL A   1      41.909  30.898  29.771  1.00  0.00     0.049 A 
ATOM     18  N   UNL A   1      41.846  28.102  28.663  1.00  0.00    -0.248 NA
ATOM     19  C   UNL A   1      39.708  27.851  29.571  1.00  0.00     0.031 C 
ATOM     20  C   UNL A   1      41.958  32.256  30.283  1.00  0.00     0.029 A 
ATOM     21  N   UNL A   1      43.129  30.740  29.160  1.00  0.00    -0.354 N 
ATOM     22  C   UNL A   1      41.363  26.837  28.384  1.00  0.00     0.074 A 
ATOM     23  C   UNL A   1      40.076  26.707  29.026  1.00  0.00     0.031 C 
ATOM     24  C   UNL A   1      43.144  32.809  29.989  1.00  0.00     0.029 A 
ATOM     25  C   UNL A   1      43.928  31.862  29.218  1.00  0.00     0.049 A 
ATOM     26  H   UNL A   1      43.407  29.905  28.719  1.00  0.00     0.167 HD
ATOM     27  C   UNL A   1      41.934  25.876  27.626  1.00  0.00     0.037 A 
ATOM     28  C   UNL A   1      45.138  32.106  28.678  1.00  0.00     0.037 A 
ATOM     29  C   UNL A   1      43.225  26.011  27.020  1.00  0.00     0.049 A 
ATOM     30  C   UNL A   1      45.761  31.003  27.863  1.00  0.00     0.074 A 
ATOM     31  C   UNL A   1      43.940  25.081  26.291  1.00  0.00     0.029 A 
ATOM     32  N   UNL A   1      44.003  27.161  27.087  1.00  0.00    -0.354 N 
ATOM     33  N   UNL A   1      45.272  29.821  27.564  1.00  0.00    -0.248 NA
ATOM     34  C   UNL A   1      47.095  31.260  27.303  1.00  0.00     0.031 C 
ATOM     35  C   UNL A   1      45.171  25.655  25.955  1.00  0.00     0.029 A 
ATOM     36  C   UNL A   1      45.199  26.960  26.425  1.00  0.00     0.049 A 
ATOM     37  H   UNL A   1      43.740  27.996  27.539  1.00  0.00     0.167 HD
ATOM     38  C   UNL A   1      46.229  29.202  26.777  1.00  0.00     0.074 A 
ATOM     39  C   UNL A   1      47.301  30.160  26.594  1.00  0.00     0.031 C 
ATOM     40  C   UNL A   1      46.240  27.945  26.269  1.00  0.00     0.037 A 
BRANCH  27  41
ATOM     41  C   UNL A   1      41.150  24.612  27.477  1.00  0.00     0.064 A 
ATOM     42  C   UNL A   1      41.581  23.412  28.066  1.00  0.00     0.173 A 
ATOM     43  C   UNL A   1      40.024  24.572  26.645  1.00  0.00     0.173 A 
ATOM     44  F   UNL A   1      42.685  23.392  28.830  1.00  0.00    -0.203 F 
ATOM     45  C   UNL A   1      40.936  22.210  27.792  1.00  0.00     0.198 A 
ATOM     46  C   UNL A   1      39.364  23.373  26.397  1.00  0.00     0.198 A 
ATOM     47  F   UNL A   1      39.591  25.688  26.040  1.00  0.00    -0.203 F 
ATOM     48  F   UNL A   1      41.418  21.063  28.291  1.00  0.00    -0.200 F 
ATOM     49  C   UNL A   1      39.828  22.192  26.959  1.00  0.00     0.200 A 
ATOM     50  F   UNL A   1      38.298  23.355  25.585  1.00  0.00    -0.200 F 
ATOM     51  F   UNL A   1      39.221  21.032  26.675  1.00  0.00    -0.200 F 
ENDBRANCH  27  41
BRANCH  28  52
ATOM     52  C   UNL A   1      45.824  33.425  28.833  1.00  0.00     0.064 A 
ATOM     53  C   UNL A   1      46.699  33.664  29.908  1.00  0.00     0.173 A 
ATOM     54  C   UNL A   1      45.588  34.496  27.957  1.00  0.00     0.173 A 
ATOM     55  F   UNL A   1      46.972  32.682  30.781  1.00  0.00    -0.203 F 
ATOM     56  C   UNL A   1      47.263  34.921  30.126  1.00  0.00     0.198 A 
ATOM     57  C   UNL A   1      46.187  35.741  28.152  1.00  0.00     0.198 A 
ATOM     58  F   UNL A   1      44.764  34.342  26.911  1.00  0.00    -0.203 F 
ATOM     59  F   UNL A   1      48.043  35.126  31.196  1.00  0.00    -0.200 F 
ATOM     60  C   UNL A   1      47.011  35.958  29.244  1.00  0.00     0.200 A 
ATOM     61  F   UNL A   1      45.954  36.739  27.287  1.00  0.00    -0.200 F 
ATOM     62  F   UNL A   1      47.554  37.166  29.452  1.00  0.00    -0.200 F 
ENDBRANCH  28  52
BRANCH  40  63
ATOM     63  C   UNL A   1      47.449  27.554  25.476  1.00  0.00     0.064 A 
ATOM     64  C   UNL A   1      48.596  27.039  26.100  1.00  0.00     0.173 A 
ATOM     65  C   UNL A   1      47.449  27.670  24.079  1.00  0.00     0.173 A 
ATOM     66  F   UNL A   1      48.646  26.927  27.435  1.00  0.00    -0.203 F 
ATOM     67  C   UNL A   1      49.712  26.683  25.352  1.00  0.00     0.198 A 
ATOM     68  C   UNL A   1      48.554  27.276  23.333  1.00  0.00     0.198 A 
ATOM     69  F   UNL A   1      46.372  28.153  23.440  1.00  0.00    -0.203 F 
ATOM     70  F   UNL A   1      50.819  26.250  25.972  1.00  0.00    -0.200 F 
ATOM     71  C   UNL A   1      49.687  26.794  23.970  1.00  0.00     0.200 A 
ATOM     72  F   UNL A   1      48.523  27.368  21.997  1.00  0.00    -0.200 F 
ATOM     73  F   UNL A   1      50.762  26.443  23.251  1.00  0.00    -0.200 F 
ENDBRANCH  40  63
ENDBRANCH  14  15
ENDBRANCH   7   9
ENDBRANCH   6   7
ENDBRANCH   5   6
ENDBRANCH   4   5
ENDBRANCH   3   4
ENDBRANCH   2   3
ENDBRANCH   1   2
BRANCH   1  74
ATOM     74  O   UNL A   1      34.738  31.390  28.289  1.00  0.00    -0.376 OA
BRANCH  74  75
ATOM     75  C   UNL A   1      34.192  30.778  27.130  1.00  0.00     0.202 C 
BRANCH  75  76
ATOM     76  C   UNL A   1      32.915  29.941  27.252  1.00  0.00     0.261 C 
BRANCH  76  77
ATOM     77  O   UNL A   1      33.068  28.523  27.377  1.00  0.00    -0.463 OA
BRANCH  77  78
ATOM     78  C   UNL A   1      31.892  27.845  27.434  1.00  0.00     0.314 C 
ATOM     79  O   UNL A   1      31.097  27.939  28.355  1.00  0.00    -0.252 OA
BRANCH  78  80
ATOM     80  C   UNL A   1      31.692  26.863  26.288  1.00  0.00     0.144 C 
BRANCH  80  81
ATOM     81  C   UNL A   1      30.914  27.325  25.069  1.00  0.00    -0.033 A 
ATOM     82  C   UNL A   1      29.856  26.529  24.581  1.00  0.00     0.004 A 
ATOM     83  C   UNL A   1      31.123  28.569  24.474  1.00  0.00     0.004 A 
ATOM     84  C   UNL A   1      29.068  26.946  23.505  1.00  0.00     0.000 A 
ATOM     85  C   UNL A   1      30.290  29.005  23.446  1.00  0.00     0.000 A 
ATOM     86  C   UNL A   1      29.290  28.188  22.930  1.00  0.00     0.000 A 
ENDBRANCH  80  81
BRANCH  80  87
ATOM     87  C   UNL A   1      32.948  25.963  26.073  1.00  0.00     0.110 C 
BRANCH  87  88
ATOM     88  C   UNL A   1      32.822  24.436  26.182  1.00  0.00    -0.036 A 
ATOM     89  C   UNL A   1      31.704  23.690  25.786  1.00  0.00     0.004 A 
ATOM     90  C   UNL A   1      33.927  23.723  26.694  1.00  0.00     0.004 A 
ATOM     91  C   UNL A   1      31.684  22.293  25.906  1.00  0.00     0.000 A 
ATOM     92  C   UNL A   1      33.911  22.330  26.799  1.00  0.00     0.000 A 
ATOM     93  C   UNL A   1      32.782  21.613  26.423  1.00  0.00     0.000 A 
ENDBRANCH  87  88
BRANCH  87  94
ATOM     94  C   UNL A   1      33.641  26.365  24.741  1.00  0.00     0.171 C 
ATOM     95  O   UNL A   1      34.284  27.403  24.595  1.00  0.00    -0.293 OA
BRANCH  94  96
ATOM     96  C   UNL A   1      33.620  25.396  23.608  1.00  0.00     0.018 A 
ATOM     97  C   UNL A   1      34.598  24.393  23.602  1.00  0.00     0.012 A 
ATOM     98  C   UNL A   1      32.578  25.365  22.677  1.00  0.00     0.012 A 
ATOM     99  C   UNL A   1      34.486  23.315  22.727  1.00  0.00     0.001 A 
ATOM    100  C   UNL A   1      32.481  24.291  21.790  1.00  0.00     0.001 A 
ATOM    101  C   UNL A   1      33.421  23.260  21.829  1.00  0.00     0.000 A 
ENDBRANCH  94  96
ENDBRANCH  87  94
ENDBRANCH  80  87
ENDBRANCH  78  80
ENDBRANCH  77  78
ENDBRANCH  76  77
ENDBRANCH  75  76
ENDBRANCH  74  75
ENDBRANCH   1  74
TORSDOF 22
ENDMDL
MODEL 3
REMARK VINA RESULT:     -11.0      4.702      7.431
REMARK SMILES O=C(OCCOCCOCCOC(=O)[C@@H](c1ccccc1)[C@H](C(=O)c1ccccc1)c1ccccc1)c1ccc(-c2c3nc(c(-c4c(F)c(F)c(F)c(F)c4F)c4ccc([nH]4)c(-c4c(F)c(F)c(F)c(F)c4F)c4nc(c(-c5c(F)c(F)c(F)c(F)c5F)c5ccc2[nH]5)C=C4)C=C3)cc1
REMARK SMILES IDX 8 1 7 2 6 3 5 4 4 5 3 6 2 7 1 8 37 9 38 10 99 11 39 12 98 13
REMARK SMILES IDX 40 14 41 15 42 16 92 17 43 18 97 19 91 20 93 21 44 22 96 23
REMARK SMILES IDX 90 24 89 25 45 27 77 28 57 29 76 30 58 31 61 32 75 33 94 34
REMARK SMILES IDX 59 35 60 36 74 38 95 39 62 40 46 41 47 42 55 43 48 44 49 45
REMARK SMILES IDX 53 46 56 47 50 48 51 49 54 50 52 51 78 52 79 53 87 54 80 55
REMARK SMILES IDX 81 56 85 57 88 58 82 59 83 60 86 61 84 62 63 63 64 64 72 65
REMARK SMILES IDX 65 66 66 67 70 68 73 69 67 70 68 71 71 72 69 73 9 74 10 75
REMARK SMILES IDX 11 76 12 77 13 78 14 79 15 80 16 81 17 82 21 83 18 84 20 85
REMARK SMILES IDX 19 86 22 87 31 88 32 89 36 90 33 91 35 92 34 93 23 94 24 95
REMARK SMILES IDX 25 96 26 97 30 98 27 99 29 100 28 101
REMARK H PARENT 93 26 61 37
REMARK Flexibility Score: inf
ROOT
ATOM      1  C   UNL A   1      39.843  21.293  26.511  1.00  0.00     0.188 C 
ENDROOT
BRANCH   1   2
ATOM      2  C   UNL A   1      41.320  21.125  26.160  1.00  0.00     0.188 C 
BRANCH   2   3
ATOM      3  O   UNL A   1      42.089  20.523  27.211  1.00  0.00    -0.376 OA
BRANCH   3   4
ATOM      4  C   UNL A   1      42.436  19.163  26.925  1.00  0.00     0.202 C 
BRANCH   4   5
ATOM      5  C   UNL A   1      42.539  18.805  25.433  1.00  0.00     0.261 C 
BRANCH   5   6
ATOM      6  O   UNL A   1      43.882  18.645  24.953  1.00  0.00    -0.460 OA
BRANCH   6   7
ATOM      7  C   UNL A   1      44.732  19.560  24.433  1.00  0.00     0.338 C 
ATOM      8  O   UNL A   1      45.510  19.182  23.556  1.00  0.00    -0.246 OA
BRANCH   7   9
ATOM      9  C   UNL A   1      44.834  20.993  24.868  1.00  0.00     0.060 A 
ATOM     10  C   UNL A   1      44.419  22.111  24.142  1.00  0.00     0.016 A 
ATOM     11  C   UNL A   1      45.301  21.213  26.180  1.00  0.00     0.016 A 
ATOM     12  C   UNL A   1      44.430  23.393  24.694  1.00  0.00     0.010 A 
ATOM     13  C   UNL A   1      45.280  22.490  26.755  1.00  0.00     0.010 A 
ATOM     14  C   UNL A   1      44.843  23.591  26.009  1.00  0.00    -0.014 A 
BRANCH  14  15
ATOM     15  C   UNL A   1      44.988  24.975  26.511  1.00  0.00     0.031 A 
ATOM     16  C   UNL A   1      46.324  25.619  26.353  1.00  0.00     0.074 A 
ATOM     17  C   UNL A   1      43.950  25.661  27.027  1.00  0.00     0.049 A 
ATOM     18  N   UNL A   1      46.690  26.838  26.638  1.00  0.00    -0.248 NA
ATOM     19  C   UNL A   1      47.396  24.774  25.802  1.00  0.00     0.031 C 
ATOM     20  C   UNL A   1      42.614  25.120  27.211  1.00  0.00     0.029 A 
ATOM     21  N   UNL A   1      43.841  26.951  27.485  1.00  0.00    -0.354 N 
ATOM     22  C   UNL A   1      48.029  26.902  26.296  1.00  0.00     0.074 A 
ATOM     23  C   UNL A   1      48.433  25.588  25.856  1.00  0.00     0.031 C 
ATOM     24  C   UNL A   1      41.819  26.052  27.757  1.00  0.00     0.029 A 
ATOM     25  C   UNL A   1      42.574  27.281  27.918  1.00  0.00     0.049 A 
ATOM     26  H   UNL A   1      44.596  27.582  27.501  1.00  0.00     0.167 HD
ATOM     27  C   UNL A   1      48.842  27.979  26.317  1.00  0.00     0.037 A 
ATOM     28  C   UNL A   1      42.075  28.453  28.357  1.00  0.00     0.037 A 
ATOM     29  C   UNL A   1      48.432  29.271  26.784  1.00  0.00     0.049 A 
ATOM     30  C   UNL A   1      43.016  29.629  28.397  1.00  0.00     0.074 A 
ATOM     31  C   UNL A   1      49.184  30.420  26.922  1.00  0.00     0.029 A 
ATOM     32  N   UNL A   1      47.142  29.575  27.204  1.00  0.00    -0.354 N 
ATOM     33  N   UNL A   1      44.274  29.691  28.024  1.00  0.00    -0.248 NA
ATOM     34  C   UNL A   1      42.478  30.896  28.907  1.00  0.00     0.031 C 
ATOM     35  C   UNL A   1      48.360  31.410  27.467  1.00  0.00     0.029 A 
ATOM     36  C   UNL A   1      47.080  30.894  27.616  1.00  0.00     0.049 A 
ATOM     37  H   UNL A   1      46.385  28.946  27.206  1.00  0.00     0.167 HD
ATOM     38  C   UNL A   1      44.671  30.999  28.244  1.00  0.00     0.074 A 
ATOM     39  C   UNL A   1      43.505  31.712  28.726  1.00  0.00     0.031 C 
ATOM     40  C   UNL A   1      45.894  31.562  28.090  1.00  0.00     0.037 A 
BRANCH  27  41
ATOM     41  C   UNL A   1      50.244  27.747  25.854  1.00  0.00     0.064 A 
ATOM     42  C   UNL A   1      51.305  27.624  26.767  1.00  0.00     0.173 A 
ATOM     43  C   UNL A   1      50.549  27.762  24.487  1.00  0.00     0.173 A 
ATOM     44  F   UNL A   1      51.065  27.657  28.088  1.00  0.00    -0.203 F 
ATOM     45  C   UNL A   1      52.623  27.569  26.328  1.00  0.00     0.198 A 
ATOM     46  C   UNL A   1      51.867  27.676  24.050  1.00  0.00     0.198 A 
ATOM     47  F   UNL A   1      49.572  27.903  23.578  1.00  0.00    -0.203 F 
ATOM     48  F   UNL A   1      53.625  27.544  27.217  1.00  0.00    -0.200 F 
ATOM     49  C   UNL A   1      52.903  27.593  24.970  1.00  0.00     0.200 A 
ATOM     50  F   UNL A   1      52.138  27.708  22.738  1.00  0.00    -0.200 F 
ATOM     51  F   UNL A   1      54.173  27.563  24.547  1.00  0.00    -0.200 F 
ENDBRANCH  27  41
BRANCH  28  52
ATOM     52  C   UNL A   1      40.640  28.607  28.747  1.00  0.00     0.064 A 
ATOM     53  C   UNL A   1      39.683  29.059  27.822  1.00  0.00     0.173 A 
ATOM     54  C   UNL A   1      40.194  28.365  30.056  1.00  0.00     0.173 A 
ATOM     55  F   UNL A   1      40.040  29.304  26.553  1.00  0.00    -0.203 F 
ATOM     56  C   UNL A   1      38.362  29.308  28.200  1.00  0.00     0.198 A 
ATOM     57  C   UNL A   1      38.863  28.574  30.422  1.00  0.00     0.198 A 
ATOM     58  F   UNL A   1      41.051  27.934  30.993  1.00  0.00    -0.203 F 
ATOM     59  F   UNL A   1      37.493  29.796  27.304  1.00  0.00    -0.200 F 
ATOM     60  C   UNL A   1      37.952  29.060  29.498  1.00  0.00     0.200 A 
ATOM     61  F   UNL A   1      38.465  28.317  31.676  1.00  0.00    -0.200 F 
ATOM     62  F   UNL A   1      36.683  29.298  29.861  1.00  0.00    -0.200 F 
ENDBRANCH  28  52
BRANCH  40  63
ATOM     63  C   UNL A   1      46.015  33.011  28.450  1.00  0.00     0.064 A 
ATOM     64  C   UNL A   1      45.746  34.021  27.513  1.00  0.00     0.173 A 
ATOM     65  C   UNL A   1      46.376  33.392  29.750  1.00  0.00     0.173 A 
ATOM     66  F   UNL A   1      45.415  33.702  26.253  1.00  0.00    -0.203 F 
ATOM     67  C   UNL A   1      45.866  35.362  27.859  1.00  0.00     0.198 A 
ATOM     68  C   UNL A   1      46.456  34.734  30.101  1.00  0.00     0.198 A 
ATOM     69  F   UNL A   1      46.637  32.460  30.680  1.00  0.00    -0.203 F 
ATOM     70  F   UNL A   1      45.663  36.309  26.934  1.00  0.00    -0.200 F 
ATOM     71  C   UNL A   1      46.212  35.717  29.154  1.00  0.00     0.200 A 
ATOM     72  F   UNL A   1      46.775  35.077  31.357  1.00  0.00    -0.200 F 
ATOM     73  F   UNL A   1      46.319  37.010  29.488  1.00  0.00    -0.200 F 
ENDBRANCH  40  63
ENDBRANCH  14  15
ENDBRANCH   7   9
ENDBRANCH   6   7
ENDBRANCH   5   6
ENDBRANCH   4   5
ENDBRANCH   3   4
ENDBRANCH   2   3
ENDBRANCH   1   2
BRANCH   1  74
ATOM     74  O   UNL A   1      39.381  22.617  26.758  1.00  0.00    -0.376 OA
BRANCH  74  75
ATOM     75  C   UNL A   1      38.275  23.101  26.009  1.00  0.00     0.202 C 
BRANCH  75  76
ATOM     76  C   UNL A   1      37.496  22.138  25.108  1.00  0.00     0.261 C 
BRANCH  76  77
ATOM     77  O   UNL A   1      36.091  22.005  25.349  1.00  0.00    -0.463 OA
BRANCH  77  78
ATOM     78  C   UNL A   1      35.313  22.496  24.349  1.00  0.00     0.314 C 
ATOM     79  O   UNL A   1      35.618  22.457  23.169  1.00  0.00    -0.252 OA
BRANCH  78  80
ATOM     80  C   UNL A   1      34.058  23.204  24.839  1.00  0.00     0.144 C 
BRANCH  80  81
ATOM     81  C   UNL A   1      34.016  24.721  24.782  1.00  0.00    -0.033 A 
ATOM     82  C   UNL A   1      33.821  25.361  23.539  1.00  0.00     0.004 A 
ATOM     83  C   UNL A   1      34.045  25.516  25.927  1.00  0.00     0.004 A 
ATOM     84  C   UNL A   1      33.706  26.750  23.447  1.00  0.00     0.000 A 
ATOM     85  C   UNL A   1      33.864  26.893  25.832  1.00  0.00     0.000 A 
ATOM     86  C   UNL A   1      33.734  27.521  24.599  1.00  0.00     0.000 A 
ENDBRANCH  80  81
BRANCH  80  87
ATOM     87  C   UNL A   1      32.765  22.410  24.474  1.00  0.00     0.110 C 
BRANCH  87  88
ATOM     88  C   UNL A   1      32.804  20.876  24.406  1.00  0.00    -0.036 A 
ATOM     89  C   UNL A   1      33.174  20.032  25.462  1.00  0.00     0.004 A 
ATOM     90  C   UNL A   1      32.411  20.264  23.197  1.00  0.00     0.004 A 
ATOM     91  C   UNL A   1      33.163  18.638  25.314  1.00  0.00     0.000 A 
ATOM     92  C   UNL A   1      32.385  18.875  23.057  1.00  0.00     0.000 A 
ATOM     93  C   UNL A   1      32.780  18.058  24.110  1.00  0.00     0.000 A 
ENDBRANCH  87  88
BRANCH  87  94
ATOM     94  C   UNL A   1      31.598  22.892  25.379  1.00  0.00     0.171 C 
ATOM     95  O   UNL A   1      31.344  22.405  26.479  1.00  0.00    -0.293 OA
BRANCH  94  96
ATOM     96  C   UNL A   1      30.808  24.081  24.947  1.00  0.00     0.018 A 
ATOM     97  C   UNL A   1      30.505  25.040  25.922  1.00  0.00     0.012 A 
ATOM     98  C   UNL A   1      30.522  24.333  23.603  1.00  0.00     0.012 A 
ATOM     99  C   UNL A   1      30.000  26.283  25.545  1.00  0.00     0.001 A 
ATOM    100  C   UNL A   1      29.998  25.573  23.232  1.00  0.00     0.001 A 
ATOM    101  C   UNL A   1      29.757  26.551  24.199  1.00  0.00     0.000 A 
ENDBRANCH  94  96
ENDBRANCH  87  94
ENDBRANCH  80  87
ENDBRANCH  78  80
ENDBRANCH  77  78
ENDBRANCH  76  77
ENDBRANCH  75  76
ENDBRANCH  74  75
ENDBRANCH   1  74
TORSDOF 22
ENDMDL
