MODEL 1
REMARK VINA RESULT:     -11.3      0.000      0.000
REMARK SMILES C[N@@H+](Cc1ncccc1C(=O)OCCOCCOCCOC(=O)c1ccc(-c2c3nc(c(-c4c(F)c(F)c(F)c(F)c4F)c4ccc([nH]4)c(-c4c(F)c(F)c(F)c(F)c4F)c4nc(c(-c5c(F)c(F)c(F)c(F)c5F)c5ccc2[nH]5)C=C4)C=C3)cc1)C[C@@H]1CCN(c2ccccc2)C1
REMARK SMILES IDX 15 1 14 2 13 3 12 4 10 5 11 6 9 7 4 8 5 9 6 10 8 11 7 12
REMARK SMILES IDX 3 13 2 14 1 15 87 17 88 18 89 19 98 20 90 21 91 22 92 23
REMARK SMILES IDX 93 24 97 25 94 26 96 27 95 28 16 29 17 30 18 31 19 32 20 33
REMARK SMILES IDX 21 34 22 35 23 36 24 37 25 38 86 39 26 40 85 41 27 42 28 43
REMARK SMILES IDX 29 44 79 45 30 46 84 47 78 48 80 49 31 50 83 51 77 52 76 53
REMARK SMILES IDX 32 55 64 56 44 57 63 58 45 59 48 60 62 61 81 62 46 63 47 64
REMARK SMILES IDX 61 66 82 67 49 68 33 69 34 70 42 71 35 72 36 73 40 74 43 75
REMARK SMILES IDX 37 76 38 77 41 78 39 79 65 80 66 81 74 82 67 83 68 84 72 85
REMARK SMILES IDX 75 86 69 87 70 88 73 89 71 90 50 91 51 92 59 93 52 94 53 95
REMARK SMILES IDX 57 96 60 97 54 98 55 99 58 100 56 101
REMARK H PARENT 2 16 80 54 48 65
REMARK Flexibility Score: inf
ROOT
ATOM      1  O   UNL A   1      32.929  28.677  24.642  1.00  0.00    -0.376 OA
ENDROOT
BRANCH   1   2
ATOM      2  C   UNL A   1      33.453  29.064  23.376  1.00  0.00     0.202 C 
BRANCH   2   3
ATOM      3  C   UNL A   1      33.697  27.863  22.462  1.00  0.00     0.261 C 
BRANCH   3   4
ATOM      4  O   UNL A   1      33.930  26.651  23.196  1.00  0.00    -0.460 OA
BRANCH   4   5
ATOM      5  C   UNL A   1      33.205  25.563  22.847  1.00  0.00     0.340 C 
ATOM      6  O   UNL A   1      33.503  24.736  22.007  1.00  0.00    -0.246 OA
BRANCH   5   7
ATOM      7  C   UNL A   1      32.087  25.493  23.810  1.00  0.00     0.087 A 
ATOM      8  C   UNL A   1      32.293  25.372  25.187  1.00  0.00     0.109 A 
ATOM      9  N   UNL A   1      31.273  25.603  26.072  1.00  0.00    -0.254 NA
ATOM     10  C   UNL A   1      30.038  25.865  25.583  1.00  0.00     0.111 A 
ATOM     11  C   UNL A   1      30.788  25.745  23.337  1.00  0.00     0.019 A 
ATOM     12  C   UNL A   1      29.744  25.920  24.237  1.00  0.00     0.021 A 
BRANCH   8  13
ATOM     13  C   UNL A   1      33.617  24.975  25.823  1.00  0.00     0.320 C 
BRANCH  13  14
ATOM     14  N   UNL A   1      33.961  23.539  25.904  1.00  0.00    -0.332 N 
ATOM     15  C   UNL A   1      34.169  23.050  27.254  1.00  0.00     0.333 C 
ATOM     16  H   UNL A   1      33.103  23.081  25.596  1.00  0.00     0.348 HD
BRANCH  14  17
ATOM     17  C   UNL A   1      34.948  23.063  24.923  1.00  0.00     0.267 C 
BRANCH  17  18
ATOM     18  C   UNL A   1      34.608  21.777  24.142  1.00  0.00     0.065 C 
ATOM     19  C   UNL A   1      33.101  21.659  23.870  1.00  0.00     0.032 C 
ATOM     20  C   UNL A   1      34.968  20.470  24.871  1.00  0.00     0.126 C 
ATOM     21  C   UNL A   1      32.589  20.813  25.019  1.00  0.00     0.117 C 
ATOM     22  N   UNL A   1      33.679  19.876  25.250  1.00  0.00    -0.371 N 
BRANCH  22  23
ATOM     23  C   UNL A   1      33.549  18.508  25.067  1.00  0.00     0.037 A 
ATOM     24  C   UNL A   1      34.389  17.850  24.159  1.00  0.00     0.026 A 
ATOM     25  C   UNL A   1      32.580  17.739  25.725  1.00  0.00     0.026 A 
ATOM     26  C   UNL A   1      34.284  16.475  23.931  1.00  0.00     0.002 A 
ATOM     27  C   UNL A   1      32.460  16.365  25.494  1.00  0.00     0.002 A 
ATOM     28  C   UNL A   1      33.316  15.731  24.599  1.00  0.00     0.000 A 
ENDBRANCH  22  23
ENDBRANCH  17  18
ENDBRANCH  14  17
ENDBRANCH  13  14
ENDBRANCH   8  13
ENDBRANCH   5   7
ENDBRANCH   4   5
ENDBRANCH   3   4
ENDBRANCH   2   3
ENDBRANCH   1   2
BRANCH   1  29
ATOM     29  C   UNL A   1      33.676  29.090  25.779  1.00  0.00     0.188 C 
BRANCH  29  30
ATOM     30  C   UNL A   1      32.863  29.157  27.087  1.00  0.00     0.188 C 
BRANCH  30  31
ATOM     31  O   UNL A   1      31.706  29.977  27.188  1.00  0.00    -0.376 OA
BRANCH  31  32
ATOM     32  C   UNL A   1      31.636  31.175  26.434  1.00  0.00     0.202 C 
BRANCH  32  33
ATOM     33  C   UNL A   1      31.637  32.489  27.219  1.00  0.00     0.261 C 
BRANCH  33  34
ATOM     34  O   UNL A   1      32.848  33.251  27.073  1.00  0.00    -0.460 OA
BRANCH  34  35
ATOM     35  C   UNL A   1      33.419  33.643  28.237  1.00  0.00     0.338 C 
ATOM     36  O   UNL A   1      32.945  34.385  29.081  1.00  0.00    -0.246 OA
BRANCH  35  37
ATOM     37  C   UNL A   1      34.700  32.939  28.451  1.00  0.00     0.060 A 
ATOM     38  C   UNL A   1      34.640  31.613  28.899  1.00  0.00     0.016 A 
ATOM     39  C   UNL A   1      35.932  33.588  28.332  1.00  0.00     0.016 A 
ATOM     40  C   UNL A   1      35.803  30.953  29.289  1.00  0.00     0.010 A 
ATOM     41  C   UNL A   1      37.100  32.927  28.739  1.00  0.00     0.010 A 
ATOM     42  C   UNL A   1      37.034  31.622  29.261  1.00  0.00    -0.014 A 
BRANCH  42  43
ATOM     43  C   UNL A   1      38.197  31.003  29.944  1.00  0.00     0.031 A 
ATOM     44  C   UNL A   1      38.461  31.339  31.388  1.00  0.00     0.074 A 
ATOM     45  C   UNL A   1      38.970  30.098  29.317  1.00  0.00     0.049 A 
ATOM     46  N   UNL A   1      39.362  30.853  32.206  1.00  0.00    -0.248 NA
ATOM     47  C   UNL A   1      37.585  32.355  31.994  1.00  0.00     0.031 C 
ATOM     48  C   UNL A   1      38.810  29.665  27.932  1.00  0.00     0.029 A 
ATOM     49  N   UNL A   1      40.043  29.376  29.778  1.00  0.00    -0.354 N 
ATOM     50  C   UNL A   1      39.154  31.493  33.421  1.00  0.00     0.074 A 
ATOM     51  C   UNL A   1      38.069  32.431  33.225  1.00  0.00     0.031 C 
ATOM     52  C   UNL A   1      39.756  28.751  27.651  1.00  0.00     0.029 A 
ATOM     53  C   UNL A   1      40.591  28.544  28.834  1.00  0.00     0.049 A 
ATOM     54  H   UNL A   1      40.386  29.448  30.698  1.00  0.00     0.167 HD
ATOM     55  C   UNL A   1      39.795  31.306  34.599  1.00  0.00     0.037 A 
ATOM     56  C   UNL A   1      41.645  27.711  28.919  1.00  0.00     0.037 A 
ATOM     57  C   UNL A   1      40.880  30.383  34.803  1.00  0.00     0.049 A 
ATOM     58  C   UNL A   1      42.377  27.558  30.228  1.00  0.00     0.074 A 
ATOM     59  C   UNL A   1      41.581  30.114  35.966  1.00  0.00     0.029 A 
ATOM     60  N   UNL A   1      41.428  29.580  33.813  1.00  0.00    -0.354 N 
ATOM     61  N   UNL A   1      42.142  28.132  31.383  1.00  0.00    -0.248 NA
ATOM     62  C   UNL A   1      43.513  26.625  30.245  1.00  0.00     0.031 C 
ATOM     63  C   UNL A   1      42.581  29.180  35.671  1.00  0.00     0.029 A 
ATOM     64  C   UNL A   1      42.472  28.833  34.334  1.00  0.00     0.049 A 
ATOM     65  H   UNL A   1      41.121  29.547  32.879  1.00  0.00     0.167 HD
ATOM     66  C   UNL A   1      43.078  27.611  32.266  1.00  0.00     0.074 A 
ATOM     67  C   UNL A   1      43.877  26.662  31.519  1.00  0.00     0.031 C 
ATOM     68  C   UNL A   1      43.260  27.891  33.582  1.00  0.00     0.037 A 
BRANCH  55  69
ATOM     69  C   UNL A   1      39.344  32.134  35.767  1.00  0.00     0.064 A 
ATOM     70  C   UNL A   1      38.365  31.670  36.659  1.00  0.00     0.173 A 
ATOM     71  C   UNL A   1      39.915  33.390  36.012  1.00  0.00     0.173 A 
ATOM     72  F   UNL A   1      37.779  30.480  36.458  1.00  0.00    -0.203 F 
ATOM     73  C   UNL A   1      37.959  32.445  37.742  1.00  0.00     0.198 A 
ATOM     74  C   UNL A   1      39.525  34.151  37.111  1.00  0.00     0.198 A 
ATOM     75  F   UNL A   1      40.857  33.877  35.191  1.00  0.00    -0.203 F 
ATOM     76  F   UNL A   1      36.994  31.999  38.558  1.00  0.00    -0.200 F 
ATOM     77  C   UNL A   1      38.543  33.681  37.971  1.00  0.00     0.200 A 
ATOM     78  F   UNL A   1      40.096  35.343  37.336  1.00  0.00    -0.200 F 
ATOM     79  F   UNL A   1      38.155  34.424  39.016  1.00  0.00    -0.200 F 
ENDBRANCH  55  69
BRANCH  56  80
ATOM     80  C   UNL A   1      42.073  26.937  27.725  1.00  0.00     0.064 A 
ATOM     81  C   UNL A   1      41.552  25.664  27.461  1.00  0.00     0.173 A 
ATOM     82  C   UNL A   1      43.037  27.446  26.842  1.00  0.00     0.173 A 
ATOM     83  F   UNL A   1      40.650  25.124  28.295  1.00  0.00    -0.203 F 
ATOM     84  C   UNL A   1      41.993  24.919  26.370  1.00  0.00     0.198 A 
ATOM     85  C   UNL A   1      43.459  26.710  25.738  1.00  0.00     0.198 A 
ATOM     86  F   UNL A   1      43.572  28.657  27.058  1.00  0.00    -0.203 F 
ATOM     87  F   UNL A   1      41.517  23.683  26.170  1.00  0.00    -0.200 F 
ATOM     88  C   UNL A   1      42.944  25.444  25.507  1.00  0.00     0.200 A 
ATOM     89  F   UNL A   1      44.376  27.222  24.905  1.00  0.00    -0.200 F 
ATOM     90  F   UNL A   1      43.372  24.724  24.462  1.00  0.00    -0.200 F 
ENDBRANCH  56  80
BRANCH  68  91
ATOM     91  C   UNL A   1      44.343  27.140  34.302  1.00  0.00     0.064 A 
ATOM     92  C   UNL A   1      45.668  27.601  34.325  1.00  0.00     0.173 A 
ATOM     93  C   UNL A   1      44.049  25.954  34.991  1.00  0.00     0.173 A 
ATOM     94  F   UNL A   1      46.004  28.723  33.670  1.00  0.00    -0.203 F 
ATOM     95  C   UNL A   1      46.664  26.884  34.983  1.00  0.00     0.198 A 
ATOM     96  C   UNL A   1      45.042  25.255  35.673  1.00  0.00     0.198 A 
ATOM     97  F   UNL A   1      42.796  25.474  35.008  1.00  0.00    -0.203 F 
ATOM     98  F   UNL A   1      47.932  27.315  34.947  1.00  0.00    -0.200 F 
ATOM     99  C   UNL A   1      46.350  25.715  35.660  1.00  0.00     0.200 A 
ATOM    100  F   UNL A   1      44.734  24.131  36.335  1.00  0.00    -0.200 F 
ATOM    101  F   UNL A   1      47.310  25.026  36.291  1.00  0.00    -0.200 F 
ENDBRANCH  68  91
ENDBRANCH  42  43
ENDBRANCH  35  37
ENDBRANCH  34  35
ENDBRANCH  33  34
ENDBRANCH  32  33
ENDBRANCH  31  32
ENDBRANCH  30  31
ENDBRANCH  29  30
ENDBRANCH   1  29
TORSDOF 22
ENDMDL
MODEL 2
REMARK VINA RESULT:     -10.9      2.246      3.636
REMARK SMILES C[N@@H+](Cc1ncccc1C(=O)OCCOCCOCCOC(=O)c1ccc(-c2c3nc(c(-c4c(F)c(F)c(F)c(F)c4F)c4ccc([nH]4)c(-c4c(F)c(F)c(F)c(F)c4F)c4nc(c(-c5c(F)c(F)c(F)c(F)c5F)c5ccc2[nH]5)C=C4)C=C3)cc1)C[C@@H]1CCN(c2ccccc2)C1
REMARK SMILES IDX 15 1 14 2 13 3 12 4 10 5 11 6 9 7 4 8 5 9 6 10 8 11 7 12
REMARK SMILES IDX 3 13 2 14 1 15 87 17 88 18 89 19 98 20 90 21 91 22 92 23
REMARK SMILES IDX 93 24 97 25 94 26 96 27 95 28 16 29 17 30 18 31 19 32 20 33
REMARK SMILES IDX 21 34 22 35 23 36 24 37 25 38 86 39 26 40 85 41 27 42 28 43
REMARK SMILES IDX 29 44 79 45 30 46 84 47 78 48 80 49 31 50 83 51 77 52 76 53
REMARK SMILES IDX 32 55 64 56 44 57 63 58 45 59 48 60 62 61 81 62 46 63 47 64
REMARK SMILES IDX 61 66 82 67 49 68 33 69 34 70 42 71 35 72 36 73 40 74 43 75
REMARK SMILES IDX 37 76 38 77 41 78 39 79 65 80 66 81 74 82 67 83 68 84 72 85
REMARK SMILES IDX 75 86 69 87 70 88 73 89 71 90 50 91 51 92 59 93 52 94 53 95
REMARK SMILES IDX 57 96 60 97 54 98 55 99 58 100 56 101
REMARK H PARENT 2 16 80 54 48 65
REMARK Flexibility Score: inf
ROOT
ATOM      1  O   UNL A   1      34.490  30.643  27.125  1.00  0.00    -0.376 OA
ENDROOT
BRANCH   1   2
ATOM      2  C   UNL A   1      34.663  29.236  26.984  1.00  0.00     0.202 C 
BRANCH   2   3
ATOM      3  C   UNL A   1      33.360  28.471  27.215  1.00  0.00     0.261 C 
BRANCH   3   4
ATOM      4  O   UNL A   1      32.889  27.814  26.029  1.00  0.00    -0.460 OA
BRANCH   4   5
ATOM      5  C   UNL A   1      31.564  27.548  25.949  1.00  0.00     0.340 C 
ATOM      6  O   UNL A   1      30.862  27.104  26.836  1.00  0.00    -0.246 OA
BRANCH   5   7
ATOM      7  C   UNL A   1      31.122  28.072  24.640  1.00  0.00     0.087 A 
ATOM      8  C   UNL A   1      30.878  27.239  23.544  1.00  0.00     0.109 A 
ATOM      9  N   UNL A   1      30.198  27.703  22.448  1.00  0.00    -0.254 NA
ATOM     10  C   UNL A   1      29.844  29.009  22.410  1.00  0.00     0.111 A 
ATOM     11  C   UNL A   1      30.759  29.427  24.557  1.00  0.00     0.019 A 
ATOM     12  C   UNL A   1      30.123  29.907  23.419  1.00  0.00     0.021 A 
BRANCH   8  13
ATOM     13  C   UNL A   1      31.334  25.791  23.452  1.00  0.00     0.320 C 
BRANCH  13  14
ATOM     14  N   UNL A   1      32.746  25.472  23.756  1.00  0.00    -0.332 N 
ATOM     15  C   UNL A   1      33.637  25.557  22.614  1.00  0.00     0.333 C 
ATOM     16  H   UNL A   1      33.030  26.245  24.359  1.00  0.00     0.348 HD
BRANCH  14  17
ATOM     17  C   UNL A   1      32.964  24.300  24.616  1.00  0.00     0.267 C 
BRANCH  17  18
ATOM     18  C   UNL A   1      32.374  22.955  24.144  1.00  0.00     0.065 C 
ATOM     19  C   UNL A   1      31.640  22.226  25.278  1.00  0.00     0.032 C 
ATOM     20  C   UNL A   1      33.415  21.936  23.646  1.00  0.00     0.126 C 
ATOM     21  C   UNL A   1      32.689  21.294  25.851  1.00  0.00     0.117 C 
ATOM     22  N   UNL A   1      33.445  20.888  24.674  1.00  0.00    -0.371 N 
BRANCH  22  23
ATOM     23  C   UNL A   1      33.492  19.578  24.223  1.00  0.00     0.037 A 
ATOM     24  C   UNL A   1      34.536  18.741  24.639  1.00  0.00     0.026 A 
ATOM     25  C   UNL A   1      32.556  19.047  23.326  1.00  0.00     0.026 A 
ATOM     26  C   UNL A   1      34.633  17.418  24.197  1.00  0.00     0.002 A 
ATOM     27  C   UNL A   1      32.651  17.727  22.870  1.00  0.00     0.002 A 
ATOM     28  C   UNL A   1      33.689  16.911  23.309  1.00  0.00     0.000 A 
ENDBRANCH  22  23
ENDBRANCH  17  18
ENDBRANCH  14  17
ENDBRANCH  13  14
ENDBRANCH   8  13
ENDBRANCH   5   7
ENDBRANCH   4   5
ENDBRANCH   3   4
ENDBRANCH   2   3
ENDBRANCH   1   2
BRANCH   1  29
ATOM     29  C   UNL A   1      35.192  31.254  28.199  1.00  0.00     0.188 C 
BRANCH  29  30
ATOM     30  C   UNL A   1      34.424  32.392  28.900  1.00  0.00     0.188 C 
BRANCH  30  31
ATOM     31  O   UNL A   1      33.949  33.514  28.165  1.00  0.00    -0.376 OA
BRANCH  31  32
ATOM     32  C   UNL A   1      34.254  34.821  28.620  1.00  0.00     0.202 C 
BRANCH  32  33
ATOM     33  C   UNL A   1      33.124  35.599  29.298  1.00  0.00     0.261 C 
BRANCH  33  34
ATOM     34  O   UNL A   1      32.575  34.939  30.452  1.00  0.00    -0.460 OA
BRANCH  34  35
ATOM     35  C   UNL A   1      32.827  35.552  31.634  1.00  0.00     0.338 C 
ATOM     36  O   UNL A   1      32.183  36.446  32.156  1.00  0.00    -0.246 OA
BRANCH  35  37
ATOM     37  C   UNL A   1      33.958  34.900  32.326  1.00  0.00     0.060 A 
ATOM     38  C   UNL A   1      35.164  35.609  32.398  1.00  0.00     0.016 A 
ATOM     39  C   UNL A   1      33.883  33.585  32.792  1.00  0.00     0.016 A 
ATOM     40  C   UNL A   1      36.314  34.984  32.876  1.00  0.00     0.010 A 
ATOM     41  C   UNL A   1      35.044  32.954  33.260  1.00  0.00     0.010 A 
ATOM     42  C   UNL A   1      36.274  33.638  33.262  1.00  0.00    -0.014 A 
BRANCH  42  43
ATOM     43  C   UNL A   1      37.555  32.924  33.491  1.00  0.00     0.031 A 
ATOM     44  C   UNL A   1      38.331  33.200  34.752  1.00  0.00     0.074 A 
ATOM     45  C   UNL A   1      37.992  31.988  32.630  1.00  0.00     0.049 A 
ATOM     46  N   UNL A   1      39.423  32.632  35.200  1.00  0.00    -0.248 NA
ATOM     47  C   UNL A   1      37.798  34.254  35.630  1.00  0.00     0.031 C 
ATOM     48  C   UNL A   1      37.327  31.606  31.387  1.00  0.00     0.029 A 
ATOM     49  N   UNL A   1      39.103  31.183  32.682  1.00  0.00    -0.354 N 
ATOM     50  C   UNL A   1      39.701  33.249  36.413  1.00  0.00     0.074 A 
ATOM     51  C   UNL A   1      38.686  34.263  36.613  1.00  0.00     0.031 C 
ATOM     52  C   UNL A   1      38.046  30.640  30.789  1.00  0.00     0.029 A 
ATOM     53  C   UNL A   1      39.224  30.343  31.603  1.00  0.00     0.049 A 
ATOM     54  H   UNL A   1      39.751  31.205  33.423  1.00  0.00     0.167 HD
ATOM     55  C   UNL A   1      40.697  32.986  37.291  1.00  0.00     0.037 A 
ATOM     56  C   UNL A   1      40.178  29.439  31.310  1.00  0.00     0.037 A 
ATOM     57  C   UNL A   1      41.715  31.987  37.098  1.00  0.00     0.049 A 
ATOM     58  C   UNL A   1      41.308  29.201  32.278  1.00  0.00     0.074 A 
ATOM     59  C   UNL A   1      42.757  31.639  37.940  1.00  0.00     0.029 A 
ATOM     60  N   UNL A   1      41.823  31.179  35.976  1.00  0.00    -0.354 N 
ATOM     61  N   UNL A   1      41.534  29.756  33.445  1.00  0.00    -0.248 NA
ATOM     62  C   UNL A   1      42.308  28.194  31.892  1.00  0.00     0.031 C 
ATOM     63  C   UNL A   1      43.521  30.649  37.309  1.00  0.00     0.029 A 
ATOM     64  C   UNL A   1      42.926  30.349  36.094  1.00  0.00     0.049 A 
ATOM     65  H   UNL A   1      41.206  31.193  35.208  1.00  0.00     0.167 HD
ATOM     66  C   UNL A   1      42.680  29.148  33.941  1.00  0.00     0.074 A 
ATOM     67  C   UNL A   1      43.096  28.171  32.958  1.00  0.00     0.031 C 
ATOM     68  C   UNL A   1      43.330  29.378  35.111  1.00  0.00     0.037 A 
BRANCH  55  69
ATOM     69  C   UNL A   1      40.745  33.808  38.545  1.00  0.00     0.064 A 
ATOM     70  C   UNL A   1      41.554  34.950  38.643  1.00  0.00     0.173 A 
ATOM     71  C   UNL A   1      39.952  33.467  39.650  1.00  0.00     0.173 A 
ATOM     72  F   UNL A   1      42.340  35.310  37.617  1.00  0.00    -0.203 F 
ATOM     73  C   UNL A   1      41.584  35.708  39.810  1.00  0.00     0.198 A 
ATOM     74  C   UNL A   1      39.966  34.241  40.807  1.00  0.00     0.198 A 
ATOM     75  F   UNL A   1      39.159  32.387  39.606  1.00  0.00    -0.203 F 
ATOM     76  F   UNL A   1      42.395  36.772  39.896  1.00  0.00    -0.200 F 
ATOM     77  C   UNL A   1      40.787  35.357  40.889  1.00  0.00     0.200 A 
ATOM     78  F   UNL A   1      39.188  33.906  41.846  1.00  0.00    -0.200 F 
ATOM     79  F   UNL A   1      40.814  36.090  42.010  1.00  0.00    -0.200 F 
ENDBRANCH  55  69
BRANCH  56  80
ATOM     80  C   UNL A   1      40.104  28.674  30.039  1.00  0.00     0.064 A 
ATOM     81  C   UNL A   1      39.470  27.426  29.981  1.00  0.00     0.173 A 
ATOM     82  C   UNL A   1      40.696  29.163  28.866  1.00  0.00     0.173 A 
ATOM     83  F   UNL A   1      38.917  26.904  31.086  1.00  0.00    -0.203 F 
ATOM     84  C   UNL A   1      39.447  26.686  28.801  1.00  0.00     0.198 A 
ATOM     85  C   UNL A   1      40.652  28.433  27.681  1.00  0.00     0.198 A 
ATOM     86  F   UNL A   1      41.323  30.349  28.874  1.00  0.00    -0.203 F 
ATOM     87  F   UNL A   1      38.880  25.472  28.785  1.00  0.00    -0.200 F 
ATOM     88  C   UNL A   1      40.035  27.192  27.651  1.00  0.00     0.200 A 
ATOM     89  F   UNL A   1      41.218  28.927  26.570  1.00  0.00    -0.200 F 
ATOM     90  F   UNL A   1      40.018  26.477  26.518  1.00  0.00    -0.200 F 
ENDBRANCH  56  80
BRANCH  68  91
ATOM     91  C   UNL A   1      44.540  28.536  35.401  1.00  0.00     0.064 A 
ATOM     92  C   UNL A   1      45.828  28.940  35.020  1.00  0.00     0.173 A 
ATOM     93  C   UNL A   1      44.410  27.319  36.087  1.00  0.00     0.173 A 
ATOM     94  F   UNL A   1      46.003  30.089  34.350  1.00  0.00    -0.203 F 
ATOM     95  C   UNL A   1      46.937  28.140  35.282  1.00  0.00     0.198 A 
ATOM     96  C   UNL A   1      45.525  26.535  36.374  1.00  0.00     0.198 A 
ATOM     97  F   UNL A   1      43.202  26.890  36.483  1.00  0.00    -0.203 F 
ATOM     98  F   UNL A   1      48.150  28.520  34.860  1.00  0.00    -0.200 F 
ATOM     99  C   UNL A   1      46.785  26.941  35.962  1.00  0.00     0.200 A 
ATOM    100  F   UNL A   1      45.378  25.382  37.041  1.00  0.00    -0.200 F 
ATOM    101  F   UNL A   1      47.854  26.172  36.214  1.00  0.00    -0.200 F 
ENDBRANCH  68  91
ENDBRANCH  42  43
ENDBRANCH  35  37
ENDBRANCH  34  35
ENDBRANCH  33  34
ENDBRANCH  32  33
ENDBRANCH  31  32
ENDBRANCH  30  31
ENDBRANCH  29  30
ENDBRANCH   1  29
TORSDOF 22
ENDMDL
MODEL 3
REMARK VINA RESULT:     -10.8      5.508     11.346
REMARK SMILES C[N@@H+](Cc1ncccc1C(=O)OCCOCCOCCOC(=O)c1ccc(-c2c3nc(c(-c4c(F)c(F)c(F)c(F)c4F)c4ccc([nH]4)c(-c4c(F)c(F)c(F)c(F)c4F)c4nc(c(-c5c(F)c(F)c(F)c(F)c5F)c5ccc2[nH]5)C=C4)C=C3)cc1)C[C@@H]1CCN(c2ccccc2)C1
REMARK SMILES IDX 15 1 14 2 13 3 12 4 10 5 11 6 9 7 4 8 5 9 6 10 8 11 7 12
REMARK SMILES IDX 3 13 2 14 1 15 87 17 88 18 89 19 98 20 90 21 91 22 92 23
REMARK SMILES IDX 93 24 97 25 94 26 96 27 95 28 16 29 17 30 18 31 19 32 20 33
REMARK SMILES IDX 21 34 22 35 23 36 24 37 25 38 86 39 26 40 85 41 27 42 28 43
REMARK SMILES IDX 29 44 79 45 30 46 84 47 78 48 80 49 31 50 83 51 77 52 76 53
REMARK SMILES IDX 32 55 64 56 44 57 63 58 45 59 48 60 62 61 81 62 46 63 47 64
REMARK SMILES IDX 61 66 82 67 49 68 33 69 34 70 42 71 35 72 36 73 40 74 43 75
REMARK SMILES IDX 37 76 38 77 41 78 39 79 65 80 66 81 74 82 67 83 68 84 72 85
REMARK SMILES IDX 75 86 69 87 70 88 73 89 71 90 50 91 51 92 59 93 52 94 53 95
REMARK SMILES IDX 57 96 60 97 54 98 55 99 58 100 56 101
REMARK H PARENT 2 16 80 54 48 65
REMARK Flexibility Score: inf
ROOT
ATOM      1  O   UNL A   1      39.030  22.666  26.054  1.00  0.00    -0.376 OA
ENDROOT
BRANCH   1   2
ATOM      2  C   UNL A   1      38.293  21.513  25.663  1.00  0.00     0.202 C 
BRANCH   2   3
ATOM      3  C   UNL A   1      37.090  21.867  24.789  1.00  0.00     0.261 C 
BRANCH   3   4
ATOM      4  O   UNL A   1      36.124  20.807  24.725  1.00  0.00    -0.460 OA
BRANCH   4   5
ATOM      5  C   UNL A   1      34.988  20.955  25.447  1.00  0.00     0.340 C 
ATOM      6  O   UNL A   1      34.828  21.700  26.393  1.00  0.00    -0.246 OA
BRANCH   5   7
ATOM      7  C   UNL A   1      33.953  20.170  24.743  1.00  0.00     0.087 A 
ATOM      8  C   UNL A   1      33.017  20.763  23.891  1.00  0.00     0.109 A 
ATOM      9  N   UNL A   1      32.268  20.001  23.033  1.00  0.00    -0.254 NA
ATOM     10  C   UNL A   1      32.389  18.653  23.089  1.00  0.00     0.111 A 
ATOM     11  C   UNL A   1      34.038  18.769  24.790  1.00  0.00     0.019 A 
ATOM     12  C   UNL A   1      33.234  17.997  23.960  1.00  0.00     0.021 A 
BRANCH   8  13
ATOM     13  C   UNL A   1      32.733  22.256  23.837  1.00  0.00     0.320 C 
BRANCH  13  14
ATOM     14  N   UNL A   1      32.283  22.937  25.071  1.00  0.00    -0.332 N 
ATOM     15  C   UNL A   1      31.155  22.300  25.726  1.00  0.00     0.333 C 
ATOM     16  H   UNL A   1      33.064  22.792  25.710  1.00  0.00     0.348 HD
BRANCH  14  17
ATOM     17  C   UNL A   1      32.198  24.403  24.996  1.00  0.00     0.267 C 
BRANCH  17  18
ATOM     18  C   UNL A   1      31.181  25.005  24.006  1.00  0.00     0.065 C 
ATOM     19  C   UNL A   1      31.877  25.749  22.857  1.00  0.00     0.032 C 
ATOM     20  C   UNL A   1      30.231  26.050  24.618  1.00  0.00     0.126 C 
ATOM     21  C   UNL A   1      31.914  27.190  23.327  1.00  0.00     0.117 C 
ATOM     22  N   UNL A   1      30.657  27.334  24.045  1.00  0.00    -0.371 N 
BRANCH  22  23
ATOM     23  C   UNL A   1      29.650  28.195  23.638  1.00  0.00     0.037 A 
ATOM     24  C   UNL A   1      29.951  29.540  23.384  1.00  0.00     0.026 A 
ATOM     25  C   UNL A   1      28.314  27.796  23.500  1.00  0.00     0.026 A 
ATOM     26  C   UNL A   1      28.966  30.448  22.987  1.00  0.00     0.002 A 
ATOM     27  C   UNL A   1      27.319  28.701  23.114  1.00  0.00     0.002 A 
ATOM     28  C   UNL A   1      27.646  30.027  22.853  1.00  0.00     0.000 A 
ENDBRANCH  22  23
ENDBRANCH  17  18
ENDBRANCH  14  17
ENDBRANCH  13  14
ENDBRANCH   8  13
ENDBRANCH   5   7
ENDBRANCH   4   5
ENDBRANCH   3   4
ENDBRANCH   2   3
ENDBRANCH   1   2
BRANCH   1  29
ATOM     29  C   UNL A   1      40.012  22.469  27.063  1.00  0.00     0.188 C 
BRANCH  29  30
ATOM     30  C   UNL A   1      41.369  21.955  26.544  1.00  0.00     0.188 C 
BRANCH  30  31
ATOM     31  O   UNL A   1      42.112  20.987  27.275  1.00  0.00    -0.376 OA
BRANCH  31  32
ATOM     32  C   UNL A   1      41.812  19.611  27.110  1.00  0.00     0.202 C 
BRANCH  32  33
ATOM     33  C   UNL A   1      42.683  18.826  26.126  1.00  0.00     0.261 C 
BRANCH  33  34
ATOM     34  O   UNL A   1      42.905  19.505  24.878  1.00  0.00    -0.460 OA
BRANCH  34  35
ATOM     35  C   UNL A   1      44.204  19.605  24.506  1.00  0.00     0.338 C 
ATOM     36  O   UNL A   1      44.876  18.766  23.931  1.00  0.00    -0.246 OA
BRANCH  35  37
ATOM     37  C   UNL A   1      44.717  20.965  24.773  1.00  0.00     0.060 A 
ATOM     38  C   UNL A   1      45.320  21.193  26.016  1.00  0.00     0.016 A 
ATOM     39  C   UNL A   1      44.513  22.022  23.882  1.00  0.00     0.016 A 
ATOM     40  C   UNL A   1      45.663  22.489  26.400  1.00  0.00     0.010 A 
ATOM     41  C   UNL A   1      44.845  23.326  24.276  1.00  0.00     0.010 A 
ATOM     42  C   UNL A   1      45.381  23.570  25.554  1.00  0.00    -0.014 A 
BRANCH  42  43
ATOM     43  C   UNL A   1      45.488  24.946  26.097  1.00  0.00     0.031 A 
ATOM     44  C   UNL A   1      46.818  25.652  26.043  1.00  0.00     0.074 A 
ATOM     45  C   UNL A   1      44.408  25.595  26.566  1.00  0.00     0.049 A 
ATOM     46  N   UNL A   1      47.124  26.881  26.377  1.00  0.00    -0.248 NA
ATOM     47  C   UNL A   1      47.955  24.866  25.538  1.00  0.00     0.031 C 
ATOM     48  C   UNL A   1      43.060  25.039  26.651  1.00  0.00     0.029 A 
ATOM     49  N   UNL A   1      44.281  26.873  27.053  1.00  0.00    -0.354 N 
ATOM     50  C   UNL A   1      48.481  27.019  26.112  1.00  0.00     0.074 A 
ATOM     51  C   UNL A   1      48.949  25.737  25.628  1.00  0.00     0.031 C 
ATOM     52  C   UNL A   1      42.238  25.972  27.165  1.00  0.00     0.029 A 
ATOM     53  C   UNL A   1      43.004  27.184  27.452  1.00  0.00     0.049 A 
ATOM     54  H   UNL A   1      45.033  27.505  27.110  1.00  0.00     0.167 HD
ATOM     55  C   UNL A   1      49.263  28.116  26.241  1.00  0.00     0.037 A 
ATOM     56  C   UNL A   1      42.515  28.319  27.985  1.00  0.00     0.037 A 
ATOM     57  C   UNL A   1      48.809  29.393  26.729  1.00  0.00     0.049 A 
ATOM     58  C   UNL A   1      43.418  29.511  28.169  1.00  0.00     0.074 A 
ATOM     59  C   UNL A   1      49.528  30.566  26.881  1.00  0.00     0.029 A 
ATOM     60  N   UNL A   1      47.516  29.659  27.153  1.00  0.00    -0.354 N 
ATOM     61  N   UNL A   1      44.688  29.647  27.870  1.00  0.00    -0.248 NA
ATOM     62  C   UNL A   1      42.811  30.717  28.751  1.00  0.00     0.031 C 
ATOM     63  C   UNL A   1      48.680  31.532  27.437  1.00  0.00     0.029 A 
ATOM     64  C   UNL A   1      47.422  30.972  27.588  1.00  0.00     0.049 A 
ATOM     65  H   UNL A   1      46.775  29.011  27.148  1.00  0.00     0.167 HD
ATOM     66  C   UNL A   1      45.022  30.954  28.200  1.00  0.00     0.074 A 
ATOM     67  C   UNL A   1      43.818  31.577  28.709  1.00  0.00     0.031 C 
ATOM     68  C   UNL A   1      46.219  31.583  28.090  1.00  0.00     0.037 A 
BRANCH  55  69
ATOM     69  C   UNL A   1      50.708  27.980  25.859  1.00  0.00     0.064 A 
ATOM     70  C   UNL A   1      51.120  28.044  24.520  1.00  0.00     0.173 A 
ATOM     71  C   UNL A   1      51.692  27.812  26.843  1.00  0.00     0.173 A 
ATOM     72  F   UNL A   1      50.214  28.191  23.541  1.00  0.00    -0.203 F 
ATOM     73  C   UNL A   1      52.464  27.923  24.178  1.00  0.00     0.198 A 
ATOM     74  C   UNL A   1      53.038  27.716  26.500  1.00  0.00     0.198 A 
ATOM     75  F   UNL A   1      51.350  27.748  28.138  1.00  0.00    -0.203 F 
ATOM     76  F   UNL A   1      52.832  27.947  22.889  1.00  0.00    -0.200 F 
ATOM     77  C   UNL A   1      53.422  27.764  25.168  1.00  0.00     0.200 A 
ATOM     78  F   UNL A   1      53.964  27.571  27.458  1.00  0.00    -0.200 F 
ATOM     79  F   UNL A   1      54.716  27.652  24.838  1.00  0.00    -0.200 F 
ENDBRANCH  55  69
BRANCH  56  80
ATOM     80  C   UNL A   1      41.084  28.393  28.378  1.00  0.00     0.064 A 
ATOM     81  C   UNL A   1      40.117  28.901  27.500  1.00  0.00     0.173 A 
ATOM     82  C   UNL A   1      40.663  27.987  29.653  1.00  0.00     0.173 A 
ATOM     83  F   UNL A   1      40.479  29.330  26.282  1.00  0.00    -0.203 F 
ATOM     84  C   UNL A   1      38.785  29.018  27.890  1.00  0.00     0.198 A 
ATOM     85  C   UNL A   1      39.327  28.082  30.032  1.00  0.00     0.198 A 
ATOM     86  F   UNL A   1      41.554  27.503  30.531  1.00  0.00    -0.203 F 
ATOM     87  F   UNL A   1      37.889  29.555  27.050  1.00  0.00    -0.200 F 
ATOM     88  C   UNL A   1      38.390  28.605  29.153  1.00  0.00     0.200 A 
ATOM     89  F   UNL A   1      38.949  27.679  31.253  1.00  0.00    -0.200 F 
ATOM     90  F   UNL A   1      37.110  28.724  29.529  1.00  0.00    -0.200 F 
ENDBRANCH  56  80
BRANCH  68  91
ATOM     91  C   UNL A   1      46.276  33.028  28.499  1.00  0.00     0.064 A 
ATOM     92  C   UNL A   1      46.036  34.062  27.582  1.00  0.00     0.173 A 
ATOM     93  C   UNL A   1      46.556  33.380  29.827  1.00  0.00     0.173 A 
ATOM     94  F   UNL A   1      45.778  33.779  26.297  1.00  0.00    -0.203 F 
ATOM     95  C   UNL A   1      46.110  35.397  27.974  1.00  0.00     0.198 A 
ATOM     96  C   UNL A   1      46.600  34.714  30.222  1.00  0.00     0.198 A 
ATOM     97  F   UNL A   1      46.784  32.429  30.746  1.00  0.00    -0.203 F 
ATOM     98  F   UNL A   1      45.931  36.369  27.070  1.00  0.00    -0.200 F 
ATOM     99  C   UNL A   1      46.387  35.722  29.293  1.00  0.00     0.200 A 
ATOM    100  F   UNL A   1      46.857  35.026  31.500  1.00  0.00    -0.200 F 
ATOM    101  F   UNL A   1      46.458  37.007  29.668  1.00  0.00    -0.200 F 
ENDBRANCH  68  91
ENDBRANCH  42  43
ENDBRANCH  35  37
ENDBRANCH  34  35
ENDBRANCH  33  34
ENDBRANCH  32  33
ENDBRANCH  31  32
ENDBRANCH  30  31
ENDBRANCH  29  30
ENDBRANCH   1  29
TORSDOF 22
ENDMDL
