MODEL 1
REMARK VINA RESULT:     -11.8      0.000      0.000
REMARK SMILES C[C@H]1N=c2ccc(OC(F)(F)F)cc2=C1CCN1C(=O)c2ccc(C(=O)OCCOCCOCCOC(=O)c3ccc(-c4c5nc(c(-c6c(F)c(F)c(F)c(F)c6F)c6ccc([nH]6)c(-c6c(F)c(F)c(F)c(F)c6F)c6nc(c(-c7c(F)c(F)c(F)c(F)c7F)c7ccc4[nH]7)C=C6)C=C5)cc3)cc2C1=O
REMARK SMILES IDX 30 1 29 2 28 3 27 4 25 5 26 6 24 7 18 8 19 9 104 10 20 11
REMARK SMILES IDX 21 12 103 13 105 14 22 15 102 16 23 17 17 18 16 19 15 20
REMARK SMILES IDX 1 21 2 22 3 23 4 24 14 25 5 26 13 27 6 28 7 29 8 30 9 31
REMARK SMILES IDX 10 32 11 33 12 34 31 35 32 36 33 37 34 38 35 39 36 40 37 41
REMARK SMILES IDX 38 42 39 43 40 44 101 45 41 46 100 47 42 48 43 49 44 50
REMARK SMILES IDX 94 51 45 52 99 53 93 54 95 55 46 56 98 57 92 58 91 59 47 61
REMARK SMILES IDX 79 62 59 63 78 64 60 65 63 66 77 67 96 68 61 69 62 70 76 72
REMARK SMILES IDX 97 73 64 74 48 75 49 76 57 77 50 78 51 79 55 80 58 81 52 82
REMARK SMILES IDX 53 83 56 84 54 85 80 86 81 87 89 88 82 89 83 90 87 91 90 92
REMARK SMILES IDX 84 93 85 94 88 95 86 96 65 97 66 98 74 99 67 100 68 101
REMARK SMILES IDX 72 102 75 103 69 104 70 105 73 106 71 107
REMARK H PARENT 95 60 63 71
REMARK Flexibility Score: inf
ROOT
ATOM      1  O   UNL A   1      41.151  21.007  26.799  1.00  0.00    -0.376 OA
ENDROOT
BRANCH   1   2
ATOM      2  C   UNL A   1      39.922  20.625  26.210  1.00  0.00     0.202 C 
BRANCH   2   3
ATOM      3  C   UNL A   1      38.943  21.722  25.785  1.00  0.00     0.261 C 
BRANCH   3   4
ATOM      4  O   UNL A   1      37.614  21.249  25.503  1.00  0.00    -0.460 OA
BRANCH   4   5
ATOM      5  C   UNL A   1      36.869  22.055  24.710  1.00  0.00     0.338 C 
ATOM      6  O   UNL A   1      37.104  22.320  23.542  1.00  0.00    -0.246 OA
BRANCH   5   7
ATOM      7  C   UNL A   1      35.664  22.594  25.409  1.00  0.00     0.060 A 
ATOM      8  N   UNL A   1      32.053  25.226  26.444  1.00  0.00    -0.274 N 
ATOM      9  C   UNL A   1      31.989  23.941  26.919  1.00  0.00     0.261 C 
ATOM     10  C   UNL A   1      33.342  25.538  26.120  1.00  0.00     0.261 C 
ATOM     11  O   UNL A   1      31.083  23.375  27.501  1.00  0.00    -0.269 OA
ATOM     12  C   UNL A   1      33.270  23.310  26.606  1.00  0.00     0.053 A 
ATOM     13  C   UNL A   1      34.063  24.265  26.003  1.00  0.00     0.054 A 
ATOM     14  O   UNL A   1      33.868  26.627  26.004  1.00  0.00    -0.269 OA
ATOM     15  C   UNL A   1      33.678  22.000  26.733  1.00  0.00     0.015 A 
ATOM     16  C   UNL A   1      35.241  23.933  25.350  1.00  0.00     0.030 A 
ATOM     17  C   UNL A   1      34.897  21.651  26.141  1.00  0.00     0.016 A 
BRANCH   8  18
ATOM     18  C   UNL A   1      30.942  26.160  26.540  1.00  0.00     0.134 C 
BRANCH  18  19
ATOM     19  C   UNL A   1      29.981  26.262  25.329  1.00  0.00     0.056 C 
BRANCH  19  20
ATOM     20  C   UNL A   1      30.534  26.594  23.959  1.00  0.00    -0.035 C 
ATOM     21  C   UNL A   1      30.195  29.168  23.627  1.00  0.00     0.038 C 
ATOM     22  C   UNL A   1      29.965  27.750  23.143  1.00  0.00     0.129 C 
ATOM     23  N   UNL A   1      30.632  27.673  21.822  1.00  0.00    -0.277 NA
ATOM     24  C   UNL A   1      31.360  26.612  21.916  1.00  0.00     0.066 A 
ATOM     25  C   UNL A   1      31.300  25.832  23.163  1.00  0.00     0.005 A 
ATOM     26  C   UNL A   1      32.263  26.134  20.860  1.00  0.00     0.032 A 
ATOM     27  C   UNL A   1      31.892  24.521  23.213  1.00  0.00     0.057 A 
ATOM     28  C   UNL A   1      32.848  24.938  21.005  1.00  0.00     0.049 A 
ATOM     29  C   UNL A   1      32.575  24.062  22.140  1.00  0.00     0.130 A 
BRANCH  29  30
ATOM     30  O   UNL A   1      33.032  22.758  22.120  1.00  0.00    -0.406 OA
BRANCH  30  31
ATOM     31  C   UNL A   1      32.130  21.727  22.516  1.00  0.00     0.573 C 
ATOM     32  F   UNL A   1      32.543  21.090  23.634  1.00  0.00    -0.132 F 
ATOM     33  F   UNL A   1      30.898  22.242  22.728  1.00  0.00    -0.132 F 
ATOM     34  F   UNL A   1      32.036  20.815  21.524  1.00  0.00    -0.132 F 
ENDBRANCH  30  31
ENDBRANCH  29  30
ENDBRANCH  19  20
ENDBRANCH  18  19
ENDBRANCH   8  18
ENDBRANCH   5   7
ENDBRANCH   4   5
ENDBRANCH   3   4
ENDBRANCH   2   3
ENDBRANCH   1   2
BRANCH   1  35
ATOM     35  C   UNL A   1      42.184  21.545  25.989  1.00  0.00     0.188 C 
BRANCH  35  36
ATOM     36  C   UNL A   1      43.492  20.773  25.715  1.00  0.00     0.188 C 
BRANCH  36  37
ATOM     37  O   UNL A   1      44.177  20.883  24.483  1.00  0.00    -0.376 OA
BRANCH  37  38
ATOM     38  C   UNL A   1      44.660  22.146  24.060  1.00  0.00     0.202 C 
BRANCH  38  39
ATOM     39  C   UNL A   1      45.817  22.768  24.841  1.00  0.00     0.261 C 
BRANCH  39  40
ATOM     40  O   UNL A   1      45.358  23.624  25.897  1.00  0.00    -0.460 OA
BRANCH  40  41
ATOM     41  C   UNL A   1      45.389  24.954  25.631  1.00  0.00     0.338 C 
ATOM     42  O   UNL A   1      45.866  25.506  24.656  1.00  0.00    -0.246 OA
BRANCH  41  43
ATOM     43  C   UNL A   1      44.564  25.657  26.633  1.00  0.00     0.060 A 
ATOM     44  C   UNL A   1      43.560  24.985  27.330  1.00  0.00     0.016 A 
ATOM     45  C   UNL A   1      44.820  27.013  26.879  1.00  0.00     0.016 A 
ATOM     46  C   UNL A   1      42.834  25.665  28.308  1.00  0.00     0.010 A 
ATOM     47  C   UNL A   1      44.084  27.696  27.850  1.00  0.00     0.010 A 
ATOM     48  C   UNL A   1      43.104  27.017  28.589  1.00  0.00    -0.014 A 
BRANCH  48  49
ATOM     49  C   UNL A   1      42.488  27.648  29.779  1.00  0.00     0.031 A 
ATOM     50  C   UNL A   1      43.124  27.588  31.130  1.00  0.00     0.074 A 
ATOM     51  C   UNL A   1      41.330  28.312  29.604  1.00  0.00     0.049 A 
ATOM     52  N   UNL A   1      42.784  28.222  32.224  1.00  0.00    -0.248 NA
ATOM     53  C   UNL A   1      44.286  26.702  31.280  1.00  0.00     0.031 C 
ATOM     54  C   UNL A   1      40.600  28.400  28.338  1.00  0.00     0.029 A 
ATOM     55  N   UNL A   1      40.575  29.049  30.479  1.00  0.00    -0.354 N 
ATOM     56  C   UNL A   1      43.705  27.840  33.186  1.00  0.00     0.074 A 
ATOM     57  C   UNL A   1      44.589  26.875  32.561  1.00  0.00     0.031 C 
ATOM     58  C   UNL A   1      39.521  29.177  28.510  1.00  0.00     0.029 A 
ATOM     59  C   UNL A   1      39.478  29.633  29.897  1.00  0.00     0.049 A 
ATOM     60  H   UNL A   1      40.799  29.151  31.433  1.00  0.00     0.167 HD
ATOM     61  C   UNL A   1      43.813  28.279  34.464  1.00  0.00     0.037 A 
ATOM     62  C   UNL A   1      38.551  30.459  30.414  1.00  0.00     0.037 A 
ATOM     63  C   UNL A   1      42.918  29.228  35.079  1.00  0.00     0.049 A 
ATOM     64  C   UNL A   1      38.672  30.897  31.846  1.00  0.00     0.074 A 
ATOM     65  C   UNL A   1      42.983  29.776  36.349  1.00  0.00     0.029 A 
ATOM     66  N   UNL A   1      41.785  29.757  34.476  1.00  0.00    -0.354 N 
ATOM     67  N   UNL A   1      39.607  30.613  32.718  1.00  0.00    -0.248 NA
ATOM     68  C   UNL A   1      37.615  31.778  32.362  1.00  0.00     0.031 C 
ATOM     69  C   UNL A   1      41.864  30.593  36.534  1.00  0.00     0.029 A 
ATOM     70  C   UNL A   1      41.124  30.595  35.363  1.00  0.00     0.049 A 
ATOM     71  H   UNL A   1      41.494  29.566  33.556  1.00  0.00     0.167 HD
ATOM     72  C   UNL A   1      39.261  31.287  33.881  1.00  0.00     0.074 A 
ATOM     73  C   UNL A   1      38.040  32.012  33.596  1.00  0.00     0.031 C 
ATOM     74  C   UNL A   1      39.901  31.301  35.076  1.00  0.00     0.037 A 
BRANCH  61  75
ATOM     75  C   UNL A   1      44.950  27.759  35.292  1.00  0.00     0.064 A 
ATOM     76  C   UNL A   1      46.172  28.447  35.358  1.00  0.00     0.173 A 
ATOM     77  C   UNL A   1      44.790  26.627  36.104  1.00  0.00     0.173 A 
ATOM     78  F   UNL A   1      46.376  29.536  34.601  1.00  0.00    -0.203 F 
ATOM     79  C   UNL A   1      47.193  28.013  36.198  1.00  0.00     0.198 A 
ATOM     80  C   UNL A   1      45.806  26.209  36.959  1.00  0.00     0.198 A 
ATOM     81  F   UNL A   1      43.637  25.940  36.086  1.00  0.00    -0.203 F 
ATOM     82  F   UNL A   1      48.360  28.674  36.229  1.00  0.00    -0.200 F 
ATOM     83  C   UNL A   1      47.007  26.901  37.004  1.00  0.00     0.200 A 
ATOM     84  F   UNL A   1      45.618  25.142  37.750  1.00  0.00    -0.200 F 
ATOM     85  F   UNL A   1      47.984  26.495  37.827  1.00  0.00    -0.200 F 
ENDBRANCH  61  75
BRANCH  62  86
ATOM     86  C   UNL A   1      37.461  30.964  29.544  1.00  0.00     0.064 A 
ATOM     87  C   UNL A   1      36.373  30.146  29.211  1.00  0.00     0.173 A 
ATOM     88  C   UNL A   1      37.463  32.282  29.066  1.00  0.00     0.173 A 
ATOM     89  F   UNL A   1      36.337  28.874  29.633  1.00  0.00    -0.203 F 
ATOM     90  C   UNL A   1      35.329  30.628  28.426  1.00  0.00     0.198 A 
ATOM     91  C   UNL A   1      36.407  32.770  28.302  1.00  0.00     0.198 A 
ATOM     92  F   UNL A   1      38.480  33.103  29.367  1.00  0.00    -0.203 F 
ATOM     93  F   UNL A   1      34.311  29.820  28.099  1.00  0.00    -0.200 F 
ATOM     94  C   UNL A   1      35.342  31.942  27.978  1.00  0.00     0.200 A 
ATOM     95  F   UNL A   1      36.416  34.043  27.884  1.00  0.00    -0.200 F 
ATOM     96  F   UNL A   1      34.330  32.408  27.235  1.00  0.00    -0.200 F 
ENDBRANCH  62  86
BRANCH  74  97
ATOM     97  C   UNL A   1      39.290  32.116  36.178  1.00  0.00     0.064 A 
ATOM     98  C   UNL A   1      38.309  31.579  37.023  1.00  0.00     0.173 A 
ATOM     99  C   UNL A   1      39.736  33.422  36.434  1.00  0.00     0.173 A 
ATOM    100  F   UNL A   1      37.838  30.341  36.809  1.00  0.00    -0.203 F 
ATOM    101  C   UNL A   1      37.789  32.322  38.080  1.00  0.00     0.198 A 
ATOM    102  C   UNL A   1      39.233  34.153  37.508  1.00  0.00     0.198 A 
ATOM    103  F   UNL A   1      40.676  33.980  35.658  1.00  0.00    -0.203 F 
ATOM    104  F   UNL A   1      36.830  31.799  38.856  1.00  0.00    -0.200 F 
ATOM    105  C   UNL A   1      38.258  33.604  38.327  1.00  0.00     0.200 A 
ATOM    106  F   UNL A   1      39.697  35.385  37.753  1.00  0.00    -0.200 F 
ATOM    107  F   UNL A   1      37.769  34.311  39.355  1.00  0.00    -0.200 F 
ENDBRANCH  74  97
ENDBRANCH  48  49
ENDBRANCH  41  43
ENDBRANCH  40  41
ENDBRANCH  39  40
ENDBRANCH  38  39
ENDBRANCH  37  38
ENDBRANCH  36  37
ENDBRANCH  35  36
ENDBRANCH   1  35
TORSDOF 22
ENDMDL
MODEL 2
REMARK VINA RESULT:     -11.4      1.341      2.292
REMARK SMILES C[C@H]1N=c2ccc(OC(F)(F)F)cc2=C1CCN1C(=O)c2ccc(C(=O)OCCOCCOCCOC(=O)c3ccc(-c4c5nc(c(-c6c(F)c(F)c(F)c(F)c6F)c6ccc([nH]6)c(-c6c(F)c(F)c(F)c(F)c6F)c6nc(c(-c7c(F)c(F)c(F)c(F)c7F)c7ccc4[nH]7)C=C6)C=C5)cc3)cc2C1=O
REMARK SMILES IDX 30 1 29 2 28 3 27 4 25 5 26 6 24 7 18 8 19 9 104 10 20 11
REMARK SMILES IDX 21 12 103 13 105 14 22 15 102 16 23 17 17 18 16 19 15 20
REMARK SMILES IDX 1 21 2 22 3 23 4 24 14 25 5 26 13 27 6 28 7 29 8 30 9 31
REMARK SMILES IDX 10 32 11 33 12 34 31 35 32 36 33 37 34 38 35 39 36 40 37 41
REMARK SMILES IDX 38 42 39 43 40 44 101 45 41 46 100 47 42 48 43 49 44 50
REMARK SMILES IDX 94 51 45 52 99 53 93 54 95 55 46 56 98 57 92 58 91 59 47 61
REMARK SMILES IDX 79 62 59 63 78 64 60 65 63 66 77 67 96 68 61 69 62 70 76 72
REMARK SMILES IDX 97 73 64 74 48 75 49 76 57 77 50 78 51 79 55 80 58 81 52 82
REMARK SMILES IDX 53 83 56 84 54 85 80 86 81 87 89 88 82 89 83 90 87 91 90 92
REMARK SMILES IDX 84 93 85 94 88 95 86 96 65 97 66 98 74 99 67 100 68 101
REMARK SMILES IDX 72 102 75 103 69 104 70 105 73 106 71 107
REMARK H PARENT 95 60 63 71
REMARK Flexibility Score: inf
ROOT
ATOM      1  O   UNL A   1      41.743  20.651  26.853  1.00  0.00    -0.376 OA
ENDROOT
BRANCH   1   2
ATOM      2  C   UNL A   1      40.477  20.791  26.237  1.00  0.00     0.202 C 
BRANCH   2   3
ATOM      3  C   UNL A   1      39.649  22.042  26.544  1.00  0.00     0.261 C 
BRANCH   3   4
ATOM      4  O   UNL A   1      38.364  22.070  25.897  1.00  0.00    -0.460 OA
BRANCH   4   5
ATOM      5  C   UNL A   1      37.747  23.275  25.891  1.00  0.00     0.338 C 
ATOM      6  O   UNL A   1      38.285  24.353  26.088  1.00  0.00    -0.246 OA
BRANCH   5   7
ATOM      7  C   UNL A   1      36.289  23.172  25.581  1.00  0.00     0.060 A 
ATOM      8  N   UNL A   1      31.764  23.919  25.658  1.00  0.00    -0.274 N 
ATOM      9  C   UNL A   1      32.246  23.398  24.485  1.00  0.00     0.261 C 
ATOM     10  C   UNL A   1      32.671  23.723  26.660  1.00  0.00     0.261 C 
ATOM     11  O   UNL A   1      31.665  23.182  23.438  1.00  0.00    -0.269 OA
ATOM     12  C   UNL A   1      33.663  23.110  24.700  1.00  0.00     0.053 A 
ATOM     13  C   UNL A   1      33.953  23.425  26.011  1.00  0.00     0.054 A 
ATOM     14  O   UNL A   1      32.502  23.712  27.863  1.00  0.00    -0.269 OA
ATOM     15  C   UNL A   1      34.641  22.714  23.813  1.00  0.00     0.015 A 
ATOM     16  C   UNL A   1      35.258  23.516  26.472  1.00  0.00     0.030 A 
ATOM     17  C   UNL A   1      35.962  22.730  24.273  1.00  0.00     0.016 A 
BRANCH   8  18
ATOM     18  C   UNL A   1      30.388  24.362  25.821  1.00  0.00     0.134 C 
BRANCH  18  19
ATOM     19  C   UNL A   1      30.048  25.818  25.410  1.00  0.00     0.056 C 
BRANCH  19  20
ATOM     20  C   UNL A   1      31.148  26.856  25.355  1.00  0.00    -0.035 C 
ATOM     21  C   UNL A   1      31.392  27.807  27.782  1.00  0.00     0.038 C 
ATOM     22  C   UNL A   1      31.147  28.049  26.305  1.00  0.00     0.129 C 
ATOM     23  N   UNL A   1      32.263  28.916  25.860  1.00  0.00    -0.277 NA
ATOM     24  C   UNL A   1      32.711  28.312  24.811  1.00  0.00     0.066 A 
ATOM     25  C   UNL A   1      32.033  27.081  24.371  1.00  0.00     0.005 A 
ATOM     26  C   UNL A   1      33.870  28.764  24.029  1.00  0.00     0.032 A 
ATOM     27  C   UNL A   1      32.334  26.524  23.079  1.00  0.00     0.057 A 
ATOM     28  C   UNL A   1      34.146  28.149  22.871  1.00  0.00     0.049 A 
ATOM     29  C   UNL A   1      33.304  27.088  22.325  1.00  0.00     0.130 A 
BRANCH  29  30
ATOM     30  O   UNL A   1      33.513  26.652  21.031  1.00  0.00    -0.406 OA
BRANCH  30  31
ATOM     31  C   UNL A   1      32.622  25.671  20.504  1.00  0.00     0.573 C 
ATOM     32  F   UNL A   1      31.328  25.975  20.746  1.00  0.00    -0.132 F 
ATOM     33  F   UNL A   1      32.805  25.543  19.170  1.00  0.00    -0.132 F 
ATOM     34  F   UNL A   1      32.887  24.477  21.078  1.00  0.00    -0.132 F 
ENDBRANCH  30  31
ENDBRANCH  29  30
ENDBRANCH  19  20
ENDBRANCH  18  19
ENDBRANCH   8  18
ENDBRANCH   5   7
ENDBRANCH   4   5
ENDBRANCH   3   4
ENDBRANCH   2   3
ENDBRANCH   1   2
BRANCH   1  35
ATOM     35  C   UNL A   1      42.873  21.309  26.302  1.00  0.00     0.188 C 
BRANCH  35  36
ATOM     36  C   UNL A   1      43.864  20.585  25.365  1.00  0.00     0.188 C 
BRANCH  36  37
ATOM     37  O   UNL A   1      44.282  21.154  24.141  1.00  0.00    -0.376 OA
BRANCH  37  38
ATOM     38  C   UNL A   1      44.536  22.546  24.066  1.00  0.00     0.202 C 
BRANCH  38  39
ATOM     39  C   UNL A   1      45.766  23.089  24.790  1.00  0.00     0.261 C 
BRANCH  39  40
ATOM     40  O   UNL A   1      45.414  23.947  25.886  1.00  0.00    -0.460 OA
BRANCH  40  41
ATOM     41  C   UNL A   1      45.327  25.268  25.594  1.00  0.00     0.338 C 
ATOM     42  O   UNL A   1      45.719  25.835  24.590  1.00  0.00    -0.246 OA
BRANCH  41  43
ATOM     43  C   UNL A   1      44.489  25.925  26.616  1.00  0.00     0.060 A 
ATOM     44  C   UNL A   1      43.558  25.194  27.355  1.00  0.00     0.016 A 
ATOM     45  C   UNL A   1      44.656  27.299  26.837  1.00  0.00     0.016 A 
ATOM     46  C   UNL A   1      42.820  25.836  28.349  1.00  0.00     0.010 A 
ATOM     47  C   UNL A   1      43.908  27.942  27.825  1.00  0.00     0.010 A 
ATOM     48  C   UNL A   1      43.003  27.207  28.605  1.00  0.00    -0.014 A 
BRANCH  48  49
ATOM     49  C   UNL A   1      42.384  27.809  29.808  1.00  0.00     0.031 A 
ATOM     50  C   UNL A   1      43.030  27.739  31.155  1.00  0.00     0.074 A 
ATOM     51  C   UNL A   1      41.214  28.457  29.652  1.00  0.00     0.049 A 
ATOM     52  N   UNL A   1      42.686  28.350  32.260  1.00  0.00    -0.248 NA
ATOM     53  C   UNL A   1      44.207  26.870  31.284  1.00  0.00     0.031 C 
ATOM     54  C   UNL A   1      40.475  28.553  28.391  1.00  0.00     0.029 A 
ATOM     55  N   UNL A   1      40.454  29.168  30.542  1.00  0.00    -0.354 N 
ATOM     56  C   UNL A   1      43.620  27.968  33.211  1.00  0.00     0.074 A 
ATOM     57  C   UNL A   1      44.515  27.028  32.566  1.00  0.00     0.031 C 
ATOM     58  C   UNL A   1      39.385  29.309  28.582  1.00  0.00     0.029 A 
ATOM     59  C   UNL A   1      39.343  29.743  29.975  1.00  0.00     0.049 A 
ATOM     60  H   UNL A   1      40.681  29.259  31.496  1.00  0.00     0.167 HD
ATOM     61  C   UNL A   1      43.728  28.389  34.495  1.00  0.00     0.037 A 
ATOM     62  C   UNL A   1      38.406  30.545  30.511  1.00  0.00     0.037 A 
ATOM     63  C   UNL A   1      42.822  29.314  35.129  1.00  0.00     0.049 A 
ATOM     64  C   UNL A   1      38.529  30.964  31.949  1.00  0.00     0.074 A 
ATOM     65  C   UNL A   1      42.886  29.844  36.408  1.00  0.00     0.029 A 
ATOM     66  N   UNL A   1      41.677  29.834  34.542  1.00  0.00    -0.354 N 
ATOM     67  N   UNL A   1      39.474  30.681  32.811  1.00  0.00    -0.248 NA
ATOM     68  C   UNL A   1      37.461  31.819  32.484  1.00  0.00     0.031 C 
ATOM     69  C   UNL A   1      41.755  30.640  36.612  1.00  0.00     0.029 A 
ATOM     70  C   UNL A   1      41.008  30.647  35.446  1.00  0.00     0.049 A 
ATOM     71  H   UNL A   1      41.383  29.652  33.621  1.00  0.00     0.167 HD
ATOM     72  C   UNL A   1      39.125  31.332  33.986  1.00  0.00     0.074 A 
ATOM     73  C   UNL A   1      37.890  32.042  33.720  1.00  0.00     0.031 C 
ATOM     74  C   UNL A   1      39.772  31.338  35.177  1.00  0.00     0.037 A 
BRANCH  61  75
ATOM     75  C   UNL A   1      44.879  27.876  35.308  1.00  0.00     0.064 A 
ATOM     76  C   UNL A   1      44.793  26.656  35.996  1.00  0.00     0.173 A 
ATOM     77  C   UNL A   1      46.108  28.551  35.320  1.00  0.00     0.173 A 
ATOM     78  F   UNL A   1      43.640  25.972  36.016  1.00  0.00    -0.203 F 
ATOM     79  C   UNL A   1      45.892  26.138  36.674  1.00  0.00     0.198 A 
ATOM     80  C   UNL A   1      47.212  28.018  35.981  1.00  0.00     0.198 A 
ATOM     81  F   UNL A   1      46.246  29.716  34.668  1.00  0.00    -0.203 F 
ATOM     82  F   UNL A   1      45.782  24.980  37.342  1.00  0.00    -0.200 F 
ATOM     83  C   UNL A   1      47.103  26.813  36.658  1.00  0.00     0.200 A 
ATOM     84  F   UNL A   1      48.386  28.665  35.951  1.00  0.00    -0.200 F 
ATOM     85  F   UNL A   1      48.166  26.303  37.296  1.00  0.00    -0.200 F 
ENDBRANCH  61  75
BRANCH  62  86
ATOM     86  C   UNL A   1      37.303  31.046  29.656  1.00  0.00     0.064 A 
ATOM     87  C   UNL A   1      37.316  32.358  29.164  1.00  0.00     0.173 A 
ATOM     88  C   UNL A   1      36.240  30.213  29.278  1.00  0.00     0.173 A 
ATOM     89  F   UNL A   1      38.305  33.194  29.513  1.00  0.00    -0.203 F 
ATOM     90  C   UNL A   1      36.302  32.820  28.329  1.00  0.00     0.198 A 
ATOM     91  C   UNL A   1      35.240  30.669  28.423  1.00  0.00     0.198 A 
ATOM     92  F   UNL A   1      36.191  28.947  29.717  1.00  0.00    -0.203 F 
ATOM     93  F   UNL A   1      36.323  34.087  27.892  1.00  0.00    -0.200 F 
ATOM     94  C   UNL A   1      35.269  31.974  27.953  1.00  0.00     0.200 A 
ATOM     95  F   UNL A   1      34.252  29.844  28.050  1.00  0.00    -0.200 F 
ATOM     96  F   UNL A   1      34.302  32.416  27.138  1.00  0.00    -0.200 F 
ENDBRANCH  62  86
BRANCH  74  97
ATOM     97  C   UNL A   1      39.155  32.126  36.295  1.00  0.00     0.064 A 
ATOM     98  C   UNL A   1      38.235  31.541  37.177  1.00  0.00     0.173 A 
ATOM     99  C   UNL A   1      39.536  33.457  36.529  1.00  0.00     0.173 A 
ATOM    100  F   UNL A   1      37.827  30.277  36.987  1.00  0.00    -0.203 F 
ATOM    101  C   UNL A   1      37.711  32.262  38.248  1.00  0.00     0.198 A 
ATOM    102  C   UNL A   1      39.030  34.166  37.615  1.00  0.00     0.198 A 
ATOM    103  F   UNL A   1      40.415  34.061  35.716  1.00  0.00    -0.203 F 
ATOM    104  F   UNL A   1      36.811  31.693  39.060  1.00  0.00    -0.200 F 
ATOM    105  C   UNL A   1      38.117  33.570  38.471  1.00  0.00     0.200 A 
ATOM    106  F   UNL A   1      39.432  35.425  37.837  1.00  0.00    -0.200 F 
ATOM    107  F   UNL A   1      37.624  34.256  39.511  1.00  0.00    -0.200 F 
ENDBRANCH  74  97
ENDBRANCH  48  49
ENDBRANCH  41  43
ENDBRANCH  40  41
ENDBRANCH  39  40
ENDBRANCH  38  39
ENDBRANCH  37  38
ENDBRANCH  36  37
ENDBRANCH  35  36
ENDBRANCH   1  35
TORSDOF 22
ENDMDL
MODEL 3
REMARK VINA RESULT:     -11.4      1.867      2.759
REMARK SMILES C[C@H]1N=c2ccc(OC(F)(F)F)cc2=C1CCN1C(=O)c2ccc(C(=O)OCCOCCOCCOC(=O)c3ccc(-c4c5nc(c(-c6c(F)c(F)c(F)c(F)c6F)c6ccc([nH]6)c(-c6c(F)c(F)c(F)c(F)c6F)c6nc(c(-c7c(F)c(F)c(F)c(F)c7F)c7ccc4[nH]7)C=C6)C=C5)cc3)cc2C1=O
REMARK SMILES IDX 30 1 29 2 28 3 27 4 25 5 26 6 24 7 18 8 19 9 104 10 20 11
REMARK SMILES IDX 21 12 103 13 105 14 22 15 102 16 23 17 17 18 16 19 15 20
REMARK SMILES IDX 1 21 2 22 3 23 4 24 14 25 5 26 13 27 6 28 7 29 8 30 9 31
REMARK SMILES IDX 10 32 11 33 12 34 31 35 32 36 33 37 34 38 35 39 36 40 37 41
REMARK SMILES IDX 38 42 39 43 40 44 101 45 41 46 100 47 42 48 43 49 44 50
REMARK SMILES IDX 94 51 45 52 99 53 93 54 95 55 46 56 98 57 92 58 91 59 47 61
REMARK SMILES IDX 79 62 59 63 78 64 60 65 63 66 77 67 96 68 61 69 62 70 76 72
REMARK SMILES IDX 97 73 64 74 48 75 49 76 57 77 50 78 51 79 55 80 58 81 52 82
REMARK SMILES IDX 53 83 56 84 54 85 80 86 81 87 89 88 82 89 83 90 87 91 90 92
REMARK SMILES IDX 84 93 85 94 88 95 86 96 65 97 66 98 74 99 67 100 68 101
REMARK SMILES IDX 72 102 75 103 69 104 70 105 73 106 71 107
REMARK H PARENT 95 60 63 71
REMARK Flexibility Score: inf
ROOT
ATOM      1  O   UNL A   1      41.914  20.559  27.055  1.00  0.00    -0.376 OA
ENDROOT
BRANCH   1   2
ATOM      2  C   UNL A   1      40.672  20.651  26.384  1.00  0.00     0.202 C 
BRANCH   2   3
ATOM      3  C   UNL A   1      39.881  21.957  26.486  1.00  0.00     0.261 C 
BRANCH   3   4
ATOM      4  O   UNL A   1      38.641  21.953  25.756  1.00  0.00    -0.460 OA
BRANCH   4   5
ATOM      5  C   UNL A   1      37.915  23.093  25.843  1.00  0.00     0.338 C 
ATOM      6  O   UNL A   1      38.355  24.201  26.104  1.00  0.00    -0.246 OA
BRANCH   5   7
ATOM      7  C   UNL A   1      36.466  22.874  25.553  1.00  0.00     0.060 A 
ATOM      8  N   UNL A   1      32.042  23.683  24.653  1.00  0.00    -0.274 N 
ATOM      9  C   UNL A   1      32.508  22.468  24.222  1.00  0.00     0.261 C 
ATOM     10  C   UNL A   1      32.888  24.199  25.593  1.00  0.00     0.261 C 
ATOM     11  O   UNL A   1      31.945  21.611  23.567  1.00  0.00    -0.269 OA
ATOM     12  C   UNL A   1      33.880  22.343  24.712  1.00  0.00     0.053 A 
ATOM     13  C   UNL A   1      34.154  23.470  25.459  1.00  0.00     0.054 A 
ATOM     14  O   UNL A   1      32.677  25.041  26.443  1.00  0.00    -0.269 OA
ATOM     15  C   UNL A   1      34.842  21.393  24.448  1.00  0.00     0.015 A 
ATOM     16  C   UNL A   1      35.446  23.793  25.852  1.00  0.00     0.030 A 
ATOM     17  C   UNL A   1      36.142  21.661  24.892  1.00  0.00     0.016 A 
BRANCH   8  18
ATOM     18  C   UNL A   1      30.714  24.181  24.329  1.00  0.00     0.134 C 
BRANCH  18  19
ATOM     19  C   UNL A   1      30.566  25.069  23.067  1.00  0.00     0.056 C 
BRANCH  19  20
ATOM     20  C   UNL A   1      31.736  25.911  22.604  1.00  0.00    -0.035 C 
ATOM     21  C   UNL A   1      32.123  25.320  20.084  1.00  0.00     0.038 C 
ATOM     22  C   UNL A   1      32.663  25.423  21.497  1.00  0.00     0.129 C 
ATOM     23  N   UNL A   1      33.760  26.417  21.426  1.00  0.00    -0.277 NA
ATOM     24  C   UNL A   1      33.486  27.234  22.386  1.00  0.00     0.066 A 
ATOM     25  C   UNL A   1      32.306  26.957  23.223  1.00  0.00     0.005 A 
ATOM     26  C   UNL A   1      34.268  28.439  22.693  1.00  0.00     0.032 A 
ATOM     27  C   UNL A   1      32.113  27.690  24.447  1.00  0.00     0.057 A 
ATOM     28  C   UNL A   1      33.983  29.125  23.808  1.00  0.00     0.049 A 
ATOM     29  C   UNL A   1      32.969  28.687  24.763  1.00  0.00     0.130 A 
BRANCH  29  30
ATOM     30  O   UNL A   1      32.879  29.309  25.994  1.00  0.00    -0.406 OA
BRANCH  30  31
ATOM     31  C   UNL A   1      31.730  30.113  26.254  1.00  0.00     0.573 C 
ATOM     32  F   UNL A   1      31.072  29.718  27.366  1.00  0.00    -0.132 F 
ATOM     33  F   UNL A   1      32.090  31.409  26.389  1.00  0.00    -0.132 F 
ATOM     34  F   UNL A   1      30.879  30.022  25.209  1.00  0.00    -0.132 F 
ENDBRANCH  30  31
ENDBRANCH  29  30
ENDBRANCH  19  20
ENDBRANCH  18  19
ENDBRANCH   8  18
ENDBRANCH   5   7
ENDBRANCH   4   5
ENDBRANCH   3   4
ENDBRANCH   2   3
ENDBRANCH   1   2
BRANCH   1  35
ATOM     35  C   UNL A   1      43.029  21.296  26.579  1.00  0.00     0.188 C 
BRANCH  35  36
ATOM     36  C   UNL A   1      43.879  20.814  25.385  1.00  0.00     0.188 C 
BRANCH  36  37
ATOM     37  O   UNL A   1      44.096  21.625  24.248  1.00  0.00    -0.376 OA
BRANCH  37  38
ATOM     38  C   UNL A   1      44.421  22.995  24.417  1.00  0.00     0.202 C 
BRANCH  38  39
ATOM     39  C   UNL A   1      45.872  23.352  24.737  1.00  0.00     0.261 C 
BRANCH  39  40
ATOM     40  O   UNL A   1      45.974  24.246  25.856  1.00  0.00    -0.460 OA
BRANCH  40  41
ATOM     41  C   UNL A   1      45.855  25.565  25.565  1.00  0.00     0.338 C 
ATOM     42  O   UNL A   1      46.243  26.145  24.567  1.00  0.00    -0.246 OA
BRANCH  41  43
ATOM     43  C   UNL A   1      44.989  26.197  26.580  1.00  0.00     0.060 A 
ATOM     44  C   UNL A   1      43.995  25.464  27.227  1.00  0.00     0.016 A 
ATOM     45  C   UNL A   1      45.196  27.549  26.889  1.00  0.00     0.016 A 
ATOM     46  C   UNL A   1      43.229  26.078  28.219  1.00  0.00     0.010 A 
ATOM     47  C   UNL A   1      44.421  28.165  27.874  1.00  0.00     0.010 A 
ATOM     48  C   UNL A   1      43.450  27.424  28.563  1.00  0.00    -0.014 A 
BRANCH  48  49
ATOM     49  C   UNL A   1      42.791  27.983  29.766  1.00  0.00     0.031 A 
ATOM     50  C   UNL A   1      43.416  27.908  31.122  1.00  0.00     0.074 A 
ATOM     51  C   UNL A   1      41.603  28.594  29.602  1.00  0.00     0.049 A 
ATOM     52  N   UNL A   1      43.034  28.486  32.233  1.00  0.00    -0.248 NA
ATOM     53  C   UNL A   1      44.620  27.076  31.256  1.00  0.00     0.031 C 
ATOM     54  C   UNL A   1      40.882  28.689  28.331  1.00  0.00     0.029 A 
ATOM     55  N   UNL A   1      40.804  29.262  30.492  1.00  0.00    -0.354 N 
ATOM     56  C   UNL A   1      43.964  28.117  33.192  1.00  0.00     0.074 A 
ATOM     57  C   UNL A   1      44.901  27.219  32.546  1.00  0.00     0.031 C 
ATOM     58  C   UNL A   1      39.764  29.405  28.516  1.00  0.00     0.029 A 
ATOM     59  C   UNL A   1      39.685  29.810  29.917  1.00  0.00     0.049 A 
ATOM     60  H   UNL A   1      41.013  29.342  31.451  1.00  0.00     0.167 HD
ATOM     61  C   UNL A   1      44.037  28.517  34.485  1.00  0.00     0.037 A 
ATOM     62  C   UNL A   1      38.713  30.571  30.452  1.00  0.00     0.037 A 
ATOM     63  C   UNL A   1      43.090  29.399  35.121  1.00  0.00     0.049 A 
ATOM     64  C   UNL A   1      38.798  30.966  31.898  1.00  0.00     0.074 A 
ATOM     65  C   UNL A   1      43.116  29.905  36.410  1.00  0.00     0.029 A 
ATOM     66  N   UNL A   1      41.938  29.892  34.524  1.00  0.00    -0.354 N 
ATOM     67  N   UNL A   1      39.737  30.698  32.771  1.00  0.00    -0.248 NA
ATOM     68  C   UNL A   1      37.693  31.775  32.431  1.00  0.00     0.031 C 
ATOM     69  C   UNL A   1      41.955  30.659  36.610  1.00  0.00     0.029 A 
ATOM     70  C   UNL A   1      41.227  30.665  35.431  1.00  0.00     0.049 A 
ATOM     71  H   UNL A   1      41.666  29.718  33.594  1.00  0.00     0.167 HD
ATOM     72  C   UNL A   1      39.347  31.315  33.952  1.00  0.00     0.074 A 
ATOM     73  C   UNL A   1      38.094  31.988  33.678  1.00  0.00     0.031 C 
ATOM     74  C   UNL A   1      39.974  31.319  35.154  1.00  0.00     0.037 A 
BRANCH  61  75
ATOM     75  C   UNL A   1      45.191  28.026  35.308  1.00  0.00     0.064 A 
ATOM     76  C   UNL A   1      45.109  26.825  36.028  1.00  0.00     0.173 A 
ATOM     77  C   UNL A   1      46.419  28.703  35.300  1.00  0.00     0.173 A 
ATOM     78  F   UNL A   1      43.956  26.139  36.069  1.00  0.00    -0.203 F 
ATOM     79  C   UNL A   1      46.210  26.325  36.717  1.00  0.00     0.198 A 
ATOM     80  C   UNL A   1      47.526  28.189  35.971  1.00  0.00     0.198 A 
ATOM     81  F   UNL A   1      46.553  29.851  34.618  1.00  0.00    -0.203 F 
ATOM     82  F   UNL A   1      46.103  25.186  37.415  1.00  0.00    -0.200 F 
ATOM     83  C   UNL A   1      47.420  27.002  36.680  1.00  0.00     0.200 A 
ATOM     84  F   UNL A   1      48.698  28.837  35.921  1.00  0.00    -0.200 F 
ATOM     85  F   UNL A   1      48.485  26.511  37.328  1.00  0.00    -0.200 F 
ENDBRANCH  61  75
BRANCH  62  86
ATOM     86  C   UNL A   1      37.608  31.051  29.586  1.00  0.00     0.064 A 
ATOM     87  C   UNL A   1      36.541  30.207  29.252  1.00  0.00     0.173 A 
ATOM     88  C   UNL A   1      37.575  32.371  29.114  1.00  0.00     0.173 A 
ATOM     89  F   UNL A   1      36.539  28.933  29.669  1.00  0.00    -0.203 F 
ATOM     90  C   UNL A   1      35.482  30.665  28.472  1.00  0.00     0.198 A 
ATOM     91  C   UNL A   1      36.503  32.835  28.354  1.00  0.00     0.198 A 
ATOM     92  F   UNL A   1      38.570  33.217  29.416  1.00  0.00    -0.203 F 
ATOM     93  F   UNL A   1      34.485  29.831  28.144  1.00  0.00    -0.200 F 
ATOM     94  C   UNL A   1      35.460  31.980  28.030  1.00  0.00     0.200 A 
ATOM     95  F   UNL A   1      36.479  34.110  27.943  1.00  0.00    -0.200 F 
ATOM     96  F   UNL A   1      34.434  32.423  27.291  1.00  0.00    -0.200 F 
ENDBRANCH  62  86
BRANCH  74  97
ATOM     97  C   UNL A   1      39.312  32.065  36.275  1.00  0.00     0.064 A 
ATOM     98  C   UNL A   1      38.326  31.461  37.069  1.00  0.00     0.173 A 
ATOM     99  C   UNL A   1      39.714  33.369  36.604  1.00  0.00     0.173 A 
ATOM    100  F   UNL A   1      37.896  30.222  36.786  1.00  0.00    -0.203 F 
ATOM    101  C   UNL A   1      37.759  32.140  38.145  1.00  0.00     0.198 A 
ATOM    102  C   UNL A   1      39.163  34.035  37.696  1.00  0.00     0.198 A 
ATOM    103  F   UNL A   1      40.657  33.989  35.878  1.00  0.00    -0.203 F 
ATOM    104  F   UNL A   1      36.796  31.556  38.871  1.00  0.00    -0.200 F 
ATOM    105  C   UNL A   1      38.185  33.421  38.463  1.00  0.00     0.200 A 
ATOM    106  F   UNL A   1      39.585  35.267  38.009  1.00  0.00    -0.200 F 
ATOM    107  F   UNL A   1      37.649  34.066  39.509  1.00  0.00    -0.200 F 
ENDBRANCH  74  97
ENDBRANCH  48  49
ENDBRANCH  41  43
ENDBRANCH  40  41
ENDBRANCH  39  40
ENDBRANCH  38  39
ENDBRANCH  37  38
ENDBRANCH  36  37
ENDBRANCH  35  36
ENDBRANCH   1  35
TORSDOF 22
ENDMDL
