MODEL 1
REMARK VINA RESULT:     -10.3      0.000      0.000
REMARK SMILES CCCc1nnc(SCC(=O)OCCOCCOCCOC(=O)c2ccc(-c3c4nc(c(-c5c(F)c(F)c(F)c(F)c5F)c5ccc([nH]5)c(-c5c(F)c(F)c(F)c(F)c5F)c5nc(c(-c6c(F)c(F)c(F)c(F)c6F)c6ccc3[nH]6)C=C5)C=C4)cc2)n1C[C@H]1CCCO1
REMARK SMILES IDX 16 1 15 2 14 3 13 4 12 5 10 6 11 7 9 8 8 9 7 10 4 11 5 12
REMARK SMILES IDX 87 13 6 14 3 15 2 16 1 17 88 18 89 19 90 20 93 21 91 22
REMARK SMILES IDX 92 23 17 24 18 25 19 26 20 27 21 28 22 29 23 30 24 31 25 32
REMARK SMILES IDX 86 33 26 34 85 35 27 36 28 37 29 38 79 39 30 40 84 41 78 42
REMARK SMILES IDX 80 43 31 44 83 45 77 46 76 47 32 49 64 50 44 51 63 52 45 53
REMARK SMILES IDX 48 54 62 55 81 56 46 57 47 58 61 60 82 61 49 62 33 63 34 64
REMARK SMILES IDX 42 65 35 66 36 67 40 68 43 69 37 70 38 71 41 72 39 73 65 74
REMARK SMILES IDX 66 75 74 76 67 77 68 78 72 79 75 80 69 81 70 82 73 83 71 84
REMARK SMILES IDX 50 85 51 86 59 87 52 88 53 89 57 90 60 91 54 92 55 93 58 94
REMARK SMILES IDX 56 95
REMARK H PARENT 80 48 48 59
REMARK Flexibility Score: inf
ROOT
ATOM      1  C   UNL A   1      42.040  19.712  27.303  1.00  0.00     0.188 C 
ENDROOT
BRANCH   1   2
ATOM      2  O   UNL A   1      40.756  20.215  27.663  1.00  0.00    -0.376 OA
BRANCH   2   3
ATOM      3  C   UNL A   1      40.561  21.624  27.517  1.00  0.00     0.202 C 
BRANCH   3   4
ATOM      4  C   UNL A   1      40.073  21.959  26.093  1.00  0.00     0.261 C 
BRANCH   4   5
ATOM      5  O   UNL A   1      38.679  21.603  25.879  1.00  0.00    -0.463 OA
BRANCH   5   6
ATOM      6  C   UNL A   1      37.771  22.613  25.890  1.00  0.00     0.316 C 
ATOM      7  O   UNL A   1      38.089  23.801  25.956  1.00  0.00    -0.251 OA
BRANCH   6   8
ATOM      8  C   UNL A   1      36.326  22.226  25.591  1.00  0.00     0.200 C 
BRANCH   8   9
ATOM      9  S   UNL A   1      35.912  20.559  25.045  1.00  0.00    -0.074 SA
BRANCH   9  10
ATOM     10  C   UNL A   1      34.165  20.530  24.962  1.00  0.00     0.191 A 
ATOM     11  C   UNL A   1      32.520  19.592  23.858  1.00  0.00     0.133 A 
ATOM     12  N   UNL A   1      32.149  19.708  25.140  1.00  0.00    -0.134 NA
ATOM     13  N   UNL A   1      33.435  20.706  23.796  1.00  0.00    -0.303 N 
ATOM     14  N   UNL A   1      33.318  20.033  25.840  1.00  0.00    -0.123 NA
BRANCH  11  15
ATOM     15  C   UNL A   1      32.769  18.109  23.328  1.00  0.00     0.077 C 
BRANCH  15  16
ATOM     16  C   UNL A   1      34.072  17.257  23.471  1.00  0.00     0.005 C 
ATOM     17  C   UNL A   1      34.312  16.367  24.702  1.00  0.00     0.004 C 
ENDBRANCH  15  16
ENDBRANCH  11  15
BRANCH  13  18
ATOM     18  C   UNL A   1      33.054  22.071  23.398  1.00  0.00     0.158 C 
BRANCH  18  19
ATOM     19  C   UNL A   1      32.686  23.286  24.307  1.00  0.00     0.138 C 
ATOM     20  C   UNL A   1      32.961  24.726  23.888  1.00  0.00     0.036 C 
ATOM     21  O   UNL A   1      31.225  23.279  24.411  1.00  0.00    -0.376 OA
ATOM     22  C   UNL A   1      31.741  25.205  23.121  1.00  0.00     0.031 C 
ATOM     23  C   UNL A   1      30.664  24.204  23.463  1.00  0.00     0.160 C 
ENDBRANCH  18  19
ENDBRANCH  13  18
ENDBRANCH   9  10
ENDBRANCH   8   9
ENDBRANCH   6   8
ENDBRANCH   5   6
ENDBRANCH   4   5
ENDBRANCH   3   4
ENDBRANCH   2   3
ENDBRANCH   1   2
BRANCH   1  24
ATOM     24  C   UNL A   1      42.042  18.861  26.053  1.00  0.00     0.188 C 
BRANCH  24  25
ATOM     25  O   UNL A   1      42.970  19.180  25.035  1.00  0.00    -0.376 OA
BRANCH  25  26
ATOM     26  C   UNL A   1      44.312  18.778  25.220  1.00  0.00     0.202 C 
BRANCH  26  27
ATOM     27  C   UNL A   1      45.371  19.475  24.359  1.00  0.00     0.261 C 
BRANCH  27  28
ATOM     28  O   UNL A   1      45.698  20.847  24.689  1.00  0.00    -0.460 OA
BRANCH  28  29
ATOM     29  C   UNL A   1      44.957  21.856  24.137  1.00  0.00     0.338 C 
ATOM     30  O   UNL A   1      44.410  21.774  23.042  1.00  0.00    -0.246 OA
BRANCH  29  31
ATOM     31  C   UNL A   1      44.691  23.007  25.005  1.00  0.00     0.060 A 
ATOM     32  C   UNL A   1      43.784  24.014  24.646  1.00  0.00     0.016 A 
ATOM     33  C   UNL A   1      45.329  23.037  26.242  1.00  0.00     0.016 A 
ATOM     34  C   UNL A   1      43.623  25.123  25.466  1.00  0.00     0.010 A 
ATOM     35  C   UNL A   1      45.184  24.152  27.052  1.00  0.00     0.010 A 
ATOM     36  C   UNL A   1      44.368  25.215  26.642  1.00  0.00    -0.014 A 
BRANCH  36  37
ATOM     37  C   UNL A   1      44.071  26.310  27.563  1.00  0.00     0.031 A 
ATOM     38  C   UNL A   1      45.059  27.415  27.489  1.00  0.00     0.074 A 
ATOM     39  C   UNL A   1      42.917  26.442  28.245  1.00  0.00     0.049 A 
ATOM     40  N   UNL A   1      45.715  27.981  28.450  1.00  0.00    -0.248 NA
ATOM     41  C   UNL A   1      45.428  27.883  26.140  1.00  0.00     0.031 C 
ATOM     42  C   UNL A   1      41.761  25.551  28.186  1.00  0.00     0.029 A 
ATOM     43  N   UNL A   1      42.476  27.476  29.028  1.00  0.00    -0.354 N 
ATOM     44  C   UNL A   1      46.449  28.986  27.835  1.00  0.00     0.074 A 
ATOM     45  C   UNL A   1      46.377  28.771  26.415  1.00  0.00     0.031 C 
ATOM     46  C   UNL A   1      40.687  26.178  28.711  1.00  0.00     0.029 A 
ATOM     47  C   UNL A   1      41.100  27.474  29.223  1.00  0.00     0.049 A 
ATOM     48  H   UNL A   1      43.076  28.155  29.414  1.00  0.00     0.167 HD
ATOM     49  C   UNL A   1      46.810  30.118  28.488  1.00  0.00     0.037 A 
ATOM     50  C   UNL A   1      40.334  28.483  29.703  1.00  0.00     0.037 A 
ATOM     51  C   UNL A   1      46.765  29.993  29.912  1.00  0.00     0.049 A 
ATOM     52  C   UNL A   1      41.205  29.436  30.423  1.00  0.00     0.074 A 
ATOM     53  C   UNL A   1      47.485  29.309  30.866  1.00  0.00     0.029 A 
ATOM     54  N   UNL A   1      45.612  30.422  30.509  1.00  0.00    -0.354 N 
ATOM     55  N   UNL A   1      41.756  29.198  31.578  1.00  0.00    -0.248 NA
ATOM     56  C   UNL A   1      41.683  30.634  29.740  1.00  0.00     0.031 C 
ATOM     57  C   UNL A   1      46.609  29.132  31.976  1.00  0.00     0.029 A 
ATOM     58  C   UNL A   1      45.379  29.703  31.652  1.00  0.00     0.049 A 
ATOM     59  H   UNL A   1      45.034  31.143  30.167  1.00  0.00     0.167 HD
ATOM     60  C   UNL A   1      42.915  29.946  31.563  1.00  0.00     0.074 A 
ATOM     61  C   UNL A   1      42.714  30.945  30.528  1.00  0.00     0.031 C 
ATOM     62  C   UNL A   1      44.044  29.470  32.154  1.00  0.00     0.037 A 
BRANCH  49  63
ATOM     63  C   UNL A   1      46.768  31.445  27.789  1.00  0.00     0.064 A 
ATOM     64  C   UNL A   1      45.552  31.990  27.359  1.00  0.00     0.173 A 
ATOM     65  C   UNL A   1      47.941  32.087  27.324  1.00  0.00     0.173 A 
ATOM     66  F   UNL A   1      44.393  31.395  27.678  1.00  0.00    -0.203 F 
ATOM     67  C   UNL A   1      45.514  33.122  26.541  1.00  0.00     0.198 A 
ATOM     68  C   UNL A   1      47.900  33.251  26.568  1.00  0.00     0.198 A 
ATOM     69  F   UNL A   1      49.154  31.547  27.511  1.00  0.00    -0.203 F 
ATOM     70  F   UNL A   1      44.339  33.572  26.081  1.00  0.00    -0.200 F 
ATOM     71  C   UNL A   1      46.685  33.763  26.162  1.00  0.00     0.200 A 
ATOM     72  F   UNL A   1      49.046  33.833  26.186  1.00  0.00    -0.200 F 
ATOM     73  F   UNL A   1      46.648  34.839  25.368  1.00  0.00    -0.200 F 
ENDBRANCH  49  63
BRANCH  50  74
ATOM     74  C   UNL A   1      38.902  28.785  29.469  1.00  0.00     0.064 A 
ATOM     75  C   UNL A   1      38.016  28.956  30.549  1.00  0.00     0.173 A 
ATOM     76  C   UNL A   1      38.424  29.173  28.203  1.00  0.00     0.173 A 
ATOM     77  F   UNL A   1      38.400  28.646  31.795  1.00  0.00    -0.203 F 
ATOM     78  C   UNL A   1      36.747  29.513  30.378  1.00  0.00     0.198 A 
ATOM     79  C   UNL A   1      37.149  29.714  28.031  1.00  0.00     0.198 A 
ATOM     80  F   UNL A   1      39.215  29.123  27.122  1.00  0.00    -0.203 F 
ATOM     81  F   UNL A   1      35.964  29.728  31.444  1.00  0.00    -0.200 F 
ATOM     82  C   UNL A   1      36.317  29.901  29.121  1.00  0.00     0.200 A 
ATOM     83  F   UNL A   1      36.755  30.111  26.813  1.00  0.00    -0.200 F 
ATOM     84  F   UNL A   1      35.124  30.490  28.963  1.00  0.00    -0.200 F 
ENDBRANCH  50  74
BRANCH  62  85
ATOM     85  C   UNL A   1      43.855  28.457  33.241  1.00  0.00     0.064 A 
ATOM     86  C   UNL A   1      43.601  28.780  34.584  1.00  0.00     0.173 A 
ATOM     87  C   UNL A   1      43.900  27.100  32.894  1.00  0.00     0.173 A 
ATOM     88  F   UNL A   1      43.457  30.055  34.972  1.00  0.00    -0.203 F 
ATOM     89  C   UNL A   1      43.464  27.783  35.548  1.00  0.00     0.198 A 
ATOM     90  C   UNL A   1      43.722  26.107  33.852  1.00  0.00     0.198 A 
ATOM     91  F   UNL A   1      44.095  26.738  31.617  1.00  0.00    -0.203 F 
ATOM     92  F   UNL A   1      43.265  28.113  36.832  1.00  0.00    -0.200 F 
ATOM     93  C   UNL A   1      43.522  26.448  35.181  1.00  0.00     0.200 A 
ATOM     94  F   UNL A   1      43.736  24.818  33.485  1.00  0.00    -0.200 F 
ATOM     95  F   UNL A   1      43.367  25.489  36.104  1.00  0.00    -0.200 F 
ENDBRANCH  62  85
ENDBRANCH  36  37
ENDBRANCH  29  31
ENDBRANCH  28  29
ENDBRANCH  27  28
ENDBRANCH  26  27
ENDBRANCH  25  26
ENDBRANCH  24  25
ENDBRANCH   1  24
TORSDOF 23
ENDMDL
MODEL 2
REMARK VINA RESULT:     -10.1      3.371      8.939
REMARK SMILES CCCc1nnc(SCC(=O)OCCOCCOCCOC(=O)c2ccc(-c3c4nc(c(-c5c(F)c(F)c(F)c(F)c5F)c5ccc([nH]5)c(-c5c(F)c(F)c(F)c(F)c5F)c5nc(c(-c6c(F)c(F)c(F)c(F)c6F)c6ccc3[nH]6)C=C5)C=C4)cc2)n1C[C@H]1CCCO1
REMARK SMILES IDX 16 1 15 2 14 3 13 4 12 5 10 6 11 7 9 8 8 9 7 10 4 11 5 12
REMARK SMILES IDX 87 13 6 14 3 15 2 16 1 17 88 18 89 19 90 20 93 21 91 22
REMARK SMILES IDX 92 23 17 24 18 25 19 26 20 27 21 28 22 29 23 30 24 31 25 32
REMARK SMILES IDX 86 33 26 34 85 35 27 36 28 37 29 38 79 39 30 40 84 41 78 42
REMARK SMILES IDX 80 43 31 44 83 45 77 46 76 47 32 49 64 50 44 51 63 52 45 53
REMARK SMILES IDX 48 54 62 55 81 56 46 57 47 58 61 60 82 61 49 62 33 63 34 64
REMARK SMILES IDX 42 65 35 66 36 67 40 68 43 69 37 70 38 71 41 72 39 73 65 74
REMARK SMILES IDX 66 75 74 76 67 77 68 78 72 79 75 80 69 81 70 82 73 83 71 84
REMARK SMILES IDX 50 85 51 86 59 87 52 88 53 89 57 90 60 91 54 92 55 93 58 94
REMARK SMILES IDX 56 95
REMARK H PARENT 80 48 48 59
REMARK Flexibility Score: inf
ROOT
ATOM      1  C   UNL A   1      31.577  26.200  26.121  1.00  0.00     0.188 C 
ENDROOT
BRANCH   1   2
ATOM      2  O   UNL A   1      30.438  26.547  25.339  1.00  0.00    -0.376 OA
BRANCH   2   3
ATOM      3  C   UNL A   1      30.273  25.841  24.105  1.00  0.00     0.202 C 
BRANCH   3   4
ATOM      4  C   UNL A   1      31.260  26.369  23.043  1.00  0.00     0.261 C 
BRANCH   4   5
ATOM      5  O   UNL A   1      31.932  25.299  22.322  1.00  0.00    -0.463 OA
BRANCH   5   6
ATOM      6  C   UNL A   1      33.165  24.933  22.761  1.00  0.00     0.316 C 
ATOM      7  O   UNL A   1      33.861  25.650  23.480  1.00  0.00    -0.251 OA
BRANCH   6   8
ATOM      8  C   UNL A   1      33.571  23.485  22.505  1.00  0.00     0.200 C 
BRANCH   8   9
ATOM      9  S   UNL A   1      32.486  22.126  22.978  1.00  0.00    -0.074 SA
BRANCH   9  10
ATOM     10  C   UNL A   1      33.083  21.592  24.533  1.00  0.00     0.191 A 
ATOM     11  C   UNL A   1      34.833  20.654  25.465  1.00  0.00     0.133 A 
ATOM     12  N   UNL A   1      34.353  21.575  26.311  1.00  0.00    -0.134 NA
ATOM     13  N   UNL A   1      33.605  20.331  24.780  1.00  0.00    -0.303 N 
ATOM     14  N   UNL A   1      33.440  22.331  25.564  1.00  0.00    -0.123 NA
BRANCH  11  15
ATOM     15  C   UNL A   1      36.249  20.973  24.806  1.00  0.00     0.077 C 
BRANCH  15  16
ATOM     16  C   UNL A   1      36.675  22.276  24.054  1.00  0.00     0.005 C 
ATOM     17  C   UNL A   1      36.834  23.611  24.801  1.00  0.00     0.004 C 
ENDBRANCH  15  16
ENDBRANCH  11  15
BRANCH  13  18
ATOM     18  C   UNL A   1      32.688  19.252  25.185  1.00  0.00     0.158 C 
BRANCH  18  19
ATOM     19  C   UNL A   1      32.393  17.900  24.464  1.00  0.00     0.138 C 
ATOM     20  C   UNL A   1      32.920  17.593  23.067  1.00  0.00     0.036 C 
ATOM     21  O   UNL A   1      33.051  16.866  25.265  1.00  0.00    -0.376 OA
ATOM     22  C   UNL A   1      34.287  16.955  23.239  1.00  0.00     0.031 C 
ATOM     23  C   UNL A   1      34.331  16.546  24.692  1.00  0.00     0.160 C 
ENDBRANCH  18  19
ENDBRANCH  13  18
ENDBRANCH   9  10
ENDBRANCH   8   9
ENDBRANCH   6   8
ENDBRANCH   5   6
ENDBRANCH   4   5
ENDBRANCH   3   4
ENDBRANCH   2   3
ENDBRANCH   1   2
BRANCH   1  24
ATOM     24  C   UNL A   1      32.300  27.386  26.721  1.00  0.00     0.188 C 
BRANCH  24  25
ATOM     25  O   UNL A   1      33.392  27.927  26.006  1.00  0.00    -0.376 OA
BRANCH  25  26
ATOM     26  C   UNL A   1      33.327  29.291  25.641  1.00  0.00     0.202 C 
BRANCH  26  27
ATOM     27  C   UNL A   1      33.163  30.307  26.777  1.00  0.00     0.261 C 
BRANCH  27  28
ATOM     28  O   UNL A   1      33.998  30.136  27.947  1.00  0.00    -0.460 OA
BRANCH  28  29
ATOM     29  C   UNL A   1      34.887  31.122  28.278  1.00  0.00     0.338 C 
ATOM     30  O   UNL A   1      34.552  32.270  28.558  1.00  0.00    -0.246 OA
BRANCH  29  31
ATOM     31  C   UNL A   1      36.279  30.701  28.457  1.00  0.00     0.060 A 
ATOM     32  C   UNL A   1      37.251  31.555  28.995  1.00  0.00     0.016 A 
ATOM     33  C   UNL A   1      36.597  29.385  28.131  1.00  0.00     0.016 A 
ATOM     34  C   UNL A   1      38.573  31.137  29.075  1.00  0.00     0.010 A 
ATOM     35  C   UNL A   1      37.918  28.972  28.192  1.00  0.00     0.010 A 
ATOM     36  C   UNL A   1      38.912  29.863  28.618  1.00  0.00    -0.014 A 
BRANCH  36  37
ATOM     37  C   UNL A   1      40.273  29.386  28.853  1.00  0.00     0.031 A 
ATOM     38  C   UNL A   1      40.608  29.274  30.295  1.00  0.00     0.074 A 
ATOM     39  C   UNL A   1      41.078  28.874  27.902  1.00  0.00     0.049 A 
ATOM     40  N   UNL A   1      41.629  29.753  30.929  1.00  0.00    -0.248 NA
ATOM     41  C   UNL A   1      39.611  28.612  31.156  1.00  0.00     0.031 C 
ATOM     42  C   UNL A   1      40.751  28.685  26.491  1.00  0.00     0.029 A 
ATOM     43  N   UNL A   1      42.308  28.284  28.021  1.00  0.00    -0.354 N 
ATOM     44  C   UNL A   1      41.478  29.305  32.234  1.00  0.00     0.074 A 
ATOM     45  C   UNL A   1      40.150  28.768  32.360  1.00  0.00     0.031 C 
ATOM     46  C   UNL A   1      41.645  27.839  25.935  1.00  0.00     0.029 A 
ATOM     47  C   UNL A   1      42.654  27.502  26.925  1.00  0.00     0.049 A 
ATOM     48  H   UNL A   1      42.890  28.402  28.806  1.00  0.00     0.167 HD
ATOM     49  C   UNL A   1      42.539  29.101  33.054  1.00  0.00     0.037 A 
ATOM     50  C   UNL A   1      43.652  26.589  26.846  1.00  0.00     0.037 A 
ATOM     51  C   UNL A   1      43.723  29.783  32.632  1.00  0.00     0.049 A 
ATOM     52  C   UNL A   1      44.619  26.851  27.933  1.00  0.00     0.074 A 
ATOM     53  C   UNL A   1      44.135  31.095  32.559  1.00  0.00     0.029 A 
ATOM     54  N   UNL A   1      44.595  29.045  31.880  1.00  0.00    -0.354 N 
ATOM     55  N   UNL A   1      45.440  27.861  27.956  1.00  0.00    -0.248 NA
ATOM     56  C   UNL A   1      44.535  26.088  29.174  1.00  0.00     0.031 C 
ATOM     57  C   UNL A   1      45.128  31.145  31.539  1.00  0.00     0.029 A 
ATOM     58  C   UNL A   1      45.277  29.862  31.015  1.00  0.00     0.049 A 
ATOM     59  H   UNL A   1      44.717  28.070  31.950  1.00  0.00     0.167 HD
ATOM     60  C   UNL A   1      45.633  28.110  29.299  1.00  0.00     0.074 A 
ATOM     61  C   UNL A   1      45.236  26.890  29.978  1.00  0.00     0.031 C 
ATOM     62  C   UNL A   1      45.775  29.389  29.744  1.00  0.00     0.037 A 
BRANCH  49  63
ATOM     63  C   UNL A   1      42.568  27.921  33.980  1.00  0.00     0.064 A 
ATOM     64  C   UNL A   1      43.050  26.681  33.543  1.00  0.00     0.173 A 
ATOM     65  C   UNL A   1      41.908  27.931  35.232  1.00  0.00     0.173 A 
ATOM     66  F   UNL A   1      43.610  26.560  32.332  1.00  0.00    -0.203 F 
ATOM     67  C   UNL A   1      42.906  25.531  34.326  1.00  0.00     0.198 A 
ATOM     68  C   UNL A   1      41.826  26.803  36.037  1.00  0.00     0.198 A 
ATOM     69  F   UNL A   1      41.243  29.013  35.662  1.00  0.00    -0.203 F 
ATOM     70  F   UNL A   1      43.305  24.346  33.847  1.00  0.00    -0.200 F 
ATOM     71  C   UNL A   1      42.312  25.597  35.578  1.00  0.00     0.200 A 
ATOM     72  F   UNL A   1      41.218  26.883  37.230  1.00  0.00    -0.200 F 
ATOM     73  F   UNL A   1      42.163  24.493  36.320  1.00  0.00    -0.200 F 
ENDBRANCH  49  63
BRANCH  50  74
ATOM     74  C   UNL A   1      43.777  25.387  25.986  1.00  0.00     0.064 A 
ATOM     75  C   UNL A   1      44.947  25.155  25.240  1.00  0.00     0.173 A 
ATOM     76  C   UNL A   1      42.872  24.313  26.077  1.00  0.00     0.173 A 
ATOM     77  F   UNL A   1      45.881  26.111  25.130  1.00  0.00    -0.203 F 
ATOM     78  C   UNL A   1      45.211  23.915  24.653  1.00  0.00     0.198 A 
ATOM     79  C   UNL A   1      43.129  23.080  25.476  1.00  0.00     0.198 A 
ATOM     80  F   UNL A   1      41.765  24.406  26.828  1.00  0.00    -0.203 F 
ATOM     81  F   UNL A   1      46.371  23.713  24.015  1.00  0.00    -0.200 F 
ATOM     82  C   UNL A   1      44.306  22.875  24.779  1.00  0.00     0.200 A 
ATOM     83  F   UNL A   1      42.258  22.073  25.629  1.00  0.00    -0.200 F 
ATOM     84  F   UNL A   1      44.584  21.669  24.269  1.00  0.00    -0.200 F 
ENDBRANCH  50  74
BRANCH  62  85
ATOM     85  C   UNL A   1      46.262  30.394  28.748  1.00  0.00     0.064 A 
ATOM     86  C   UNL A   1      45.425  31.128  27.892  1.00  0.00     0.173 A 
ATOM     87  C   UNL A   1      47.640  30.647  28.685  1.00  0.00     0.173 A 
ATOM     88  F   UNL A   1      44.092  31.003  27.959  1.00  0.00    -0.203 F 
ATOM     89  C   UNL A   1      45.953  32.027  26.968  1.00  0.00     0.198 A 
ATOM     90  C   UNL A   1      48.160  31.575  27.790  1.00  0.00     0.198 A 
ATOM     91  F   UNL A   1      48.480  30.005  29.511  1.00  0.00    -0.203 F 
ATOM     92  F   UNL A   1      45.139  32.686  26.132  1.00  0.00    -0.200 F 
ATOM     93  C   UNL A   1      47.319  32.252  26.920  1.00  0.00     0.200 A 
ATOM     94  F   UNL A   1      49.478  31.821  27.776  1.00  0.00    -0.200 F 
ATOM     95  F   UNL A   1      47.825  33.134  26.047  1.00  0.00    -0.200 F 
ENDBRANCH  62  85
ENDBRANCH  36  37
ENDBRANCH  29  31
ENDBRANCH  28  29
ENDBRANCH  27  28
ENDBRANCH  26  27
ENDBRANCH  25  26
ENDBRANCH  24  25
ENDBRANCH   1  24
TORSDOF 23
ENDMDL
MODEL 3
REMARK VINA RESULT:     -10.0      1.130      2.728
REMARK SMILES CCCc1nnc(SCC(=O)OCCOCCOCCOC(=O)c2ccc(-c3c4nc(c(-c5c(F)c(F)c(F)c(F)c5F)c5ccc([nH]5)c(-c5c(F)c(F)c(F)c(F)c5F)c5nc(c(-c6c(F)c(F)c(F)c(F)c6F)c6ccc3[nH]6)C=C5)C=C4)cc2)n1C[C@H]1CCCO1
REMARK SMILES IDX 16 1 15 2 14 3 13 4 12 5 10 6 11 7 9 8 8 9 7 10 4 11 5 12
REMARK SMILES IDX 87 13 6 14 3 15 2 16 1 17 88 18 89 19 90 20 93 21 91 22
REMARK SMILES IDX 92 23 17 24 18 25 19 26 20 27 21 28 22 29 23 30 24 31 25 32
REMARK SMILES IDX 86 33 26 34 85 35 27 36 28 37 29 38 79 39 30 40 84 41 78 42
REMARK SMILES IDX 80 43 31 44 83 45 77 46 76 47 32 49 64 50 44 51 63 52 45 53
REMARK SMILES IDX 48 54 62 55 81 56 46 57 47 58 61 60 82 61 49 62 33 63 34 64
REMARK SMILES IDX 42 65 35 66 36 67 40 68 43 69 37 70 38 71 41 72 39 73 65 74
REMARK SMILES IDX 66 75 74 76 67 77 68 78 72 79 75 80 69 81 70 82 73 83 71 84
REMARK SMILES IDX 50 85 51 86 59 87 52 88 53 89 57 90 60 91 54 92 55 93 58 94
REMARK SMILES IDX 56 95
REMARK H PARENT 80 48 48 59
REMARK Flexibility Score: inf
ROOT
ATOM      1  C   UNL A   1      41.899  19.596  27.488  1.00  0.00     0.188 C 
ENDROOT
BRANCH   1   2
ATOM      2  O   UNL A   1      40.705  20.357  27.644  1.00  0.00    -0.376 OA
BRANCH   2   3
ATOM      3  C   UNL A   1      40.845  21.780  27.592  1.00  0.00     0.202 C 
BRANCH   3   4
ATOM      4  C   UNL A   1      40.294  22.330  26.260  1.00  0.00     0.261 C 
BRANCH   4   5
ATOM      5  O   UNL A   1      38.840  22.312  26.206  1.00  0.00    -0.463 OA
BRANCH   5   6
ATOM      6  C   UNL A   1      38.202  23.511  26.238  1.00  0.00     0.316 C 
ATOM      7  O   UNL A   1      38.728  24.540  26.663  1.00  0.00    -0.251 OA
BRANCH   6   8
ATOM      8  C   UNL A   1      36.862  23.583  25.510  1.00  0.00     0.200 C 
BRANCH   8   9
ATOM      9  S   UNL A   1      36.491  22.462  24.150  1.00  0.00    -0.074 SA
BRANCH   9  10
ATOM     10  C   UNL A   1      34.762  22.210  24.230  1.00  0.00     0.191 A 
ATOM     11  C   UNL A   1      33.020  22.680  25.475  1.00  0.00     0.133 A 
ATOM     12  N   UNL A   1      32.641  22.735  24.191  1.00  0.00    -0.134 NA
ATOM     13  N   UNL A   1      34.092  21.725  25.344  1.00  0.00    -0.303 N 
ATOM     14  N   UNL A   1      33.830  22.718  23.449  1.00  0.00    -0.123 NA
BRANCH  11  15
ATOM     15  C   UNL A   1      33.056  24.069  26.259  1.00  0.00     0.077 C 
BRANCH  15  16
ATOM     16  C   UNL A   1      32.792  25.495  25.675  1.00  0.00     0.005 C 
ATOM     17  C   UNL A   1      31.893  26.503  26.410  1.00  0.00     0.004 C 
ENDBRANCH  15  16
ENDBRANCH  11  15
BRANCH  13  18
ATOM     18  C   UNL A   1      33.930  20.269  25.494  1.00  0.00     0.158 C 
BRANCH  18  19
ATOM     19  C   UNL A   1      33.472  19.223  24.430  1.00  0.00     0.138 C 
ATOM     20  C   UNL A   1      34.287  17.973  24.117  1.00  0.00     0.036 C 
ATOM     21  O   UNL A   1      32.227  18.648  24.943  1.00  0.00    -0.376 OA
ATOM     22  C   UNL A   1      33.817  16.889  25.070  1.00  0.00     0.031 C 
ATOM     23  C   UNL A   1      32.504  17.402  25.609  1.00  0.00     0.160 C 
ENDBRANCH  18  19
ENDBRANCH  13  18
ENDBRANCH   9  10
ENDBRANCH   8   9
ENDBRANCH   6   8
ENDBRANCH   5   6
ENDBRANCH   4   5
ENDBRANCH   3   4
ENDBRANCH   2   3
ENDBRANCH   1   2
BRANCH   1  24
ATOM     24  C   UNL A   1      41.964  18.803  26.201  1.00  0.00     0.188 C 
BRANCH  24  25
ATOM     25  O   UNL A   1      42.814  19.275  25.175  1.00  0.00    -0.376 OA
BRANCH  25  26
ATOM     26  C   UNL A   1      44.111  18.720  25.089  1.00  0.00     0.202 C 
BRANCH  26  27
ATOM     27  C   UNL A   1      45.086  19.381  24.108  1.00  0.00     0.261 C 
BRANCH  27  28
ATOM     28  O   UNL A   1      45.608  20.683  24.465  1.00  0.00    -0.460 OA
BRANCH  28  29
ATOM     29  C   UNL A   1      44.950  21.803  24.034  1.00  0.00     0.338 C 
ATOM     30  O   UNL A   1      44.399  21.885  22.940  1.00  0.00    -0.246 OA
BRANCH  29  31
ATOM     31  C   UNL A   1      44.777  22.869  25.024  1.00  0.00     0.060 A 
ATOM     32  C   UNL A   1      45.458  22.863  26.249  1.00  0.00     0.016 A 
ATOM     33  C   UNL A   1      43.952  23.936  24.679  1.00  0.00     0.016 A 
ATOM     34  C   UNL A   1      45.204  23.854  27.187  1.00  0.00     0.010 A 
ATOM     35  C   UNL A   1      43.682  24.916  25.621  1.00  0.00     0.010 A 
ATOM     36  C   UNL A   1      44.271  24.849  26.890  1.00  0.00    -0.014 A 
BRANCH  36  37
ATOM     37  C   UNL A   1      44.133  25.966  27.823  1.00  0.00     0.031 A 
ATOM     38  C   UNL A   1      45.288  26.898  27.788  1.00  0.00     0.074 A 
ATOM     39  C   UNL A   1      43.000  26.274  28.483  1.00  0.00     0.049 A 
ATOM     40  N   UNL A   1      46.005  27.338  28.771  1.00  0.00    -0.248 NA
ATOM     41  C   UNL A   1      45.758  27.317  26.454  1.00  0.00     0.031 C 
ATOM     42  C   UNL A   1      41.718  25.583  28.386  1.00  0.00     0.029 A 
ATOM     43  N   UNL A   1      42.714  27.356  29.273  1.00  0.00    -0.354 N 
ATOM     44  C   UNL A   1      46.905  28.219  28.187  1.00  0.00     0.074 A 
ATOM     45  C   UNL A   1      46.831  28.037  26.762  1.00  0.00     0.031 C 
ATOM     46  C   UNL A   1      40.747  26.368  28.899  1.00  0.00     0.029 A 
ATOM     47  C   UNL A   1      41.352  27.573  29.441  1.00  0.00     0.049 A 
ATOM     48  H   UNL A   1      43.407  27.924  29.683  1.00  0.00     0.167 HD
ATOM     49  C   UNL A   1      47.429  29.269  28.865  1.00  0.00     0.037 A 
ATOM     50  C   UNL A   1      40.748  28.687  29.921  1.00  0.00     0.037 A 
ATOM     51  C   UNL A   1      47.332  29.135  30.286  1.00  0.00     0.049 A 
ATOM     52  C   UNL A   1      41.745  29.477  30.674  1.00  0.00     0.074 A 
ATOM     53  C   UNL A   1      47.910  28.332  31.244  1.00  0.00     0.029 A 
ATOM     54  N   UNL A   1      46.250  29.737  30.866  1.00  0.00    -0.354 N 
ATOM     55  N   UNL A   1      42.223  29.139  31.836  1.00  0.00    -0.248 NA
ATOM     56  C   UNL A   1      42.425  30.591  30.021  1.00  0.00     0.031 C 
ATOM     57  C   UNL A   1      46.992  28.285  32.332  1.00  0.00     0.029 A 
ATOM     58  C   UNL A   1      45.878  29.050  31.993  1.00  0.00     0.049 A 
ATOM     59  H   UNL A   1      45.803  30.546  30.524  1.00  0.00     0.167 HD
ATOM     60  C   UNL A   1      43.488  29.690  31.857  1.00  0.00     0.074 A 
ATOM     61  C   UNL A   1      43.474  30.722  30.835  1.00  0.00     0.031 C 
ATOM     62  C   UNL A   1      44.512  29.030  32.463  1.00  0.00     0.037 A 
BRANCH  49  63
ATOM     63  C   UNL A   1      47.618  30.595  28.187  1.00  0.00     0.064 A 
ATOM     64  C   UNL A   1      46.515  31.330  27.734  1.00  0.00     0.173 A 
ATOM     65  C   UNL A   1      48.890  31.047  27.763  1.00  0.00     0.173 A 
ATOM     66  F   UNL A   1      45.269  30.923  28.013  1.00  0.00    -0.203 F 
ATOM     67  C   UNL A   1      46.681  32.464  26.934  1.00  0.00     0.198 A 
ATOM     68  C   UNL A   1      49.055  32.212  27.026  1.00  0.00     0.198 A 
ATOM     69  F   UNL A   1      49.997  30.319  27.974  1.00  0.00    -0.203 F 
ATOM     70  F   UNL A   1      45.606  33.100  26.451  1.00  0.00    -0.200 F 
ATOM     71  C   UNL A   1      47.949  32.915  26.597  1.00  0.00     0.200 A 
ATOM     72  F   UNL A   1      50.290  32.610  26.684  1.00  0.00    -0.200 F 
ATOM     73  F   UNL A   1      48.105  33.993  25.820  1.00  0.00    -0.200 F 
ENDBRANCH  49  63
BRANCH  50  74
ATOM     74  C   UNL A   1      39.389  29.220  29.663  1.00  0.00     0.064 A 
ATOM     75  C   UNL A   1      38.954  29.475  28.350  1.00  0.00     0.173 A 
ATOM     76  C   UNL A   1      38.399  29.243  30.664  1.00  0.00     0.173 A 
ATOM     77  F   UNL A   1      39.822  29.439  27.329  1.00  0.00    -0.203 F 
ATOM     78  C   UNL A   1      37.608  29.703  28.052  1.00  0.00     0.198 A 
ATOM     79  C   UNL A   1      37.058  29.487  30.367  1.00  0.00     0.198 A 
ATOM     80  F   UNL A   1      38.697  28.937  31.935  1.00  0.00    -0.203 F 
ATOM     81  F   UNL A   1      37.225  29.867  26.779  1.00  0.00    -0.200 F 
ATOM     82  C   UNL A   1      36.659  29.699  29.060  1.00  0.00     0.200 A 
ATOM     83  F   UNL A   1      36.145  29.453  31.348  1.00  0.00    -0.200 F 
ATOM     84  F   UNL A   1      35.361  29.858  28.770  1.00  0.00    -0.200 F 
ENDBRANCH  50  74
BRANCH  62  85
ATOM     85  C   UNL A   1      44.137  28.048  33.530  1.00  0.00     0.064 A 
ATOM     86  C   UNL A   1      43.892  28.392  34.868  1.00  0.00     0.173 A 
ATOM     87  C   UNL A   1      43.987  26.703  33.165  1.00  0.00     0.173 A 
ATOM     88  F   UNL A   1      43.931  29.671  35.270  1.00  0.00    -0.203 F 
ATOM     89  C   UNL A   1      43.576  27.419  35.814  1.00  0.00     0.198 A 
ATOM     90  C   UNL A   1      43.630  25.740  34.103  1.00  0.00     0.198 A 
ATOM     91  F   UNL A   1      44.166  26.327  31.889  1.00  0.00    -0.203 F 
ATOM     92  F   UNL A   1      43.388  27.763  37.095  1.00  0.00    -0.200 F 
ATOM     93  C   UNL A   1      43.442  26.095  35.430  1.00  0.00     0.200 A 
ATOM     94  F   UNL A   1      43.460  24.466  33.718  1.00  0.00    -0.200 F 
ATOM     95  F   UNL A   1      43.115  25.161  36.334  1.00  0.00    -0.200 F 
ENDBRANCH  62  85
ENDBRANCH  36  37
ENDBRANCH  29  31
ENDBRANCH  28  29
ENDBRANCH  27  28
ENDBRANCH  26  27
ENDBRANCH  25  26
ENDBRANCH  24  25
ENDBRANCH   1  24
TORSDOF 23
ENDMDL
