MODEL 1
REMARK VINA RESULT:     -12.9      0.000      0.000
REMARK SMILES O=C(OCCOCCOCCOC(=O)c1sccc1S(=O)(=O)Nc1ccc(Cn2cncn2)cc1)c1ccc(-c2c3nc(c(-c4c(F)c(F)c(F)c(F)c4F)c4ccc([nH]4)c(-c4c(F)c(F)c(F)c(F)c4F)c4nc(c(-c5c(F)c(F)c(F)c(F)c5F)c5ccc2[nH]5)C=C4)C=C3)cc1
REMARK SMILES IDX 9 1 8 2 7 3 6 4 5 5 4 6 3 7 2 8 1 9 36 10 37 11 98 12 38 13
REMARK SMILES IDX 97 14 39 15 40 16 41 17 91 18 42 19 96 20 90 21 92 22 43 23
REMARK SMILES IDX 95 24 89 25 88 26 44 28 76 29 56 30 75 31 57 32 60 33 74 34
REMARK SMILES IDX 93 35 58 36 59 37 73 39 94 40 61 41 45 42 46 43 54 44 47 45
REMARK SMILES IDX 48 46 52 47 55 48 49 49 50 50 53 51 51 52 77 53 78 54 86 55
REMARK SMILES IDX 79 56 80 57 84 58 87 59 81 60 82 61 85 62 83 63 62 64 63 65
REMARK SMILES IDX 71 66 64 67 65 68 69 69 72 70 66 71 67 72 70 73 68 74 10 75
REMARK SMILES IDX 11 76 12 77 13 78 14 79 15 80 16 81 19 82 17 83 18 84 20 85
REMARK SMILES IDX 21 86 22 87 23 88 24 90 25 91 35 92 26 93 34 94 27 95 28 96
REMARK SMILES IDX 29 97 30 98 33 99 31 100 32 101
REMARK H PARENT 92 27 60 38 23 89
REMARK Flexibility Score: inf
ROOT
ATOM      1  O   UNL A   1      37.696  23.010  25.734  1.00  0.00    -0.376 OA
ENDROOT
BRANCH   1   2
ATOM      2  C   UNL A   1      38.453  21.754  25.755  1.00  0.00     0.188 C 
BRANCH   2   3
ATOM      3  C   UNL A   1      39.930  21.734  26.354  1.00  0.00     0.188 C 
BRANCH   3   4
ATOM      4  O   UNL A   1      40.395  20.603  27.063  1.00  0.00    -0.376 OA
BRANCH   4   5
ATOM      5  C   UNL A   1      41.791  20.440  27.134  1.00  0.00     0.202 C 
BRANCH   5   6
ATOM      6  C   UNL A   1      42.325  19.306  26.258  1.00  0.00     0.261 C 
BRANCH   6   7
ATOM      7  O   UNL A   1      43.227  19.642  25.173  1.00  0.00    -0.460 OA
BRANCH   7   8
ATOM      8  C   UNL A   1      44.370  20.359  25.080  1.00  0.00     0.338 C 
ATOM      9  O   UNL A   1      45.420  19.766  24.834  1.00  0.00    -0.246 OA
BRANCH   8  10
ATOM     10  C   UNL A   1      44.472  21.816  25.338  1.00  0.00     0.060 A 
ATOM     11  C   UNL A   1      45.295  22.368  26.309  1.00  0.00     0.016 A 
ATOM     12  C   UNL A   1      43.653  22.664  24.549  1.00  0.00     0.016 A 
ATOM     13  C   UNL A   1      45.176  23.703  26.614  1.00  0.00     0.010 A 
ATOM     14  C   UNL A   1      43.537  24.009  24.844  1.00  0.00     0.010 A 
ATOM     15  C   UNL A   1      44.223  24.479  25.948  1.00  0.00    -0.014 A 
BRANCH  15  16
ATOM     16  C   UNL A   1      43.902  25.735  26.589  1.00  0.00     0.031 A 
ATOM     17  C   UNL A   1      44.922  26.794  26.416  1.00  0.00     0.074 A 
ATOM     18  C   UNL A   1      42.852  25.803  27.427  1.00  0.00     0.049 A 
ATOM     19  N   UNL A   1      45.750  27.239  27.304  1.00  0.00    -0.248 NA
ATOM     20  C   UNL A   1      45.165  27.286  25.056  1.00  0.00     0.031 C 
ATOM     21  C   UNL A   1      41.706  24.896  27.552  1.00  0.00     0.029 A 
ATOM     22  N   UNL A   1      42.583  26.762  28.348  1.00  0.00    -0.354 N 
ATOM     23  C   UNL A   1      46.521  28.197  26.653  1.00  0.00     0.074 A 
ATOM     24  C   UNL A   1      46.211  28.088  25.251  1.00  0.00     0.031 C 
ATOM     25  C   UNL A   1      40.761  25.473  28.327  1.00  0.00     0.029 A 
ATOM     26  C   UNL A   1      41.299  26.707  28.868  1.00  0.00     0.049 A 
ATOM     27  H   UNL A   1      43.242  27.439  28.624  1.00  0.00     0.167 HD
ATOM     28  C   UNL A   1      47.195  29.146  27.355  1.00  0.00     0.037 A 
ATOM     29  C   UNL A   1      40.716  27.685  29.603  1.00  0.00     0.037 A 
ATOM     30  C   UNL A   1      47.449  28.718  28.707  1.00  0.00     0.049 A 
ATOM     31  C   UNL A   1      41.812  28.496  30.200  1.00  0.00     0.074 A 
ATOM     32  C   UNL A   1      48.190  27.695  29.267  1.00  0.00     0.029 A 
ATOM     33  N   UNL A   1      46.612  29.158  29.702  1.00  0.00    -0.354 N 
ATOM     34  N   UNL A   1      42.624  28.039  31.115  1.00  0.00    -0.248 NA
ATOM     35  C   UNL A   1      42.316  29.627  29.430  1.00  0.00     0.031 C 
ATOM     36  C   UNL A   1      47.427  27.257  30.388  1.00  0.00     0.029 A 
ATOM     37  C   UNL A   1      46.299  28.072  30.479  1.00  0.00     0.049 A 
ATOM     38  H   UNL A   1      46.296  30.081  29.833  1.00  0.00     0.167 HD
ATOM     39  C   UNL A   1      43.872  28.542  30.772  1.00  0.00     0.074 A 
ATOM     40  C   UNL A   1      43.609  29.561  29.759  1.00  0.00     0.031 C 
ATOM     41  C   UNL A   1      45.021  27.893  31.124  1.00  0.00     0.037 A 
BRANCH  28  42
ATOM     42  C   UNL A   1      47.273  30.589  26.928  1.00  0.00     0.064 A 
ATOM     43  C   UNL A   1      48.491  31.283  27.069  1.00  0.00     0.173 A 
ATOM     44  C   UNL A   1      46.137  31.396  26.694  1.00  0.00     0.173 A 
ATOM     45  F   UNL A   1      49.635  30.619  27.297  1.00  0.00    -0.203 F 
ATOM     46  C   UNL A   1      48.546  32.679  27.078  1.00  0.00     0.198 A 
ATOM     47  C   UNL A   1      46.204  32.786  26.657  1.00  0.00     0.198 A 
ATOM     48  F   UNL A   1      44.903  30.889  26.603  1.00  0.00    -0.203 F 
ATOM     49  F   UNL A   1      49.704  33.296  27.349  1.00  0.00    -0.200 F 
ATOM     50  C   UNL A   1      47.400  33.429  26.886  1.00  0.00     0.200 A 
ATOM     51  F   UNL A   1      45.078  33.493  26.485  1.00  0.00    -0.200 F 
ATOM     52  F   UNL A   1      47.437  34.765  26.971  1.00  0.00    -0.200 F 
ENDBRANCH  28  42
BRANCH  29  53
ATOM     53  C   UNL A   1      39.331  28.182  29.426  1.00  0.00     0.064 A 
ATOM     54  C   UNL A   1      38.465  28.326  30.520  1.00  0.00     0.173 A 
ATOM     55  C   UNL A   1      38.910  28.770  28.213  1.00  0.00     0.173 A 
ATOM     56  F   UNL A   1      38.813  27.843  31.721  1.00  0.00    -0.203 F 
ATOM     57  C   UNL A   1      37.257  29.025  30.409  1.00  0.00     0.198 A 
ATOM     58  C   UNL A   1      37.704  29.458  28.103  1.00  0.00     0.198 A 
ATOM     59  F   UNL A   1      39.704  28.769  27.133  1.00  0.00    -0.203 F 
ATOM     60  F   UNL A   1      36.479  29.189  31.488  1.00  0.00    -0.200 F 
ATOM     61  C   UNL A   1      36.881  29.596  29.203  1.00  0.00     0.200 A 
ATOM     62  F   UNL A   1      37.374  30.039  26.940  1.00  0.00    -0.200 F 
ATOM     63  F   UNL A   1      35.751  30.311  29.112  1.00  0.00    -0.200 F 
ENDBRANCH  29  53
BRANCH  41  64
ATOM     64  C   UNL A   1      44.910  26.738  32.078  1.00  0.00     0.064 A 
ATOM     65  C   UNL A   1      44.876  26.888  33.475  1.00  0.00     0.173 A 
ATOM     66  C   UNL A   1      44.643  25.466  31.557  1.00  0.00     0.173 A 
ATOM     67  F   UNL A   1      45.020  28.094  34.041  1.00  0.00    -0.203 F 
ATOM     68  C   UNL A   1      44.618  25.802  34.311  1.00  0.00     0.198 A 
ATOM     69  C   UNL A   1      44.352  24.391  32.391  1.00  0.00     0.198 A 
ATOM     70  F   UNL A   1      44.600  25.280  30.228  1.00  0.00    -0.203 F 
ATOM     71  F   UNL A   1      44.584  25.969  35.641  1.00  0.00    -0.200 F 
ATOM     72  C   UNL A   1      44.346  24.557  33.767  1.00  0.00     0.200 A 
ATOM     73  F   UNL A   1      44.037  23.202  31.860  1.00  0.00    -0.200 F 
ATOM     74  F   UNL A   1      44.044  23.524  34.567  1.00  0.00    -0.200 F 
ENDBRANCH  41  64
ENDBRANCH  15  16
ENDBRANCH   8  10
ENDBRANCH   7   8
ENDBRANCH   6   7
ENDBRANCH   5   6
ENDBRANCH   4   5
ENDBRANCH   3   4
ENDBRANCH   2   3
ENDBRANCH   1   2
BRANCH   1  75
ATOM     75  C   UNL A   1      36.412  23.443  25.119  1.00  0.00     0.202 C 
BRANCH  75  76
ATOM     76  C   UNL A   1      35.609  23.257  23.482  1.00  0.00     0.261 C 
BRANCH  76  77
ATOM     77  O   UNL A   1      34.002  24.390  22.863  1.00  0.00    -0.459 OA
BRANCH  77  78
ATOM     78  C   UNL A   1      33.107  25.459  22.749  1.00  0.00     0.349 C 
ATOM     79  O   UNL A   1      32.379  25.656  21.769  1.00  0.00    -0.245 OA
BRANCH  78  80
ATOM     80  C   UNL A   1      32.869  26.125  24.039  1.00  0.00     0.133 A 
ATOM     81  S   UNL A   1      34.068  27.354  24.406  1.00  0.00    -0.136 S 
ATOM     82  C   UNL A   1      31.901  26.104  25.036  1.00  0.00     0.113 A 
ATOM     83  C   UNL A   1      33.359  27.758  25.891  1.00  0.00     0.067 A 
ATOM     84  C   UNL A   1      32.220  27.030  26.108  1.00  0.00     0.035 A 
BRANCH  82  85
ATOM     85  S   UNL A   1      30.434  25.177  25.215  1.00  0.00     0.263 S 
ATOM     86  O   UNL A   1      29.731  25.879  26.266  1.00  0.00    -0.201 OA
ATOM     87  O   UNL A   1      29.907  25.189  23.861  1.00  0.00    -0.201 OA
BRANCH  85  88
ATOM     88  N   UNL A   1      30.470  23.528  25.642  1.00  0.00    -0.280 N 
ATOM     89  H   UNL A   1      29.714  23.075  26.079  1.00  0.00     0.180 HD
BRANCH  88  90
ATOM     90  C   UNL A   1      31.675  22.862  25.318  1.00  0.00     0.049 A 
ATOM     91  C   UNL A   1      32.712  22.439  26.678  1.00  0.00     0.027 A 
ATOM     92  C   UNL A   1      31.694  21.927  23.808  1.00  0.00     0.027 A 
ATOM     93  C   UNL A   1      33.701  20.946  26.556  1.00  0.00     0.008 A 
ATOM     94  C   UNL A   1      32.717  20.478  23.626  1.00  0.00     0.008 A 
ATOM     95  C   UNL A   1      33.779  19.942  24.979  1.00  0.00    -0.026 A 
BRANCH  95  96
ATOM     96  C   UNL A   1      34.658  18.747  24.525  1.00  0.00     0.181 C 
BRANCH  96  97
ATOM     97  N   UNL A   1      34.137  17.381  24.742  1.00  0.00    -0.249 N 
ATOM     98  C   UNL A   1      34.829  16.208  24.900  1.00  0.00     0.220 A 
ATOM     99  N   UNL A   1      32.854  17.196  25.151  1.00  0.00    -0.160 NA
ATOM    100  N   UNL A   1      34.045  15.267  25.375  1.00  0.00    -0.224 NA
ATOM    101  C   UNL A   1      32.869  15.921  25.553  1.00  0.00     0.246 A 
ENDBRANCH  96  97
ENDBRANCH  95  96
ENDBRANCH  88  90
ENDBRANCH  85  88
ENDBRANCH  82  85
ENDBRANCH  78  80
ENDBRANCH  77  78
ENDBRANCH  76  77
ENDBRANCH  75  76
ENDBRANCH   1  75
TORSDOF 22
ENDMDL
MODEL 2
REMARK VINA RESULT:     -12.6      2.430      5.019
REMARK SMILES O=C(OCCOCCOCCOC(=O)c1sccc1S(=O)(=O)Nc1ccc(Cn2cncn2)cc1)c1ccc(-c2c3nc(c(-c4c(F)c(F)c(F)c(F)c4F)c4ccc([nH]4)c(-c4c(F)c(F)c(F)c(F)c4F)c4nc(c(-c5c(F)c(F)c(F)c(F)c5F)c5ccc2[nH]5)C=C4)C=C3)cc1
REMARK SMILES IDX 9 1 8 2 7 3 6 4 5 5 4 6 3 7 2 8 1 9 36 10 37 11 98 12 38 13
REMARK SMILES IDX 97 14 39 15 40 16 41 17 91 18 42 19 96 20 90 21 92 22 43 23
REMARK SMILES IDX 95 24 89 25 88 26 44 28 76 29 56 30 75 31 57 32 60 33 74 34
REMARK SMILES IDX 93 35 58 36 59 37 73 39 94 40 61 41 45 42 46 43 54 44 47 45
REMARK SMILES IDX 48 46 52 47 55 48 49 49 50 50 53 51 51 52 77 53 78 54 86 55
REMARK SMILES IDX 79 56 80 57 84 58 87 59 81 60 82 61 85 62 83 63 62 64 63 65
REMARK SMILES IDX 71 66 64 67 65 68 69 69 72 70 66 71 67 72 70 73 68 74 10 75
REMARK SMILES IDX 11 76 12 77 13 78 14 79 15 80 16 81 19 82 17 83 18 84 20 85
REMARK SMILES IDX 21 86 22 87 23 88 24 90 25 91 35 92 26 93 34 94 27 95 28 96
REMARK SMILES IDX 29 97 30 98 33 99 31 100 32 101
REMARK H PARENT 92 27 60 38 23 89
REMARK Flexibility Score: inf
ROOT
ATOM      1  O   UNL A   1      40.306  21.399  27.309  1.00  0.00    -0.376 OA
ENDROOT
BRANCH   1   2
ATOM      2  C   UNL A   1      41.291  20.314  27.369  1.00  0.00     0.188 C 
BRANCH   2   3
ATOM      3  C   UNL A   1      41.777  19.616  26.021  1.00  0.00     0.188 C 
BRANCH   3   4
ATOM      4  O   UNL A   1      42.433  18.365  26.064  1.00  0.00    -0.376 OA
BRANCH   4   5
ATOM      5  C   UNL A   1      43.825  18.381  25.859  1.00  0.00     0.202 C 
BRANCH   5   6
ATOM      6  C   UNL A   1      44.251  19.107  24.582  1.00  0.00     0.261 C 
BRANCH   6   7
ATOM      7  O   UNL A   1      45.458  19.909  24.618  1.00  0.00    -0.460 OA
BRANCH   7   8
ATOM      8  C   UNL A   1      45.715  21.236  24.562  1.00  0.00     0.338 C 
ATOM      9  O   UNL A   1      46.750  21.614  24.010  1.00  0.00    -0.246 OA
BRANCH   8  10
ATOM     10  C   UNL A   1      44.877  22.282  25.196  1.00  0.00     0.060 A 
ATOM     11  C   UNL A   1      44.078  23.163  24.482  1.00  0.00     0.016 A 
ATOM     12  C   UNL A   1      44.934  22.377  26.610  1.00  0.00     0.016 A 
ATOM     13  C   UNL A   1      43.495  24.224  25.133  1.00  0.00     0.010 A 
ATOM     14  C   UNL A   1      44.342  23.435  27.272  1.00  0.00     0.010 A 
ATOM     15  C   UNL A   1      43.724  24.402  26.500  1.00  0.00    -0.014 A 
BRANCH  15  16
ATOM     16  C   UNL A   1      43.409  25.720  27.006  1.00  0.00     0.031 A 
ATOM     17  C   UNL A   1      44.447  26.743  26.749  1.00  0.00     0.074 A 
ATOM     18  C   UNL A   1      42.344  25.885  27.811  1.00  0.00     0.049 A 
ATOM     19  N   UNL A   1      45.265  27.264  27.605  1.00  0.00    -0.248 NA
ATOM     20  C   UNL A   1      44.723  27.094  25.352  1.00  0.00     0.031 C 
ATOM     21  C   UNL A   1      41.183  25.010  28.002  1.00  0.00     0.029 A 
ATOM     22  N   UNL A   1      42.072  26.935  28.627  1.00  0.00    -0.354 N 
ATOM     23  C   UNL A   1      46.062  28.142  26.878  1.00  0.00     0.074 A 
ATOM     24  C   UNL A   1      45.777  27.898  25.488  1.00  0.00     0.031 C 
ATOM     25  C   UNL A   1      40.233  25.673  28.698  1.00  0.00     0.029 A 
ATOM     26  C   UNL A   1      40.778  26.947  29.124  1.00  0.00     0.049 A 
ATOM     27  H   UNL A   1      42.736  27.627  28.847  1.00  0.00     0.167 HD
ATOM     28  C   UNL A   1      46.737  29.147  27.496  1.00  0.00     0.037 A 
ATOM     29  C   UNL A   1      40.196  28.001  29.745  1.00  0.00     0.037 A 
ATOM     30  C   UNL A   1      46.959  28.853  28.888  1.00  0.00     0.049 A 
ATOM     31  C   UNL A   1      41.293  28.854  30.281  1.00  0.00     0.074 A 
ATOM     32  C   UNL A   1      47.675  27.882  29.562  1.00  0.00     0.029 A 
ATOM     33  N   UNL A   1      46.110  29.401  29.817  1.00  0.00    -0.354 N 
ATOM     34  N   UNL A   1      42.080  28.480  31.253  1.00  0.00    -0.248 NA
ATOM     35  C   UNL A   1      41.827  29.896  29.413  1.00  0.00     0.031 C 
ATOM     36  C   UNL A   1      46.884  27.567  30.705  1.00  0.00     0.029 A 
ATOM     37  C   UNL A   1      45.766  28.403  30.692  1.00  0.00     0.049 A 
ATOM     38  H   UNL A   1      45.805  30.336  29.850  1.00  0.00     0.167 HD
ATOM     39  C   UNL A   1      43.342  28.930  30.887  1.00  0.00     0.074 A 
ATOM     40  C   UNL A   1      43.113  29.847  29.773  1.00  0.00     0.031 C 
ATOM     41  C   UNL A   1      44.474  28.305  31.326  1.00  0.00     0.037 A 
BRANCH  28  42
ATOM     42  C   UNL A   1      46.845  30.540  26.928  1.00  0.00     0.064 A 
ATOM     43  C   UNL A   1      48.088  31.202  26.962  1.00  0.00     0.173 A 
ATOM     44  C   UNL A   1      45.726  31.359  26.654  1.00  0.00     0.173 A 
ATOM     45  F   UNL A   1      49.218  30.524  27.216  1.00  0.00    -0.203 F 
ATOM     46  C   UNL A   1      48.187  32.590  26.835  1.00  0.00     0.198 A 
ATOM     47  C   UNL A   1      45.835  32.736  26.481  1.00  0.00     0.198 A 
ATOM     48  F   UNL A   1      44.475  30.888  26.652  1.00  0.00    -0.203 F 
ATOM     49  F   UNL A   1      49.371  33.190  27.007  1.00  0.00    -0.200 F 
ATOM     50  C   UNL A   1      47.058  33.357  26.609  1.00  0.00     0.200 A 
ATOM     51  F   UNL A   1      44.726  33.461  26.278  1.00  0.00    -0.200 F 
ATOM     52  F   UNL A   1      47.139  34.692  26.562  1.00  0.00    -0.200 F 
ENDBRANCH  28  42
BRANCH  29  53
ATOM     53  C   UNL A   1      38.822  28.496  29.492  1.00  0.00     0.064 A 
ATOM     54  C   UNL A   1      37.937  28.757  30.548  1.00  0.00     0.173 A 
ATOM     55  C   UNL A   1      38.434  28.968  28.219  1.00  0.00     0.173 A 
ATOM     56  F   UNL A   1      38.255  28.390  31.798  1.00  0.00    -0.203 F 
ATOM     57  C   UNL A   1      36.742  29.457  30.345  1.00  0.00     0.198 A 
ATOM     58  C   UNL A   1      37.240  29.657  28.017  1.00  0.00     0.198 A 
ATOM     59  F   UNL A   1      39.249  28.851  27.161  1.00  0.00    -0.203 F 
ATOM     60  F   UNL A   1      35.945  29.736  31.386  1.00  0.00    -0.200 F 
ATOM     61  C   UNL A   1      36.398  29.912  29.081  1.00  0.00     0.200 A 
ATOM     62  F   UNL A   1      36.941  30.125  26.796  1.00  0.00    -0.200 F 
ATOM     63  F   UNL A   1      35.280  30.629  28.897  1.00  0.00    -0.200 F 
ENDBRANCH  29  53
BRANCH  41  64
ATOM     64  C   UNL A   1      44.328  27.253  32.387  1.00  0.00     0.064 A 
ATOM     65  C   UNL A   1      44.179  25.884  32.105  1.00  0.00     0.173 A 
ATOM     66  C   UNL A   1      44.534  27.620  33.723  1.00  0.00     0.173 A 
ATOM     67  F   UNL A   1      44.081  25.449  30.842  1.00  0.00    -0.203 F 
ATOM     68  C   UNL A   1      44.202  24.931  33.124  1.00  0.00     0.198 A 
ATOM     69  C   UNL A   1      44.590  26.665  34.733  1.00  0.00     0.198 A 
ATOM     70  F   UNL A   1      44.745  28.907  34.040  1.00  0.00    -0.203 F 
ATOM     71  F   UNL A   1      44.063  23.630  32.832  1.00  0.00    -0.200 F 
ATOM     72  C   UNL A   1      44.418  25.322  34.435  1.00  0.00     0.200 A 
ATOM     73  F   UNL A   1      44.853  27.042  35.992  1.00  0.00    -0.200 F 
ATOM     74  F   UNL A   1      44.495  24.403  35.408  1.00  0.00    -0.200 F 
ENDBRANCH  41  64
ENDBRANCH  15  16
ENDBRANCH   8  10
ENDBRANCH   7   8
ENDBRANCH   6   7
ENDBRANCH   5   6
ENDBRANCH   4   5
ENDBRANCH   3   4
ENDBRANCH   2   3
ENDBRANCH   1   2
BRANCH   1  75
ATOM     75  C   UNL A   1      39.490  22.008  26.223  1.00  0.00     0.202 C 
BRANCH  75  76
ATOM     76  C   UNL A   1      37.919  22.947  26.127  1.00  0.00     0.261 C 
BRANCH  76  77
ATOM     77  O   UNL A   1      36.070  22.060  25.915  1.00  0.00    -0.459 OA
BRANCH  77  78
ATOM     78  C   UNL A   1      34.793  21.584  26.226  1.00  0.00     0.349 C 
ATOM     79  O   UNL A   1      34.341  21.502  27.375  1.00  0.00    -0.245 OA
BRANCH  78  80
ATOM     80  C   UNL A   1      33.922  21.510  25.043  1.00  0.00     0.133 A 
ATOM     81  S   UNL A   1      32.966  20.039  24.986  1.00  0.00    -0.136 S 
ATOM     82  C   UNL A   1      33.585  22.328  23.971  1.00  0.00     0.113 A 
ATOM     83  C   UNL A   1      32.213  20.454  23.526  1.00  0.00     0.067 A 
ATOM     84  C   UNL A   1      32.623  21.687  23.092  1.00  0.00     0.035 A 
BRANCH  82  85
ATOM     85  S   UNL A   1      34.116  23.926  23.514  1.00  0.00     0.263 S 
ATOM     86  O   UNL A   1      34.237  24.606  24.785  1.00  0.00    -0.201 OA
ATOM     87  O   UNL A   1      35.307  23.633  22.736  1.00  0.00    -0.201 OA
BRANCH  85  88
ATOM     88  N   UNL A   1      33.177  24.918  22.495  1.00  0.00    -0.280 N 
ATOM     89  H   UNL A   1      33.070  24.742  21.533  1.00  0.00     0.180 HD
BRANCH  88  90
ATOM     90  C   UNL A   1      32.563  26.015  23.144  1.00  0.00     0.049 A 
ATOM     91  C   UNL A   1      33.386  27.564  22.984  1.00  0.00     0.027 A 
ATOM     92  C   UNL A   1      30.808  25.916  23.400  1.00  0.00     0.027 A 
ATOM     93  C   UNL A   1      32.386  29.054  22.950  1.00  0.00     0.008 A 
ATOM     94  C   UNL A   1      29.792  27.380  23.441  1.00  0.00     0.008 A 
ATOM     95  C   UNL A   1      30.538  29.008  23.244  1.00  0.00    -0.026 A 
BRANCH  95  96
ATOM     96  C   UNL A   1      29.469  30.113  23.450  1.00  0.00     0.181 C 
BRANCH  96  97
ATOM     97  N   UNL A   1      28.967  30.824  22.255  1.00  0.00    -0.249 N 
ATOM     98  C   UNL A   1      28.171  30.355  21.242  1.00  0.00     0.220 A 
ATOM     99  N   UNL A   1      28.984  32.182  22.212  1.00  0.00    -0.160 NA
ATOM    100  N   UNL A   1      27.688  31.349  20.533  1.00  0.00    -0.224 NA
ATOM    101  C   UNL A   1      28.170  32.440  21.182  1.00  0.00     0.246 A 
ENDBRANCH  96  97
ENDBRANCH  95  96
ENDBRANCH  88  90
ENDBRANCH  85  88
ENDBRANCH  82  85
ENDBRANCH  78  80
ENDBRANCH  77  78
ENDBRANCH  76  77
ENDBRANCH  75  76
ENDBRANCH   1  75
TORSDOF 22
ENDMDL
MODEL 3
REMARK VINA RESULT:     -11.9      1.979      4.379
REMARK SMILES O=C(OCCOCCOCCOC(=O)c1sccc1S(=O)(=O)Nc1ccc(Cn2cncn2)cc1)c1ccc(-c2c3nc(c(-c4c(F)c(F)c(F)c(F)c4F)c4ccc([nH]4)c(-c4c(F)c(F)c(F)c(F)c4F)c4nc(c(-c5c(F)c(F)c(F)c(F)c5F)c5ccc2[nH]5)C=C4)C=C3)cc1
REMARK SMILES IDX 9 1 8 2 7 3 6 4 5 5 4 6 3 7 2 8 1 9 36 10 37 11 98 12 38 13
REMARK SMILES IDX 97 14 39 15 40 16 41 17 91 18 42 19 96 20 90 21 92 22 43 23
REMARK SMILES IDX 95 24 89 25 88 26 44 28 76 29 56 30 75 31 57 32 60 33 74 34
REMARK SMILES IDX 93 35 58 36 59 37 73 39 94 40 61 41 45 42 46 43 54 44 47 45
REMARK SMILES IDX 48 46 52 47 55 48 49 49 50 50 53 51 51 52 77 53 78 54 86 55
REMARK SMILES IDX 79 56 80 57 84 58 87 59 81 60 82 61 85 62 83 63 62 64 63 65
REMARK SMILES IDX 71 66 64 67 65 68 69 69 72 70 66 71 67 72 70 73 68 74 10 75
REMARK SMILES IDX 11 76 12 77 13 78 14 79 15 80 16 81 19 82 17 83 18 84 20 85
REMARK SMILES IDX 21 86 22 87 23 88 24 90 25 91 35 92 26 93 34 94 27 95 28 96
REMARK SMILES IDX 29 97 30 98 33 99 31 100 32 101
REMARK H PARENT 92 27 60 38 23 89
REMARK Flexibility Score: inf
ROOT
ATOM      1  O   UNL A   1      41.175  21.177  27.249  1.00  0.00    -0.376 OA
ENDROOT
BRANCH   1   2
ATOM      2  C   UNL A   1      41.968  19.943  27.257  1.00  0.00     0.188 C 
BRANCH   2   3
ATOM      3  C   UNL A   1      41.804  18.894  26.069  1.00  0.00     0.188 C 
BRANCH   3   4
ATOM      4  O   UNL A   1      42.828  17.958  25.799  1.00  0.00    -0.376 OA
BRANCH   4   5
ATOM      5  C   UNL A   1      44.137  18.469  25.721  1.00  0.00     0.202 C 
BRANCH   5   6
ATOM      6  C   UNL A   1      44.415  19.256  24.440  1.00  0.00     0.261 C 
BRANCH   6   7
ATOM      7  O   UNL A   1      45.640  20.029  24.359  1.00  0.00    -0.460 OA
BRANCH   7   8
ATOM      8  C   UNL A   1      45.932  21.348  24.413  1.00  0.00     0.338 C 
ATOM      9  O   UNL A   1      47.000  21.735  23.937  1.00  0.00    -0.246 OA
BRANCH   8  10
ATOM     10  C   UNL A   1      45.092  22.369  25.085  1.00  0.00     0.060 A 
ATOM     11  C   UNL A   1      44.253  23.241  24.407  1.00  0.00     0.016 A 
ATOM     12  C   UNL A   1      45.191  22.448  26.498  1.00  0.00     0.016 A 
ATOM     13  C   UNL A   1      43.668  24.281  25.088  1.00  0.00     0.010 A 
ATOM     14  C   UNL A   1      44.597  23.486  27.191  1.00  0.00     0.010 A 
ATOM     15  C   UNL A   1      43.935  24.448  26.450  1.00  0.00    -0.014 A 
BRANCH  15  16
ATOM     16  C   UNL A   1      43.609  25.753  26.981  1.00  0.00     0.031 A 
ATOM     17  C   UNL A   1      44.625  26.796  26.721  1.00  0.00     0.074 A 
ATOM     18  C   UNL A   1      42.556  25.888  27.808  1.00  0.00     0.049 A 
ATOM     19  N   UNL A   1      45.450  27.318  27.570  1.00  0.00    -0.248 NA
ATOM     20  C   UNL A   1      44.869  27.173  25.324  1.00  0.00     0.031 C 
ATOM     21  C   UNL A   1      41.413  24.991  28.007  1.00  0.00     0.029 A 
ATOM     22  N   UNL A   1      42.282  26.921  28.645  1.00  0.00    -0.354 N 
ATOM     23  C   UNL A   1      46.219  28.220  26.842  1.00  0.00     0.074 A 
ATOM     24  C   UNL A   1      45.912  27.992  25.454  1.00  0.00     0.031 C 
ATOM     25  C   UNL A   1      40.464  25.628  28.729  1.00  0.00     0.029 A 
ATOM     26  C   UNL A   1      40.997  26.905  29.165  1.00  0.00     0.049 A 
ATOM     27  H   UNL A   1      42.939  27.621  28.863  1.00  0.00     0.167 HD
ATOM     28  C   UNL A   1      46.888  29.227  27.462  1.00  0.00     0.037 A 
ATOM     29  C   UNL A   1      40.409  27.940  29.813  1.00  0.00     0.037 A 
ATOM     30  C   UNL A   1      47.140  28.916  28.845  1.00  0.00     0.049 A 
ATOM     31  C   UNL A   1      41.502  28.802  30.341  1.00  0.00     0.074 A 
ATOM     32  C   UNL A   1      47.884  27.947  29.492  1.00  0.00     0.029 A 
ATOM     33  N   UNL A   1      46.300  29.436  29.799  1.00  0.00    -0.354 N 
ATOM     34  N   UNL A   1      42.313  28.427  31.293  1.00  0.00    -0.248 NA
ATOM     35  C   UNL A   1      42.003  29.865  29.479  1.00  0.00     0.031 C 
ATOM     36  C   UNL A   1      47.120  27.602  30.644  1.00  0.00     0.029 A 
ATOM     37  C   UNL A   1      45.989  28.419  30.664  1.00  0.00     0.049 A 
ATOM     38  H   UNL A   1      45.981  30.365  29.851  1.00  0.00     0.167 HD
ATOM     39  C   UNL A   1      43.560  28.903  30.911  1.00  0.00     0.074 A 
ATOM     40  C   UNL A   1      43.296  29.833  29.816  1.00  0.00     0.031 C 
ATOM     41  C   UNL A   1      44.710  28.291  31.320  1.00  0.00     0.037 A 
BRANCH  28  42
ATOM     42  C   UNL A   1      46.963  30.629  26.914  1.00  0.00     0.064 A 
ATOM     43  C   UNL A   1      48.201  31.301  26.909  1.00  0.00     0.173 A 
ATOM     44  C   UNL A   1      45.829  31.444  26.699  1.00  0.00     0.173 A 
ATOM     45  F   UNL A   1      49.346  30.627  27.106  1.00  0.00    -0.203 F 
ATOM     46  C   UNL A   1      48.285  32.691  26.801  1.00  0.00     0.198 A 
ATOM     47  C   UNL A   1      45.920  32.824  26.545  1.00  0.00     0.198 A 
ATOM     48  F   UNL A   1      44.582  30.963  26.740  1.00  0.00    -0.203 F 
ATOM     49  F   UNL A   1      49.471  33.298  26.935  1.00  0.00    -0.200 F 
ATOM     50  C   UNL A   1      47.143  33.453  26.633  1.00  0.00     0.200 A 
ATOM     51  F   UNL A   1      44.799  33.544  26.398  1.00  0.00    -0.200 F 
ATOM     52  F   UNL A   1      47.212  34.789  26.606  1.00  0.00    -0.200 F 
ENDBRANCH  28  42
BRANCH  29  53
ATOM     53  C   UNL A   1      39.023  28.416  29.592  1.00  0.00     0.064 A 
ATOM     54  C   UNL A   1      38.154  28.648  30.668  1.00  0.00     0.173 A 
ATOM     55  C   UNL A   1      38.603  28.897  28.333  1.00  0.00     0.173 A 
ATOM     56  F   UNL A   1      38.501  28.270  31.906  1.00  0.00    -0.203 F 
ATOM     57  C   UNL A   1      36.944  29.331  30.496  1.00  0.00     0.198 A 
ATOM     58  C   UNL A   1      37.395  29.570  28.162  1.00  0.00     0.198 A 
ATOM     59  F   UNL A   1      39.400  28.808  27.258  1.00  0.00    -0.203 F 
ATOM     60  F   UNL A   1      36.163  29.583  31.556  1.00  0.00    -0.200 F 
ATOM     61  C   UNL A   1      36.569  29.797  29.246  1.00  0.00     0.200 A 
ATOM     62  F   UNL A   1      37.066  30.049  26.954  1.00  0.00    -0.200 F 
ATOM     63  F   UNL A   1      35.437  30.498  29.092  1.00  0.00    -0.200 F 
ENDBRANCH  29  53
BRANCH  41  64
ATOM     64  C   UNL A   1      44.601  27.221  32.368  1.00  0.00     0.064 A 
ATOM     65  C   UNL A   1      44.506  27.491  33.744  1.00  0.00     0.173 A 
ATOM     66  C   UNL A   1      44.397  25.898  31.952  1.00  0.00     0.173 A 
ATOM     67  F   UNL A   1      44.587  28.746  34.205  1.00  0.00    -0.203 F 
ATOM     68  C   UNL A   1      44.252  26.473  34.663  1.00  0.00     0.198 A 
ATOM     69  C   UNL A   1      44.111  24.891  32.867  1.00  0.00     0.198 A 
ATOM     70  F   UNL A   1      44.414  25.596  30.645  1.00  0.00    -0.203 F 
ATOM     71  F   UNL A   1      44.160  26.754  35.971  1.00  0.00    -0.200 F 
ATOM     72  C   UNL A   1      44.044  25.176  34.222  1.00  0.00     0.200 A 
ATOM     73  F   UNL A   1      43.857  23.649  32.433  1.00  0.00    -0.200 F 
ATOM     74  F   UNL A   1      43.746  24.206  35.099  1.00  0.00    -0.200 F 
ENDBRANCH  41  64
ENDBRANCH  15  16
ENDBRANCH   8  10
ENDBRANCH   7   8
ENDBRANCH   6   7
ENDBRANCH   5   6
ENDBRANCH   4   5
ENDBRANCH   3   4
ENDBRANCH   2   3
ENDBRANCH   1   2
BRANCH   1  75
ATOM     75  C   UNL A   1      40.207  21.788  26.298  1.00  0.00     0.202 C 
BRANCH  75  76
ATOM     76  C   UNL A   1      38.837  23.000  26.412  1.00  0.00     0.261 C 
BRANCH  76  77
ATOM     77  O   UNL A   1      37.255  23.063  25.091  1.00  0.00    -0.459 OA
BRANCH  77  78
ATOM     78  C   UNL A   1      36.524  22.971  23.903  1.00  0.00     0.349 C 
ATOM     79  O   UNL A   1      36.975  23.252  22.785  1.00  0.00    -0.245 OA
BRANCH  78  80
ATOM     80  C   UNL A   1      35.290  22.188  24.067  1.00  0.00     0.133 A 
ATOM     81  S   UNL A   1      35.511  20.763  25.069  1.00  0.00    -0.136 S 
ATOM     82  C   UNL A   1      33.954  22.299  23.701  1.00  0.00     0.113 A 
ATOM     83  C   UNL A   1      33.895  20.276  24.923  1.00  0.00     0.067 A 
ATOM     84  C   UNL A   1      33.174  21.171  24.178  1.00  0.00     0.035 A 
BRANCH  82  85
ATOM     85  S   UNL A   1      33.094  23.512  22.787  1.00  0.00     0.263 S 
ATOM     86  O   UNL A   1      33.528  24.749  23.399  1.00  0.00    -0.201 OA
ATOM     87  O   UNL A   1      33.496  23.200  21.426  1.00  0.00    -0.201 OA
BRANCH  85  88
ATOM     88  N   UNL A   1      31.392  23.543  22.731  1.00  0.00    -0.280 N 
ATOM     89  H   UNL A   1      30.854  22.762  22.469  1.00  0.00     0.180 HD
BRANCH  88  90
ATOM     90  C   UNL A   1      30.812  24.782  23.091  1.00  0.00     0.049 A 
ATOM     91  C   UNL A   1      30.525  25.027  24.812  1.00  0.00     0.027 A 
ATOM     92  C   UNL A   1      31.092  26.148  21.991  1.00  0.00     0.027 A 
ATOM     93  C   UNL A   1      30.654  26.695  25.463  1.00  0.00     0.008 A 
ATOM     94  C   UNL A   1      31.157  27.826  22.592  1.00  0.00     0.008 A 
ATOM     95  C   UNL A   1      30.917  28.172  24.343  1.00  0.00    -0.026 A 
BRANCH  95  96
ATOM     96  C   UNL A   1      30.888  29.704  24.585  1.00  0.00     0.181 C 
BRANCH  96  97
ATOM     97  N   UNL A   1      31.851  30.272  25.551  1.00  0.00    -0.249 N 
ATOM     98  C   UNL A   1      31.612  30.831  26.780  1.00  0.00     0.220 A 
ATOM     99  N   UNL A   1      33.175  29.984  25.446  1.00  0.00    -0.160 NA
ATOM    100  N   UNL A   1      32.727  30.936  27.467  1.00  0.00    -0.224 NA
ATOM    101  C   UNL A   1      33.642  30.370  26.639  1.00  0.00     0.246 A 
ENDBRANCH  96  97
ENDBRANCH  95  96
ENDBRANCH  88  90
ENDBRANCH  85  88
ENDBRANCH  82  85
ENDBRANCH  78  80
ENDBRANCH  77  78
ENDBRANCH  76  77
ENDBRANCH  75  76
ENDBRANCH   1  75
TORSDOF 22
ENDMDL
