MODEL 1
REMARK VINA RESULT:     -10.4      0.000      0.000
REMARK SMILES O=C(Cc1ccn[nH]1)NC[C@H]1CCCC[C@H]1C(=O)OCCOCCOCCOC(=O)c1ccc(-c2c3nc(c(-c4c(F)c(F)c(F)c(F)c4F)c4ccc([nH]4)c(-c4c(F)c(F)c(F)c(F)c4F)c4nc(c(-c5c(F)c(F)c(F)c(F)c5F)c5ccc2[nH]5)C=C4)C=C3)cc1
REMARK SMILES IDX 23 1 22 2 21 3 20 4 19 5 17 6 18 7 16 8 11 9 12 10 13 11
REMARK SMILES IDX 15 12 14 13 10 14 9 15 1 16 2 17 3 19 4 20 5 21 8 22 6 23
REMARK SMILES IDX 7 24 24 26 25 27 26 28 27 29 28 30 29 31 30 32 31 33 32 34
REMARK SMILES IDX 93 35 33 36 92 37 34 38 35 39 36 40 86 41 37 42 91 43 85 44
REMARK SMILES IDX 87 45 38 46 90 47 84 48 83 49 39 51 71 52 51 53 70 54 52 55
REMARK SMILES IDX 55 56 69 57 88 58 53 59 54 60 68 62 89 63 56 64 40 65 41 66
REMARK SMILES IDX 49 67 42 68 43 69 47 70 50 71 44 72 45 73 48 74 46 75 72 76
REMARK SMILES IDX 73 77 81 78 74 79 75 80 79 81 82 82 76 83 77 84 80 85 78 86
REMARK SMILES IDX 57 87 58 88 66 89 59 90 60 91 64 92 67 93 61 94 62 95 65 96
REMARK SMILES IDX 63 97
REMARK H PARENT 9 18 8 25 87 50 55 61
REMARK Flexibility Score: inf
ROOT
ATOM      1  C   UNL A   1      35.069  31.714  27.650  1.00  0.00     0.188 C 
ENDROOT
BRANCH   1   2
ATOM      2  O   UNL A   1      34.325  30.564  28.029  1.00  0.00    -0.376 OA
BRANCH   2   3
ATOM      3  C   UNL A   1      33.373  30.076  27.084  1.00  0.00     0.202 C 
BRANCH   3   4
ATOM      4  C   UNL A   1      32.938  28.612  27.238  1.00  0.00     0.261 C 
BRANCH   4   5
ATOM      5  O   UNL A   1      32.713  27.916  25.991  1.00  0.00    -0.463 OA
BRANCH   5   6
ATOM      6  C   UNL A   1      32.038  26.748  26.087  1.00  0.00     0.309 C 
ATOM      7  O   UNL A   1      31.054  26.578  26.803  1.00  0.00    -0.252 OA
BRANCH   6   8
ATOM      8  C   UNL A   1      32.540  25.629  25.174  1.00  0.00     0.104 C 
ATOM      9  C   UNL A   1      32.028  25.465  23.716  1.00  0.00     0.022 C 
ATOM     10  C   UNL A   1      32.710  24.236  23.049  1.00  0.00     0.006 C 
ATOM     11  C   UNL A   1      34.230  24.159  23.231  1.00  0.00     0.000 C 
ATOM     12  C   UNL A   1      34.068  25.564  25.313  1.00  0.00     0.016 C 
ATOM     13  C   UNL A   1      34.644  24.305  24.686  1.00  0.00     0.001 C 
BRANCH   9  14
ATOM     14  C   UNL A   1      32.057  26.688  22.773  1.00  0.00     0.120 C 
BRANCH  14  15
ATOM     15  N   UNL A   1      30.759  27.282  22.571  1.00  0.00    -0.355 N 
ATOM     16  O   UNL A   1      31.182  29.268  23.646  1.00  0.00    -0.275 OA
ATOM     17  C   UNL A   1      30.406  28.527  23.051  1.00  0.00     0.226 C 
ATOM     18  H   UNL A   1      30.088  26.772  22.061  1.00  0.00     0.163 HD
BRANCH  17  19
ATOM     19  C   UNL A   1      28.929  28.862  22.879  1.00  0.00     0.155 C 
BRANCH  19  20
ATOM     20  C   UNL A   1      28.711  30.222  22.307  1.00  0.00     0.044 A 
ATOM     21  C   UNL A   1      28.114  30.623  21.130  1.00  0.00     0.045 A 
ATOM     22  N   UNL A   1      29.167  31.376  22.887  1.00  0.00    -0.282 N 
ATOM     23  C   UNL A   1      28.233  32.024  21.120  1.00  0.00     0.135 A 
ATOM     24  N   UNL A   1      28.866  32.484  22.199  1.00  0.00    -0.184 NA
ATOM     25  H   UNL A   1      29.671  31.389  23.732  1.00  0.00     0.190 HD
ENDBRANCH  19  20
ENDBRANCH  17  19
ENDBRANCH  14  15
ENDBRANCH   9  14
ENDBRANCH   6   8
ENDBRANCH   5   6
ENDBRANCH   4   5
ENDBRANCH   3   4
ENDBRANCH   2   3
ENDBRANCH   1   2
BRANCH   1  26
ATOM     26  C   UNL A   1      35.261  32.786  28.721  1.00  0.00     0.188 C 
BRANCH  26  27
ATOM     27  O   UNL A   1      34.085  33.438  29.179  1.00  0.00    -0.376 OA
BRANCH  27  28
ATOM     28  C   UNL A   1      33.831  34.734  28.617  1.00  0.00     0.202 C 
BRANCH  28  29
ATOM     29  C   UNL A   1      33.056  35.742  29.497  1.00  0.00     0.261 C 
BRANCH  29  30
ATOM     30  O   UNL A   1      32.393  35.191  30.659  1.00  0.00    -0.460 OA
BRANCH  30  31
ATOM     31  C   UNL A   1      32.707  35.701  31.873  1.00  0.00     0.338 C 
ATOM     32  O   UNL A   1      32.029  36.470  32.532  1.00  0.00    -0.246 OA
BRANCH  31  33
ATOM     33  C   UNL A   1      33.880  34.957  32.416  1.00  0.00     0.060 A 
ATOM     34  C   UNL A   1      35.136  35.584  32.373  1.00  0.00     0.016 A 
ATOM     35  C   UNL A   1      33.757  33.708  33.033  1.00  0.00     0.016 A 
ATOM     36  C   UNL A   1      36.268  34.951  32.895  1.00  0.00     0.010 A 
ATOM     37  C   UNL A   1      34.894  33.066  33.543  1.00  0.00     0.010 A 
ATOM     38  C   UNL A   1      36.162  33.666  33.444  1.00  0.00    -0.014 A 
BRANCH  38  39
ATOM     39  C   UNL A   1      37.392  32.869  33.704  1.00  0.00     0.031 A 
ATOM     40  C   UNL A   1      38.161  33.143  34.969  1.00  0.00     0.074 A 
ATOM     41  C   UNL A   1      37.824  31.912  32.863  1.00  0.00     0.049 A 
ATOM     42  N   UNL A   1      39.283  32.622  35.398  1.00  0.00    -0.248 NA
ATOM     43  C   UNL A   1      37.581  34.149  35.871  1.00  0.00     0.031 C 
ATOM     44  C   UNL A   1      37.167  31.512  31.623  1.00  0.00     0.029 A 
ATOM     45  N   UNL A   1      38.939  31.108  32.930  1.00  0.00    -0.354 N 
ATOM     46  C   UNL A   1      39.547  33.245  36.610  1.00  0.00     0.074 A 
ATOM     47  C   UNL A   1      38.487  34.205  36.833  1.00  0.00     0.031 C 
ATOM     48  C   UNL A   1      37.903  30.554  31.031  1.00  0.00     0.029 A 
ATOM     49  C   UNL A   1      39.099  30.295  31.835  1.00  0.00     0.049 A 
ATOM     50  H   UNL A   1      39.563  31.115  33.691  1.00  0.00     0.167 HD
ATOM     51  C   UNL A   1      40.574  33.035  37.469  1.00  0.00     0.037 A 
ATOM     52  C   UNL A   1      40.107  29.462  31.504  1.00  0.00     0.037 A 
ATOM     53  C   UNL A   1      41.633  32.085  37.254  1.00  0.00     0.049 A 
ATOM     54  C   UNL A   1      41.280  29.290  32.439  1.00  0.00     0.074 A 
ATOM     55  C   UNL A   1      42.699  31.781  38.083  1.00  0.00     0.029 A 
ATOM     56  N   UNL A   1      41.771  31.298  36.120  1.00  0.00    -0.354 N 
ATOM     57  N   UNL A   1      41.504  29.853  33.602  1.00  0.00    -0.248 NA
ATOM     58  C   UNL A   1      42.338  28.359  32.017  1.00  0.00     0.031 C 
ATOM     59  C   UNL A   1      43.517  30.858  37.422  1.00  0.00     0.029 A 
ATOM     60  C   UNL A   1      42.925  30.534  36.212  1.00  0.00     0.049 A 
ATOM     61  H   UNL A   1      41.143  31.283  35.363  1.00  0.00     0.167 HD
ATOM     62  C   UNL A   1      42.708  29.331  34.058  1.00  0.00     0.074 A 
ATOM     63  C   UNL A   1      43.164  28.393  33.054  1.00  0.00     0.031 C 
ATOM     64  C   UNL A   1      43.375  29.602  35.209  1.00  0.00     0.037 A 
BRANCH  51  65
ATOM     65  C   UNL A   1      40.619  33.887  38.704  1.00  0.00     0.064 A 
ATOM     66  C   UNL A   1      39.941  33.529  39.880  1.00  0.00     0.173 A 
ATOM     67  C   UNL A   1      41.355  35.083  38.710  1.00  0.00     0.173 A 
ATOM     68  F   UNL A   1      39.210  32.405  39.922  1.00  0.00    -0.203 F 
ATOM     69  C   UNL A   1      39.964  34.356  41.000  1.00  0.00     0.198 A 
ATOM     70  C   UNL A   1      41.405  35.888  39.844  1.00  0.00     0.198 A 
ATOM     71  F   UNL A   1      42.026  35.470  37.615  1.00  0.00    -0.203 F 
ATOM     72  F   UNL A   1      39.253  34.027  42.088  1.00  0.00    -0.200 F 
ATOM     73  C   UNL A   1      40.699  35.531  40.983  1.00  0.00     0.200 A 
ATOM     74  F   UNL A   1      42.128  37.016  39.830  1.00  0.00    -0.200 F 
ATOM     75  F   UNL A   1      40.720  36.327  42.062  1.00  0.00    -0.200 F 
ENDBRANCH  51  65
BRANCH  52  76
ATOM     76  C   UNL A   1      40.070  28.740  30.203  1.00  0.00     0.064 A 
ATOM     77  C   UNL A   1      39.465  27.482  30.082  1.00  0.00     0.173 A 
ATOM     78  C   UNL A   1      40.659  29.293  29.054  1.00  0.00     0.173 A 
ATOM     79  F   UNL A   1      38.920  26.895  31.157  1.00  0.00    -0.203 F 
ATOM     80  C   UNL A   1      39.458  26.800  28.865  1.00  0.00     0.198 A 
ATOM     81  C   UNL A   1      40.624  28.624  27.833  1.00  0.00     0.198 A 
ATOM     82  F   UNL A   1      41.260  30.489  29.119  1.00  0.00    -0.203 F 
ATOM     83  F   UNL A   1      38.912  25.579  28.788  1.00  0.00    -0.200 F 
ATOM     84  C   UNL A   1      40.030  27.375  27.740  1.00  0.00     0.200 A 
ATOM     85  F   UNL A   1      41.171  29.188  26.747  1.00  0.00    -0.200 F 
ATOM     86  F   UNL A   1      40.015  26.722  26.570  1.00  0.00    -0.200 F 
ENDBRANCH  52  76
BRANCH  64  87
ATOM     87  C   UNL A   1      44.654  28.856  35.471  1.00  0.00     0.064 A 
ATOM     88  C   UNL A   1      44.669  27.614  36.124  1.00  0.00     0.173 A 
ATOM     89  C   UNL A   1      45.880  29.368  35.015  1.00  0.00     0.173 A 
ATOM     90  F   UNL A   1      43.528  27.084  36.590  1.00  0.00    -0.203 F 
ATOM     91  C   UNL A   1      45.862  26.926  36.333  1.00  0.00     0.198 A 
ATOM     92  C   UNL A   1      47.068  28.662  35.197  1.00  0.00     0.198 A 
ATOM     93  F   UNL A   1      45.926  30.546  34.376  1.00  0.00    -0.203 F 
ATOM     94  F   UNL A   1      45.856  25.765  37.001  1.00  0.00    -0.200 F 
ATOM     95  C   UNL A   1      47.059  27.447  35.862  1.00  0.00     0.200 A 
ATOM     96  F   UNL A   1      48.220  29.159  34.724  1.00  0.00    -0.200 F 
ATOM     97  F   UNL A   1      48.205  26.778  36.054  1.00  0.00    -0.200 F 
ENDBRANCH  64  87
ENDBRANCH  38  39
ENDBRANCH  31  33
ENDBRANCH  30  31
ENDBRANCH  29  30
ENDBRANCH  28  29
ENDBRANCH  27  28
ENDBRANCH  26  27
ENDBRANCH   1  26
TORSDOF 21
ENDMDL
MODEL 2
REMARK VINA RESULT:     -10.4      2.898      5.251
REMARK SMILES O=C(Cc1ccn[nH]1)NC[C@H]1CCCC[C@H]1C(=O)OCCOCCOCCOC(=O)c1ccc(-c2c3nc(c(-c4c(F)c(F)c(F)c(F)c4F)c4ccc([nH]4)c(-c4c(F)c(F)c(F)c(F)c4F)c4nc(c(-c5c(F)c(F)c(F)c(F)c5F)c5ccc2[nH]5)C=C4)C=C3)cc1
REMARK SMILES IDX 23 1 22 2 21 3 20 4 19 5 17 6 18 7 16 8 11 9 12 10 13 11
REMARK SMILES IDX 15 12 14 13 10 14 9 15 1 16 2 17 3 19 4 20 5 21 8 22 6 23
REMARK SMILES IDX 7 24 24 26 25 27 26 28 27 29 28 30 29 31 30 32 31 33 32 34
REMARK SMILES IDX 93 35 33 36 92 37 34 38 35 39 36 40 86 41 37 42 91 43 85 44
REMARK SMILES IDX 87 45 38 46 90 47 84 48 83 49 39 51 71 52 51 53 70 54 52 55
REMARK SMILES IDX 55 56 69 57 88 58 53 59 54 60 68 62 89 63 56 64 40 65 41 66
REMARK SMILES IDX 49 67 42 68 43 69 47 70 50 71 44 72 45 73 48 74 46 75 72 76
REMARK SMILES IDX 73 77 81 78 74 79 75 80 79 81 82 82 76 83 77 84 80 85 78 86
REMARK SMILES IDX 57 87 58 88 66 89 59 90 60 91 64 92 67 93 61 94 62 95 65 96
REMARK SMILES IDX 63 97
REMARK H PARENT 9 18 8 25 87 50 55 61
REMARK Flexibility Score: inf
ROOT
ATOM      1  C   UNL A   1      31.838  29.114  26.841  1.00  0.00     0.188 C 
ENDROOT
BRANCH   1   2
ATOM      2  O   UNL A   1      32.273  27.812  26.473  1.00  0.00    -0.376 OA
BRANCH   2   3
ATOM      3  C   UNL A   1      32.972  27.696  25.234  1.00  0.00     0.202 C 
BRANCH   3   4
ATOM      4  C   UNL A   1      32.662  26.456  24.383  1.00  0.00     0.261 C 
BRANCH   4   5
ATOM      5  O   UNL A   1      33.627  26.186  23.341  1.00  0.00    -0.463 OA
BRANCH   5   6
ATOM      6  C   UNL A   1      33.835  24.879  23.061  1.00  0.00     0.309 C 
ATOM      7  O   UNL A   1      33.329  24.289  22.110  1.00  0.00    -0.252 OA
BRANCH   6   8
ATOM      8  C   UNL A   1      34.823  24.166  23.986  1.00  0.00     0.104 C 
ATOM      9  C   UNL A   1      34.512  23.918  25.488  1.00  0.00     0.022 C 
ATOM     10  C   UNL A   1      35.707  23.188  26.164  1.00  0.00     0.006 C 
ATOM     11  C   UNL A   1      36.252  21.981  25.392  1.00  0.00     0.000 C 
ATOM     12  C   UNL A   1      35.349  22.929  23.242  1.00  0.00     0.016 C 
ATOM     13  C   UNL A   1      36.550  22.314  23.940  1.00  0.00     0.001 C 
BRANCH   9  14
ATOM     14  C   UNL A   1      33.172  23.253  25.873  1.00  0.00     0.120 C 
BRANCH  14  15
ATOM     15  N   UNL A   1      33.275  21.826  26.049  1.00  0.00    -0.355 N 
ATOM     16  O   UNL A   1      32.388  21.223  24.017  1.00  0.00    -0.275 OA
ATOM     17  C   UNL A   1      32.846  20.908  25.112  1.00  0.00     0.226 C 
ATOM     18  H   UNL A   1      33.674  21.487  26.883  1.00  0.00     0.163 HD
BRANCH  17  19
ATOM     19  C   UNL A   1      32.881  19.463  25.596  1.00  0.00     0.155 C 
BRANCH  19  20
ATOM     20  C   UNL A   1      33.214  18.500  24.507  1.00  0.00     0.044 A 
ATOM     21  C   UNL A   1      34.369  17.792  24.248  1.00  0.00     0.045 A 
ATOM     22  N   UNL A   1      32.369  18.194  23.473  1.00  0.00    -0.282 N 
ATOM     23  C   UNL A   1      34.100  17.074  23.069  1.00  0.00     0.135 A 
ATOM     24  N   UNL A   1      32.874  17.312  22.604  1.00  0.00    -0.184 NA
ATOM     25  H   UNL A   1      31.473  18.589  23.379  1.00  0.00     0.190 HD
ENDBRANCH  19  20
ENDBRANCH  17  19
ENDBRANCH  14  15
ENDBRANCH   9  14
ENDBRANCH   6   8
ENDBRANCH   5   6
ENDBRANCH   4   5
ENDBRANCH   3   4
ENDBRANCH   2   3
ENDBRANCH   1   2
BRANCH   1  26
ATOM     26  C   UNL A   1      31.749  30.148  25.719  1.00  0.00     0.188 C 
BRANCH  26  27
ATOM     27  O   UNL A   1      31.397  31.468  26.106  1.00  0.00    -0.376 OA
BRANCH  27  28
ATOM     28  C   UNL A   1      32.112  32.001  27.230  1.00  0.00     0.202 C 
BRANCH  28  29
ATOM     29  C   UNL A   1      32.442  33.511  27.203  1.00  0.00     0.261 C 
BRANCH  29  30
ATOM     30  O   UNL A   1      32.500  34.172  28.489  1.00  0.00    -0.460 OA
BRANCH  30  31
ATOM     31  C   UNL A   1      33.588  34.926  28.769  1.00  0.00     0.338 C 
ATOM     32  O   UNL A   1      33.610  36.133  28.930  1.00  0.00    -0.246 OA
BRANCH  31  33
ATOM     33  C   UNL A   1      34.716  34.021  29.137  1.00  0.00     0.060 A 
ATOM     34  C   UNL A   1      34.427  32.893  29.920  1.00  0.00     0.016 A 
ATOM     35  C   UNL A   1      36.017  34.214  28.665  1.00  0.00     0.016 A 
ATOM     36  C   UNL A   1      35.436  31.991  30.272  1.00  0.00     0.010 A 
ATOM     37  C   UNL A   1      37.033  33.319  29.030  1.00  0.00     0.010 A 
ATOM     38  C   UNL A   1      36.756  32.222  29.866  1.00  0.00    -0.014 A 
BRANCH  38  39
ATOM     39  C   UNL A   1      37.868  31.457  30.493  1.00  0.00     0.031 A 
ATOM     40  C   UNL A   1      38.231  31.775  31.919  1.00  0.00     0.074 A 
ATOM     41  C   UNL A   1      38.539  30.490  29.841  1.00  0.00     0.049 A 
ATOM     42  N   UNL A   1      39.187  31.287  32.670  1.00  0.00    -0.248 NA
ATOM     43  C   UNL A   1      37.400  32.788  32.585  1.00  0.00     0.031 C 
ATOM     44  C   UNL A   1      38.277  30.050  28.474  1.00  0.00     0.029 A 
ATOM     45  N   UNL A   1      39.598  29.712  30.250  1.00  0.00    -0.354 N 
ATOM     46  C   UNL A   1      39.078  31.942  33.889  1.00  0.00     0.074 A 
ATOM     47  C   UNL A   1      37.986  32.884  33.767  1.00  0.00     0.031 C 
ATOM     48  C   UNL A   1      39.167  29.094  28.148  1.00  0.00     0.029 A 
ATOM     49  C   UNL A   1      40.080  28.879  29.271  1.00  0.00     0.049 A 
ATOM     50  H   UNL A   1      39.972  29.749  31.159  1.00  0.00     0.167 HD
ATOM     51  C   UNL A   1      39.814  31.773  35.014  1.00  0.00     0.037 A 
ATOM     52  C   UNL A   1      41.153  28.060  29.271  1.00  0.00     0.037 A 
ATOM     53  C   UNL A   1      40.902  30.841  35.143  1.00  0.00     0.049 A 
ATOM     54  C   UNL A   1      42.004  27.934  30.511  1.00  0.00     0.074 A 
ATOM     55  C   UNL A   1      41.685  30.578  36.253  1.00  0.00     0.029 A 
ATOM     56  N   UNL A   1      41.375  30.032  34.120  1.00  0.00    -0.354 N 
ATOM     57  N   UNL A   1      41.873  28.527  31.673  1.00  0.00    -0.248 NA
ATOM     58  C   UNL A   1      43.153  27.016  30.440  1.00  0.00     0.031 C 
ATOM     59  C   UNL A   1      42.673  29.659  35.884  1.00  0.00     0.029 A 
ATOM     60  C   UNL A   1      42.463  29.295  34.564  1.00  0.00     0.049 A 
ATOM     61  H   UNL A   1      40.995  29.987  33.213  1.00  0.00     0.167 HD
ATOM     62  C   UNL A   1      42.899  28.040  32.473  1.00  0.00     0.074 A 
ATOM     63  C   UNL A   1      43.640  27.090  31.671  1.00  0.00     0.031 C 
ATOM     64  C   UNL A   1      43.198  28.351  33.760  1.00  0.00     0.037 A 
BRANCH  51  65
ATOM     65  C   UNL A   1      39.485  32.653  36.186  1.00  0.00     0.064 A 
ATOM     66  C   UNL A   1      40.129  33.882  36.397  1.00  0.00     0.173 A 
ATOM     67  C   UNL A   1      38.507  32.258  37.111  1.00  0.00     0.173 A 
ATOM     68  F   UNL A   1      41.084  34.298  35.551  1.00  0.00    -0.203 F 
ATOM     69  C   UNL A   1      39.837  34.661  37.513  1.00  0.00     0.198 A 
ATOM     70  C   UNL A   1      38.191  33.058  38.206  1.00  0.00     0.198 A 
ATOM     71  F   UNL A   1      37.856  31.095  36.955  1.00  0.00    -0.203 F 
ATOM     72  F   UNL A   1      40.513  35.798  37.730  1.00  0.00    -0.200 F 
ATOM     73  C   UNL A   1      38.865  34.252  38.413  1.00  0.00     0.200 A 
ATOM     74  F   UNL A   1      37.242  32.667  39.066  1.00  0.00    -0.200 F 
ATOM     75  F   UNL A   1      38.585  35.002  39.488  1.00  0.00    -0.200 F 
ENDBRANCH  51  65
BRANCH  52  76
ATOM     76  C   UNL A   1      41.506  27.309  28.035  1.00  0.00     0.064 A 
ATOM     77  C   UNL A   1      42.306  27.880  27.037  1.00  0.00     0.173 A 
ATOM     78  C   UNL A   1      41.032  26.004  27.825  1.00  0.00     0.173 A 
ATOM     79  F   UNL A   1      42.753  29.136  27.174  1.00  0.00    -0.203 F 
ATOM     80  C   UNL A   1      42.610  27.179  25.869  1.00  0.00     0.198 A 
ATOM     81  C   UNL A   1      41.362  25.295  26.671  1.00  0.00     0.198 A 
ATOM     82  F   UNL A   1      40.254  25.416  28.744  1.00  0.00    -0.203 F 
ATOM     83  F   UNL A   1      43.339  27.765  24.910  1.00  0.00    -0.200 F 
ATOM     84  C   UNL A   1      42.145  25.884  25.692  1.00  0.00     0.200 A 
ATOM     85  F   UNL A   1      40.916  24.041  26.509  1.00  0.00    -0.200 F 
ATOM     86  F   UNL A   1      42.445  25.210  24.574  1.00  0.00    -0.200 F 
ENDBRANCH  52  76
BRANCH  64  87
ATOM     87  C   UNL A   1      44.356  27.638  34.403  1.00  0.00     0.064 A 
ATOM     88  C   UNL A   1      45.661  28.153  34.361  1.00  0.00     0.173 A 
ATOM     89  C   UNL A   1      44.148  26.447  35.117  1.00  0.00     0.173 A 
ATOM     90  F   UNL A   1      45.919  29.282  33.683  1.00  0.00    -0.203 F 
ATOM     91  C   UNL A   1      46.715  27.490  34.986  1.00  0.00     0.198 A 
ATOM     92  C   UNL A   1      45.198  25.804  35.769  1.00  0.00     0.198 A 
ATOM     93  F   UNL A   1      42.920  25.912  35.199  1.00  0.00    -0.203 F 
ATOM     94  F   UNL A   1      47.960  27.977  34.892  1.00  0.00    -0.200 F 
ATOM     95  C   UNL A   1      46.481  26.322  35.696  1.00  0.00     0.200 A 
ATOM     96  F   UNL A   1      44.966  24.685  36.469  1.00  0.00    -0.200 F 
ATOM     97  F   UNL A   1      47.495  25.692  36.306  1.00  0.00    -0.200 F 
ENDBRANCH  64  87
ENDBRANCH  38  39
ENDBRANCH  31  33
ENDBRANCH  30  31
ENDBRANCH  29  30
ENDBRANCH  28  29
ENDBRANCH  27  28
ENDBRANCH  26  27
ENDBRANCH   1  26
TORSDOF 21
ENDMDL
MODEL 3
REMARK VINA RESULT:     -10.2      1.567      7.348
REMARK SMILES O=C(Cc1ccn[nH]1)NC[C@H]1CCCC[C@H]1C(=O)OCCOCCOCCOC(=O)c1ccc(-c2c3nc(c(-c4c(F)c(F)c(F)c(F)c4F)c4ccc([nH]4)c(-c4c(F)c(F)c(F)c(F)c4F)c4nc(c(-c5c(F)c(F)c(F)c(F)c5F)c5ccc2[nH]5)C=C4)C=C3)cc1
REMARK SMILES IDX 23 1 22 2 21 3 20 4 19 5 17 6 18 7 16 8 11 9 12 10 13 11
REMARK SMILES IDX 15 12 14 13 10 14 9 15 1 16 2 17 3 19 4 20 5 21 8 22 6 23
REMARK SMILES IDX 7 24 24 26 25 27 26 28 27 29 28 30 29 31 30 32 31 33 32 34
REMARK SMILES IDX 93 35 33 36 92 37 34 38 35 39 36 40 86 41 37 42 91 43 85 44
REMARK SMILES IDX 87 45 38 46 90 47 84 48 83 49 39 51 71 52 51 53 70 54 52 55
REMARK SMILES IDX 55 56 69 57 88 58 53 59 54 60 68 62 89 63 56 64 40 65 41 66
REMARK SMILES IDX 49 67 42 68 43 69 47 70 50 71 44 72 45 73 48 74 46 75 72 76
REMARK SMILES IDX 73 77 81 78 74 79 75 80 79 81 82 82 76 83 77 84 80 85 78 86
REMARK SMILES IDX 57 87 58 88 66 89 59 90 60 91 64 92 67 93 61 94 62 95 65 96
REMARK SMILES IDX 63 97
REMARK H PARENT 9 18 8 25 87 50 55 61
REMARK Flexibility Score: inf
ROOT
ATOM      1  C   UNL A   1      32.058  29.616  24.515  1.00  0.00     0.188 C 
ENDROOT
BRANCH   1   2
ATOM      2  O   UNL A   1      33.228  28.812  24.565  1.00  0.00    -0.376 OA
BRANCH   2   3
ATOM      3  C   UNL A   1      34.011  28.891  25.756  1.00  0.00     0.202 C 
BRANCH   3   4
ATOM      4  C   UNL A   1      33.694  27.869  26.857  1.00  0.00     0.261 C 
BRANCH   4   5
ATOM      5  O   UNL A   1      33.438  26.529  26.378  1.00  0.00    -0.463 OA
BRANCH   5   6
ATOM      6  C   UNL A   1      32.134  26.172  26.310  1.00  0.00     0.309 C 
ATOM      7  O   UNL A   1      31.226  26.769  26.884  1.00  0.00    -0.252 OA
BRANCH   6   8
ATOM      8  C   UNL A   1      31.831  24.986  25.394  1.00  0.00     0.104 C 
ATOM      9  C   UNL A   1      30.737  25.055  24.293  1.00  0.00     0.022 C 
ATOM     10  C   UNL A   1      30.655  23.697  23.540  1.00  0.00     0.006 C 
ATOM     11  C   UNL A   1      32.004  23.115  23.100  1.00  0.00     0.000 C 
ATOM     12  C   UNL A   1      33.172  24.415  24.911  1.00  0.00     0.016 C 
ATOM     13  C   UNL A   1      33.006  23.062  24.240  1.00  0.00     0.001 C 
BRANCH   9  14
ATOM     14  C   UNL A   1      30.756  26.235  23.296  1.00  0.00     0.120 C 
BRANCH  14  15
ATOM     15  N   UNL A   1      29.619  27.112  23.430  1.00  0.00    -0.355 N 
ATOM     16  O   UNL A   1      30.216  28.607  21.790  1.00  0.00    -0.275 OA
ATOM     17  C   UNL A   1      29.446  28.257  22.680  1.00  0.00     0.226 C 
ATOM     18  H   UNL A   1      28.927  26.880  24.092  1.00  0.00     0.163 HD
BRANCH  17  19
ATOM     19  C   UNL A   1      28.271  29.121  23.127  1.00  0.00     0.155 C 
BRANCH  19  20
ATOM     20  C   UNL A   1      28.167  30.393  22.356  1.00  0.00     0.044 A 
ATOM     21  C   UNL A   1      28.222  31.708  22.769  1.00  0.00     0.045 A 
ATOM     22  N   UNL A   1      27.917  30.452  21.010  1.00  0.00    -0.282 N 
ATOM     23  C   UNL A   1      28.030  32.466  21.600  1.00  0.00     0.135 A 
ATOM     24  N   UNL A   1      27.856  31.698  20.525  1.00  0.00    -0.184 NA
ATOM     25  H   UNL A   1      27.792  29.652  20.452  1.00  0.00     0.190 HD
ENDBRANCH  19  20
ENDBRANCH  17  19
ENDBRANCH  14  15
ENDBRANCH   9  14
ENDBRANCH   6   8
ENDBRANCH   5   6
ENDBRANCH   4   5
ENDBRANCH   3   4
ENDBRANCH   2   3
ENDBRANCH   1   2
BRANCH   1  26
ATOM     26  C   UNL A   1      31.600  30.240  25.833  1.00  0.00     0.188 C 
BRANCH  26  27
ATOM     27  O   UNL A   1      31.051  31.548  25.753  1.00  0.00    -0.376 OA
BRANCH  27  28
ATOM     28  C   UNL A   1      31.356  32.421  26.850  1.00  0.00     0.202 C 
BRANCH  28  29
ATOM     29  C   UNL A   1      32.836  32.511  27.286  1.00  0.00     0.261 C 
BRANCH  29  30
ATOM     30  O   UNL A   1      33.428  33.831  27.251  1.00  0.00    -0.460 OA
BRANCH  30  31
ATOM     31  C   UNL A   1      33.414  34.566  28.386  1.00  0.00     0.338 C 
ATOM     32  O   UNL A   1      32.525  35.314  28.754  1.00  0.00    -0.246 OA
BRANCH  31  33
ATOM     33  C   UNL A   1      34.526  34.106  29.269  1.00  0.00     0.060 A 
ATOM     34  C   UNL A   1      35.843  34.288  28.819  1.00  0.00     0.016 A 
ATOM     35  C   UNL A   1      34.302  33.583  30.546  1.00  0.00     0.016 A 
ATOM     36  C   UNL A   1      36.928  33.906  29.614  1.00  0.00     0.010 A 
ATOM     37  C   UNL A   1      35.389  33.185  31.338  1.00  0.00     0.010 A 
ATOM     38  C   UNL A   1      36.707  33.310  30.862  1.00  0.00    -0.014 A 
BRANCH  38  39
ATOM     39  C   UNL A   1      37.826  32.620  31.561  1.00  0.00     0.031 A 
ATOM     40  C   UNL A   1      38.511  31.484  30.850  1.00  0.00     0.074 A 
ATOM     41  C   UNL A   1      38.250  32.986  32.784  1.00  0.00     0.049 A 
ATOM     42  N   UNL A   1      39.473  30.695  31.262  1.00  0.00    -0.248 NA
ATOM     43  C   UNL A   1      38.040  31.197  29.487  1.00  0.00     0.031 C 
ATOM     44  C   UNL A   1      37.708  34.086  33.576  1.00  0.00     0.029 A 
ATOM     45  N   UNL A   1      39.237  32.450  33.579  1.00  0.00    -0.354 N 
ATOM     46  C   UNL A   1      39.712  29.816  30.214  1.00  0.00     0.074 A 
ATOM     47  C   UNL A   1      38.773  30.145  29.163  1.00  0.00     0.031 C 
ATOM     48  C   UNL A   1      38.353  34.130  34.756  1.00  0.00     0.029 A 
ATOM     49  C   UNL A   1      39.331  33.041  34.815  1.00  0.00     0.049 A 
ATOM     50  H   UNL A   1      39.820  31.712  33.290  1.00  0.00     0.167 HD
ATOM     51  C   UNL A   1      40.633  28.826  30.129  1.00  0.00     0.037 A 
ATOM     52  C   UNL A   1      40.096  32.724  35.880  1.00  0.00     0.037 A 
ATOM     53  C   UNL A   1      41.567  28.490  31.170  1.00  0.00     0.049 A 
ATOM     54  C   UNL A   1      41.070  31.574  35.792  1.00  0.00     0.074 A 
ATOM     55  C   UNL A   1      42.558  27.524  31.160  1.00  0.00     0.029 A 
ATOM     56  N   UNL A   1      41.614  29.099  32.415  1.00  0.00    -0.354 N 
ATOM     57  N   UNL A   1      41.317  30.770  34.785  1.00  0.00    -0.248 NA
ATOM     58  C   UNL A   1      41.876  31.290  36.990  1.00  0.00     0.031 C 
ATOM     59  C   UNL A   1      43.160  27.503  32.422  1.00  0.00     0.029 A 
ATOM     60  C   UNL A   1      42.594  28.503  33.196  1.00  0.00     0.049 A 
ATOM     61  H   UNL A   1      41.038  29.843  32.703  1.00  0.00     0.167 HD
ATOM     62  C   UNL A   1      42.318  29.908  35.217  1.00  0.00     0.074 A 
ATOM     63  C   UNL A   1      42.645  30.292  36.574  1.00  0.00     0.031 C 
ATOM     64  C   UNL A   1      42.915  28.890  34.547  1.00  0.00     0.037 A 
BRANCH  51  65
ATOM     65  C   UNL A   1      40.641  28.005  28.870  1.00  0.00     0.064 A 
ATOM     66  C   UNL A   1      39.883  26.832  28.743  1.00  0.00     0.173 A 
ATOM     67  C   UNL A   1      41.420  28.404  27.774  1.00  0.00     0.173 A 
ATOM     68  F   UNL A   1      39.132  26.397  29.768  1.00  0.00    -0.203 F 
ATOM     69  C   UNL A   1      39.938  26.065  27.582  1.00  0.00     0.198 A 
ATOM     70  C   UNL A   1      41.445  27.656  26.601  1.00  0.00     0.198 A 
ATOM     71  F   UNL A   1      42.161  29.521  27.840  1.00  0.00    -0.203 F 
ATOM     72  F   UNL A   1      39.258  24.912  27.508  1.00  0.00    -0.200 F 
ATOM     73  C   UNL A   1      40.714  26.481  26.510  1.00  0.00     0.200 A 
ATOM     74  F   UNL A   1      42.184  28.066  25.562  1.00  0.00    -0.200 F 
ATOM     75  F   UNL A   1      40.767  25.742  25.393  1.00  0.00    -0.200 F 
ENDBRANCH  51  65
BRANCH  52  76
ATOM     76  C   UNL A   1      39.952  33.493  37.146  1.00  0.00     0.064 A 
ATOM     77  C   UNL A   1      39.028  33.115  38.129  1.00  0.00     0.173 A 
ATOM     78  C   UNL A   1      40.730  34.637  37.388  1.00  0.00     0.173 A 
ATOM     79  F   UNL A   1      38.236  32.052  37.931  1.00  0.00    -0.203 F 
ATOM     80  C   UNL A   1      38.880  33.857  39.302  1.00  0.00     0.198 A 
ATOM     81  C   UNL A   1      40.601  35.359  38.573  1.00  0.00     0.198 A 
ATOM     82  F   UNL A   1      41.621  35.047  36.475  1.00  0.00    -0.203 F 
ATOM     83  F   UNL A   1      37.957  33.500  40.205  1.00  0.00    -0.200 F 
ATOM     84  C   UNL A   1      39.673  34.972  39.526  1.00  0.00     0.200 A 
ATOM     85  F   UNL A   1      41.376  36.431  38.787  1.00  0.00    -0.200 F 
ATOM     86  F   UNL A   1      39.535  35.679  40.656  1.00  0.00    -0.200 F 
ENDBRANCH  52  76
BRANCH  64  87
ATOM     87  C   UNL A   1      44.008  28.133  35.250  1.00  0.00     0.064 A 
ATOM     88  C   UNL A   1      43.740  27.011  36.049  1.00  0.00     0.173 A 
ATOM     89  C   UNL A   1      45.352  28.506  35.080  1.00  0.00     0.173 A 
ATOM     90  F   UNL A   1      42.474  26.617  36.254  1.00  0.00    -0.203 F 
ATOM     91  C   UNL A   1      44.770  26.308  36.669  1.00  0.00     0.198 A 
ATOM     92  C   UNL A   1      46.382  27.781  35.675  1.00  0.00     0.198 A 
ATOM     93  F   UNL A   1      45.669  29.565  34.320  1.00  0.00    -0.203 F 
ATOM     94  F   UNL A   1      44.485  25.268  37.465  1.00  0.00    -0.200 F 
ATOM     95  C   UNL A   1      46.089  26.688  36.475  1.00  0.00     0.200 A 
ATOM     96  F   UNL A   1      47.657  28.140  35.471  1.00  0.00    -0.200 F 
ATOM     97  F   UNL A   1      47.080  26.003  37.064  1.00  0.00    -0.200 F 
ENDBRANCH  64  87
ENDBRANCH  38  39
ENDBRANCH  31  33
ENDBRANCH  30  31
ENDBRANCH  29  30
ENDBRANCH  28  29
ENDBRANCH  27  28
ENDBRANCH  26  27
ENDBRANCH   1  26
TORSDOF 21
ENDMDL
