MODEL 1
REMARK VINA RESULT:     -12.5      0.000      0.000
REMARK SMILES Cc1c(N[C@@H]2CC[C@@H]([NH3+])C2)cccc1C(=O)OCCOCCOCCOC(=O)c1ccc(-c2c3nc(c(-c4c(F)c(F)c(F)c(F)c4F)c4ccc([nH]4)c(-c4c(F)c(F)c(F)c(F)c4F)c4nc(c(-c5c(F)c(F)c(F)c(F)c5F)c5ccc2[nH]5)C=C4)C=C3)cc1
REMARK SMILES IDX 21 1 20 2 19 3 18 4 17 5 15 6 16 7 14 8 1 9 2 10 3 11 11 12
REMARK SMILES IDX 13 13 12 14 4 15 5 17 6 18 10 19 7 20 8 21 9 22 22 26 23 27
REMARK SMILES IDX 24 28 25 29 26 30 27 31 28 32 29 33 30 34 91 35 31 36 90 37
REMARK SMILES IDX 32 38 33 39 34 40 84 41 35 42 89 43 83 44 85 45 36 46 88 47
REMARK SMILES IDX 82 48 81 49 37 51 69 52 49 53 68 54 50 55 53 56 67 57 86 58
REMARK SMILES IDX 51 59 52 60 66 62 87 63 54 64 38 65 39 66 47 67 40 68 41 69
REMARK SMILES IDX 45 70 48 71 42 72 43 73 46 74 44 75 70 76 71 77 79 78 72 79
REMARK SMILES IDX 73 80 77 81 80 82 74 83 75 84 78 85 76 86 55 87 56 88 64 89
REMARK SMILES IDX 57 90 58 91 62 92 65 93 59 94 60 95 63 96 61 97
REMARK H PARENT 4 16 9 23 9 24 9 25 85 50 53 61
REMARK Flexibility Score: inf
ROOT
ATOM      1  C   UNL A   1      33.652  26.650  25.808  1.00  0.00     0.188 C 
ENDROOT
BRANCH   1   2
ATOM      2  O   UNL A   1      34.037  25.287  26.090  1.00  0.00    -0.376 OA
BRANCH   2   3
ATOM      3  C   UNL A   1      35.058  24.522  25.425  1.00  0.00     0.202 C 
BRANCH   3   4
ATOM      4  C   UNL A   1      35.097  23.970  23.799  1.00  0.00     0.261 C 
BRANCH   4   5
ATOM      5  O   UNL A   1      34.182  24.461  22.403  1.00  0.00    -0.460 OA
BRANCH   5   6
ATOM      6  C   UNL A   1      32.975  25.179  22.043  1.00  0.00     0.338 C 
ATOM      7  O   UNL A   1      32.480  25.409  20.934  1.00  0.00    -0.246 OA
BRANCH   6   8
ATOM      8  C   UNL A   1      32.022  25.788  22.970  1.00  0.00     0.065 A 
ATOM      9  C   UNL A   1      33.039  27.962  22.351  1.00  0.00     0.047 C 
ATOM     10  C   UNL A   1      31.866  27.149  22.812  1.00  0.00    -0.013 A 
ATOM     11  C   UNL A   1      30.560  27.661  22.870  1.00  0.00     0.038 A 
ATOM     12  C   UNL A   1      29.512  26.866  23.382  1.00  0.00     0.026 A 
ATOM     13  C   UNL A   1      30.904  24.972  23.346  1.00  0.00     0.016 A 
ATOM     14  C   UNL A   1      29.669  25.515  23.621  1.00  0.00     0.003 A 
BRANCH  11  15
ATOM     15  N   UNL A   1      30.365  28.933  22.376  1.00  0.00    -0.382 N 
ATOM     16  H   UNL A   1      31.061  29.270  21.766  1.00  0.00     0.160 HD
BRANCH  15  17
ATOM     17  C   UNL A   1      29.274  29.830  22.638  1.00  0.00     0.085 C 
ATOM     18  C   UNL A   1      28.855  30.626  21.402  1.00  0.00     0.031 C 
ATOM     19  C   UNL A   1      29.525  30.821  23.771  1.00  0.00     0.089 C 
ATOM     20  C   UNL A   1      28.726  32.068  21.883  1.00  0.00     0.067 C 
ATOM     21  C   UNL A   1      28.615  31.991  23.409  1.00  0.00     0.182 C 
BRANCH  21  22
ATOM     22  N   UNL A   1      27.236  31.723  23.818  1.00  0.00    -0.355 N 
ATOM     23  H   UNL A   1      27.153  31.835  24.828  1.00  0.00     0.344 HD
ATOM     24  H   UNL A   1      26.985  30.770  23.559  1.00  0.00     0.344 HD
ATOM     25  H   UNL A   1      26.609  32.379  23.350  1.00  0.00     0.344 HD
ENDBRANCH  21  22
ENDBRANCH  15  17
ENDBRANCH  11  15
ENDBRANCH   6   8
ENDBRANCH   5   6
ENDBRANCH   4   5
ENDBRANCH   3   4
ENDBRANCH   2   3
ENDBRANCH   1   2
BRANCH   1  26
ATOM     26  C   UNL A   1      33.299  27.696  26.866  1.00  0.00     0.188 C 
BRANCH  26  27
ATOM     27  O   UNL A   1      32.419  28.664  26.341  1.00  0.00    -0.376 OA
BRANCH  27  28
ATOM     28  C   UNL A   1      33.007  29.872  25.897  1.00  0.00     0.202 C 
BRANCH  28  29
ATOM     29  C   UNL A   1      32.608  31.123  26.713  1.00  0.00     0.261 C 
BRANCH  29  30
ATOM     30  O   UNL A   1      33.305  31.194  27.985  1.00  0.00    -0.460 OA
BRANCH  30  31
ATOM     31  C   UNL A   1      34.623  31.622  27.985  1.00  0.00     0.338 C 
ATOM     32  O   UNL A   1      34.994  32.701  27.612  1.00  0.00    -0.246 OA
BRANCH  31  33
ATOM     33  C   UNL A   1      35.528  30.452  28.300  1.00  0.00     0.060 A 
ATOM     34  C   UNL A   1      35.993  30.019  29.553  1.00  0.00     0.016 A 
ATOM     35  C   UNL A   1      36.244  30.023  27.251  1.00  0.00     0.016 A 
ATOM     36  C   UNL A   1      37.288  29.334  29.706  1.00  0.00     0.010 A 
ATOM     37  C   UNL A   1      37.574  29.759  27.529  1.00  0.00     0.010 A 
ATOM     38  C   UNL A   1      38.210  29.213  28.662  1.00  0.00    -0.014 A 
BRANCH  38  39
ATOM     39  C   UNL A   1      39.795  28.628  28.689  1.00  0.00     0.031 A 
ATOM     40  C   UNL A   1      40.549  27.084  28.338  1.00  0.00     0.074 A 
ATOM     41  C   UNL A   1      40.693  29.552  29.091  1.00  0.00     0.049 A 
ATOM     42  N   UNL A   1      41.636  26.634  28.934  1.00  0.00    -0.248 NA
ATOM     43  C   UNL A   1      40.080  25.884  27.465  1.00  0.00     0.031 C 
ATOM     44  C   UNL A   1      42.150  29.494  29.058  1.00  0.00     0.029 A 
ATOM     45  N   UNL A   1      40.425  30.782  29.713  1.00  0.00    -0.354 N 
ATOM     46  C   UNL A   1      41.896  25.345  28.432  1.00  0.00     0.074 A 
ATOM     47  C   UNL A   1      40.700  24.829  27.947  1.00  0.00     0.031 C 
ATOM     48  C   UNL A   1      42.629  30.418  29.910  1.00  0.00     0.029 A 
ATOM     49  C   UNL A   1      41.486  30.988  30.602  1.00  0.00     0.049 A 
ATOM     50  H   UNL A   1      39.655  31.374  29.556  1.00  0.00     0.167 HD
ATOM     51  C   UNL A   1      43.129  24.829  28.198  1.00  0.00     0.037 A 
ATOM     52  C   UNL A   1      41.244  30.954  31.940  1.00  0.00     0.037 A 
ATOM     53  C   UNL A   1      44.039  25.559  29.035  1.00  0.00     0.049 A 
ATOM     54  C   UNL A   1      42.026  29.832  32.587  1.00  0.00     0.074 A 
ATOM     55  C   UNL A   1      44.819  26.677  28.831  1.00  0.00     0.029 A 
ATOM     56  N   UNL A   1      43.777  25.488  30.397  1.00  0.00    -0.354 N 
ATOM     57  N   UNL A   1      42.481  28.783  31.948  1.00  0.00    -0.248 NA
ATOM     58  C   UNL A   1      42.437  29.859  33.983  1.00  0.00     0.031 C 
ATOM     59  C   UNL A   1      44.841  27.385  30.074  1.00  0.00     0.029 A 
ATOM     60  C   UNL A   1      44.149  26.653  31.032  1.00  0.00     0.049 A 
ATOM     61  H   UNL A   1      43.377  24.710  30.848  1.00  0.00     0.167 HD
ATOM     62  C   UNL A   1      43.224  28.013  32.800  1.00  0.00     0.074 A 
ATOM     63  C   UNL A   1      43.179  28.742  34.056  1.00  0.00     0.031 C 
ATOM     64  C   UNL A   1      43.821  26.834  32.445  1.00  0.00     0.037 A 
BRANCH  51  65
ATOM     65  C   UNL A   1      43.452  23.733  27.164  1.00  0.00     0.064 A 
ATOM     66  C   UNL A   1      42.988  22.421  27.371  1.00  0.00     0.173 A 
ATOM     67  C   UNL A   1      44.288  23.854  26.010  1.00  0.00     0.173 A 
ATOM     68  F   UNL A   1      42.247  22.124  28.447  1.00  0.00    -0.203 F 
ATOM     69  C   UNL A   1      43.296  21.355  26.502  1.00  0.00     0.198 A 
ATOM     70  C   UNL A   1      44.529  22.812  25.105  1.00  0.00     0.198 A 
ATOM     71  F   UNL A   1      44.995  24.953  25.726  1.00  0.00    -0.203 F 
ATOM     72  F   UNL A   1      42.875  20.117  26.793  1.00  0.00    -0.200 F 
ATOM     73  C   UNL A   1      44.045  21.554  25.358  1.00  0.00     0.200 A 
ATOM     74  F   UNL A   1      45.279  23.038  24.013  1.00  0.00    -0.200 F 
ATOM     75  F   UNL A   1      44.332  20.541  24.529  1.00  0.00    -0.200 F 
ENDBRANCH  51  65
BRANCH  52  76
ATOM     76  C   UNL A   1      39.904  31.531  32.314  1.00  0.00     0.064 A 
ATOM     77  C   UNL A   1      39.659  32.883  31.954  1.00  0.00     0.173 A 
ATOM     78  C   UNL A   1      38.782  30.774  32.669  1.00  0.00     0.173 A 
ATOM     79  F   UNL A   1      40.685  33.685  31.627  1.00  0.00    -0.203 F 
ATOM     80  C   UNL A   1      38.369  33.392  31.795  1.00  0.00     0.198 A 
ATOM     81  C   UNL A   1      37.483  31.309  32.556  1.00  0.00     0.198 A 
ATOM     82  F   UNL A   1      38.906  29.477  32.983  1.00  0.00    -0.203 F 
ATOM     83  F   UNL A   1      38.192  34.620  31.281  1.00  0.00    -0.200 F 
ATOM     84  C   UNL A   1      37.279  32.598  32.078  1.00  0.00     0.200 A 
ATOM     85  F   UNL A   1      36.415  30.519  32.756  1.00  0.00    -0.200 F 
ATOM     86  F   UNL A   1      36.039  33.040  31.817  1.00  0.00    -0.200 F 
ENDBRANCH  52  76
BRANCH  64  87
ATOM     87  C   UNL A   1      44.152  25.740  33.448  1.00  0.00     0.064 A 
ATOM     88  C   UNL A   1      43.215  25.217  34.359  1.00  0.00     0.173 A 
ATOM     89  C   UNL A   1      45.388  25.049  33.408  1.00  0.00     0.173 A 
ATOM     90  F   UNL A   1      41.947  25.650  34.397  1.00  0.00    -0.203 F 
ATOM     91  C   UNL A   1      43.525  24.177  35.236  1.00  0.00     0.198 A 
ATOM     92  C   UNL A   1      45.654  23.939  34.209  1.00  0.00     0.198 A 
ATOM     93  F   UNL A   1      46.369  25.400  32.564  1.00  0.00    -0.203 F 
ATOM     94  F   UNL A   1      42.621  23.790  36.145  1.00  0.00    -0.200 F 
ATOM     95  C   UNL A   1      44.738  23.527  35.150  1.00  0.00     0.200 A 
ATOM     96  F   UNL A   1      46.801  23.262  34.047  1.00  0.00    -0.200 F 
ATOM     97  F   UNL A   1      45.011  22.493  35.956  1.00  0.00    -0.200 F 
ENDBRANCH  64  87
ENDBRANCH  38  39
ENDBRANCH  31  33
ENDBRANCH  30  31
ENDBRANCH  29  30
ENDBRANCH  28  29
ENDBRANCH  27  28
ENDBRANCH  26  27
ENDBRANCH   1  26
TORSDOF 20
ENDMDL
MODEL 2
REMARK VINA RESULT:     -12.3      1.845      2.838
REMARK SMILES Cc1c(N[C@@H]2CC[C@@H]([NH3+])C2)cccc1C(=O)OCCOCCOCCOC(=O)c1ccc(-c2c3nc(c(-c4c(F)c(F)c(F)c(F)c4F)c4ccc([nH]4)c(-c4c(F)c(F)c(F)c(F)c4F)c4nc(c(-c5c(F)c(F)c(F)c(F)c5F)c5ccc2[nH]5)C=C4)C=C3)cc1
REMARK SMILES IDX 21 1 20 2 19 3 18 4 17 5 15 6 16 7 14 8 1 9 2 10 3 11 11 12
REMARK SMILES IDX 13 13 12 14 4 15 5 17 6 18 10 19 7 20 8 21 9 22 22 26 23 27
REMARK SMILES IDX 24 28 25 29 26 30 27 31 28 32 29 33 30 34 91 35 31 36 90 37
REMARK SMILES IDX 32 38 33 39 34 40 84 41 35 42 89 43 83 44 85 45 36 46 88 47
REMARK SMILES IDX 82 48 81 49 37 51 69 52 49 53 68 54 50 55 53 56 67 57 86 58
REMARK SMILES IDX 51 59 52 60 66 62 87 63 54 64 38 65 39 66 47 67 40 68 41 69
REMARK SMILES IDX 45 70 48 71 42 72 43 73 46 74 44 75 70 76 71 77 79 78 72 79
REMARK SMILES IDX 73 80 77 81 80 82 74 83 75 84 78 85 76 86 55 87 56 88 64 89
REMARK SMILES IDX 57 90 58 91 62 92 65 93 59 94 60 95 63 96 61 97
REMARK H PARENT 4 16 9 23 9 24 9 25 85 50 53 61
REMARK Flexibility Score: inf
ROOT
ATOM      1  C   UNL A   1      34.838  24.765  25.977  1.00  0.00     0.188 C 
ENDROOT
BRANCH   1   2
ATOM      2  O   UNL A   1      35.440  23.484  26.265  1.00  0.00    -0.376 OA
BRANCH   2   3
ATOM      3  C   UNL A   1      35.877  22.501  25.310  1.00  0.00     0.202 C 
BRANCH   3   4
ATOM      4  C   UNL A   1      36.235  22.710  23.643  1.00  0.00     0.261 C 
BRANCH   4   5
ATOM      5  O   UNL A   1      35.201  23.049  22.286  1.00  0.00    -0.460 OA
BRANCH   5   6
ATOM      6  C   UNL A   1      33.862  23.513  21.977  1.00  0.00     0.338 C 
ATOM      7  O   UNL A   1      33.237  23.505  20.911  1.00  0.00    -0.246 OA
BRANCH   6   8
ATOM      8  C   UNL A   1      32.909  24.093  22.923  1.00  0.00     0.065 A 
ATOM      9  C   UNL A   1      33.669  26.305  22.102  1.00  0.00     0.047 C 
ATOM     10  C   UNL A   1      32.611  25.418  22.688  1.00  0.00    -0.013 A 
ATOM     11  C   UNL A   1      31.266  25.808  22.797  1.00  0.00     0.038 A 
ATOM     12  C   UNL A   1      30.333  24.954  23.426  1.00  0.00     0.026 A 
ATOM     13  C   UNL A   1      31.901  23.203  23.422  1.00  0.00     0.016 A 
ATOM     14  C   UNL A   1      30.637  23.644  23.740  1.00  0.00     0.003 A 
BRANCH  11  15
ATOM     15  N   UNL A   1      30.917  27.018  22.236  1.00  0.00    -0.382 N 
ATOM     16  H   UNL A   1      31.083  27.108  21.270  1.00  0.00     0.160 HD
BRANCH  15  17
ATOM     17  C   UNL A   1      30.344  28.164  22.884  1.00  0.00     0.085 C 
ATOM     18  C   UNL A   1      28.870  27.967  23.238  1.00  0.00     0.031 C 
ATOM     19  C   UNL A   1      30.466  29.466  22.095  1.00  0.00     0.089 C 
ATOM     20  C   UNL A   1      28.175  29.242  22.773  1.00  0.00     0.067 C 
ATOM     21  C   UNL A   1      29.283  30.285  22.605  1.00  0.00     0.182 C 
BRANCH  21  22
ATOM     22  N   UNL A   1      29.602  30.917  23.885  1.00  0.00    -0.355 N 
ATOM     23  H   UNL A   1      28.764  30.952  24.466  1.00  0.00     0.344 HD
ATOM     24  H   UNL A   1      29.942  31.864  23.720  1.00  0.00     0.344 HD
ATOM     25  H   UNL A   1      30.324  30.375  24.361  1.00  0.00     0.344 HD
ENDBRANCH  21  22
ENDBRANCH  15  17
ENDBRANCH  11  15
ENDBRANCH   6   8
ENDBRANCH   5   6
ENDBRANCH   4   5
ENDBRANCH   3   4
ENDBRANCH   2   3
ENDBRANCH   1   2
BRANCH   1  26
ATOM     26  C   UNL A   1      33.382  25.133  26.263  1.00  0.00     0.188 C 
BRANCH  26  27
ATOM     27  O   UNL A   1      33.122  26.470  25.903  1.00  0.00    -0.376 OA
BRANCH  27  28
ATOM     28  C   UNL A   1      31.935  27.041  26.422  1.00  0.00     0.202 C 
BRANCH  28  29
ATOM     29  C   UNL A   1      31.824  28.573  26.246  1.00  0.00     0.261 C 
BRANCH  29  30
ATOM     30  O   UNL A   1      33.083  29.248  26.510  1.00  0.00    -0.460 OA
BRANCH  30  31
ATOM     31  C   UNL A   1      33.041  30.558  26.959  1.00  0.00     0.338 C 
ATOM     32  O   UNL A   1      32.308  31.407  26.530  1.00  0.00    -0.246 OA
BRANCH  31  33
ATOM     33  C   UNL A   1      34.205  30.803  27.891  1.00  0.00     0.060 A 
ATOM     34  C   UNL A   1      35.030  31.938  27.980  1.00  0.00     0.016 A 
ATOM     35  C   UNL A   1      34.723  29.685  28.421  1.00  0.00     0.016 A 
ATOM     36  C   UNL A   1      36.433  31.845  28.421  1.00  0.00     0.010 A 
ATOM     37  C   UNL A   1      36.105  29.633  28.422  1.00  0.00     0.010 A 
ATOM     38  C   UNL A   1      37.086  30.626  28.620  1.00  0.00    -0.014 A 
BRANCH  38  39
ATOM     39  C   UNL A   1      38.715  30.319  28.947  1.00  0.00     0.031 A 
ATOM     40  C   UNL A   1      39.798  28.966  28.674  1.00  0.00     0.074 A 
ATOM     41  C   UNL A   1      39.327  31.339  29.585  1.00  0.00     0.049 A 
ATOM     42  N   UNL A   1      40.810  28.653  29.459  1.00  0.00    -0.248 NA
ATOM     43  C   UNL A   1      39.744  27.795  27.651  1.00  0.00     0.031 C 
ATOM     44  C   UNL A   1      40.747  31.532  29.859  1.00  0.00     0.029 A 
ATOM     45  N   UNL A   1      38.717  32.438  30.208  1.00  0.00    -0.354 N 
ATOM     46  C   UNL A   1      41.400  27.482  28.947  1.00  0.00     0.074 A 
ATOM     47  C   UNL A   1      40.441  26.819  28.190  1.00  0.00     0.031 C 
ATOM     48  C   UNL A   1      40.867  32.437  30.847  1.00  0.00     0.029 A 
ATOM     49  C   UNL A   1      39.523  32.735  31.314  1.00  0.00     0.049 A 
ATOM     50  H   UNL A   1      37.897  32.904  29.927  1.00  0.00     0.167 HD
ATOM     51  C   UNL A   1      42.729  27.208  28.951  1.00  0.00     0.037 A 
ATOM     52  C   UNL A   1      39.031  32.531  32.565  1.00  0.00     0.037 A 
ATOM     53  C   UNL A   1      43.303  27.997  30.004  1.00  0.00     0.049 A 
ATOM     54  C   UNL A   1      39.865  31.501  33.295  1.00  0.00     0.074 A 
ATOM     55  C   UNL A   1      43.885  29.246  30.037  1.00  0.00     0.029 A 
ATOM     56  N   UNL A   1      42.794  27.751  31.272  1.00  0.00    -0.354 N 
ATOM     57  N   UNL A   1      40.625  30.611  32.707  1.00  0.00    -0.248 NA
ATOM     58  C   UNL A   1      39.979  31.461  34.746  1.00  0.00     0.031 C 
ATOM     59  C   UNL A   1      43.528  29.824  31.296  1.00  0.00     0.029 A 
ATOM     60  C   UNL A   1      42.809  28.896  32.040  1.00  0.00     0.049 A 
ATOM     61  H   UNL A   1      42.465  26.876  31.580  1.00  0.00     0.167 HD
ATOM     62  C   UNL A   1      41.314  29.900  33.649  1.00  0.00     0.074 A 
ATOM     63  C   UNL A   1      40.887  30.486  34.908  1.00  0.00     0.031 C 
ATOM     64  C   UNL A   1      42.180  28.880  33.359  1.00  0.00     0.037 A 
BRANCH  51  65
ATOM     65  C   UNL A   1      43.449  26.288  27.945  1.00  0.00     0.064 A 
ATOM     66  C   UNL A   1      44.186  26.853  26.888  1.00  0.00     0.173 A 
ATOM     67  C   UNL A   1      43.384  24.861  27.881  1.00  0.00     0.173 A 
ATOM     68  F   UNL A   1      44.287  28.183  26.764  1.00  0.00    -0.203 F 
ATOM     69  C   UNL A   1      44.817  26.076  25.895  1.00  0.00     0.198 A 
ATOM     70  C   UNL A   1      44.076  24.087  26.939  1.00  0.00     0.198 A 
ATOM     71  F   UNL A   1      42.585  24.125  28.660  1.00  0.00    -0.203 F 
ATOM     72  F   UNL A   1      45.449  26.680  24.880  1.00  0.00    -0.200 F 
ATOM     73  C   UNL A   1      44.783  24.695  25.934  1.00  0.00     0.200 A 
ATOM     74  F   UNL A   1      44.004  22.747  26.997  1.00  0.00    -0.200 F 
ATOM     75  F   UNL A   1      45.390  23.958  24.994  1.00  0.00    -0.200 F 
ENDBRANCH  51  65
BRANCH  52  76
ATOM     76  C   UNL A   1      37.561  32.832  32.679  1.00  0.00     0.064 A 
ATOM     77  C   UNL A   1      37.196  34.171  32.984  1.00  0.00     0.173 A 
ATOM     78  C   UNL A   1      36.539  32.012  32.188  1.00  0.00     0.173 A 
ATOM     79  F   UNL A   1      38.112  35.015  33.487  1.00  0.00    -0.203 F 
ATOM     80  C   UNL A   1      35.945  34.698  32.660  1.00  0.00     0.198 A 
ATOM     81  C   UNL A   1      35.260  32.536  31.910  1.00  0.00     0.198 A 
ATOM     82  F   UNL A   1      36.793  30.745  31.832  1.00  0.00    -0.203 F 
ATOM     83  F   UNL A   1      35.713  36.012  32.806  1.00  0.00    -0.200 F 
ATOM     84  C   UNL A   1      34.981  33.883  32.105  1.00  0.00     0.200 A 
ATOM     85  F   UNL A   1      34.343  31.769  31.298  1.00  0.00    -0.200 F 
ATOM     86  F   UNL A   1      33.820  34.407  31.684  1.00  0.00    -0.200 F 
ENDBRANCH  52  76
BRANCH  64  87
ATOM     87  C   UNL A   1      42.503  27.766  34.342  1.00  0.00     0.064 A 
ATOM     88  C   UNL A   1      41.606  26.728  34.658  1.00  0.00     0.173 A 
ATOM     89  C   UNL A   1      43.806  27.604  34.875  1.00  0.00     0.173 A 
ATOM     90  F   UNL A   1      40.392  26.647  34.095  1.00  0.00    -0.203 F 
ATOM     91  C   UNL A   1      41.942  25.686  35.523  1.00  0.00     0.198 A 
ATOM     92  C   UNL A   1      44.169  26.504  35.650  1.00  0.00     0.198 A 
ATOM     93  F   UNL A   1      44.785  28.487  34.632  1.00  0.00    -0.203 F 
ATOM     94  F   UNL A   1      41.012  24.782  35.859  1.00  0.00    -0.200 F 
ATOM     95  C   UNL A   1      43.228  25.564  36.006  1.00  0.00     0.200 A 
ATOM     96  F   UNL A   1      45.446  26.353  36.033  1.00  0.00    -0.200 F 
ATOM     97  F   UNL A   1      43.562  24.533  36.792  1.00  0.00    -0.200 F 
ENDBRANCH  64  87
ENDBRANCH  38  39
ENDBRANCH  31  33
ENDBRANCH  30  31
ENDBRANCH  29  30
ENDBRANCH  28  29
ENDBRANCH  27  28
ENDBRANCH  26  27
ENDBRANCH   1  26
TORSDOF 20
ENDMDL
MODEL 3
REMARK VINA RESULT:     -12.2      4.262     10.049
REMARK SMILES Cc1c(N[C@@H]2CC[C@@H]([NH3+])C2)cccc1C(=O)OCCOCCOCCOC(=O)c1ccc(-c2c3nc(c(-c4c(F)c(F)c(F)c(F)c4F)c4ccc([nH]4)c(-c4c(F)c(F)c(F)c(F)c4F)c4nc(c(-c5c(F)c(F)c(F)c(F)c5F)c5ccc2[nH]5)C=C4)C=C3)cc1
REMARK SMILES IDX 21 1 20 2 19 3 18 4 17 5 15 6 16 7 14 8 1 9 2 10 3 11 11 12
REMARK SMILES IDX 13 13 12 14 4 15 5 17 6 18 10 19 7 20 8 21 9 22 22 26 23 27
REMARK SMILES IDX 24 28 25 29 26 30 27 31 28 32 29 33 30 34 91 35 31 36 90 37
REMARK SMILES IDX 32 38 33 39 34 40 84 41 35 42 89 43 83 44 85 45 36 46 88 47
REMARK SMILES IDX 82 48 81 49 37 51 69 52 49 53 68 54 50 55 53 56 67 57 86 58
REMARK SMILES IDX 51 59 52 60 66 62 87 63 54 64 38 65 39 66 47 67 40 68 41 69
REMARK SMILES IDX 45 70 48 71 42 72 43 73 46 74 44 75 70 76 71 77 79 78 72 79
REMARK SMILES IDX 73 80 77 81 80 82 74 83 75 84 78 85 76 86 55 87 56 88 64 89
REMARK SMILES IDX 57 90 58 91 62 92 65 93 59 94 60 95 63 96 61 97
REMARK H PARENT 4 16 9 23 9 24 9 25 85 50 53 61
REMARK Flexibility Score: inf
ROOT
ATOM      1  C   UNL A   1      39.592  22.323  26.480  1.00  0.00     0.188 C 
ENDROOT
BRANCH   1   2
ATOM      2  O   UNL A   1      38.835  21.500  25.567  1.00  0.00    -0.376 OA
BRANCH   2   3
ATOM      3  C   UNL A   1      37.415  21.545  25.338  1.00  0.00     0.202 C 
BRANCH   3   4
ATOM      4  C   UNL A   1      36.546  22.449  24.164  1.00  0.00     0.261 C 
BRANCH   4   5
ATOM      5  O   UNL A   1      35.766  24.000  24.264  1.00  0.00    -0.460 OA
BRANCH   5   6
ATOM      6  C   UNL A   1      34.471  24.625  24.074  1.00  0.00     0.338 C 
ATOM      7  O   UNL A   1      34.150  25.622  23.419  1.00  0.00    -0.246 OA
BRANCH   6   8
ATOM      8  C   UNL A   1      33.199  24.160  24.626  1.00  0.00     0.065 A 
ATOM      9  C   UNL A   1      33.081  22.636  22.675  1.00  0.00     0.047 C 
ATOM     10  C   UNL A   1      32.754  22.965  24.101  1.00  0.00    -0.013 A 
ATOM     11  C   UNL A   1      32.220  22.024  24.997  1.00  0.00     0.038 A 
ATOM     12  C   UNL A   1      31.867  22.418  26.306  1.00  0.00     0.026 A 
ATOM     13  C   UNL A   1      32.960  24.477  26.004  1.00  0.00     0.016 A 
ATOM     14  C   UNL A   1      32.235  23.643  26.826  1.00  0.00     0.003 A 
BRANCH  11  15
ATOM     15  N   UNL A   1      32.103  20.727  24.545  1.00  0.00    -0.382 N 
ATOM     16  H   UNL A   1      31.509  20.593  23.772  1.00  0.00     0.160 HD
BRANCH  15  17
ATOM     17  C   UNL A   1      32.737  19.547  25.061  1.00  0.00     0.085 C 
ATOM     18  C   UNL A   1      34.261  19.657  25.082  1.00  0.00     0.031 C 
ATOM     19  C   UNL A   1      32.370  18.258  24.329  1.00  0.00     0.089 C 
ATOM     20  C   UNL A   1      34.764  18.345  24.486  1.00  0.00     0.067 C 
ATOM     21  C   UNL A   1      33.587  17.369  24.575  1.00  0.00     0.182 C 
BRANCH  21  22
ATOM     22  N   UNL A   1      33.521  16.751  25.898  1.00  0.00    -0.355 N 
ATOM     23  H   UNL A   1      32.623  16.280  26.010  1.00  0.00     0.344 HD
ATOM     24  H   UNL A   1      33.619  17.471  26.614  1.00  0.00     0.344 HD
ATOM     25  H   UNL A   1      34.276  16.071  25.995  1.00  0.00     0.344 HD
ENDBRANCH  21  22
ENDBRANCH  15  17
ENDBRANCH  11  15
ENDBRANCH   6   8
ENDBRANCH   5   6
ENDBRANCH   4   5
ENDBRANCH   3   4
ENDBRANCH   2   3
ENDBRANCH   1   2
BRANCH   1  26
ATOM     26  C   UNL A   1      41.116  22.448  26.487  1.00  0.00     0.188 C 
BRANCH  26  27
ATOM     27  O   UNL A   1      41.518  23.650  27.104  1.00  0.00    -0.376 OA
BRANCH  27  28
ATOM     28  C   UNL A   1      42.300  24.529  26.317  1.00  0.00     0.202 C 
BRANCH  28  29
ATOM     29  C   UNL A   1      42.900  25.727  27.089  1.00  0.00     0.261 C 
BRANCH  29  30
ATOM     30  O   UNL A   1      43.634  26.629  26.219  1.00  0.00    -0.460 OA
BRANCH  30  31
ATOM     31  C   UNL A   1      42.909  27.488  25.408  1.00  0.00     0.338 C 
ATOM     32  O   UNL A   1      42.866  27.426  24.209  1.00  0.00    -0.246 OA
BRANCH  31  33
ATOM     33  C   UNL A   1      42.385  28.636  26.240  1.00  0.00     0.060 A 
ATOM     34  C   UNL A   1      43.040  29.347  27.259  1.00  0.00     0.016 A 
ATOM     35  C   UNL A   1      41.048  28.729  26.254  1.00  0.00     0.016 A 
ATOM     36  C   UNL A   1      42.300  29.961  28.376  1.00  0.00     0.010 A 
ATOM     37  C   UNL A   1      40.498  28.966  27.502  1.00  0.00     0.010 A 
ATOM     38  C   UNL A   1      40.937  29.744  28.592  1.00  0.00    -0.014 A 
BRANCH  38  39
ATOM     39  C   UNL A   1      39.967  30.209  29.895  1.00  0.00     0.031 A 
ATOM     40  C   UNL A   1      38.901  31.564  30.223  1.00  0.00     0.074 A 
ATOM     41  C   UNL A   1      40.039  29.356  30.939  1.00  0.00     0.049 A 
ATOM     42  N   UNL A   1      38.691  32.072  31.421  1.00  0.00    -0.248 NA
ATOM     43  C   UNL A   1      38.152  32.537  29.268  1.00  0.00     0.031 C 
ATOM     44  C   UNL A   1      39.218  29.306  32.144  1.00  0.00     0.029 A 
ATOM     45  N   UNL A   1      40.986  28.341  31.141  1.00  0.00    -0.354 N 
ATOM     46  C   UNL A   1      37.829  33.175  31.271  1.00  0.00     0.074 A 
ATOM     47  C   UNL A   1      37.951  33.635  29.964  1.00  0.00     0.031 C 
ATOM     48  C   UNL A   1      39.878  28.592  33.075  1.00  0.00     0.029 A 
ATOM     49  C   UNL A   1      41.189  28.291  32.525  1.00  0.00     0.049 A 
ATOM     50  H   UNL A   1      41.417  27.781  30.455  1.00  0.00     0.167 HD
ATOM     51  C   UNL A   1      36.855  33.533  32.145  1.00  0.00     0.037 A 
ATOM     52  C   UNL A   1      42.392  28.673  33.033  1.00  0.00     0.037 A 
ATOM     53  C   UNL A   1      37.223  32.974  33.414  1.00  0.00     0.049 A 
ATOM     54  C   UNL A   1      42.221  29.865  33.948  1.00  0.00     0.074 A 
ATOM     55  C   UNL A   1      36.916  31.791  34.050  1.00  0.00     0.029 A 
ATOM     56  N   UNL A   1      38.447  33.399  33.914  1.00  0.00    -0.354 N 
ATOM     57  N   UNL A   1      41.204  30.689  33.909  1.00  0.00    -0.248 NA
ATOM     58  C   UNL A   1      43.136  30.159  35.042  1.00  0.00     0.031 C 
ATOM     59  C   UNL A   1      38.083  31.414  34.787  1.00  0.00     0.029 A 
ATOM     60  C   UNL A   1      39.048  32.406  34.658  1.00  0.00     0.049 A 
ATOM     61  H   UNL A   1      38.835  34.290  33.757  1.00  0.00     0.167 HD
ATOM     62  C   UNL A   1      41.306  31.594  34.928  1.00  0.00     0.074 A 
ATOM     63  C   UNL A   1      42.524  31.205  35.617  1.00  0.00     0.031 C 
ATOM     64  C   UNL A   1      40.410  32.605  35.149  1.00  0.00     0.037 A 
BRANCH  51  65
ATOM     65  C   UNL A   1      35.576  34.313  31.779  1.00  0.00     0.064 A 
ATOM     66  C   UNL A   1      35.090  35.302  32.653  1.00  0.00     0.173 A 
ATOM     67  C   UNL A   1      34.718  34.085  30.658  1.00  0.00     0.173 A 
ATOM     68  F   UNL A   1      35.743  35.589  33.787  1.00  0.00    -0.203 F 
ATOM     69  C   UNL A   1      33.895  36.011  32.415  1.00  0.00     0.198 A 
ATOM     70  C   UNL A   1      33.572  34.844  30.383  1.00  0.00     0.198 A 
ATOM     71  F   UNL A   1      34.874  33.067  29.806  1.00  0.00    -0.203 F 
ATOM     72  F   UNL A   1      33.455  36.896  33.320  1.00  0.00    -0.200 F 
ATOM     73  C   UNL A   1      33.150  35.800  31.271  1.00  0.00     0.200 A 
ATOM     74  F   UNL A   1      32.861  34.597  29.270  1.00  0.00    -0.200 F 
ATOM     75  F   UNL A   1      32.018  36.480  31.043  1.00  0.00    -0.200 F 
ENDBRANCH  51  65
BRANCH  52  76
ATOM     76  C   UNL A   1      43.552  28.299  32.149  1.00  0.00     0.064 A 
ATOM     77  C   UNL A   1      44.182  29.349  31.429  1.00  0.00     0.173 A 
ATOM     78  C   UNL A   1      44.263  27.096  32.233  1.00  0.00     0.173 A 
ATOM     79  F   UNL A   1      43.554  30.526  31.277  1.00  0.00    -0.203 F 
ATOM     80  C   UNL A   1      45.499  29.259  30.975  1.00  0.00     0.198 A 
ATOM     81  C   UNL A   1      45.574  26.993  31.727  1.00  0.00     0.198 A 
ATOM     82  F   UNL A   1      43.770  26.061  32.926  1.00  0.00    -0.203 F 
ATOM     83  F   UNL A   1      46.105  30.341  30.460  1.00  0.00    -0.200 F 
ATOM     84  C   UNL A   1      46.203  28.085  31.141  1.00  0.00     0.200 A 
ATOM     85  F   UNL A   1      46.292  25.881  31.953  1.00  0.00    -0.200 F 
ATOM     86  F   UNL A   1      47.503  28.030  30.813  1.00  0.00    -0.200 F 
ENDBRANCH  52  76
BRANCH  64  87
ATOM     87  C   UNL A   1      40.775  33.889  35.877  1.00  0.00     0.064 A 
ATOM     88  C   UNL A   1      40.768  34.012  37.280  1.00  0.00     0.173 A 
ATOM     89  C   UNL A   1      41.319  35.001  35.187  1.00  0.00     0.173 A 
ATOM     90  F   UNL A   1      40.445  32.987  38.078  1.00  0.00    -0.203 F 
ATOM     91  C   UNL A   1      41.157  35.185  37.929  1.00  0.00     0.198 A 
ATOM     92  C   UNL A   1      41.809  36.128  35.847  1.00  0.00     0.198 A 
ATOM     93  F   UNL A   1      41.431  35.021  33.852  1.00  0.00    -0.203 F 
ATOM     94  F   UNL A   1      41.036  35.272  39.260  1.00  0.00    -0.200 F 
ATOM     95  C   UNL A   1      41.693  36.236  37.215  1.00  0.00     0.200 A 
ATOM     96  F   UNL A   1      42.411  37.099  35.146  1.00  0.00    -0.200 F 
ATOM     97  F   UNL A   1      42.116  37.339  37.846  1.00  0.00    -0.200 F 
ENDBRANCH  64  87
ENDBRANCH  38  39
ENDBRANCH  31  33
ENDBRANCH  30  31
ENDBRANCH  29  30
ENDBRANCH  28  29
ENDBRANCH  27  28
ENDBRANCH  26  27
ENDBRANCH   1  26
TORSDOF 20
ENDMDL
