MODEL 1
REMARK VINA RESULT:     -10.7      0.000      0.000
REMARK SMILES C[C@@H](CC(=O)NC(=O)N(C)C[C@@H]1CCC[N@H+]1C)CC(=O)OCCOCCOCCOC(=O)c1ccc(-c2c3nc(c(-c4c(F)c(F)c(F)c(F)c4F)c4ccc([nH]4)c(-c4c(F)c(F)c(F)c(F)c4F)c4nc(c(-c5c(F)c(F)c(F)c(F)c5F)c5ccc2[nH]5)C=C4)C=C3)cc1
REMARK SMILES IDX 23 1 22 2 21 3 19 4 20 5 18 6 2 7 1 8 3 9 4 10 5 11 6 12
REMARK SMILES IDX 7 13 8 15 9 16 10 17 11 18 12 19 13 20 16 21 14 22 15 23
REMARK SMILES IDX 17 24 24 26 25 27 26 28 27 29 28 30 29 31 30 32 31 33 32 34
REMARK SMILES IDX 33 35 34 36 95 37 35 38 94 39 36 40 37 41 38 42 88 43 39 44
REMARK SMILES IDX 93 45 87 46 89 47 40 48 92 49 86 50 85 51 41 53 73 54 53 55
REMARK SMILES IDX 72 56 54 57 57 58 71 59 90 60 55 61 56 62 70 64 91 65 58 66
REMARK SMILES IDX 42 67 43 68 51 69 44 70 45 71 49 72 52 73 46 74 47 75 50 76
REMARK SMILES IDX 48 77 74 78 75 79 83 80 76 81 77 82 81 83 84 84 78 85 79 86
REMARK SMILES IDX 82 87 80 88 59 89 60 90 68 91 61 92 62 93 66 94 69 95 63 96
REMARK SMILES IDX 64 97 67 98 65 99
REMARK H PARENT 6 14 16 25 89 52 57 63
REMARK Flexibility Score: inf
ROOT
ATOM      1  C   UNL A   1      34.744  30.990  27.609  1.00  0.00     0.202 C 
ENDROOT
BRANCH   1   2
ATOM      2  C   UNL A   1      33.896  30.073  26.707  1.00  0.00     0.261 C 
BRANCH   2   3
ATOM      3  O   UNL A   1      33.593  28.793  27.303  1.00  0.00    -0.463 OA
BRANCH   3   4
ATOM      4  C   UNL A   1      32.978  27.841  26.550  1.00  0.00     0.306 C 
ATOM      5  O   UNL A   1      32.430  26.846  27.007  1.00  0.00    -0.252 OA
BRANCH   4   6
ATOM      6  C   UNL A   1      33.052  28.132  25.044  1.00  0.00     0.126 C 
BRANCH   6   7
ATOM      7  C   UNL A   1      31.714  28.006  24.281  1.00  0.00     0.006 C 
ATOM      8  C   UNL A   1      31.006  29.350  24.281  1.00  0.00     0.009 C 
BRANCH   7   9
ATOM      9  C   UNL A   1      31.813  27.397  22.867  1.00  0.00     0.104 C 
BRANCH   9  10
ATOM     10  C   UNL A   1      33.175  26.928  22.380  1.00  0.00     0.228 C 
ATOM     11  O   UNL A   1      33.939  27.746  21.855  1.00  0.00    -0.275 OA
ATOM     12  N   UNL A   1      33.611  25.614  22.484  1.00  0.00    -0.278 N 
ATOM     13  C   UNL A   1      33.050  24.359  22.289  1.00  0.00     0.323 C 
ATOM     14  H   UNL A   1      34.553  25.559  22.765  1.00  0.00     0.174 HD
ATOM     15  O   UNL A   1      33.470  23.694  21.340  1.00  0.00    -0.248 OA
BRANCH  13  16
ATOM     16  N   UNL A   1      32.148  23.856  23.212  1.00  0.00    -0.322 N 
ATOM     17  C   UNL A   1      30.745  24.242  23.215  1.00  0.00     0.149 C 
BRANCH  16  18
ATOM     18  C   UNL A   1      32.681  23.398  24.519  1.00  0.00     0.185 C 
BRANCH  18  19
ATOM     19  C   UNL A   1      33.153  21.924  24.838  1.00  0.00     0.203 C 
ATOM     20  C   UNL A   1      32.670  20.995  23.703  1.00  0.00     0.073 C 
ATOM     21  N   UNL A   1      32.790  21.164  26.047  1.00  0.00    -0.333 N 
ATOM     22  C   UNL A   1      32.537  19.599  24.288  1.00  0.00     0.068 C 
ATOM     23  C   UNL A   1      32.975  19.737  25.724  1.00  0.00     0.262 C 
ATOM     24  C   UNL A   1      33.683  21.465  27.156  1.00  0.00     0.333 C 
ATOM     25  H   UNL A   1      31.834  21.401  26.316  1.00  0.00     0.348 HD
ENDBRANCH  18  19
ENDBRANCH  16  18
ENDBRANCH  13  16
ENDBRANCH   9  10
ENDBRANCH   7   9
ENDBRANCH   6   7
ENDBRANCH   4   6
ENDBRANCH   3   4
ENDBRANCH   2   3
ENDBRANCH   1   2
BRANCH   1  26
ATOM     26  O   UNL A   1      33.983  31.837  28.465  1.00  0.00    -0.376 OA
BRANCH  26  27
ATOM     27  C   UNL A   1      33.236  32.813  27.746  1.00  0.00     0.188 C 
BRANCH  27  28
ATOM     28  C   UNL A   1      33.511  34.209  28.247  1.00  0.00     0.188 C 
BRANCH  28  29
ATOM     29  O   UNL A   1      32.930  34.498  29.518  1.00  0.00    -0.376 OA
BRANCH  29  30
ATOM     30  C   UNL A   1      33.817  35.111  30.449  1.00  0.00     0.202 C 
BRANCH  30  31
ATOM     31  C   UNL A   1      34.347  34.187  31.562  1.00  0.00     0.261 C 
BRANCH  31  32
ATOM     32  O   UNL A   1      35.411  33.326  31.116  1.00  0.00    -0.460 OA
BRANCH  32  33
ATOM     33  C   UNL A   1      35.965  32.528  32.066  1.00  0.00     0.338 C 
ATOM     34  O   UNL A   1      35.576  32.369  33.213  1.00  0.00    -0.246 OA
BRANCH  33  35
ATOM     35  C   UNL A   1      36.982  31.655  31.422  1.00  0.00     0.060 A 
ATOM     36  C   UNL A   1      37.642  30.697  32.214  1.00  0.00     0.016 A 
ATOM     37  C   UNL A   1      37.236  31.721  30.052  1.00  0.00     0.016 A 
ATOM     38  C   UNL A   1      38.567  29.820  31.646  1.00  0.00     0.010 A 
ATOM     39  C   UNL A   1      38.193  30.875  29.490  1.00  0.00     0.010 A 
ATOM     40  C   UNL A   1      38.889  29.950  30.292  1.00  0.00    -0.014 A 
BRANCH  40  41
ATOM     41  C   UNL A   1      40.158  29.393  29.771  1.00  0.00     0.031 A 
ATOM     42  C   UNL A   1      41.305  30.355  29.631  1.00  0.00     0.074 A 
ATOM     43  C   UNL A   1      40.288  28.113  29.383  1.00  0.00     0.049 A 
ATOM     44  N   UNL A   1      42.443  30.217  29.004  1.00  0.00    -0.248 NA
ATOM     45  C   UNL A   1      41.128  31.668  30.277  1.00  0.00     0.031 C 
ATOM     46  C   UNL A   1      39.279  27.070  29.536  1.00  0.00     0.029 A 
ATOM     47  N   UNL A   1      41.331  27.487  28.747  1.00  0.00    -0.354 N 
ATOM     48  C   UNL A   1      43.098  31.433  29.154  1.00  0.00     0.074 A 
ATOM     49  C   UNL A   1      42.230  32.301  29.915  1.00  0.00     0.031 C 
ATOM     50  C   UNL A   1      39.740  25.937  28.975  1.00  0.00     0.029 A 
ATOM     51  C   UNL A   1      41.052  26.193  28.381  1.00  0.00     0.049 A 
ATOM     52  H   UNL A   1      42.195  27.924  28.570  1.00  0.00     0.167 HD
ATOM     53  C   UNL A   1      44.315  31.794  28.690  1.00  0.00     0.037 A 
ATOM     54  C   UNL A   1      41.762  25.339  27.616  1.00  0.00     0.037 A 
ATOM     55  C   UNL A   1      45.168  30.926  27.930  1.00  0.00     0.049 A 
ATOM     56  C   UNL A   1      43.083  25.790  27.036  1.00  0.00     0.074 A 
ATOM     57  C   UNL A   1      46.422  31.188  27.410  1.00  0.00     0.029 A 
ATOM     58  N   UNL A   1      44.848  29.622  27.579  1.00  0.00    -0.354 N 
ATOM     59  N   UNL A   1      43.700  26.940  27.170  1.00  0.00    -0.248 NA
ATOM     60  C   UNL A   1      43.804  24.826  26.190  1.00  0.00     0.031 C 
ATOM     61  C   UNL A   1      46.838  30.060  26.697  1.00  0.00     0.029 A 
ATOM     62  C   UNL A   1      45.874  29.073  26.832  1.00  0.00     0.049 A 
ATOM     63  H   UNL A   1      44.015  29.158  27.826  1.00  0.00     0.167 HD
ATOM     64  C   UNL A   1      44.895  26.821  26.469  1.00  0.00     0.074 A 
ATOM     65  C   UNL A   1      44.916  25.489  25.904  1.00  0.00     0.031 C 
ATOM     66  C   UNL A   1      45.890  27.729  26.314  1.00  0.00     0.037 A 
BRANCH  53  67
ATOM     67  C   UNL A   1      44.767  33.199  28.955  1.00  0.00     0.064 A 
ATOM     68  C   UNL A   1      45.471  33.543  30.119  1.00  0.00     0.173 A 
ATOM     69  C   UNL A   1      44.500  34.213  28.024  1.00  0.00     0.173 A 
ATOM     70  F   UNL A   1      45.729  32.615  31.052  1.00  0.00    -0.203 F 
ATOM     71  C   UNL A   1      45.869  34.857  30.352  1.00  0.00     0.198 A 
ATOM     72  C   UNL A   1      44.929  35.519  28.244  1.00  0.00     0.198 A 
ATOM     73  F   UNL A   1      43.825  33.938  26.898  1.00  0.00    -0.203 F 
ATOM     74  F   UNL A   1      46.490  35.174  31.496  1.00  0.00    -0.200 F 
ATOM     75  C   UNL A   1      45.605  35.841  29.410  1.00  0.00     0.200 A 
ATOM     76  F   UNL A   1      44.681  36.466  27.329  1.00  0.00    -0.200 F 
ATOM     77  F   UNL A   1      45.995  37.104  29.633  1.00  0.00    -0.200 F 
ENDBRANCH  53  67
BRANCH  54  78
ATOM     78  C   UNL A   1      41.234  23.979  27.323  1.00  0.00     0.064 A 
ATOM     79  C   UNL A   1      40.104  23.802  26.511  1.00  0.00     0.173 A 
ATOM     80  C   UNL A   1      41.824  22.831  27.874  1.00  0.00     0.173 A 
ATOM     81  F   UNL A   1      39.484  24.870  25.987  1.00  0.00    -0.203 F 
ATOM     82  C   UNL A   1      39.574  22.534  26.278  1.00  0.00     0.198 A 
ATOM     83  C   UNL A   1      41.311  21.561  27.615  1.00  0.00     0.198 A 
ATOM     84  F   UNL A   1      42.901  22.943  28.666  1.00  0.00    -0.203 F 
ATOM     85  F   UNL A   1      38.461  22.401  25.544  1.00  0.00    -0.200 F 
ATOM     86  C   UNL A   1      40.181  21.415  26.825  1.00  0.00     0.200 A 
ATOM     87  F   UNL A   1      41.905  20.481  28.141  1.00  0.00    -0.200 F 
ATOM     88  F   UNL A   1      39.670  20.196  26.602  1.00  0.00    -0.200 F 
ENDBRANCH  54  78
BRANCH  66  89
ATOM     89  C   UNL A   1      47.128  27.304  25.579  1.00  0.00     0.064 A 
ATOM     90  C   UNL A   1      47.335  27.616  24.230  1.00  0.00     0.173 A 
ATOM     91  C   UNL A   1      48.167  26.664  26.276  1.00  0.00     0.173 A 
ATOM     92  F   UNL A   1      46.370  28.219  23.519  1.00  0.00    -0.203 F 
ATOM     93  C   UNL A   1      48.536  27.297  23.600  1.00  0.00     0.198 A 
ATOM     94  C   UNL A   1      49.376  26.373  25.651  1.00  0.00     0.198 A 
ATOM     95  F   UNL A   1      48.020  26.354  27.573  1.00  0.00    -0.203 F 
ATOM     96  F   UNL A   1      48.706  27.581  22.302  1.00  0.00    -0.200 F 
ATOM     97  C   UNL A   1      49.559  26.688  24.314  1.00  0.00     0.200 A 
ATOM     98  F   UNL A   1      50.369  25.804  26.349  1.00  0.00    -0.200 F 
ATOM     99  F   UNL A   1      50.722  26.406  23.713  1.00  0.00    -0.200 F 
ENDBRANCH  66  89
ENDBRANCH  40  41
ENDBRANCH  33  35
ENDBRANCH  32  33
ENDBRANCH  31  32
ENDBRANCH  30  31
ENDBRANCH  29  30
ENDBRANCH  28  29
ENDBRANCH  27  28
ENDBRANCH  26  27
ENDBRANCH   1  26
TORSDOF 23
ENDMDL
MODEL 2
REMARK VINA RESULT:     -10.6      1.602      3.716
REMARK SMILES C[C@@H](CC(=O)NC(=O)N(C)C[C@@H]1CCC[N@H+]1C)CC(=O)OCCOCCOCCOC(=O)c1ccc(-c2c3nc(c(-c4c(F)c(F)c(F)c(F)c4F)c4ccc([nH]4)c(-c4c(F)c(F)c(F)c(F)c4F)c4nc(c(-c5c(F)c(F)c(F)c(F)c5F)c5ccc2[nH]5)C=C4)C=C3)cc1
REMARK SMILES IDX 23 1 22 2 21 3 19 4 20 5 18 6 2 7 1 8 3 9 4 10 5 11 6 12
REMARK SMILES IDX 7 13 8 15 9 16 10 17 11 18 12 19 13 20 16 21 14 22 15 23
REMARK SMILES IDX 17 24 24 26 25 27 26 28 27 29 28 30 29 31 30 32 31 33 32 34
REMARK SMILES IDX 33 35 34 36 95 37 35 38 94 39 36 40 37 41 38 42 88 43 39 44
REMARK SMILES IDX 93 45 87 46 89 47 40 48 92 49 86 50 85 51 41 53 73 54 53 55
REMARK SMILES IDX 72 56 54 57 57 58 71 59 90 60 55 61 56 62 70 64 91 65 58 66
REMARK SMILES IDX 42 67 43 68 51 69 44 70 45 71 49 72 52 73 46 74 47 75 50 76
REMARK SMILES IDX 48 77 74 78 75 79 83 80 76 81 77 82 81 83 84 84 78 85 79 86
REMARK SMILES IDX 82 87 80 88 59 89 60 90 68 91 61 92 62 93 66 94 69 95 63 96
REMARK SMILES IDX 64 97 67 98 65 99
REMARK H PARENT 6 14 16 25 89 52 57 63
REMARK Flexibility Score: inf
ROOT
ATOM      1  C   UNL A   1      34.760  30.975  27.734  1.00  0.00     0.202 C 
ENDROOT
BRANCH   1   2
ATOM      2  C   UNL A   1      33.765  30.016  27.052  1.00  0.00     0.261 C 
BRANCH   2   3
ATOM      3  O   UNL A   1      34.401  28.997  26.249  1.00  0.00    -0.463 OA
BRANCH   3   4
ATOM      4  C   UNL A   1      33.697  28.413  25.242  1.00  0.00     0.306 C 
ATOM      5  O   UNL A   1      33.611  28.864  24.107  1.00  0.00    -0.252 OA
BRANCH   4   6
ATOM      6  C   UNL A   1      32.995  27.118  25.678  1.00  0.00     0.126 C 
BRANCH   6   7
ATOM      7  C   UNL A   1      33.334  25.868  24.835  1.00  0.00     0.006 C 
ATOM      8  C   UNL A   1      34.358  25.024  25.575  1.00  0.00     0.009 C 
BRANCH   7   9
ATOM      9  C   UNL A   1      32.122  25.038  24.365  1.00  0.00     0.104 C 
BRANCH   9  10
ATOM     10  C   UNL A   1      30.846  25.097  25.191  1.00  0.00     0.228 C 
ATOM     11  O   UNL A   1      30.664  24.251  26.074  1.00  0.00    -0.275 OA
ATOM     12  N   UNL A   1      29.858  26.053  25.001  1.00  0.00    -0.278 N 
ATOM     13  C   UNL A   1      29.240  26.645  23.907  1.00  0.00     0.323 C 
ATOM     14  H   UNL A   1      29.508  26.397  25.854  1.00  0.00     0.174 HD
ATOM     15  O   UNL A   1      28.051  26.380  23.719  1.00  0.00    -0.248 OA
BRANCH  13  16
ATOM     16  N   UNL A   1      29.924  27.582  23.151  1.00  0.00    -0.322 N 
ATOM     17  C   UNL A   1      31.012  27.213  22.257  1.00  0.00     0.149 C 
BRANCH  16  18
ATOM     18  C   UNL A   1      29.964  28.978  23.655  1.00  0.00     0.185 C 
BRANCH  18  19
ATOM     19  C   UNL A   1      29.010  30.142  23.174  1.00  0.00     0.203 C 
ATOM     20  C   UNL A   1      28.314  29.701  21.868  1.00  0.00     0.073 C 
ATOM     21  N   UNL A   1      29.443  31.513  22.856  1.00  0.00    -0.333 N 
ATOM     22  C   UNL A   1      27.951  30.962  21.102  1.00  0.00     0.068 C 
ATOM     23  C   UNL A   1      28.406  32.096  21.985  1.00  0.00     0.262 C 
ATOM     24  C   UNL A   1      29.509  32.344  24.049  1.00  0.00     0.333 C 
ATOM     25  H   UNL A   1      30.368  31.479  22.424  1.00  0.00     0.348 HD
ENDBRANCH  18  19
ENDBRANCH  16  18
ENDBRANCH  13  16
ENDBRANCH   9  10
ENDBRANCH   7   9
ENDBRANCH   6   7
ENDBRANCH   4   6
ENDBRANCH   3   4
ENDBRANCH   2   3
ENDBRANCH   1   2
BRANCH   1  26
ATOM     26  O   UNL A   1      34.149  31.967  28.555  1.00  0.00    -0.376 OA
BRANCH  26  27
ATOM     27  C   UNL A   1      33.368  32.891  27.804  1.00  0.00     0.188 C 
BRANCH  27  28
ATOM     28  C   UNL A   1      33.518  34.300  28.321  1.00  0.00     0.188 C 
BRANCH  28  29
ATOM     29  O   UNL A   1      32.910  34.524  29.592  1.00  0.00    -0.376 OA
BRANCH  29  30
ATOM     30  C   UNL A   1      33.741  35.192  30.537  1.00  0.00     0.202 C 
BRANCH  30  31
ATOM     31  C   UNL A   1      34.308  34.303  31.661  1.00  0.00     0.261 C 
BRANCH  31  32
ATOM     32  O   UNL A   1      35.406  33.481  31.225  1.00  0.00    -0.460 OA
BRANCH  32  33
ATOM     33  C   UNL A   1      35.942  32.661  32.166  1.00  0.00     0.338 C 
ATOM     34  O   UNL A   1      35.545  32.492  33.308  1.00  0.00    -0.246 OA
BRANCH  33  35
ATOM     35  C   UNL A   1      36.951  31.783  31.516  1.00  0.00     0.060 A 
ATOM     36  C   UNL A   1      37.570  30.783  32.289  1.00  0.00     0.016 A 
ATOM     37  C   UNL A   1      37.235  31.885  30.153  1.00  0.00     0.016 A 
ATOM     38  C   UNL A   1      38.484  29.901  31.713  1.00  0.00     0.010 A 
ATOM     39  C   UNL A   1      38.182  31.033  29.585  1.00  0.00     0.010 A 
ATOM     40  C   UNL A   1      38.837  30.065  30.371  1.00  0.00    -0.014 A 
BRANCH  40  41
ATOM     41  C   UNL A   1      40.103  29.492  29.858  1.00  0.00     0.031 A 
ATOM     42  C   UNL A   1      41.259  30.442  29.715  1.00  0.00     0.074 A 
ATOM     43  C   UNL A   1      40.222  28.209  29.480  1.00  0.00     0.049 A 
ATOM     44  N   UNL A   1      42.398  30.289  29.092  1.00  0.00    -0.248 NA
ATOM     45  C   UNL A   1      41.093  31.762  30.350  1.00  0.00     0.031 C 
ATOM     46  C   UNL A   1      39.202  27.177  29.638  1.00  0.00     0.029 A 
ATOM     47  N   UNL A   1      41.262  27.568  28.852  1.00  0.00    -0.354 N 
ATOM     48  C   UNL A   1      43.064  31.500  29.235  1.00  0.00     0.074 A 
ATOM     49  C   UNL A   1      42.202  32.382  29.987  1.00  0.00     0.031 C 
ATOM     50  C   UNL A   1      39.655  26.034  29.087  1.00  0.00     0.029 A 
ATOM     51  C   UNL A   1      40.971  26.274  28.496  1.00  0.00     0.049 A 
ATOM     52  H   UNL A   1      42.130  27.995  28.675  1.00  0.00     0.167 HD
ATOM     53  C   UNL A   1      44.286  31.846  28.773  1.00  0.00     0.037 A 
ATOM     54  C   UNL A   1      41.675  25.408  27.739  1.00  0.00     0.037 A 
ATOM     55  C   UNL A   1      45.134  30.964  28.022  1.00  0.00     0.049 A 
ATOM     56  C   UNL A   1      43.002  25.841  27.160  1.00  0.00     0.074 A 
ATOM     57  C   UNL A   1      46.391  31.210  27.504  1.00  0.00     0.029 A 
ATOM     58  N   UNL A   1      44.802  29.661  27.680  1.00  0.00    -0.354 N 
ATOM     59  N   UNL A   1      43.630  26.987  27.287  1.00  0.00    -0.248 NA
ATOM     60  C   UNL A   1      43.717  24.864  26.324  1.00  0.00     0.031 C 
ATOM     61  C   UNL A   1      46.799  30.073  26.801  1.00  0.00     0.029 A 
ATOM     62  C   UNL A   1      45.825  29.096  26.941  1.00  0.00     0.049 A 
ATOM     63  H   UNL A   1      43.964  29.207  27.927  1.00  0.00     0.167 HD
ATOM     64  C   UNL A   1      44.826  26.850  26.592  1.00  0.00     0.074 A 
ATOM     65  C   UNL A   1      44.836  25.514  26.037  1.00  0.00     0.031 C 
ATOM     66  C   UNL A   1      45.830  27.748  26.433  1.00  0.00     0.037 A 
BRANCH  53  67
ATOM     67  C   UNL A   1      44.750  33.248  29.028  1.00  0.00     0.064 A 
ATOM     68  C   UNL A   1      44.459  34.298  28.144  1.00  0.00     0.173 A 
ATOM     69  C   UNL A   1      45.489  33.548  30.182  1.00  0.00     0.173 A 
ATOM     70  F   UNL A   1      43.777  34.059  27.013  1.00  0.00    -0.203 F 
ATOM     71  C   UNL A   1      44.911  35.590  28.393  1.00  0.00     0.198 A 
ATOM     72  C   UNL A   1      45.911  34.847  30.446  1.00  0.00     0.198 A 
ATOM     73  F   UNL A   1      45.799  32.580  31.058  1.00  0.00    -0.203 F 
ATOM     74  F   UNL A   1      44.670  36.566  27.507  1.00  0.00    -0.200 F 
ATOM     75  C   UNL A   1      45.630  35.865  29.548  1.00  0.00     0.200 A 
ATOM     76  F   UNL A   1      46.597  35.113  31.566  1.00  0.00    -0.200 F 
ATOM     77  F   UNL A   1      46.059  37.112  29.789  1.00  0.00    -0.200 F 
ENDBRANCH  53  67
BRANCH  54  78
ATOM     78  C   UNL A   1      41.136  24.050  27.455  1.00  0.00     0.064 A 
ATOM     79  C   UNL A   1      41.728  22.907  28.011  1.00  0.00     0.173 A 
ATOM     80  C   UNL A   1      40.042  23.862  26.597  1.00  0.00     0.173 A 
ATOM     81  F   UNL A   1      42.797  23.030  28.812  1.00  0.00    -0.203 F 
ATOM     82  C   UNL A   1      41.259  21.630  27.705  1.00  0.00     0.198 A 
ATOM     83  C   UNL A   1      39.555  22.587  26.316  1.00  0.00     0.198 A 
ATOM     84  F   UNL A   1      39.444  24.921  26.029  1.00  0.00    -0.203 F 
ATOM     85  F   UNL A   1      41.880  20.554  28.208  1.00  0.00    -0.200 F 
ATOM     86  C   UNL A   1      40.170  21.471  26.863  1.00  0.00     0.200 A 
ATOM     87  F   UNL A   1      38.498  22.438  25.507  1.00  0.00    -0.200 F 
ATOM     88  F   UNL A   1      39.722  20.243  26.568  1.00  0.00    -0.200 F 
ENDBRANCH  54  78
BRANCH  66  89
ATOM     89  C   UNL A   1      47.066  27.305  25.705  1.00  0.00     0.064 A 
ATOM     90  C   UNL A   1      47.272  27.589  24.349  1.00  0.00     0.173 A 
ATOM     91  C   UNL A   1      48.105  26.679  26.414  1.00  0.00     0.173 A 
ATOM     92  F   UNL A   1      46.307  28.178  23.628  1.00  0.00    -0.203 F 
ATOM     93  C   UNL A   1      48.471  27.255  23.725  1.00  0.00     0.198 A 
ATOM     94  C   UNL A   1      49.313  26.373  25.794  1.00  0.00     0.198 A 
ATOM     95  F   UNL A   1      47.960  26.397  27.717  1.00  0.00    -0.203 F 
ATOM     96  F   UNL A   1      48.640  27.511  22.420  1.00  0.00    -0.200 F 
ATOM     97  C   UNL A   1      49.494  26.659  24.450  1.00  0.00     0.200 A 
ATOM     98  F   UNL A   1      50.306  25.818  26.502  1.00  0.00    -0.200 F 
ATOM     99  F   UNL A   1      50.656  26.363  23.853  1.00  0.00    -0.200 F 
ENDBRANCH  66  89
ENDBRANCH  40  41
ENDBRANCH  33  35
ENDBRANCH  32  33
ENDBRANCH  31  32
ENDBRANCH  30  31
ENDBRANCH  29  30
ENDBRANCH  28  29
ENDBRANCH  27  28
ENDBRANCH  26  27
ENDBRANCH   1  26
TORSDOF 23
ENDMDL
MODEL 3
REMARK VINA RESULT:     -10.2      5.275      8.204
REMARK SMILES C[C@@H](CC(=O)NC(=O)N(C)C[C@@H]1CCC[N@H+]1C)CC(=O)OCCOCCOCCOC(=O)c1ccc(-c2c3nc(c(-c4c(F)c(F)c(F)c(F)c4F)c4ccc([nH]4)c(-c4c(F)c(F)c(F)c(F)c4F)c4nc(c(-c5c(F)c(F)c(F)c(F)c5F)c5ccc2[nH]5)C=C4)C=C3)cc1
REMARK SMILES IDX 23 1 22 2 21 3 19 4 20 5 18 6 2 7 1 8 3 9 4 10 5 11 6 12
REMARK SMILES IDX 7 13 8 15 9 16 10 17 11 18 12 19 13 20 16 21 14 22 15 23
REMARK SMILES IDX 17 24 24 26 25 27 26 28 27 29 28 30 29 31 30 32 31 33 32 34
REMARK SMILES IDX 33 35 34 36 95 37 35 38 94 39 36 40 37 41 38 42 88 43 39 44
REMARK SMILES IDX 93 45 87 46 89 47 40 48 92 49 86 50 85 51 41 53 73 54 53 55
REMARK SMILES IDX 72 56 54 57 57 58 71 59 90 60 55 61 56 62 70 64 91 65 58 66
REMARK SMILES IDX 42 67 43 68 51 69 44 70 45 71 49 72 52 73 46 74 47 75 50 76
REMARK SMILES IDX 48 77 74 78 75 79 83 80 76 81 77 82 81 83 84 84 78 85 79 86
REMARK SMILES IDX 82 87 80 88 59 89 60 90 68 91 61 92 62 93 66 94 69 95 63 96
REMARK SMILES IDX 64 97 67 98 65 99
REMARK H PARENT 6 14 16 25 89 52 57 63
REMARK Flexibility Score: inf
ROOT
ATOM      1  C   UNL A   1      34.576  29.305  27.533  1.00  0.00     0.202 C 
ENDROOT
BRANCH   1   2
ATOM      2  C   UNL A   1      33.212  28.659  27.227  1.00  0.00     0.261 C 
BRANCH   2   3
ATOM      3  O   UNL A   1      33.312  27.319  26.695  1.00  0.00    -0.463 OA
BRANCH   3   4
ATOM      4  C   UNL A   1      32.195  26.545  26.638  1.00  0.00     0.306 C 
ATOM      5  O   UNL A   1      31.051  26.976  26.710  1.00  0.00    -0.252 OA
BRANCH   4   6
ATOM      6  C   UNL A   1      32.513  25.050  26.489  1.00  0.00     0.126 C 
BRANCH   6   7
ATOM      7  C   UNL A   1      33.566  24.704  25.412  1.00  0.00     0.006 C 
ATOM      8  C   UNL A   1      34.783  24.084  26.077  1.00  0.00     0.009 C 
BRANCH   7   9
ATOM      9  C   UNL A   1      33.050  23.857  24.230  1.00  0.00     0.104 C 
BRANCH   9  10
ATOM     10  C   UNL A   1      33.633  24.118  22.851  1.00  0.00     0.228 C 
ATOM     11  O   UNL A   1      34.588  23.434  22.464  1.00  0.00    -0.275 OA
ATOM     12  N   UNL A   1      33.154  25.099  21.993  1.00  0.00    -0.278 N 
ATOM     13  C   UNL A   1      32.732  26.415  22.121  1.00  0.00     0.323 C 
ATOM     14  H   UNL A   1      33.102  24.783  21.063  1.00  0.00     0.174 HD
ATOM     15  O   UNL A   1      33.436  27.287  21.609  1.00  0.00    -0.248 OA
BRANCH  13  16
ATOM     16  N   UNL A   1      31.504  26.692  22.700  1.00  0.00    -0.322 N 
ATOM     17  C   UNL A   1      30.685  25.658  23.315  1.00  0.00     0.149 C 
BRANCH  16  18
ATOM     18  C   UNL A   1      30.761  27.878  22.206  1.00  0.00     0.185 C 
BRANCH  18  19
ATOM     19  C   UNL A   1      29.925  28.865  23.114  1.00  0.00     0.203 C 
ATOM     20  C   UNL A   1      28.628  29.244  22.366  1.00  0.00     0.073 C 
ATOM     21  N   UNL A   1      30.402  30.171  23.604  1.00  0.00    -0.333 N 
ATOM     22  C   UNL A   1      28.187  30.601  22.887  1.00  0.00     0.068 C 
ATOM     23  C   UNL A   1      29.204  30.962  23.940  1.00  0.00     0.262 C 
ATOM     24  C   UNL A   1      31.173  30.031  24.830  1.00  0.00     0.333 C 
ATOM     25  H   UNL A   1      30.990  30.601  22.889  1.00  0.00     0.348 HD
ENDBRANCH  18  19
ENDBRANCH  16  18
ENDBRANCH  13  16
ENDBRANCH   9  10
ENDBRANCH   7   9
ENDBRANCH   6   7
ENDBRANCH   4   6
ENDBRANCH   3   4
ENDBRANCH   2   3
ENDBRANCH   1   2
BRANCH   1  26
ATOM     26  O   UNL A   1      34.579  30.729  27.467  1.00  0.00    -0.376 OA
BRANCH  26  27
ATOM     27  C   UNL A   1      35.780  31.297  27.979  1.00  0.00     0.188 C 
BRANCH  27  28
ATOM     28  C   UNL A   1      35.589  32.737  28.387  1.00  0.00     0.188 C 
BRANCH  28  29
ATOM     29  O   UNL A   1      34.294  33.027  28.910  1.00  0.00    -0.376 OA
BRANCH  29  30
ATOM     30  C   UNL A   1      33.609  34.084  28.244  1.00  0.00     0.202 C 
BRANCH  30  31
ATOM     31  C   UNL A   1      33.254  35.298  29.123  1.00  0.00     0.261 C 
BRANCH  31  32
ATOM     32  O   UNL A   1      32.528  34.936  30.311  1.00  0.00    -0.460 OA
BRANCH  32  33
ATOM     33  C   UNL A   1      32.844  35.632  31.435  1.00  0.00     0.338 C 
ATOM     34  O   UNL A   1      32.228  36.568  31.920  1.00  0.00    -0.246 OA
BRANCH  33  35
ATOM     35  C   UNL A   1      33.930  34.912  32.152  1.00  0.00     0.060 A 
ATOM     36  C   UNL A   1      35.211  35.495  32.190  1.00  0.00     0.016 A 
ATOM     37  C   UNL A   1      33.685  33.723  32.840  1.00  0.00     0.016 A 
ATOM     38  C   UNL A   1      36.250  34.885  32.894  1.00  0.00     0.010 A 
ATOM     39  C   UNL A   1      34.734  33.088  33.507  1.00  0.00     0.010 A 
ATOM     40  C   UNL A   1      36.026  33.647  33.503  1.00  0.00    -0.014 A 
BRANCH  40  41
ATOM     41  C   UNL A   1      37.168  32.764  33.835  1.00  0.00     0.031 A 
ATOM     42  C   UNL A   1      37.866  33.033  35.139  1.00  0.00     0.074 A 
ATOM     43  C   UNL A   1      37.612  31.804  33.007  1.00  0.00     0.049 A 
ATOM     44  N   UNL A   1      39.010  32.588  35.585  1.00  0.00    -0.248 NA
ATOM     45  C   UNL A   1      37.178  33.955  36.061  1.00  0.00     0.031 C 
ATOM     46  C   UNL A   1      36.979  31.398  31.756  1.00  0.00     0.029 A 
ATOM     47  N   UNL A   1      38.732  31.014  33.095  1.00  0.00    -0.354 N 
ATOM     48  C   UNL A   1      39.191  33.199  36.819  1.00  0.00     0.074 A 
ATOM     49  C   UNL A   1      38.051  34.057  37.048  1.00  0.00     0.031 C 
ATOM     50  C   UNL A   1      37.742  30.454  31.173  1.00  0.00     0.029 A 
ATOM     51  C   UNL A   1      38.937  30.231  31.985  1.00  0.00     0.049 A 
ATOM     52  H   UNL A   1      39.328  31.008  33.878  1.00  0.00     0.167 HD
ATOM     53  C   UNL A   1      40.222  33.061  37.682  1.00  0.00     0.037 A 
ATOM     54  C   UNL A   1      39.995  29.463  31.654  1.00  0.00     0.037 A 
ATOM     55  C   UNL A   1      41.353  32.210  37.443  1.00  0.00     0.049 A 
ATOM     56  C   UNL A   1      41.177  29.387  32.593  1.00  0.00     0.074 A 
ATOM     57  C   UNL A   1      42.455  31.994  38.249  1.00  0.00     0.029 A 
ATOM     58  N   UNL A   1      41.525  31.435  36.305  1.00  0.00    -0.354 N 
ATOM     59  N   UNL A   1      41.353  29.970  33.756  1.00  0.00    -0.248 NA
ATOM     60  C   UNL A   1      42.312  28.552  32.171  1.00  0.00     0.031 C 
ATOM     61  C   UNL A   1      43.321  31.129  37.575  1.00  0.00     0.029 A 
ATOM     62  C   UNL A   1      42.726  30.753  36.381  1.00  0.00     0.049 A 
ATOM     63  H   UNL A   1      40.887  31.379  35.558  1.00  0.00     0.167 HD
ATOM     64  C   UNL A   1      42.589  29.536  34.221  1.00  0.00     0.074 A 
ATOM     65  C   UNL A   1      43.126  28.647  33.214  1.00  0.00     0.031 C 
ATOM     66  C   UNL A   1      43.220  29.840  35.382  1.00  0.00     0.037 A 
BRANCH  53  67
ATOM     67  C   UNL A   1      40.190  33.884  38.935  1.00  0.00     0.064 A 
ATOM     68  C   UNL A   1      40.825  35.132  39.017  1.00  0.00     0.173 A 
ATOM     69  C   UNL A   1      39.503  33.420  40.066  1.00  0.00     0.173 A 
ATOM     70  F   UNL A   1      41.517  35.609  37.972  1.00  0.00    -0.203 F 
ATOM     71  C   UNL A   1      40.795  35.874  40.195  1.00  0.00     0.198 A 
ATOM     72  C   UNL A   1      39.445  34.179  41.231  1.00  0.00     0.198 A 
ATOM     73  F   UNL A   1      38.883  32.231  40.041  1.00  0.00    -0.203 F 
ATOM     74  F   UNL A   1      41.456  37.037  40.270  1.00  0.00    -0.200 F 
ATOM     75  C   UNL A   1      40.098  35.400  41.297  1.00  0.00     0.200 A 
ATOM     76  F   UNL A   1      38.764  33.724  42.291  1.00  0.00    -0.200 F 
ATOM     77  F   UNL A   1      40.064  36.119  42.429  1.00  0.00    -0.200 F 
ENDBRANCH  53  67
BRANCH  54  78
ATOM     78  C   UNL A   1      40.009  28.722  30.363  1.00  0.00     0.064 A 
ATOM     79  C   UNL A   1      40.586  29.284  29.214  1.00  0.00     0.173 A 
ATOM     80  C   UNL A   1      39.417  27.456  30.240  1.00  0.00     0.173 A 
ATOM     81  F   UNL A   1      41.135  30.506  29.272  1.00  0.00    -0.203 F 
ATOM     82  C   UNL A   1      40.552  28.617  27.991  1.00  0.00     0.198 A 
ATOM     83  C   UNL A   1      39.412  26.777  29.023  1.00  0.00     0.198 A 
ATOM     84  F   UNL A   1      38.842  26.877  31.304  1.00  0.00    -0.203 F 
ATOM     85  F   UNL A   1      41.062  29.203  26.898  1.00  0.00    -0.200 F 
ATOM     86  C   UNL A   1      39.971  27.362  27.897  1.00  0.00     0.200 A 
ATOM     87  F   UNL A   1      38.855  25.561  28.938  1.00  0.00    -0.200 F 
ATOM     88  F   UNL A   1      39.938  26.723  26.720  1.00  0.00    -0.200 F 
ENDBRANCH  54  78
BRANCH  66  89
ATOM     89  C   UNL A   1      44.520  29.152  35.682  1.00  0.00     0.064 A 
ATOM     90  C   UNL A   1      45.756  29.720  35.348  1.00  0.00     0.173 A 
ATOM     91  C   UNL A   1      44.521  27.952  36.412  1.00  0.00     0.173 A 
ATOM     92  F   UNL A   1      45.808  30.860  34.644  1.00  0.00    -0.203 F 
ATOM     93  C   UNL A   1      46.948  29.107  35.728  1.00  0.00     0.198 A 
ATOM     94  C   UNL A   1      45.713  27.359  36.815  1.00  0.00     0.198 A 
ATOM     95  F   UNL A   1      43.363  27.375  36.766  1.00  0.00    -0.203 F 
ATOM     96  F   UNL A   1      48.121  29.652  35.377  1.00  0.00    -0.200 F 
ATOM     97  C   UNL A   1      46.925  27.935  36.471  1.00  0.00     0.200 A 
ATOM     98  F   UNL A   1      45.687  26.238  37.551  1.00  0.00    -0.200 F 
ATOM     99  F   UNL A   1      48.074  27.362  36.857  1.00  0.00    -0.200 F 
ENDBRANCH  66  89
ENDBRANCH  40  41
ENDBRANCH  33  35
ENDBRANCH  32  33
ENDBRANCH  31  32
ENDBRANCH  30  31
ENDBRANCH  29  30
ENDBRANCH  28  29
ENDBRANCH  27  28
ENDBRANCH  26  27
ENDBRANCH   1  26
TORSDOF 23
ENDMDL
