MODEL 1
REMARK VINA RESULT:     -12.2      0.000      0.000
REMARK SMILES Nc1ccc(-c2cc(Cl)cc3c2O[C@H](C(F)(F)F)C(C(=O)OCCOCCOCCOC(=O)c2ccc(-c4c5nc(c(-c6c(F)c(F)c(F)c(F)c6F)c6ccc([nH]6)c(-c6c(F)c(F)c(F)c(F)c6F)c6nc(c(-c7c(F)c(F)c(F)c(F)c7F)c7ccc4[nH]7)C=C6)C=C5)cc2)=C3)cc1
REMARK SMILES IDX 26 1 25 2 24 3 23 4 22 5 20 6 21 7 19 8 6 9 7 10 12 11 8 12
REMARK SMILES IDX 11 13 13 14 9 15 10 16 97 17 14 18 5 19 2 20 3 21 99 22 4 23
REMARK SMILES IDX 98 24 1 25 15 28 16 29 17 30 18 31 27 32 28 33 29 34 30 35
REMARK SMILES IDX 31 36 32 37 33 38 34 39 35 40 96 41 36 42 95 43 37 44 38 45
REMARK SMILES IDX 39 46 89 47 40 48 94 49 88 50 90 51 41 52 93 53 87 54 86 55
REMARK SMILES IDX 42 57 74 58 54 59 73 60 55 61 58 62 72 63 91 64 56 65 57 66
REMARK SMILES IDX 71 68 92 69 59 70 43 71 44 72 52 73 45 74 46 75 50 76 53 77
REMARK SMILES IDX 47 78 48 79 51 80 49 81 75 82 76 83 84 84 77 85 78 86 82 87
REMARK SMILES IDX 85 88 79 89 80 90 83 91 81 92 60 93 61 94 69 95 62 96 63 97
REMARK SMILES IDX 67 98 70 99 64 100 65 101 68 102 66 103
REMARK H PARENT 1 26 1 27 90 56 58 67
REMARK Flexibility Score: inf
ROOT
ATOM      1  C   UNL A   1      30.047  29.341  22.809  1.00  0.00     0.188 C 
ENDROOT
BRANCH   1   2
ATOM      2  O   UNL A   1      29.904  28.008  22.363  1.00  0.00    -0.376 OA
BRANCH   2   3
ATOM      3  C   UNL A   1      31.028  27.157  22.206  1.00  0.00     0.202 C 
BRANCH   3   4
ATOM      4  C   UNL A   1      31.257  25.946  23.113  1.00  0.00     0.261 C 
BRANCH   4   5
ATOM      5  O   UNL A   1      32.575  25.867  23.669  1.00  0.00    -0.460 OA
BRANCH   5   6
ATOM      6  C   UNL A   1      33.491  25.257  22.880  1.00  0.00     0.338 C 
ATOM      7  O   UNL A   1      33.976  25.691  21.849  1.00  0.00    -0.246 OA
BRANCH   6   8
ATOM      8  C   UNL A   1      33.957  24.018  23.530  1.00  0.00     0.087 C 
ATOM      9  C   UNL A   1      35.464  20.400  25.004  1.00  0.00     0.026 A 
ATOM     10  C   UNL A   1      36.832  20.334  25.328  1.00  0.00     0.033 A 
ATOM     11  C   UNL A   1      34.936  21.646  24.597  1.00  0.00     0.135 A 
ATOM     12  C   UNL A   1      37.644  21.463  25.238  1.00  0.00     0.042 A 
ATOM     13  C   UNL A   1      35.770  22.763  24.457  1.00  0.00     0.019 A 
ATOM     14  O   UNL A   1      33.587  21.709  24.367  1.00  0.00    -0.475 OA
ATOM     15  Cl  UNL A   1      39.313  21.351  25.636  1.00  0.00    -0.084 Cl
ATOM     16  C   UNL A   1      37.122  22.674  24.795  1.00  0.00     0.032 A 
ATOM     17  C   UNL A   1      35.246  23.994  23.892  1.00  0.00     0.027 C 
ATOM     18  C   UNL A   1      33.001  22.881  23.747  1.00  0.00     0.316 C 
BRANCH   9  19
ATOM     19  C   UNL A   1      34.646  19.169  25.027  1.00  0.00    -0.014 A 
ATOM     20  C   UNL A   1      33.040  16.829  25.057  1.00  0.00     0.031 A 
ATOM     21  C   UNL A   1      32.528  18.047  25.496  1.00  0.00     0.026 A 
ATOM     22  C   UNL A   1      34.341  16.797  24.555  1.00  0.00     0.026 A 
ATOM     23  C   UNL A   1      33.319  19.200  25.487  1.00  0.00     0.011 A 
ATOM     24  C   UNL A   1      35.142  17.947  24.552  1.00  0.00     0.011 A 
BRANCH  20  25
ATOM     25  N   UNL A   1      32.229  15.708  24.996  1.00  0.00    -0.399 N 
ATOM     26  H   UNL A   1      32.519  14.918  24.485  1.00  0.00     0.156 HD
ATOM     27  H   UNL A   1      31.363  15.701  25.464  1.00  0.00     0.156 HD
ENDBRANCH  20  25
ENDBRANCH   9  19
BRANCH  18  28
ATOM     28  C   UNL A   1      32.305  22.441  22.451  1.00  0.00     0.430 C 
ATOM     29  F   UNL A   1      32.956  22.904  21.358  1.00  0.00    -0.167 F 
ATOM     30  F   UNL A   1      32.263  21.093  22.335  1.00  0.00    -0.167 F 
ATOM     31  F   UNL A   1      31.032  22.893  22.386  1.00  0.00    -0.167 F 
ENDBRANCH  18  28
ENDBRANCH   6   8
ENDBRANCH   5   6
ENDBRANCH   4   5
ENDBRANCH   3   4
ENDBRANCH   2   3
ENDBRANCH   1   2
BRANCH   1  32
ATOM     32  C   UNL A   1      30.607  29.671  24.209  1.00  0.00     0.188 C 
BRANCH  32  33
ATOM     33  O   UNL A   1      31.193  28.670  25.015  1.00  0.00    -0.376 OA
BRANCH  33  34
ATOM     34  C   UNL A   1      31.722  29.013  26.288  1.00  0.00     0.202 C 
BRANCH  34  35
ATOM     35  C   UNL A   1      31.938  30.478  26.684  1.00  0.00     0.261 C 
BRANCH  35  36
ATOM     36  O   UNL A   1      33.275  30.950  26.463  1.00  0.00    -0.460 OA
BRANCH  36  37
ATOM     37  C   UNL A   1      33.690  31.929  27.311  1.00  0.00     0.338 C 
ATOM     38  O   UNL A   1      33.086  32.919  27.654  1.00  0.00    -0.246 OA
BRANCH  37  39
ATOM     39  C   UNL A   1      34.956  31.493  27.937  1.00  0.00     0.060 A 
ATOM     40  C   UNL A   1      36.003  32.393  28.139  1.00  0.00     0.016 A 
ATOM     41  C   UNL A   1      35.081  30.151  28.322  1.00  0.00     0.016 A 
ATOM     42  C   UNL A   1      37.178  31.947  28.748  1.00  0.00     0.010 A 
ATOM     43  C   UNL A   1      36.263  29.704  28.915  1.00  0.00     0.010 A 
ATOM     44  C   UNL A   1      37.311  30.605  29.149  1.00  0.00    -0.014 A 
BRANCH  44  45
ATOM     45  C   UNL A   1      38.486  30.193  29.954  1.00  0.00     0.031 A 
ATOM     46  C   UNL A   1      38.702  30.687  31.350  1.00  0.00     0.074 A 
ATOM     47  C   UNL A   1      39.366  29.344  29.393  1.00  0.00     0.049 A 
ATOM     48  N   UNL A   1      39.621  30.332  32.212  1.00  0.00    -0.248 NA
ATOM     49  C   UNL A   1      37.774  31.714  31.846  1.00  0.00     0.031 C 
ATOM     50  C   UNL A   1      39.272  28.826  28.028  1.00  0.00     0.029 A 
ATOM     51  N   UNL A   1      40.499  28.761  29.898  1.00  0.00    -0.354 N 
ATOM     52  C   UNL A   1      39.369  31.065  33.362  1.00  0.00     0.074 A 
ATOM     53  C   UNL A   1      38.241  31.927  33.070  1.00  0.00     0.031 C 
ATOM     54  C   UNL A   1      40.289  27.979  27.812  1.00  0.00     0.029 A 
ATOM     55  C   UNL A   1      41.114  27.907  29.016  1.00  0.00     0.049 A 
ATOM     56  H   UNL A   1      40.839  28.937  30.805  1.00  0.00     0.167 HD
ATOM     57  C   UNL A   1      40.010  31.001  34.555  1.00  0.00     0.037 A 
ATOM     58  C   UNL A   1      42.211  27.142  29.163  1.00  0.00     0.037 A 
ATOM     59  C   UNL A   1      41.144  30.152  34.830  1.00  0.00     0.049 A 
ATOM     60  C   UNL A   1      42.928  27.128  30.482  1.00  0.00     0.074 A 
ATOM     61  C   UNL A   1      41.830  29.991  36.022  1.00  0.00     0.029 A 
ATOM     62  N   UNL A   1      41.768  29.334  33.899  1.00  0.00    -0.354 N 
ATOM     63  N   UNL A   1      42.629  27.759  31.591  1.00  0.00    -0.248 NA
ATOM     64  C   UNL A   1      44.131  26.289  30.573  1.00  0.00     0.031 C 
ATOM     65  C   UNL A   1      42.900  29.119  35.800  1.00  0.00     0.029 A 
ATOM     66  C   UNL A   1      42.852  28.692  34.484  1.00  0.00     0.049 A 
ATOM     67  H   UNL A   1      41.486  29.224  32.963  1.00  0.00     0.167 HD
ATOM     68  C   UNL A   1      43.592  27.378  32.517  1.00  0.00     0.074 A 
ATOM     69  C   UNL A   1      44.474  26.447  31.844  1.00  0.00     0.031 C 
ATOM     70  C   UNL A   1      43.729  27.770  33.807  1.00  0.00     0.037 A 
BRANCH  57  71
ATOM     71  C   UNL A   1      39.497  31.857  35.677  1.00  0.00     0.064 A 
ATOM     72  C   UNL A   1      38.493  31.396  36.541  1.00  0.00     0.173 A 
ATOM     73  C   UNL A   1      40.082  33.102  35.956  1.00  0.00     0.173 A 
ATOM     74  F   UNL A   1      37.901  30.212  36.318  1.00  0.00    -0.203 F 
ATOM     75  C   UNL A   1      38.088  32.153  37.638  1.00  0.00     0.198 A 
ATOM     76  C   UNL A   1      39.692  33.844  37.067  1.00  0.00     0.198 A 
ATOM     77  F   UNL A   1      41.054  33.583  35.167  1.00  0.00    -0.203 F 
ATOM     78  F   UNL A   1      37.114  31.699  38.439  1.00  0.00    -0.200 F 
ATOM     79  C   UNL A   1      38.694  33.370  37.906  1.00  0.00     0.200 A 
ATOM     80  F   UNL A   1      40.293  35.012  37.336  1.00  0.00    -0.200 F 
ATOM     81  F   UNL A   1      38.320  34.086  38.975  1.00  0.00    -0.200 F 
ENDBRANCH  57  71
BRANCH  58  82
ATOM     82  C   UNL A   1      42.658  26.288  28.035  1.00  0.00     0.064 A 
ATOM     83  C   UNL A   1      42.119  25.009  27.846  1.00  0.00     0.173 A 
ATOM     84  C   UNL A   1      43.603  26.746  27.105  1.00  0.00     0.173 A 
ATOM     85  F   UNL A   1      41.224  24.524  28.720  1.00  0.00    -0.203 F 
ATOM     86  C   UNL A   1      42.514  24.214  26.773  1.00  0.00     0.198 A 
ATOM     87  C   UNL A   1      43.978  25.961  26.017  1.00  0.00     0.198 A 
ATOM     88  F   UNL A   1      44.142  27.966  27.240  1.00  0.00    -0.203 F 
ATOM     89  F   UNL A   1      42.006  22.983  26.631  1.00  0.00    -0.200 F 
ATOM     90  C   UNL A   1      43.437  24.694  25.854  1.00  0.00     0.200 A 
ATOM     91  F   UNL A   1      44.856  26.435  25.123  1.00  0.00    -0.200 F 
ATOM     92  F   UNL A   1      43.805  23.935  24.814  1.00  0.00    -0.200 F 
ENDBRANCH  58  82
BRANCH  70  93
ATOM     93  C   UNL A   1      44.873  27.190  34.589  1.00  0.00     0.064 A 
ATOM     94  C   UNL A   1      46.111  27.845  34.669  1.00  0.00     0.173 A 
ATOM     95  C   UNL A   1      44.712  26.001  35.316  1.00  0.00     0.173 A 
ATOM     96  F   UNL A   1      46.322  28.978  33.982  1.00  0.00    -0.203 F 
ATOM     97  C   UNL A   1      47.151  27.321  35.434  1.00  0.00     0.198 A 
ATOM     98  C   UNL A   1      45.743  25.495  36.103  1.00  0.00     0.198 A 
ATOM     99  F   UNL A   1      43.546  25.338  35.279  1.00  0.00    -0.203 F 
ATOM    100  F   UNL A   1      48.338  27.942  35.464  1.00  0.00    -0.200 F 
ATOM    101  C   UNL A   1      46.963  26.153  36.158  1.00  0.00     0.200 A 
ATOM    102  F   UNL A   1      45.555  24.374  36.813  1.00  0.00    -0.200 F 
ATOM    103  F   UNL A   1      47.959  25.658  36.906  1.00  0.00    -0.200 F 
ENDBRANCH  70  93
ENDBRANCH  44  45
ENDBRANCH  37  39
ENDBRANCH  36  37
ENDBRANCH  35  36
ENDBRANCH  34  35
ENDBRANCH  33  34
ENDBRANCH  32  33
ENDBRANCH   1  32
TORSDOF 20
ENDMDL
MODEL 2
REMARK VINA RESULT:     -12.2      1.624      2.802
REMARK SMILES Nc1ccc(-c2cc(Cl)cc3c2O[C@H](C(F)(F)F)C(C(=O)OCCOCCOCCOC(=O)c2ccc(-c4c5nc(c(-c6c(F)c(F)c(F)c(F)c6F)c6ccc([nH]6)c(-c6c(F)c(F)c(F)c(F)c6F)c6nc(c(-c7c(F)c(F)c(F)c(F)c7F)c7ccc4[nH]7)C=C6)C=C5)cc2)=C3)cc1
REMARK SMILES IDX 26 1 25 2 24 3 23 4 22 5 20 6 21 7 19 8 6 9 7 10 12 11 8 12
REMARK SMILES IDX 11 13 13 14 9 15 10 16 97 17 14 18 5 19 2 20 3 21 99 22 4 23
REMARK SMILES IDX 98 24 1 25 15 28 16 29 17 30 18 31 27 32 28 33 29 34 30 35
REMARK SMILES IDX 31 36 32 37 33 38 34 39 35 40 96 41 36 42 95 43 37 44 38 45
REMARK SMILES IDX 39 46 89 47 40 48 94 49 88 50 90 51 41 52 93 53 87 54 86 55
REMARK SMILES IDX 42 57 74 58 54 59 73 60 55 61 58 62 72 63 91 64 56 65 57 66
REMARK SMILES IDX 71 68 92 69 59 70 43 71 44 72 52 73 45 74 46 75 50 76 53 77
REMARK SMILES IDX 47 78 48 79 51 80 49 81 75 82 76 83 84 84 77 85 78 86 82 87
REMARK SMILES IDX 85 88 79 89 80 90 83 91 81 92 60 93 61 94 69 95 62 96 63 97
REMARK SMILES IDX 67 98 70 99 64 100 65 101 68 102 66 103
REMARK H PARENT 1 26 1 27 90 56 58 67
REMARK Flexibility Score: inf
ROOT
ATOM      1  C   UNL A   1      33.372  28.688  27.305  1.00  0.00     0.188 C 
ENDROOT
BRANCH   1   2
ATOM      2  O   UNL A   1      32.118  28.106  27.595  1.00  0.00    -0.376 OA
BRANCH   2   3
ATOM      3  C   UNL A   1      31.404  27.367  26.618  1.00  0.00     0.202 C 
BRANCH   3   4
ATOM      4  C   UNL A   1      31.843  27.330  25.153  1.00  0.00     0.261 C 
BRANCH   4   5
ATOM      5  O   UNL A   1      31.878  26.017  24.581  1.00  0.00    -0.460 OA
BRANCH   5   6
ATOM      6  C   UNL A   1      32.987  25.740  23.854  1.00  0.00     0.338 C 
ATOM      7  O   UNL A   1      33.539  26.474  23.051  1.00  0.00    -0.246 OA
BRANCH   6   8
ATOM      8  C   UNL A   1      33.551  24.448  24.285  1.00  0.00     0.087 C 
ATOM      9  C   UNL A   1      35.325  20.748  25.117  1.00  0.00     0.026 A 
ATOM     10  C   UNL A   1      36.708  20.719  25.376  1.00  0.00     0.033 A 
ATOM     11  C   UNL A   1      34.710  22.006  24.929  1.00  0.00     0.135 A 
ATOM     12  C   UNL A   1      37.451  21.896  25.435  1.00  0.00     0.042 A 
ATOM     13  C   UNL A   1      35.472  23.182  24.936  1.00  0.00     0.019 A 
ATOM     14  O   UNL A   1      33.350  22.019  24.761  1.00  0.00    -0.475 OA
ATOM     15  Cl  UNL A   1      39.140  21.830  25.750  1.00  0.00    -0.084 Cl
ATOM     16  C   UNL A   1      36.842  23.126  25.207  1.00  0.00     0.032 A 
ATOM     17  C   UNL A   1      34.854  24.449  24.591  1.00  0.00     0.027 C 
ATOM     18  C   UNL A   1      32.671  23.234  24.354  1.00  0.00     0.316 C 
BRANCH   9  19
ATOM     19  C   UNL A   1      34.580  19.479  24.976  1.00  0.00    -0.014 A 
ATOM     20  C   UNL A   1      33.186  17.020  24.723  1.00  0.00     0.031 A 
ATOM     21  C   UNL A   1      34.544  17.100  24.423  1.00  0.00     0.026 A 
ATOM     22  C   UNL A   1      32.541  18.162  25.198  1.00  0.00     0.026 A 
ATOM     23  C   UNL A   1      35.231  18.312  24.543  1.00  0.00     0.011 A 
ATOM     24  C   UNL A   1      33.223  19.381  25.311  1.00  0.00     0.011 A 
BRANCH  20  25
ATOM     25  N   UNL A   1      32.528  15.802  24.676  1.00  0.00    -0.399 N 
ATOM     26  H   UNL A   1      33.035  14.964  24.778  1.00  0.00     0.156 HD
ATOM     27  H   UNL A   1      31.553  15.774  24.542  1.00  0.00     0.156 HD
ENDBRANCH  20  25
ENDBRANCH   9  19
BRANCH  18  28
ATOM     28  C   UNL A   1      31.944  22.956  23.032  1.00  0.00     0.430 C 
ATOM     29  F   UNL A   1      31.796  21.627  22.817  1.00  0.00    -0.167 F 
ATOM     30  F   UNL A   1      30.700  23.491  23.019  1.00  0.00    -0.167 F 
ATOM     31  F   UNL A   1      32.615  23.465  21.973  1.00  0.00    -0.167 F 
ENDBRANCH  18  28
ENDBRANCH   6   8
ENDBRANCH   5   6
ENDBRANCH   4   5
ENDBRANCH   3   4
ENDBRANCH   2   3
ENDBRANCH   1   2
BRANCH   1  32
ATOM     32  C   UNL A   1      33.488  30.091  26.672  1.00  0.00     0.188 C 
BRANCH  32  33
ATOM     33  O   UNL A   1      33.411  31.257  27.465  1.00  0.00    -0.376 OA
BRANCH  33  34
ATOM     34  C   UNL A   1      32.332  32.163  27.279  1.00  0.00     0.202 C 
BRANCH  34  35
ATOM     35  C   UNL A   1      32.568  33.677  27.248  1.00  0.00     0.261 C 
BRANCH  35  36
ATOM     36  O   UNL A   1      32.153  34.356  28.441  1.00  0.00    -0.460 OA
BRANCH  36  37
ATOM     37  C   UNL A   1      33.065  35.220  28.963  1.00  0.00     0.338 C 
ATOM     38  O   UNL A   1      32.927  36.401  29.182  1.00  0.00    -0.246 OA
BRANCH  37  39
ATOM     39  C   UNL A   1      34.229  34.438  29.432  1.00  0.00     0.060 A 
ATOM     40  C   UNL A   1      35.481  34.590  28.837  1.00  0.00     0.016 A 
ATOM     41  C   UNL A   1      34.043  33.537  30.489  1.00  0.00     0.016 A 
ATOM     42  C   UNL A   1      36.560  33.845  29.318  1.00  0.00     0.010 A 
ATOM     43  C   UNL A   1      35.119  32.781  30.957  1.00  0.00     0.010 A 
ATOM     44  C   UNL A   1      36.388  32.945  30.386  1.00  0.00    -0.014 A 
BRANCH  44  45
ATOM     45  C   UNL A   1      37.574  32.302  31.000  1.00  0.00     0.031 A 
ATOM     46  C   UNL A   1      38.073  32.691  32.357  1.00  0.00     0.074 A 
ATOM     47  C   UNL A   1      38.198  31.337  30.301  1.00  0.00     0.049 A 
ATOM     48  N   UNL A   1      39.029  32.145  33.066  1.00  0.00    -0.248 NA
ATOM     49  C   UNL A   1      37.425  33.843  33.001  1.00  0.00     0.031 C 
ATOM     50  C   UNL A   1      37.818  30.901  28.958  1.00  0.00     0.029 A 
ATOM     51  N   UNL A   1      39.269  30.544  30.622  1.00  0.00    -0.354 N 
ATOM     52  C   UNL A   1      39.080  32.862  34.252  1.00  0.00     0.074 A 
ATOM     53  C   UNL A   1      38.094  33.919  34.146  1.00  0.00     0.031 C 
ATOM     54  C   UNL A   1      38.625  29.899  28.579  1.00  0.00     0.029 A 
ATOM     55  C   UNL A   1      39.588  29.634  29.645  1.00  0.00     0.049 A 
ATOM     56  H   UNL A   1      39.762  30.620  31.471  1.00  0.00     0.167 HD
ATOM     57  C   UNL A   1      39.864  32.637  35.335  1.00  0.00     0.037 A 
ATOM     58  C   UNL A   1      40.541  28.684  29.615  1.00  0.00     0.037 A 
ATOM     59  C   UNL A   1      40.855  31.593  35.424  1.00  0.00     0.049 A 
ATOM     60  C   UNL A   1      41.426  28.490  30.812  1.00  0.00     0.074 A 
ATOM     61  C   UNL A   1      41.666  31.265  36.498  1.00  0.00     0.029 A 
ATOM     62  N   UNL A   1      41.183  30.718  34.398  1.00  0.00    -0.354 N 
ATOM     63  N   UNL A   1      41.408  29.116  31.963  1.00  0.00    -0.248 NA
ATOM     64  C   UNL A   1      42.460  27.450  30.709  1.00  0.00     0.031 C 
ATOM     65  C   UNL A   1      42.520  30.230  36.106  1.00  0.00     0.029 A 
ATOM     66  C   UNL A   1      42.207  29.873  34.805  1.00  0.00     0.049 A 
ATOM     67  H   UNL A   1      40.754  30.699  33.513  1.00  0.00     0.167 HD
ATOM     68  C   UNL A   1      42.410  28.535  32.729  1.00  0.00     0.074 A 
ATOM     69  C   UNL A   1      43.005  27.493  31.917  1.00  0.00     0.031 C 
ATOM     70  C   UNL A   1      42.799  28.842  33.990  1.00  0.00     0.037 A 
BRANCH  57  71
ATOM     71  C   UNL A   1      39.679  33.522  36.534  1.00  0.00     0.064 A 
ATOM     72  C   UNL A   1      40.292  34.782  36.608  1.00  0.00     0.173 A 
ATOM     73  C   UNL A   1      38.802  33.158  37.567  1.00  0.00     0.173 A 
ATOM     74  F   UNL A   1      41.139  35.178  35.645  1.00  0.00    -0.203 F 
ATOM     75  C   UNL A   1      40.041  35.640  37.676  1.00  0.00     0.198 A 
ATOM     76  C   UNL A   1      38.535  34.029  38.620  1.00  0.00     0.198 A 
ATOM     77  F   UNL A   1      38.181  31.970  37.538  1.00  0.00    -0.203 F 
ATOM     78  F   UNL A   1      40.653  36.831  37.733  1.00  0.00    -0.200 F 
ATOM     79  C   UNL A   1      39.156  35.268  38.675  1.00  0.00     0.200 A 
ATOM     80  F   UNL A   1      37.663  33.675  39.576  1.00  0.00    -0.200 F 
ATOM     81  F   UNL A   1      38.897  36.104  39.689  1.00  0.00    -0.200 F 
ENDBRANCH  57  71
BRANCH  58  82
ATOM     82  C   UNL A   1      40.661  27.813  28.419  1.00  0.00     0.064 A 
ATOM     83  C   UNL A   1      39.971  26.596  28.346  1.00  0.00     0.173 A 
ATOM     84  C   UNL A   1      41.436  28.195  27.315  1.00  0.00     0.173 A 
ATOM     85  F   UNL A   1      39.230  26.183  29.385  1.00  0.00    -0.203 F 
ATOM     86  C   UNL A   1      40.058  25.788  27.215  1.00  0.00     0.198 A 
ATOM     87  C   UNL A   1      41.501  27.400  26.173  1.00  0.00     0.198 A 
ATOM     88  F   UNL A   1      42.109  29.355  27.336  1.00  0.00    -0.203 F 
ATOM     89  F   UNL A   1      39.413  24.615  27.181  1.00  0.00    -0.200 F 
ATOM     90  C   UNL A   1      40.816  26.195  26.126  1.00  0.00     0.200 A 
ATOM     91  F   UNL A   1      42.221  27.804  25.118  1.00  0.00    -0.200 F 
ATOM     92  F   UNL A   1      40.887  25.424  25.033  1.00  0.00    -0.200 F 
ENDBRANCH  58  82
BRANCH  70  93
ATOM     93  C   UNL A   1      43.922  28.039  34.584  1.00  0.00     0.064 A 
ATOM     94  C   UNL A   1      43.674  26.886  35.343  1.00  0.00     0.173 A 
ATOM     95  C   UNL A   1      45.258  28.390  34.340  1.00  0.00     0.173 A 
ATOM     96  F   UNL A   1      42.414  26.515  35.618  1.00  0.00    -0.203 F 
ATOM     97  C   UNL A   1      44.724  26.124  35.851  1.00  0.00     0.198 A 
ATOM     98  C   UNL A   1      46.305  27.610  34.824  1.00  0.00     0.198 A 
ATOM     99  F   UNL A   1      45.550  29.480  33.614  1.00  0.00    -0.203 F 
ATOM    100  F   UNL A   1      44.464  25.049  36.607  1.00  0.00    -0.200 F 
ATOM    101  C   UNL A   1      46.037  26.481  35.583  1.00  0.00     0.200 A 
ATOM    102  F   UNL A   1      47.573  27.948  34.551  1.00  0.00    -0.200 F 
ATOM    103  F   UNL A   1      47.046  25.737  36.059  1.00  0.00    -0.200 F 
ENDBRANCH  70  93
ENDBRANCH  44  45
ENDBRANCH  37  39
ENDBRANCH  36  37
ENDBRANCH  35  36
ENDBRANCH  34  35
ENDBRANCH  33  34
ENDBRANCH  32  33
ENDBRANCH   1  32
TORSDOF 20
ENDMDL
MODEL 3
REMARK VINA RESULT:     -12.1      2.258      3.678
REMARK SMILES Nc1ccc(-c2cc(Cl)cc3c2O[C@H](C(F)(F)F)C(C(=O)OCCOCCOCCOC(=O)c2ccc(-c4c5nc(c(-c6c(F)c(F)c(F)c(F)c6F)c6ccc([nH]6)c(-c6c(F)c(F)c(F)c(F)c6F)c6nc(c(-c7c(F)c(F)c(F)c(F)c7F)c7ccc4[nH]7)C=C6)C=C5)cc2)=C3)cc1
REMARK SMILES IDX 26 1 25 2 24 3 23 4 22 5 20 6 21 7 19 8 6 9 7 10 12 11 8 12
REMARK SMILES IDX 11 13 13 14 9 15 10 16 97 17 14 18 5 19 2 20 3 21 99 22 4 23
REMARK SMILES IDX 98 24 1 25 15 28 16 29 17 30 18 31 27 32 28 33 29 34 30 35
REMARK SMILES IDX 31 36 32 37 33 38 34 39 35 40 96 41 36 42 95 43 37 44 38 45
REMARK SMILES IDX 39 46 89 47 40 48 94 49 88 50 90 51 41 52 93 53 87 54 86 55
REMARK SMILES IDX 42 57 74 58 54 59 73 60 55 61 58 62 72 63 91 64 56 65 57 66
REMARK SMILES IDX 71 68 92 69 59 70 43 71 44 72 52 73 45 74 46 75 50 76 53 77
REMARK SMILES IDX 47 78 48 79 51 80 49 81 75 82 76 83 84 84 77 85 78 86 82 87
REMARK SMILES IDX 85 88 79 89 80 90 83 91 81 92 60 93 61 94 69 95 62 96 63 97
REMARK SMILES IDX 67 98 70 99 64 100 65 101 68 102 66 103
REMARK H PARENT 1 26 1 27 90 56 58 67
REMARK Flexibility Score: inf
ROOT
ATOM      1  C   UNL A   1      31.578  27.866  26.255  1.00  0.00     0.188 C 
ENDROOT
BRANCH   1   2
ATOM      2  O   UNL A   1      30.950  26.751  26.853  1.00  0.00    -0.376 OA
BRANCH   2   3
ATOM      3  C   UNL A   1      30.242  25.798  26.077  1.00  0.00     0.202 C 
BRANCH   3   4
ATOM      4  C   UNL A   1      30.094  25.941  24.562  1.00  0.00     0.261 C 
BRANCH   4   5
ATOM      5  O   UNL A   1      30.335  24.733  23.829  1.00  0.00    -0.460 OA
BRANCH   5   6
ATOM      6  C   UNL A   1      31.375  24.789  22.964  1.00  0.00     0.338 C 
ATOM      7  O   UNL A   1      31.582  25.644  22.120  1.00  0.00    -0.246 OA
BRANCH   6   8
ATOM      8  C   UNL A   1      32.343  23.725  23.287  1.00  0.00     0.087 C 
ATOM      9  C   UNL A   1      34.943  20.718  24.601  1.00  0.00     0.026 A 
ATOM     10  C   UNL A   1      34.419  19.426  24.797  1.00  0.00     0.033 A 
ATOM     11  C   UNL A   1      34.089  21.709  24.068  1.00  0.00     0.135 A 
ATOM     12  C   UNL A   1      33.092  19.138  24.486  1.00  0.00     0.042 A 
ATOM     13  C   UNL A   1      32.742  21.425  23.807  1.00  0.00     0.019 A 
ATOM     14  O   UNL A   1      34.641  22.935  23.806  1.00  0.00    -0.475 OA
ATOM     15  Cl  UNL A   1      32.478  17.552  24.739  1.00  0.00    -0.084 Cl
ATOM     16  C   UNL A   1      32.249  20.132  24.001  1.00  0.00     0.032 A 
ATOM     17  C   UNL A   1      31.841  22.490  23.406  1.00  0.00     0.027 C 
ATOM     18  C   UNL A   1      33.796  24.062  23.462  1.00  0.00     0.316 C 
BRANCH   9  19
ATOM     19  C   UNL A   1      36.329  21.016  25.020  1.00  0.00    -0.014 A 
ATOM     20  C   UNL A   1      39.005  21.566  25.789  1.00  0.00     0.031 A 
ATOM     21  C   UNL A   1      38.657  20.321  25.272  1.00  0.00     0.026 A 
ATOM     22  C   UNL A   1      38.020  22.551  25.871  1.00  0.00     0.026 A 
ATOM     23  C   UNL A   1      37.338  20.047  24.898  1.00  0.00     0.011 A 
ATOM     24  C   UNL A   1      36.696  22.279  25.506  1.00  0.00     0.011 A 
BRANCH  20  25
ATOM     25  N   UNL A   1      40.326  21.858  26.086  1.00  0.00    -0.399 N 
ATOM     26  H   UNL A   1      40.542  22.620  26.671  1.00  0.00     0.156 HD
ATOM     27  H   UNL A   1      41.049  21.304  25.713  1.00  0.00     0.156 HD
ENDBRANCH  20  25
ENDBRANCH   9  19
BRANCH  18  28
ATOM     28  C   UNL A   1      34.023  25.167  24.503  1.00  0.00     0.430 C 
ATOM     29  F   UNL A   1      33.225  25.001  25.584  1.00  0.00    -0.167 F 
ATOM     30  F   UNL A   1      35.297  25.175  24.959  1.00  0.00    -0.167 F 
ATOM     31  F   UNL A   1      33.766  26.395  23.996  1.00  0.00    -0.167 F 
ENDBRANCH  18  28
ENDBRANCH   6   8
ENDBRANCH   5   6
ENDBRANCH   4   5
ENDBRANCH   3   4
ENDBRANCH   2   3
ENDBRANCH   1   2
BRANCH   1  32
ATOM     32  C   UNL A   1      32.115  29.043  27.097  1.00  0.00     0.188 C 
BRANCH  32  33
ATOM     33  O   UNL A   1      31.760  30.376  26.797  1.00  0.00    -0.376 OA
BRANCH  33  34
ATOM     34  C   UNL A   1      32.628  31.436  27.176  1.00  0.00     0.202 C 
BRANCH  34  35
ATOM     35  C   UNL A   1      32.099  32.864  27.354  1.00  0.00     0.261 C 
BRANCH  35  36
ATOM     36  O   UNL A   1      33.124  33.866  27.376  1.00  0.00    -0.460 OA
BRANCH  36  37
ATOM     37  C   UNL A   1      33.234  34.557  28.543  1.00  0.00     0.338 C 
ATOM     38  O   UNL A   1      32.446  35.341  29.017  1.00  0.00    -0.246 OA
BRANCH  37  39
ATOM     39  C   UNL A   1      34.407  34.039  29.279  1.00  0.00     0.060 A 
ATOM     40  C   UNL A   1      34.247  33.234  30.407  1.00  0.00     0.016 A 
ATOM     41  C   UNL A   1      35.686  34.380  28.818  1.00  0.00     0.016 A 
ATOM     42  C   UNL A   1      35.379  32.752  31.067  1.00  0.00     0.010 A 
ATOM     43  C   UNL A   1      36.816  33.911  29.490  1.00  0.00     0.010 A 
ATOM     44  C   UNL A   1      36.669  33.078  30.607  1.00  0.00    -0.014 A 
BRANCH  44  45
ATOM     45  C   UNL A   1      37.850  32.414  31.206  1.00  0.00     0.031 A 
ATOM     46  C   UNL A   1      38.346  32.761  32.575  1.00  0.00     0.074 A 
ATOM     47  C   UNL A   1      38.474  31.468  30.480  1.00  0.00     0.049 A 
ATOM     48  N   UNL A   1      39.297  32.191  33.271  1.00  0.00    -0.248 NA
ATOM     49  C   UNL A   1      37.699  33.895  33.250  1.00  0.00     0.031 C 
ATOM     50  C   UNL A   1      38.098  31.073  29.123  1.00  0.00     0.029 A 
ATOM     51  N   UNL A   1      39.542  30.663  30.782  1.00  0.00    -0.354 N 
ATOM     52  C   UNL A   1      39.347  32.872  34.478  1.00  0.00     0.074 A 
ATOM     53  C   UNL A   1      38.364  33.935  34.399  1.00  0.00     0.031 C 
ATOM     54  C   UNL A   1      38.903  30.081  28.718  1.00  0.00     0.029 A 
ATOM     55  C   UNL A   1      39.862  29.781  29.779  1.00  0.00     0.049 A 
ATOM     56  H   UNL A   1      40.032  30.712  31.634  1.00  0.00     0.167 HD
ATOM     57  C   UNL A   1      40.126  32.613  35.556  1.00  0.00     0.037 A 
ATOM     58  C   UNL A   1      40.812  28.829  29.723  1.00  0.00     0.037 A 
ATOM     59  C   UNL A   1      41.114  31.563  35.618  1.00  0.00     0.049 A 
ATOM     60  C   UNL A   1      41.692  28.597  30.918  1.00  0.00     0.074 A 
ATOM     61  C   UNL A   1      41.919  31.201  36.685  1.00  0.00     0.029 A 
ATOM     62  N   UNL A   1      41.443  30.719  34.568  1.00  0.00    -0.354 N 
ATOM     63  N   UNL A   1      41.672  29.189  32.087  1.00  0.00    -0.248 NA
ATOM     64  C   UNL A   1      42.724  27.558  30.787  1.00  0.00     0.031 C 
ATOM     65  C   UNL A   1      42.772  30.176  36.264  1.00  0.00     0.029 A 
ATOM     66  C   UNL A   1      42.462  29.859  34.952  1.00  0.00     0.049 A 
ATOM     67  H   UNL A   1      41.016  30.727  33.680  1.00  0.00     0.167 HD
ATOM     68  C   UNL A   1      42.669  28.582  32.838  1.00  0.00     0.074 A 
ATOM     69  C   UNL A   1      43.264  27.563  31.998  1.00  0.00     0.031 C 
ATOM     70  C   UNL A   1      43.055  28.850  34.110  1.00  0.00     0.037 A 
BRANCH  57  71
ATOM     71  C   UNL A   1      39.939  33.463  36.781  1.00  0.00     0.064 A 
ATOM     72  C   UNL A   1      40.674  34.643  36.964  1.00  0.00     0.173 A 
ATOM     73  C   UNL A   1      38.948  33.154  37.725  1.00  0.00     0.173 A 
ATOM     74  F   UNL A   1      41.633  34.984  36.089  1.00  0.00    -0.203 F 
ATOM     75  C   UNL A   1      40.430  35.479  38.051  1.00  0.00     0.198 A 
ATOM     76  C   UNL A   1      38.689  34.004  38.796  1.00  0.00     0.198 A 
ATOM     77  F   UNL A   1      38.208  32.043  37.590  1.00  0.00    -0.203 F 
ATOM     78  F   UNL A   1      41.158  36.592  38.214  1.00  0.00    -0.200 F 
ATOM     79  C   UNL A   1      39.432  35.165  38.960  1.00  0.00     0.200 A 
ATOM     80  F   UNL A   1      37.711  33.709  39.664  1.00  0.00    -0.200 F 
ATOM     81  F   UNL A   1      39.182  35.981  39.992  1.00  0.00    -0.200 F 
ENDBRANCH  57  71
BRANCH  58  82
ATOM     82  C   UNL A   1      40.934  27.994  28.503  1.00  0.00     0.064 A 
ATOM     83  C   UNL A   1      41.730  28.408  27.428  1.00  0.00     0.173 A 
ATOM     84  C   UNL A   1      40.288  26.754  28.402  1.00  0.00     0.173 A 
ATOM     85  F   UNL A   1      42.354  29.595  27.474  1.00  0.00    -0.203 F 
ATOM     86  C   UNL A   1      41.871  27.616  26.291  1.00  0.00     0.198 A 
ATOM     87  C   UNL A   1      40.451  25.949  27.276  1.00  0.00     0.198 A 
ATOM     88  F   UNL A   1      39.520  26.312  29.408  1.00  0.00    -0.203 F 
ATOM     89  F   UNL A   1      42.615  28.047  25.264  1.00  0.00    -0.200 F 
ATOM     90  C   UNL A   1      41.238  26.383  26.220  1.00  0.00     0.200 A 
ATOM     91  F   UNL A   1      39.851  24.753  27.218  1.00  0.00    -0.200 F 
ATOM     92  F   UNL A   1      41.386  25.615  25.132  1.00  0.00    -0.200 F 
ENDBRANCH  58  82
BRANCH  70  93
ATOM     93  C   UNL A   1      44.173  28.027  34.683  1.00  0.00     0.064 A 
ATOM     94  C   UNL A   1      43.929  26.792  35.302  1.00  0.00     0.173 A 
ATOM     95  C   UNL A   1      45.506  28.446  34.558  1.00  0.00     0.173 A 
ATOM     96  F   UNL A   1      42.671  26.352  35.460  1.00  0.00    -0.203 F 
ATOM     97  C   UNL A   1      44.977  26.015  35.790  1.00  0.00     0.198 A 
ATOM     98  C   UNL A   1      46.554  27.654  35.020  1.00  0.00     0.198 A 
ATOM     99  F   UNL A   1      45.795  29.616  33.969  1.00  0.00    -0.203 F 
ATOM    100  F   UNL A   1      44.718  24.858  36.413  1.00  0.00    -0.200 F 
ATOM    101  C   UNL A   1      46.288  26.443  35.640  1.00  0.00     0.200 A 
ATOM    102  F   UNL A   1      47.821  28.061  34.862  1.00  0.00    -0.200 F 
ATOM    103  F   UNL A   1      47.297  25.687  36.097  1.00  0.00    -0.200 F 
ENDBRANCH  70  93
ENDBRANCH  44  45
ENDBRANCH  37  39
ENDBRANCH  36  37
ENDBRANCH  35  36
ENDBRANCH  34  35
ENDBRANCH  33  34
ENDBRANCH  32  33
ENDBRANCH   1  32
TORSDOF 20
ENDMDL
