MODEL 1
REMARK VINA RESULT:      -7.1      0.000      0.000
REMARK SMILES CC(C)C[C@H](NC(=O)[C@@H](NC(=O)[C@H](C)NC(=O)CNC(=O)OCc1ccccc1)C(C)C)C(=O)OCCOCCOCCOC(=O)c1ccc(-c2c3nc(c(-c4c(F)c(F)c(F)c(F)c4F)c4ccc([nH]4)c(-c4c(F)c(F)c(F)c(F)c4F)c4nc(c(-c5c(F)c(F)c(F)c(F)c5F)c5ccc2[nH]5)C=C4)C=C3)cc1
REMARK SMILES IDX 36 1 35 2 33 3 34 4 5 5 4 6 2 7 1 8 3 9 6 10 7 11 8 13 9 14
REMARK SMILES IDX 10 15 11 16 12 18 13 19 14 20 15 21 16 22 17 24 18 25 19 26
REMARK SMILES IDX 20 27 21 29 22 30 23 31 24 32 25 33 29 34 26 35 28 36 27 37
REMARK SMILES IDX 30 38 31 39 32 40 37 41 38 42 39 43 40 44 41 45 42 46 43 47
REMARK SMILES IDX 44 48 45 49 46 50 47 51 48 52 109 53 49 54 108 55 50 56
REMARK SMILES IDX 51 57 52 58 102 59 53 60 107 61 101 62 103 63 54 64 106 65
REMARK SMILES IDX 100 66 99 67 55 69 87 70 67 71 86 72 68 73 71 74 85 75
REMARK SMILES IDX 104 76 69 77 70 78 84 80 105 81 72 82 56 83 57 84 65 85
REMARK SMILES IDX 58 86 59 87 63 88 66 89 60 90 61 91 64 92 62 93 88 94 89 95
REMARK SMILES IDX 97 96 90 97 91 98 95 99 98 100 92 101 93 102 96 103 94 104
REMARK SMILES IDX 73 105 74 106 82 107 75 108 76 109 80 110 83 111 77 112
REMARK SMILES IDX 78 113 81 114 79 115
REMARK H PARENT 6 12 10 17 15 23 19 28 103 68 71 79
REMARK Flexibility Score: inf
ROOT
ATOM      1  C   UNL A   1      40.141  29.007  30.947  1.00  0.00     0.261 C 
ENDROOT
BRANCH   1   2
ATOM      2  O   UNL A   1      40.229  30.320  31.495  1.00  0.00    -0.462 OA
BRANCH   2   3
ATOM      3  C   UNL A   1      40.696  31.233  30.611  1.00  0.00     0.328 C 
ATOM      4  O   UNL A   1      39.982  31.982  29.956  1.00  0.00    -0.250 OA
BRANCH   3   5
ATOM      5  C   UNL A   1      42.165  31.014  30.278  1.00  0.00     0.192 C 
BRANCH   5   6
ATOM      6  C   UNL A   1      42.776  32.355  30.794  1.00  0.00     0.040 C 
BRANCH   6   7
ATOM      7  C   UNL A   1      42.301  32.730  32.203  1.00  0.00    -0.015 C 
ATOM      8  C   UNL A   1      43.284  32.197  33.239  1.00  0.00     0.007 C 
ATOM      9  C   UNL A   1      42.154  34.250  32.317  1.00  0.00     0.007 C 
ENDBRANCH   6   7
ENDBRANCH   5   6
BRANCH   5  10
ATOM     10  N   UNL A   1      42.602  30.770  28.887  1.00  0.00    -0.341 N 
ATOM     11  C   UNL A   1      43.453  29.965  28.215  1.00  0.00     0.243 C 
ATOM     12  H   UNL A   1      42.133  31.374  28.267  1.00  0.00     0.164 HD
ATOM     13  O   UNL A   1      43.887  30.571  27.205  1.00  0.00    -0.273 OA
BRANCH  11  14
ATOM     14  C   UNL A   1      44.186  28.578  28.550  1.00  0.00     0.174 C 
BRANCH  14  15
ATOM     15  N   UNL A   1      45.391  28.838  27.714  1.00  0.00    -0.342 N 
ATOM     16  C   UNL A   1      46.097  28.093  26.825  1.00  0.00     0.242 C 
ATOM     17  H   UNL A   1      45.754  29.746  27.832  1.00  0.00     0.164 HD
ATOM     18  O   UNL A   1      47.323  28.209  26.811  1.00  0.00    -0.273 OA
BRANCH  16  19
ATOM     19  C   UNL A   1      45.379  27.217  25.810  1.00  0.00     0.168 C 
ATOM     20  C   UNL A   1      46.471  26.698  24.894  1.00  0.00     0.041 C 
BRANCH  19  21
ATOM     21  N   UNL A   1      44.273  27.945  25.202  1.00  0.00    -0.343 N 
ATOM     22  C   UNL A   1      42.930  27.707  25.202  1.00  0.00     0.240 C 
ATOM     23  H   UNL A   1      44.541  28.752  24.705  1.00  0.00     0.164 HD
ATOM     24  O   UNL A   1      42.184  28.484  24.600  1.00  0.00    -0.273 OA
BRANCH  22  25
ATOM     25  C   UNL A   1      42.371  26.399  25.710  1.00  0.00     0.219 C 
BRANCH  25  26
ATOM     26  N   UNL A   1      41.627  26.788  26.891  1.00  0.00    -0.312 N 
ATOM     27  C   UNL A   1      40.360  26.379  27.156  1.00  0.00     0.407 C 
ATOM     28  H   UNL A   1      42.066  27.383  27.540  1.00  0.00     0.167 HD
ATOM     29  O   UNL A   1      39.633  26.959  27.940  1.00  0.00    -0.225 OA
BRANCH  27  30
ATOM     30  O   UNL A   1      40.041  25.291  26.408  1.00  0.00    -0.445 OA
BRANCH  30  31
ATOM     31  C   UNL A   1      39.411  24.209  27.101  1.00  0.00     0.270 C 
BRANCH  31  32
ATOM     32  C   UNL A   1      40.311  23.016  27.141  1.00  0.00    -0.011 A 
ATOM     33  C   UNL A   1      39.907  21.843  26.501  1.00  0.00     0.007 A 
ATOM     34  C   UNL A   1      41.508  23.032  27.874  1.00  0.00     0.007 A 
ATOM     35  C   UNL A   1      40.647  20.680  26.671  1.00  0.00     0.000 A 
ATOM     36  C   UNL A   1      42.225  21.865  28.071  1.00  0.00     0.000 A 
ATOM     37  C   UNL A   1      41.787  20.686  27.477  1.00  0.00     0.000 A 
ENDBRANCH  31  32
ENDBRANCH  30  31
ENDBRANCH  27  30
ENDBRANCH  25  26
ENDBRANCH  22  25
ENDBRANCH  19  21
ENDBRANCH  16  19
ENDBRANCH  14  15
BRANCH  14  38
ATOM     38  C   UNL A   1      44.249  27.454  29.736  1.00  0.00     0.015 C 
ATOM     39  C   UNL A   1      43.105  26.724  30.494  1.00  0.00     0.010 C 
ATOM     40  C   UNL A   1      44.949  26.146  29.221  1.00  0.00     0.010 C 
ENDBRANCH  14  38
ENDBRANCH  11  14
ENDBRANCH   5  10
ENDBRANCH   3   5
ENDBRANCH   2   3
ENDBRANCH   1   2
BRANCH   1  41
ATOM     41  C   UNL A   1      38.667  28.647  30.900  1.00  0.00     0.202 C 
BRANCH  41  42
ATOM     42  O   UNL A   1      37.986  29.180  29.739  1.00  0.00    -0.376 OA
BRANCH  42  43
ATOM     43  C   UNL A   1      36.584  29.500  29.854  1.00  0.00     0.188 C 
BRANCH  43  44
ATOM     44  C   UNL A   1      35.877  29.802  28.463  1.00  0.00     0.188 C 
BRANCH  44  45
ATOM     45  O   UNL A   1      35.223  31.060  28.489  1.00  0.00    -0.376 OA
BRANCH  45  46
ATOM     46  C   UNL A   1      35.748  32.182  29.210  1.00  0.00     0.202 C 
BRANCH  46  47
ATOM     47  C   UNL A   1      35.082  33.562  29.563  1.00  0.00     0.261 C 
BRANCH  47  48
ATOM     48  O   UNL A   1      35.332  34.243  30.814  1.00  0.00    -0.460 OA
BRANCH  48  49
ATOM     49  C   UNL A   1      35.138  33.465  31.932  1.00  0.00     0.338 C 
ATOM     50  O   UNL A   1      34.162  32.758  32.144  1.00  0.00    -0.246 OA
BRANCH  49  51
ATOM     51  C   UNL A   1      36.265  33.475  32.917  1.00  0.00     0.060 A 
ATOM     52  C   UNL A   1      37.571  33.591  32.418  1.00  0.00     0.016 A 
ATOM     53  C   UNL A   1      36.095  33.227  34.288  1.00  0.00     0.016 A 
ATOM     54  C   UNL A   1      38.686  33.514  33.270  1.00  0.00     0.010 A 
ATOM     55  C   UNL A   1      37.220  33.124  35.143  1.00  0.00     0.010 A 
ATOM     56  C   UNL A   1      38.530  33.250  34.637  1.00  0.00    -0.014 A 
BRANCH  56  57
ATOM     57  C   UNL A   1      39.738  32.862  35.436  1.00  0.00     0.031 A 
ATOM     58  C   UNL A   1      40.279  33.862  36.428  1.00  0.00     0.074 A 
ATOM     59  C   UNL A   1      40.279  31.627  35.402  1.00  0.00     0.049 A 
ATOM     60  N   UNL A   1      41.297  33.771  37.248  1.00  0.00    -0.248 NA
ATOM     61  C   UNL A   1      39.544  35.132  36.525  1.00  0.00     0.031 C 
ATOM     62  C   UNL A   1      39.786  30.514  34.598  1.00  0.00     0.029 A 
ATOM     63  N   UNL A   1      41.353  31.091  36.080  1.00  0.00    -0.354 N 
ATOM     64  C   UNL A   1      41.323  34.969  37.952  1.00  0.00     0.074 A 
ATOM     65  C   UNL A   1      40.229  35.774  37.457  1.00  0.00     0.031 C 
ATOM     66  C   UNL A   1      40.552  29.431  34.821  1.00  0.00     0.029 A 
ATOM     67  C   UNL A   1      41.622  29.780  35.757  1.00  0.00     0.049 A 
ATOM     68  H   UNL A   1      41.881  31.600  36.738  1.00  0.00     0.167 HD
ATOM     69  C   UNL A   1      42.182  35.369  38.921  1.00  0.00     0.037 A 
ATOM     70  C   UNL A   1      42.629  28.967  36.149  1.00  0.00     0.037 A 
ATOM     71  C   UNL A   1      43.279  34.578  39.411  1.00  0.00     0.049 A 
ATOM     72  C   UNL A   1      43.658  29.483  37.131  1.00  0.00     0.074 A 
ATOM     73  C   UNL A   1      44.228  34.912  40.359  1.00  0.00     0.029 A 
ATOM     74  N   UNL A   1      43.579  33.294  38.978  1.00  0.00    -0.354 N 
ATOM     75  N   UNL A   1      43.696  30.631  37.764  1.00  0.00    -0.248 NA
ATOM     76  C   UNL A   1      44.791  28.598  37.444  1.00  0.00     0.031 C 
ATOM     77  C   UNL A   1      45.144  33.859  40.450  1.00  0.00     0.029 A 
ATOM     78  C   UNL A   1      44.722  32.838  39.612  1.00  0.00     0.049 A 
ATOM     79  H   UNL A   1      43.055  32.783  38.319  1.00  0.00     0.167 HD
ATOM     80  C   UNL A   1      44.832  30.594  38.565  1.00  0.00     0.074 A 
ATOM     81  C   UNL A   1      45.450  29.303  38.352  1.00  0.00     0.031 C 
ATOM     82  C   UNL A   1      45.321  31.544  39.400  1.00  0.00     0.037 A 
BRANCH  69  83
ATOM     83  C   UNL A   1      42.012  36.762  39.457  1.00  0.00     0.064 A 
ATOM     84  C   UNL A   1      42.760  37.846  38.975  1.00  0.00     0.173 A 
ATOM     85  C   UNL A   1      41.083  37.010  40.480  1.00  0.00     0.173 A 
ATOM     86  F   UNL A   1      43.674  37.661  38.011  1.00  0.00    -0.203 F 
ATOM     87  C   UNL A   1      42.610  39.119  39.522  1.00  0.00     0.198 A 
ATOM     88  C   UNL A   1      40.912  38.288  41.001  1.00  0.00     0.198 A 
ATOM     89  F   UNL A   1      40.339  36.009  40.975  1.00  0.00    -0.203 F 
ATOM     90  F   UNL A   1      43.379  40.127  39.090  1.00  0.00    -0.200 F 
ATOM     91  C   UNL A   1      41.684  39.339  40.530  1.00  0.00     0.200 A 
ATOM     92  F   UNL A   1      40.007  38.500  41.967  1.00  0.00    -0.200 F 
ATOM     93  F   UNL A   1      41.542  40.564  41.057  1.00  0.00    -0.200 F 
ENDBRANCH  69  83
BRANCH  70  94
ATOM     94  C   UNL A   1      42.767  27.594  35.573  1.00  0.00     0.064 A 
ATOM     95  C   UNL A   1      42.038  26.504  36.073  1.00  0.00     0.173 A 
ATOM     96  C   UNL A   1      43.695  27.331  34.551  1.00  0.00     0.173 A 
ATOM     97  F   UNL A   1      41.164  26.686  37.074  1.00  0.00    -0.203 F 
ATOM     98  C   UNL A   1      42.244  25.210  35.591  1.00  0.00     0.198 A 
ATOM     99  C   UNL A   1      43.876  26.044  34.047  1.00  0.00     0.198 A 
ATOM    100  F   UNL A   1      44.435  28.328  34.044  1.00  0.00    -0.203 F 
ATOM    101  F   UNL A   1      41.579  24.181  36.132  1.00  0.00    -0.200 F 
ATOM    102  C   UNL A   1      43.159  24.983  34.575  1.00  0.00     0.200 A 
ATOM    103  F   UNL A   1      44.755  25.834  33.058  1.00  0.00    -0.200 F 
ATOM    104  F   UNL A   1      43.361  23.740  34.114  1.00  0.00    -0.200 F 
ENDBRANCH  70  94
BRANCH  82 105
ATOM    105  C   UNL A   1      46.566  31.224  40.179  1.00  0.00     0.064 A 
ATOM    106  C   UNL A   1      47.842  31.555  39.702  1.00  0.00     0.173 A 
ATOM    107  C   UNL A   1      46.474  30.646  41.456  1.00  0.00     0.173 A 
ATOM    108  F   UNL A   1      47.988  32.099  38.483  1.00  0.00    -0.203 F 
ATOM    109  C   UNL A   1      48.980  31.304  40.465  1.00  0.00     0.198 A 
ATOM    110  C   UNL A   1      47.611  30.429  42.230  1.00  0.00     0.198 A 
ATOM    111  F   UNL A   1      45.278  30.319  41.965  1.00  0.00    -0.203 F 
ATOM    112  F   UNL A   1      50.193  31.594  39.972  1.00  0.00    -0.200 F 
ATOM    113  C   UNL A   1      48.863  30.753  41.732  1.00  0.00     0.200 A 
ATOM    114  F   UNL A   1      47.492  29.914  43.461  1.00  0.00    -0.200 F 
ATOM    115  F   UNL A   1      49.958  30.531  42.472  1.00  0.00    -0.200 F 
ENDBRANCH  82 105
ENDBRANCH  56  57
ENDBRANCH  49  51
ENDBRANCH  48  49
ENDBRANCH  47  48
ENDBRANCH  46  47
ENDBRANCH  45  46
ENDBRANCH  44  45
ENDBRANCH  43  44
ENDBRANCH  42  43
ENDBRANCH  41  42
ENDBRANCH   1  41
TORSDOF 30
ENDMDL
MODEL 2
REMARK VINA RESULT:      -6.6      1.088      2.175
REMARK SMILES CC(C)C[C@H](NC(=O)[C@@H](NC(=O)[C@H](C)NC(=O)CNC(=O)OCc1ccccc1)C(C)C)C(=O)OCCOCCOCCOC(=O)c1ccc(-c2c3nc(c(-c4c(F)c(F)c(F)c(F)c4F)c4ccc([nH]4)c(-c4c(F)c(F)c(F)c(F)c4F)c4nc(c(-c5c(F)c(F)c(F)c(F)c5F)c5ccc2[nH]5)C=C4)C=C3)cc1
REMARK SMILES IDX 36 1 35 2 33 3 34 4 5 5 4 6 2 7 1 8 3 9 6 10 7 11 8 13 9 14
REMARK SMILES IDX 10 15 11 16 12 18 13 19 14 20 15 21 16 22 17 24 18 25 19 26
REMARK SMILES IDX 20 27 21 29 22 30 23 31 24 32 25 33 29 34 26 35 28 36 27 37
REMARK SMILES IDX 30 38 31 39 32 40 37 41 38 42 39 43 40 44 41 45 42 46 43 47
REMARK SMILES IDX 44 48 45 49 46 50 47 51 48 52 109 53 49 54 108 55 50 56
REMARK SMILES IDX 51 57 52 58 102 59 53 60 107 61 101 62 103 63 54 64 106 65
REMARK SMILES IDX 100 66 99 67 55 69 87 70 67 71 86 72 68 73 71 74 85 75
REMARK SMILES IDX 104 76 69 77 70 78 84 80 105 81 72 82 56 83 57 84 65 85
REMARK SMILES IDX 58 86 59 87 63 88 66 89 60 90 61 91 64 92 62 93 88 94 89 95
REMARK SMILES IDX 97 96 90 97 91 98 95 99 98 100 92 101 93 102 96 103 94 104
REMARK SMILES IDX 73 105 74 106 82 107 75 108 76 109 80 110 83 111 77 112
REMARK SMILES IDX 78 113 81 114 79 115
REMARK H PARENT 6 12 10 17 15 23 19 28 103 68 71 79
REMARK Flexibility Score: inf
ROOT
ATOM      1  C   UNL A   1      40.247  29.071  30.999  1.00  0.00     0.261 C 
ENDROOT
BRANCH   1   2
ATOM      2  O   UNL A   1      40.263  30.342  31.643  1.00  0.00    -0.462 OA
BRANCH   2   3
ATOM      3  C   UNL A   1      40.725  31.335  30.846  1.00  0.00     0.328 C 
ATOM      4  O   UNL A   1      40.010  32.045  30.151  1.00  0.00    -0.250 OA
BRANCH   3   5
ATOM      5  C   UNL A   1      42.233  31.268  30.657  1.00  0.00     0.192 C 
BRANCH   5   6
ATOM      6  C   UNL A   1      42.633  32.728  31.039  1.00  0.00     0.040 C 
BRANCH   6   7
ATOM      7  C   UNL A   1      42.279  33.090  32.486  1.00  0.00    -0.015 C 
ATOM      8  C   UNL A   1      43.276  32.442  33.439  1.00  0.00     0.007 C 
ATOM      9  C   UNL A   1      42.267  34.613  32.655  1.00  0.00     0.007 C 
ENDBRANCH   6   7
ENDBRANCH   5   6
BRANCH   5  10
ATOM     10  N   UNL A   1      42.821  30.917  29.347  1.00  0.00    -0.341 N 
ATOM     11  C   UNL A   1      43.425  29.865  28.752  1.00  0.00     0.243 C 
ATOM     12  H   UNL A   1      42.751  31.674  28.722  1.00  0.00     0.164 HD
ATOM     13  O   UNL A   1      44.252  30.285  27.905  1.00  0.00    -0.273 OA
BRANCH  11  14
ATOM     14  C   UNL A   1      43.498  28.293  29.060  1.00  0.00     0.174 C 
BRANCH  14  15
ATOM     15  N   UNL A   1      44.886  28.309  29.600  1.00  0.00    -0.342 N 
ATOM     16  C   UNL A   1      45.934  27.449  29.526  1.00  0.00     0.242 C 
ATOM     17  H   UNL A   1      45.087  29.118  30.125  1.00  0.00     0.164 HD
ATOM     18  O   UNL A   1      46.643  27.304  30.523  1.00  0.00    -0.273 OA
BRANCH  16  19
ATOM     19  C   UNL A   1      46.277  26.763  28.212  1.00  0.00     0.168 C 
ATOM     20  C   UNL A   1      47.513  25.935  28.511  1.00  0.00     0.041 C 
BRANCH  19  21
ATOM     21  N   UNL A   1      46.359  27.739  27.134  1.00  0.00    -0.343 N 
ATOM     22  C   UNL A   1      45.519  28.003  26.093  1.00  0.00     0.240 C 
ATOM     23  H   UNL A   1      47.162  28.309  27.163  1.00  0.00     0.164 HD
ATOM     24  O   UNL A   1      45.817  28.896  25.296  1.00  0.00    -0.273 OA
BRANCH  22  25
ATOM     25  C   UNL A   1      44.372  27.078  25.764  1.00  0.00     0.219 C 
BRANCH  25  26
ATOM     26  N   UNL A   1      44.959  26.131  24.836  1.00  0.00    -0.312 N 
ATOM     27  C   UNL A   1      45.213  24.833  25.139  1.00  0.00     0.407 C 
ATOM     28  H   UNL A   1      45.187  26.449  23.933  1.00  0.00     0.167 HD
ATOM     29  O   UNL A   1      45.996  24.152  24.505  1.00  0.00    -0.225 OA
BRANCH  27  30
ATOM     30  O   UNL A   1      44.511  24.450  26.237  1.00  0.00    -0.445 OA
BRANCH  30  31
ATOM     31  C   UNL A   1      44.333  23.042  26.416  1.00  0.00     0.270 C 
BRANCH  31  32
ATOM     32  C   UNL A   1      42.891  22.719  26.643  1.00  0.00    -0.011 A 
ATOM     33  C   UNL A   1      41.930  23.697  26.379  1.00  0.00     0.007 A 
ATOM     34  C   UNL A   1      42.499  21.487  27.188  1.00  0.00     0.007 A 
ATOM     35  C   UNL A   1      40.608  23.473  26.743  1.00  0.00     0.000 A 
ATOM     36  C   UNL A   1      41.189  21.280  27.582  1.00  0.00     0.000 A 
ATOM     37  C   UNL A   1      40.246  22.279  27.369  1.00  0.00     0.000 A 
ENDBRANCH  31  32
ENDBRANCH  30  31
ENDBRANCH  27  30
ENDBRANCH  25  26
ENDBRANCH  22  25
ENDBRANCH  19  21
ENDBRANCH  16  19
ENDBRANCH  14  15
BRANCH  14  38
ATOM     38  C   UNL A   1      42.506  27.042  29.412  1.00  0.00     0.015 C 
ATOM     39  C   UNL A   1      41.206  26.559  28.709  1.00  0.00     0.010 C 
ATOM     40  C   UNL A   1      43.268  25.676  29.275  1.00  0.00     0.010 C 
ENDBRANCH  14  38
ENDBRANCH  11  14
ENDBRANCH   5  10
ENDBRANCH   3   5
ENDBRANCH   2   3
ENDBRANCH   1   2
BRANCH   1  41
ATOM     41  C   UNL A   1      38.791  28.658  30.875  1.00  0.00     0.202 C 
BRANCH  41  42
ATOM     42  O   UNL A   1      38.077  29.386  29.847  1.00  0.00    -0.376 OA
BRANCH  42  43
ATOM     43  C   UNL A   1      36.637  29.422  29.909  1.00  0.00     0.188 C 
BRANCH  43  44
ATOM     44  C   UNL A   1      35.945  29.852  28.544  1.00  0.00     0.188 C 
BRANCH  44  45
ATOM     45  O   UNL A   1      35.288  31.101  28.680  1.00  0.00    -0.376 OA
BRANCH  45  46
ATOM     46  C   UNL A   1      35.868  32.198  29.398  1.00  0.00     0.202 C 
BRANCH  46  47
ATOM     47  C   UNL A   1      35.314  33.647  29.653  1.00  0.00     0.261 C 
BRANCH  47  48
ATOM     48  O   UNL A   1      35.498  34.333  30.914  1.00  0.00    -0.460 OA
BRANCH  48  49
ATOM     49  C   UNL A   1      35.268  33.553  32.023  1.00  0.00     0.338 C 
ATOM     50  O   UNL A   1      34.286  32.847  32.203  1.00  0.00    -0.246 OA
BRANCH  49  51
ATOM     51  C   UNL A   1      36.364  33.559  33.043  1.00  0.00     0.060 A 
ATOM     52  C   UNL A   1      37.675  33.775  32.594  1.00  0.00     0.016 A 
ATOM     53  C   UNL A   1      36.169  33.215  34.389  1.00  0.00     0.016 A 
ATOM     54  C   UNL A   1      38.769  33.701  33.475  1.00  0.00     0.010 A 
ATOM     55  C   UNL A   1      37.273  33.116  35.272  1.00  0.00     0.010 A 
ATOM     56  C   UNL A   1      38.587  33.343  34.817  1.00  0.00    -0.014 A 
BRANCH  56  57
ATOM     57  C   UNL A   1      39.792  32.968  35.629  1.00  0.00     0.031 A 
ATOM     58  C   UNL A   1      40.290  33.960  36.651  1.00  0.00     0.074 A 
ATOM     59  C   UNL A   1      40.364  31.748  35.579  1.00  0.00     0.049 A 
ATOM     60  N   UNL A   1      41.296  33.877  37.487  1.00  0.00    -0.248 NA
ATOM     61  C   UNL A   1      39.522  35.209  36.761  1.00  0.00     0.031 C 
ATOM     62  C   UNL A   1      39.912  30.640  34.744  1.00  0.00     0.029 A 
ATOM     63  N   UNL A   1      41.439  31.225  36.264  1.00  0.00    -0.354 N 
ATOM     64  C   UNL A   1      41.280  35.060  38.215  1.00  0.00     0.074 A 
ATOM     65  C   UNL A   1      40.175  35.849  37.718  1.00  0.00     0.031 C 
ATOM     66  C   UNL A   1      40.702  29.572  34.958  1.00  0.00     0.029 A 
ATOM     67  C   UNL A   1      41.747  29.928  35.919  1.00  0.00     0.049 A 
ATOM     68  H   UNL A   1      41.943  31.732  36.942  1.00  0.00     0.167 HD
ATOM     69  C   UNL A   1      42.112  35.461  39.206  1.00  0.00     0.037 A 
ATOM     70  C   UNL A   1      42.767  29.132  36.312  1.00  0.00     0.037 A 
ATOM     71  C   UNL A   1      43.220  34.687  39.699  1.00  0.00     0.049 A 
ATOM     72  C   UNL A   1      43.766  29.653  37.322  1.00  0.00     0.074 A 
ATOM     73  C   UNL A   1      44.145  35.025  40.671  1.00  0.00     0.029 A 
ATOM     74  N   UNL A   1      43.559  33.421  39.246  1.00  0.00    -0.354 N 
ATOM     75  N   UNL A   1      43.764  30.788  37.979  1.00  0.00    -0.248 NA
ATOM     76  C   UNL A   1      44.915  28.789  37.636  1.00  0.00     0.031 C 
ATOM     77  C   UNL A   1      45.085  33.993  40.756  1.00  0.00     0.029 A 
ATOM     78  C   UNL A   1      44.704  32.980  39.890  1.00  0.00     0.049 A 
ATOM     79  H   UNL A   1      43.061  32.911  38.567  1.00  0.00     0.167 HD
ATOM     80  C   UNL A   1      44.887  30.762  38.799  1.00  0.00     0.074 A 
ATOM     81  C   UNL A   1      45.541  29.491  38.570  1.00  0.00     0.031 C 
ATOM     82  C   UNL A   1      45.338  31.706  39.662  1.00  0.00     0.037 A 
BRANCH  69  83
ATOM     83  C   UNL A   1      41.898  36.837  39.769  1.00  0.00     0.064 A 
ATOM     84  C   UNL A   1      40.970  37.093  40.790  1.00  0.00     0.173 A 
ATOM     85  C   UNL A   1      42.635  37.922  39.268  1.00  0.00     0.173 A 
ATOM     86  F   UNL A   1      40.226  36.096  41.291  1.00  0.00    -0.203 F 
ATOM     87  C   UNL A   1      40.764  38.387  41.262  1.00  0.00     0.198 A 
ATOM     88  C   UNL A   1      42.450  39.208  39.765  1.00  0.00     0.198 A 
ATOM     89  F   UNL A   1      43.538  37.732  38.293  1.00  0.00    -0.203 F 
ATOM     90  F   UNL A   1      39.828  38.619  42.194  1.00  0.00    -0.200 F 
ATOM     91  C   UNL A   1      41.507  39.442  40.753  1.00  0.00     0.200 A 
ATOM     92  F   UNL A   1      43.179  40.222  39.279  1.00  0.00    -0.200 F 
ATOM     93  F   UNL A   1      41.306  40.687  41.207  1.00  0.00    -0.200 F 
ENDBRANCH  69  83
BRANCH  70  94
ATOM     94  C   UNL A   1      42.950  27.775  35.710  1.00  0.00     0.064 A 
ATOM     95  C   UNL A   1      43.749  27.570  34.575  1.00  0.00     0.173 A 
ATOM     96  C   UNL A   1      42.263  26.661  36.221  1.00  0.00     0.173 A 
ATOM     97  F   UNL A   1      44.399  28.603  34.019  1.00  0.00    -0.203 F 
ATOM     98  C   UNL A   1      43.838  26.317  33.966  1.00  0.00     0.198 A 
ATOM     99  C   UNL A   1      42.379  25.403  35.633  1.00  0.00     0.198 A 
ATOM    100  F   UNL A   1      41.471  26.796  37.295  1.00  0.00    -0.203 F 
ATOM    101  F   UNL A   1      44.558  26.167  32.846  1.00  0.00    -0.200 F 
ATOM    102  C   UNL A   1      43.157  25.234  34.499  1.00  0.00     0.200 A 
ATOM    103  F   UNL A   1      41.726  24.358  36.160  1.00  0.00    -0.200 F 
ATOM    104  F   UNL A   1      43.239  24.031  33.913  1.00  0.00    -0.200 F 
ENDBRANCH  70  94
BRANCH  82 105
ATOM    105  C   UNL A   1      46.578  31.400  40.455  1.00  0.00     0.064 A 
ATOM    106  C   UNL A   1      47.852  31.778  40.009  1.00  0.00     0.173 A 
ATOM    107  C   UNL A   1      46.479  30.789  41.716  1.00  0.00     0.173 A 
ATOM    108  F   UNL A   1      48.005  32.355  38.807  1.00  0.00    -0.203 F 
ATOM    109  C   UNL A   1      48.983  31.539  40.787  1.00  0.00     0.198 A 
ATOM    110  C   UNL A   1      47.607  30.584  42.506  1.00  0.00     0.198 A 
ATOM    111  F   UNL A   1      45.283  30.418  42.195  1.00  0.00    -0.203 F 
ATOM    112  F   UNL A   1      50.196  31.874  40.323  1.00  0.00    -0.200 F 
ATOM    113  C   UNL A   1      48.859  30.954  42.038  1.00  0.00     0.200 A 
ATOM    114  F   UNL A   1      47.481  30.036  43.722  1.00  0.00    -0.200 F 
ATOM    115  F   UNL A   1      49.946  30.743  42.793  1.00  0.00    -0.200 F 
ENDBRANCH  82 105
ENDBRANCH  56  57
ENDBRANCH  49  51
ENDBRANCH  48  49
ENDBRANCH  47  48
ENDBRANCH  46  47
ENDBRANCH  45  46
ENDBRANCH  44  45
ENDBRANCH  43  44
ENDBRANCH  42  43
ENDBRANCH  41  42
ENDBRANCH   1  41
TORSDOF 30
ENDMDL
MODEL 3
REMARK VINA RESULT:      -6.4      6.783     12.504
REMARK SMILES CC(C)C[C@H](NC(=O)[C@@H](NC(=O)[C@H](C)NC(=O)CNC(=O)OCc1ccccc1)C(C)C)C(=O)OCCOCCOCCOC(=O)c1ccc(-c2c3nc(c(-c4c(F)c(F)c(F)c(F)c4F)c4ccc([nH]4)c(-c4c(F)c(F)c(F)c(F)c4F)c4nc(c(-c5c(F)c(F)c(F)c(F)c5F)c5ccc2[nH]5)C=C4)C=C3)cc1
REMARK SMILES IDX 36 1 35 2 33 3 34 4 5 5 4 6 2 7 1 8 3 9 6 10 7 11 8 13 9 14
REMARK SMILES IDX 10 15 11 16 12 18 13 19 14 20 15 21 16 22 17 24 18 25 19 26
REMARK SMILES IDX 20 27 21 29 22 30 23 31 24 32 25 33 29 34 26 35 28 36 27 37
REMARK SMILES IDX 30 38 31 39 32 40 37 41 38 42 39 43 40 44 41 45 42 46 43 47
REMARK SMILES IDX 44 48 45 49 46 50 47 51 48 52 109 53 49 54 108 55 50 56
REMARK SMILES IDX 51 57 52 58 102 59 53 60 107 61 101 62 103 63 54 64 106 65
REMARK SMILES IDX 100 66 99 67 55 69 87 70 67 71 86 72 68 73 71 74 85 75
REMARK SMILES IDX 104 76 69 77 70 78 84 80 105 81 72 82 56 83 57 84 65 85
REMARK SMILES IDX 58 86 59 87 63 88 66 89 60 90 61 91 64 92 62 93 88 94 89 95
REMARK SMILES IDX 97 96 90 97 91 98 95 99 98 100 92 101 93 102 96 103 94 104
REMARK SMILES IDX 73 105 74 106 82 107 75 108 76 109 80 110 83 111 77 112
REMARK SMILES IDX 78 113 81 114 79 115
REMARK H PARENT 6 12 10 17 15 23 19 28 103 68 71 79
REMARK Flexibility Score: inf
ROOT
ATOM      1  C   UNL A   1      40.929  30.140  30.956  1.00  0.00     0.261 C 
ENDROOT
BRANCH   1   2
ATOM      2  O   UNL A   1      41.211  31.071  31.997  1.00  0.00    -0.462 OA
BRANCH   2   3
ATOM      3  C   UNL A   1      40.110  31.432  32.698  1.00  0.00     0.328 C 
ATOM      4  O   UNL A   1      39.796  32.592  32.934  1.00  0.00    -0.250 OA
BRANCH   3   5
ATOM      5  C   UNL A   1      39.481  30.255  33.430  1.00  0.00     0.192 C 
BRANCH   5   6
ATOM      6  C   UNL A   1      37.995  30.730  33.507  1.00  0.00     0.040 C 
BRANCH   6   7
ATOM      7  C   UNL A   1      37.051  29.894  32.634  1.00  0.00    -0.015 C 
ATOM      8  C   UNL A   1      36.602  30.712  31.428  1.00  0.00     0.007 C 
ATOM      9  C   UNL A   1      37.751  28.605  32.194  1.00  0.00     0.007 C 
ENDBRANCH   6   7
ENDBRANCH   5   6
BRANCH   5  10
ATOM     10  N   UNL A   1      39.948  29.859  34.775  1.00  0.00    -0.341 N 
ATOM     11  C   UNL A   1      41.103  29.537  35.397  1.00  0.00     0.243 C 
ATOM     12  H   UNL A   1      39.193  29.819  35.405  1.00  0.00     0.164 HD
ATOM     13  O   UNL A   1      40.865  28.709  36.311  1.00  0.00    -0.273 OA
BRANCH  11  14
ATOM     14  C   UNL A   1      42.655  29.768  35.069  1.00  0.00     0.174 C 
BRANCH  14  15
ATOM     15  N   UNL A   1      42.654  29.015  33.785  1.00  0.00    -0.342 N 
ATOM     16  C   UNL A   1      43.277  27.888  33.355  1.00  0.00     0.242 C 
ATOM     17  H   UNL A   1      42.076  29.422  33.099  1.00  0.00     0.164 HD
ATOM     18  O   UNL A   1      43.683  27.852  32.193  1.00  0.00    -0.273 OA
BRANCH  16  19
ATOM     19  C   UNL A   1      43.379  26.669  34.260  1.00  0.00     0.168 C 
ATOM     20  C   UNL A   1      44.078  25.614  33.424  1.00  0.00     0.041 C 
BRANCH  19  21
ATOM     21  N   UNL A   1      42.073  26.339  34.816  1.00  0.00    -0.343 N 
ATOM     22  C   UNL A   1      41.701  25.426  35.758  1.00  0.00     0.240 C 
ATOM     23  H   UNL A   1      41.329  26.867  34.447  1.00  0.00     0.164 HD
ATOM     24  O   UNL A   1      40.509  25.332  36.062  1.00  0.00    -0.273 OA
BRANCH  22  25
ATOM     25  C   UNL A   1      42.670  24.378  36.253  1.00  0.00     0.219 C 
BRANCH  25  26
ATOM     26  N   UNL A   1      43.180  24.946  37.484  1.00  0.00    -0.312 N 
ATOM     27  C   UNL A   1      44.464  24.812  37.904  1.00  0.00     0.407 C 
ATOM     28  H   UNL A   1      42.560  25.461  38.049  1.00  0.00     0.167 HD
ATOM     29  O   UNL A   1      44.798  24.983  39.061  1.00  0.00    -0.225 OA
BRANCH  27  30
ATOM     30  O   UNL A   1      45.269  24.436  36.876  1.00  0.00    -0.445 OA
BRANCH  30  31
ATOM     31  C   UNL A   1      46.404  23.637  37.220  1.00  0.00     0.270 C 
BRANCH  31  32
ATOM     32  C   UNL A   1      46.516  22.459  36.306  1.00  0.00    -0.011 A 
ATOM     33  C   UNL A   1      45.422  22.120  35.506  1.00  0.00     0.007 A 
ATOM     34  C   UNL A   1      47.662  21.650  36.299  1.00  0.00     0.007 A 
ATOM     35  C   UNL A   1      45.447  20.935  34.781  1.00  0.00     0.000 A 
ATOM     36  C   UNL A   1      47.671  20.454  35.603  1.00  0.00     0.000 A 
ATOM     37  C   UNL A   1      46.557  20.092  34.853  1.00  0.00     0.000 A 
ENDBRANCH  31  32
ENDBRANCH  30  31
ENDBRANCH  27  30
ENDBRANCH  25  26
ENDBRANCH  22  25
ENDBRANCH  19  21
ENDBRANCH  16  19
ENDBRANCH  14  15
BRANCH  14  38
ATOM     38  C   UNL A   1      43.849  30.842  35.377  1.00  0.00     0.015 C 
ATOM     39  C   UNL A   1      44.965  30.825  36.460  1.00  0.00     0.010 C 
ATOM     40  C   UNL A   1      44.828  30.948  34.153  1.00  0.00     0.010 C 
ENDBRANCH  14  38
ENDBRANCH  11  14
ENDBRANCH   5  10
ENDBRANCH   3   5
ENDBRANCH   2   3
ENDBRANCH   1   2
BRANCH   1  41
ATOM     41  C   UNL A   1      42.148  30.108  30.051  1.00  0.00     0.202 C 
BRANCH  41  42
ATOM     42  O   UNL A   1      41.821  29.850  28.664  1.00  0.00    -0.376 OA
BRANCH  42  43
ATOM     43  C   UNL A   1      41.850  28.486  28.196  1.00  0.00     0.188 C 
BRANCH  43  44
ATOM     44  C   UNL A   1      40.742  28.156  27.106  1.00  0.00     0.188 C 
BRANCH  44  45
ATOM     45  O   UNL A   1      40.326  26.804  27.199  1.00  0.00    -0.376 OA
BRANCH  45  46
ATOM     46  C   UNL A   1      40.734  25.949  28.275  1.00  0.00     0.202 C 
BRANCH  46  47
ATOM     47  C   UNL A   1      41.270  24.471  28.247  1.00  0.00     0.261 C 
BRANCH  47  48
ATOM     48  O   UNL A   1      42.665  24.159  28.026  1.00  0.00    -0.460 OA
BRANCH  48  49
ATOM     49  C   UNL A   1      43.068  24.260  26.715  1.00  0.00     0.338 C 
ATOM     50  O   UNL A   1      42.504  23.748  25.757  1.00  0.00    -0.246 OA
BRANCH  49  51
ATOM     51  C   UNL A   1      44.270  25.123  26.483  1.00  0.00     0.060 A 
ATOM     52  C   UNL A   1      44.959  25.601  27.607  1.00  0.00     0.016 A 
ATOM     53  C   UNL A   1      44.650  25.594  25.217  1.00  0.00     0.016 A 
ATOM     54  C   UNL A   1      46.039  26.491  27.475  1.00  0.00     0.010 A 
ATOM     55  C   UNL A   1      45.722  26.512  25.086  1.00  0.00     0.010 A 
ATOM     56  C   UNL A   1      46.417  26.982  26.218  1.00  0.00    -0.014 A 
BRANCH  56  57
ATOM     57  C   UNL A   1      47.347  28.156  26.157  1.00  0.00     0.031 A 
ATOM     58  C   UNL A   1      46.774  29.525  26.431  1.00  0.00     0.074 A 
ATOM     59  C   UNL A   1      48.681  28.034  25.998  1.00  0.00     0.049 A 
ATOM     60  N   UNL A   1      47.361  30.697  26.455  1.00  0.00    -0.248 NA
ATOM     61  C   UNL A   1      45.339  29.568  26.751  1.00  0.00     0.031 C 
ATOM     62  C   UNL A   1      49.399  26.772  25.859  1.00  0.00     0.029 A 
ATOM     63  N   UNL A   1      49.677  28.985  25.950  1.00  0.00    -0.354 N 
ATOM     64  C   UNL A   1      46.368  31.610  26.789  1.00  0.00     0.074 A 
ATOM     65  C   UNL A   1      45.141  30.862  26.948  1.00  0.00     0.031 C 
ATOM     66  C   UNL A   1      50.716  27.021  25.737  1.00  0.00     0.029 A 
ATOM     67  C   UNL A   1      50.937  28.468  25.747  1.00  0.00     0.049 A 
ATOM     68  H   UNL A   1      49.504  29.949  26.052  1.00  0.00     0.167 HD
ATOM     69  C   UNL A   1      46.463  32.952  26.946  1.00  0.00     0.037 A 
ATOM     70  C   UNL A   1      52.123  29.089  25.564  1.00  0.00     0.037 A 
ATOM     71  C   UNL A   1      47.678  33.705  26.780  1.00  0.00     0.049 A 
ATOM     72  C   UNL A   1      52.182  30.601  25.607  1.00  0.00     0.074 A 
ATOM     73  C   UNL A   1      47.867  35.072  26.876  1.00  0.00     0.029 A 
ATOM     74  N   UNL A   1      48.911  33.151  26.469  1.00  0.00    -0.354 N 
ATOM     75  N   UNL A   1      51.231  31.459  25.888  1.00  0.00    -0.248 NA
ATOM     76  C   UNL A   1      53.474  31.232  25.297  1.00  0.00     0.031 C 
ATOM     77  C   UNL A   1      49.199  35.352  26.555  1.00  0.00     0.029 A 
ATOM     78  C   UNL A   1      49.857  34.153  26.330  1.00  0.00     0.049 A 
ATOM     79  H   UNL A   1      49.088  32.188  26.362  1.00  0.00     0.167 HD
ATOM     80  C   UNL A   1      51.813  32.720  25.816  1.00  0.00     0.074 A 
ATOM     81  C   UNL A   1      53.206  32.517  25.481  1.00  0.00     0.031 C 
ATOM     82  C   UNL A   1      51.245  33.936  26.008  1.00  0.00     0.037 A 
BRANCH  69  83
ATOM     83  C   UNL A   1      45.195  33.701  27.241  1.00  0.00     0.064 A 
ATOM     84  C   UNL A   1      44.369  34.203  26.223  1.00  0.00     0.173 A 
ATOM     85  C   UNL A   1      44.805  33.924  28.570  1.00  0.00     0.173 A 
ATOM     86  F   UNL A   1      44.704  34.034  24.936  1.00  0.00    -0.203 F 
ATOM     87  C   UNL A   1      43.220  34.930  26.528  1.00  0.00     0.198 A 
ATOM     88  C   UNL A   1      43.641  34.623  28.871  1.00  0.00     0.198 A 
ATOM     89  F   UNL A   1      45.558  33.464  29.581  1.00  0.00    -0.203 F 
ATOM     90  F   UNL A   1      42.479  35.454  25.542  1.00  0.00    -0.200 F 
ATOM     91  C   UNL A   1      42.855  35.136  27.850  1.00  0.00     0.200 A 
ATOM     92  F   UNL A   1      43.284  34.809  30.150  1.00  0.00    -0.200 F 
ATOM     93  F   UNL A   1      41.751  35.838  28.142  1.00  0.00    -0.200 F 
ENDBRANCH  69  83
BRANCH  70  94
ATOM     94  C   UNL A   1      53.356  28.302  25.255  1.00  0.00     0.064 A 
ATOM     95  C   UNL A   1      53.735  28.005  23.936  1.00  0.00     0.173 A 
ATOM     96  C   UNL A   1      54.146  27.766  26.285  1.00  0.00     0.173 A 
ATOM     97  F   UNL A   1      52.998  28.457  22.910  1.00  0.00    -0.203 F 
ATOM     98  C   UNL A   1      54.835  27.190  23.663  1.00  0.00     0.198 A 
ATOM     99  C   UNL A   1      55.265  26.980  26.011  1.00  0.00     0.198 A 
ATOM    100  F   UNL A   1      53.827  28.000  27.567  1.00  0.00    -0.203 F 
ATOM    101  F   UNL A   1      55.133  26.872  22.396  1.00  0.00    -0.200 F 
ATOM    102  C   UNL A   1      55.602  26.683  24.700  1.00  0.00     0.200 A 
ATOM    103  F   UNL A   1      56.007  26.501  27.019  1.00  0.00    -0.200 F 
ATOM    104  F   UNL A   1      56.656  25.897  24.438  1.00  0.00    -0.200 F 
ENDBRANCH  70  94
BRANCH  82 105
ATOM    105  C   UNL A   1      52.125  35.150  25.898  1.00  0.00     0.064 A 
ATOM    106  C   UNL A   1      52.338  35.800  24.674  1.00  0.00     0.173 A 
ATOM    107  C   UNL A   1      52.702  35.713  27.048  1.00  0.00     0.173 A 
ATOM    108  F   UNL A   1      51.819  35.297  23.542  1.00  0.00    -0.203 F 
ATOM    109  C   UNL A   1      53.108  36.958  24.602  1.00  0.00     0.198 A 
ATOM    110  C   UNL A   1      53.443  36.891  26.977  1.00  0.00     0.198 A 
ATOM    111  F   UNL A   1      52.522  35.138  28.245  1.00  0.00    -0.203 F 
ATOM    112  F   UNL A   1      53.330  37.540  23.415  1.00  0.00    -0.200 F 
ATOM    113  C   UNL A   1      53.650  37.508  25.753  1.00  0.00     0.200 A 
ATOM    114  F   UNL A   1      53.948  37.430  28.095  1.00  0.00    -0.200 F 
ATOM    115  F   UNL A   1      54.375  38.634  25.685  1.00  0.00    -0.200 F 
ENDBRANCH  82 105
ENDBRANCH  56  57
ENDBRANCH  49  51
ENDBRANCH  48  49
ENDBRANCH  47  48
ENDBRANCH  46  47
ENDBRANCH  45  46
ENDBRANCH  44  45
ENDBRANCH  43  44
ENDBRANCH  42  43
ENDBRANCH  41  42
ENDBRANCH   1  41
TORSDOF 30
ENDMDL
