MODEL 1
REMARK VINA RESULT:     -10.4      0.000      0.000
REMARK SMILES CC[NH2+][C@@]1(C(=O)OCCOCCOCCOC(=O)c2ccc(-c3c4nc(c(-c5c(F)c(F)c(F)c(F)c5F)c5ccc([nH]5)c(-c5c(F)c(F)c(F)c(F)c5F)c5nc(c(-c6c(F)c(F)c(F)c(F)c6F)c6ccc3[nH]6)C=C5)C=C4)cc2)CCC[C@H]1CCN1C(=O)CCC1=O
REMARK SMILES IDX 11 1 10 2 9 3 8 4 7 5 5 6 6 7 4 8 82 9 85 10 83 11 84 12
REMARK SMILES IDX 3 13 2 16 1 17 86 18 87 19 88 20 89 21 93 22 90 23 91 24
REMARK SMILES IDX 92 25 94 26 12 27 13 28 14 29 15 30 16 31 17 32 18 33 19 34
REMARK SMILES IDX 20 35 81 36 21 37 80 38 22 39 23 40 24 41 74 42 25 43 79 44
REMARK SMILES IDX 73 45 75 46 26 47 78 48 72 49 71 50 27 52 59 53 39 54 58 55
REMARK SMILES IDX 40 56 43 57 57 58 76 59 41 60 42 61 56 63 77 64 44 65 28 66
REMARK SMILES IDX 29 67 37 68 30 69 31 70 35 71 38 72 32 73 33 74 36 75 34 76
REMARK SMILES IDX 60 77 61 78 69 79 62 80 63 81 67 82 70 83 64 84 65 85 68 86
REMARK SMILES IDX 66 87 45 88 46 89 54 90 47 91 48 92 52 93 55 94 49 95 50 96
REMARK SMILES IDX 53 97 51 98
REMARK H PARENT 3 14 3 15 75 51 43 62
REMARK Flexibility Score: inf
ROOT
ATOM      1  C   UNL A   1      35.039  31.303  28.013  1.00  0.00     0.188 C 
ENDROOT
BRANCH   1   2
ATOM      2  O   UNL A   1      34.157  30.947  26.975  1.00  0.00    -0.376 OA
BRANCH   2   3
ATOM      3  C   UNL A   1      33.247  29.877  27.194  1.00  0.00     0.202 C 
BRANCH   3   4
ATOM      4  C   UNL A   1      33.664  28.400  27.116  1.00  0.00     0.261 C 
BRANCH   4   5
ATOM      5  O   UNL A   1      32.670  27.467  26.635  1.00  0.00    -0.459 OA
BRANCH   5   6
ATOM      6  C   UNL A   1      33.048  26.751  25.540  1.00  0.00     0.368 C 
ATOM      7  O   UNL A   1      33.976  25.940  25.564  1.00  0.00    -0.245 OA
BRANCH   6   8
ATOM      8  C   UNL A   1      32.217  27.017  24.215  1.00  0.00     0.197 C 
ATOM      9  C   UNL A   1      33.313  27.052  23.126  1.00  0.00     0.081 C 
ATOM     10  C   UNL A   1      31.536  28.415  23.997  1.00  0.00     0.064 C 
ATOM     11  C   UNL A   1      33.901  28.454  23.268  1.00  0.00     0.008 C 
ATOM     12  C   UNL A   1      32.733  29.348  23.674  1.00  0.00     0.011 C 
BRANCH   8  13
ATOM     13  N   UNL A   1      31.260  25.899  24.187  1.00  0.00    -0.332 N 
ATOM     14  H   UNL A   1      30.906  25.831  23.233  1.00  0.00     0.347 HD
ATOM     15  H   UNL A   1      31.800  25.104  24.528  1.00  0.00     0.347 HD
BRANCH  13  16
ATOM     16  C   UNL A   1      30.108  25.944  25.067  1.00  0.00     0.257 C 
ATOM     17  C   UNL A   1      30.185  24.813  26.087  1.00  0.00     0.071 C 
ENDBRANCH  13  16
ENDBRANCH   8  13
BRANCH  10  18
ATOM     18  C   UNL A   1      30.501  28.554  22.833  1.00  0.00     0.033 C 
BRANCH  18  19
ATOM     19  C   UNL A   1      29.054  29.012  23.096  1.00  0.00     0.129 C 
BRANCH  19  20
ATOM     20  N   UNL A   1      28.694  30.407  22.883  1.00  0.00    -0.283 N 
ATOM     21  C   UNL A   1      29.141  31.449  23.645  1.00  0.00     0.229 C 
ATOM     22  C   UNL A   1      28.249  30.844  21.667  1.00  0.00     0.229 C 
ATOM     23  O   UNL A   1      29.796  31.378  24.672  1.00  0.00    -0.274 OA
ATOM     24  C   UNL A   1      28.757  32.745  22.991  1.00  0.00     0.110 C 
ATOM     25  C   UNL A   1      28.244  32.342  21.629  1.00  0.00     0.110 C 
ATOM     26  O   UNL A   1      27.936  30.139  20.714  1.00  0.00    -0.274 OA
ENDBRANCH  19  20
ENDBRANCH  18  19
ENDBRANCH  10  18
ENDBRANCH   6   8
ENDBRANCH   5   6
ENDBRANCH   4   5
ENDBRANCH   3   4
ENDBRANCH   2   3
ENDBRANCH   1   2
BRANCH   1  27
ATOM     27  C   UNL A   1      34.504  32.212  29.129  1.00  0.00     0.188 C 
BRANCH  27  28
ATOM     28  O   UNL A   1      34.951  33.541  29.269  1.00  0.00    -0.376 OA
BRANCH  28  29
ATOM     29  C   UNL A   1      34.349  34.521  28.426  1.00  0.00     0.202 C 
BRANCH  29  30
ATOM     30  C   UNL A   1      33.287  35.516  28.940  1.00  0.00     0.261 C 
BRANCH  30  31
ATOM     31  O   UNL A   1      32.534  35.099  30.095  1.00  0.00    -0.460 OA
BRANCH  31  32
ATOM     32  C   UNL A   1      32.750  35.831  31.217  1.00  0.00     0.338 C 
ATOM     33  O   UNL A   1      32.176  36.852  31.560  1.00  0.00    -0.246 OA
BRANCH  32  34
ATOM     34  C   UNL A   1      33.709  35.162  32.116  1.00  0.00     0.060 A 
ATOM     35  C   UNL A   1      35.020  35.643  32.217  1.00  0.00     0.016 A 
ATOM     36  C   UNL A   1      33.389  33.920  32.654  1.00  0.00     0.016 A 
ATOM     37  C   UNL A   1      36.015  34.898  32.826  1.00  0.00     0.010 A 
ATOM     38  C   UNL A   1      34.390  33.170  33.279  1.00  0.00     0.010 A 
ATOM     39  C   UNL A   1      35.712  33.647  33.342  1.00  0.00    -0.014 A 
BRANCH  39  40
ATOM     40  C   UNL A   1      36.810  32.779  33.808  1.00  0.00     0.031 A 
ATOM     41  C   UNL A   1      37.358  33.000  35.181  1.00  0.00     0.074 A 
ATOM     42  C   UNL A   1      37.270  31.775  33.044  1.00  0.00     0.049 A 
ATOM     43  N   UNL A   1      38.506  32.637  35.683  1.00  0.00    -0.248 NA
ATOM     44  C   UNL A   1      36.492  33.737  36.117  1.00  0.00     0.031 C 
ATOM     45  C   UNL A   1      36.684  31.325  31.781  1.00  0.00     0.029 A 
ATOM     46  N   UNL A   1      38.360  30.963  33.219  1.00  0.00    -0.354 N 
ATOM     47  C   UNL A   1      38.529  33.153  36.970  1.00  0.00     0.074 A 
ATOM     48  C   UNL A   1      37.272  33.836  37.185  1.00  0.00     0.031 C 
ATOM     49  C   UNL A   1      37.441  30.337  31.277  1.00  0.00     0.029 A 
ATOM     50  C   UNL A   1      38.615  30.171  32.126  1.00  0.00     0.049 A 
ATOM     51  H   UNL A   1      38.902  30.948  34.040  1.00  0.00     0.167 HD
ATOM     52  C   UNL A   1      39.536  33.075  37.869  1.00  0.00     0.037 A 
ATOM     53  C   UNL A   1      39.720  29.473  31.807  1.00  0.00     0.037 A 
ATOM     54  C   UNL A   1      40.761  32.362  37.621  1.00  0.00     0.049 A 
ATOM     55  C   UNL A   1      40.893  29.521  32.749  1.00  0.00     0.074 A 
ATOM     56  C   UNL A   1      41.881  32.253  38.424  1.00  0.00     0.029 A 
ATOM     57  N   UNL A   1      41.015  31.622  36.473  1.00  0.00    -0.354 N 
ATOM     58  N   UNL A   1      40.997  30.120  33.911  1.00  0.00    -0.248 NA
ATOM     59  C   UNL A   1      42.112  28.821  32.324  1.00  0.00     0.031 C 
ATOM     60  C   UNL A   1      42.830  31.486  37.741  1.00  0.00     0.029 A 
ATOM     61  C   UNL A   1      42.278  31.065  36.541  1.00  0.00     0.049 A 
ATOM     62  H   UNL A   1      40.386  31.510  35.723  1.00  0.00     0.167 HD
ATOM     63  C   UNL A   1      42.275  29.840  34.373  1.00  0.00     0.074 A 
ATOM     64  C   UNL A   1      42.911  29.019  33.363  1.00  0.00     0.031 C 
ATOM     65  C   UNL A   1      42.868  30.222  35.530  1.00  0.00     0.037 A 
BRANCH  52  66
ATOM     66  C   UNL A   1      39.390  33.834  39.154  1.00  0.00     0.064 A 
ATOM     67  C   UNL A   1      39.775  35.176  39.281  1.00  0.00     0.173 A 
ATOM     68  C   UNL A   1      38.824  33.206  40.276  1.00  0.00     0.173 A 
ATOM     69  F   UNL A   1      40.343  35.817  38.248  1.00  0.00    -0.203 F 
ATOM     70  C   UNL A   1      39.614  35.855  40.487  1.00  0.00     0.198 A 
ATOM     71  C   UNL A   1      38.636  33.896  41.469  1.00  0.00     0.198 A 
ATOM     72  F   UNL A   1      38.443  31.920  40.210  1.00  0.00    -0.203 F 
ATOM     73  F   UNL A   1      40.029  37.124  40.599  1.00  0.00    -0.200 F 
ATOM     74  C   UNL A   1      39.036  35.218  41.576  1.00  0.00     0.200 A 
ATOM     75  F   UNL A   1      38.070  33.279  42.516  1.00  0.00    -0.200 F 
ATOM     76  F   UNL A   1      38.874  35.877  42.732  1.00  0.00    -0.200 F 
ENDBRANCH  52  66
BRANCH  53  77
ATOM     77  C   UNL A   1      39.799  28.761  30.505  1.00  0.00     0.064 A 
ATOM     78  C   UNL A   1      39.287  27.467  30.358  1.00  0.00     0.173 A 
ATOM     79  C   UNL A   1      40.394  29.358  29.381  1.00  0.00     0.173 A 
ATOM     80  F   UNL A   1      38.733  26.843  31.409  1.00  0.00    -0.203 F 
ATOM     81  C   UNL A   1      39.375  26.792  29.142  1.00  0.00     0.198 A 
ATOM     82  C   UNL A   1      40.451  28.696  28.157  1.00  0.00     0.198 A 
ATOM     83  F   UNL A   1      40.908  30.594  29.467  1.00  0.00    -0.203 F 
ATOM     84  F   UNL A   1      38.919  25.536  29.041  1.00  0.00    -0.200 F 
ATOM     85  C   UNL A   1      39.949  27.410  28.040  1.00  0.00     0.200 A 
ATOM     86  F   UNL A   1      40.993  29.304  27.093  1.00  0.00    -0.200 F 
ATOM     87  F   UNL A   1      40.028  26.761  26.871  1.00  0.00    -0.200 F 
ENDBRANCH  53  77
BRANCH  65  88
ATOM     88  C   UNL A   1      44.241  29.691  35.809  1.00  0.00     0.064 A 
ATOM     89  C   UNL A   1      45.397  30.402  35.457  1.00  0.00     0.173 A 
ATOM     90  C   UNL A   1      44.394  28.484  36.509  1.00  0.00     0.173 A 
ATOM     91  F   UNL A   1      45.299  31.551  34.772  1.00  0.00    -0.203 F 
ATOM     92  C   UNL A   1      46.658  29.917  35.788  1.00  0.00     0.198 A 
ATOM     93  C   UNL A   1      45.655  28.018  36.864  1.00  0.00     0.198 A 
ATOM     94  F   UNL A   1      43.316  27.773  36.874  1.00  0.00    -0.203 F 
ATOM     95  F   UNL A   1      47.753  30.594  35.414  1.00  0.00    -0.200 F 
ATOM     96  C   UNL A   1      46.786  28.732  36.500  1.00  0.00     0.200 A 
ATOM     97  F   UNL A   1      45.775  26.883  37.567  1.00  0.00    -0.200 F 
ATOM     98  F   UNL A   1      48.001  28.278  36.835  1.00  0.00    -0.200 F 
ENDBRANCH  65  88
ENDBRANCH  39  40
ENDBRANCH  32  34
ENDBRANCH  31  32
ENDBRANCH  30  31
ENDBRANCH  29  30
ENDBRANCH  28  29
ENDBRANCH  27  28
ENDBRANCH   1  27
TORSDOF 22
ENDMDL
MODEL 2
REMARK VINA RESULT:     -10.2      1.787      4.030
REMARK SMILES CC[NH2+][C@@]1(C(=O)OCCOCCOCCOC(=O)c2ccc(-c3c4nc(c(-c5c(F)c(F)c(F)c(F)c5F)c5ccc([nH]5)c(-c5c(F)c(F)c(F)c(F)c5F)c5nc(c(-c6c(F)c(F)c(F)c(F)c6F)c6ccc3[nH]6)C=C5)C=C4)cc2)CCC[C@H]1CCN1C(=O)CCC1=O
REMARK SMILES IDX 11 1 10 2 9 3 8 4 7 5 5 6 6 7 4 8 82 9 85 10 83 11 84 12
REMARK SMILES IDX 3 13 2 16 1 17 86 18 87 19 88 20 89 21 93 22 90 23 91 24
REMARK SMILES IDX 92 25 94 26 12 27 13 28 14 29 15 30 16 31 17 32 18 33 19 34
REMARK SMILES IDX 20 35 81 36 21 37 80 38 22 39 23 40 24 41 74 42 25 43 79 44
REMARK SMILES IDX 73 45 75 46 26 47 78 48 72 49 71 50 27 52 59 53 39 54 58 55
REMARK SMILES IDX 40 56 43 57 57 58 76 59 41 60 42 61 56 63 77 64 44 65 28 66
REMARK SMILES IDX 29 67 37 68 30 69 31 70 35 71 38 72 32 73 33 74 36 75 34 76
REMARK SMILES IDX 60 77 61 78 69 79 62 80 63 81 67 82 70 83 64 84 65 85 68 86
REMARK SMILES IDX 66 87 45 88 46 89 54 90 47 91 48 92 52 93 55 94 49 95 50 96
REMARK SMILES IDX 53 97 51 98
REMARK H PARENT 3 14 3 15 75 51 43 62
REMARK Flexibility Score: inf
ROOT
ATOM      1  C   UNL A   1      34.857  31.512  28.295  1.00  0.00     0.188 C 
ENDROOT
BRANCH   1   2
ATOM      2  O   UNL A   1      33.942  31.225  27.265  1.00  0.00    -0.376 OA
BRANCH   2   3
ATOM      3  C   UNL A   1      33.319  29.947  27.246  1.00  0.00     0.202 C 
BRANCH   3   4
ATOM      4  C   UNL A   1      33.996  28.699  26.655  1.00  0.00     0.261 C 
BRANCH   4   5
ATOM      5  O   UNL A   1      33.435  28.173  25.430  1.00  0.00    -0.459 OA
BRANCH   5   6
ATOM      6  C   UNL A   1      32.443  27.257  25.610  1.00  0.00     0.368 C 
ATOM      7  O   UNL A   1      31.537  27.410  26.431  1.00  0.00    -0.245 OA
BRANCH   6   8
ATOM      8  C   UNL A   1      32.517  25.965  24.691  1.00  0.00     0.197 C 
ATOM      9  C   UNL A   1      32.142  24.829  25.670  1.00  0.00     0.081 C 
ATOM     10  C   UNL A   1      33.913  25.464  24.174  1.00  0.00     0.064 C 
ATOM     11  C   UNL A   1      33.438  24.590  26.441  1.00  0.00     0.008 C 
ATOM     12  C   UNL A   1      34.561  24.847  25.442  1.00  0.00     0.011 C 
BRANCH   8  13
ATOM     13  N   UNL A   1      31.575  26.271  23.604  1.00  0.00    -0.332 N 
ATOM     14  H   UNL A   1      31.307  27.251  23.706  1.00  0.00     0.347 HD
ATOM     15  H   UNL A   1      32.088  26.028  22.756  1.00  0.00     0.347 HD
BRANCH  13  16
ATOM     16  C   UNL A   1      30.349  25.502  23.504  1.00  0.00     0.257 C 
ATOM     17  C   UNL A   1      29.160  26.360  23.920  1.00  0.00     0.071 C 
ENDBRANCH  13  16
ENDBRANCH   8  13
BRANCH  10  18
ATOM     18  C   UNL A   1      33.930  24.371  23.054  1.00  0.00     0.033 C 
BRANCH  18  19
ATOM     19  C   UNL A   1      34.577  22.993  23.289  1.00  0.00     0.129 C 
BRANCH  19  20
ATOM     20  N   UNL A   1      33.812  21.947  23.952  1.00  0.00    -0.283 N 
ATOM     21  C   UNL A   1      32.706  21.341  23.425  1.00  0.00     0.229 C 
ATOM     22  C   UNL A   1      34.370  21.179  24.936  1.00  0.00     0.229 C 
ATOM     23  O   UNL A   1      32.120  21.649  22.400  1.00  0.00    -0.274 OA
ATOM     24  C   UNL A   1      32.331  20.162  24.277  1.00  0.00     0.110 C 
ATOM     25  C   UNL A   1      33.491  20.000  25.229  1.00  0.00     0.110 C 
ATOM     26  O   UNL A   1      35.448  21.376  25.484  1.00  0.00    -0.274 OA
ENDBRANCH  19  20
ENDBRANCH  18  19
ENDBRANCH  10  18
ENDBRANCH   6   8
ENDBRANCH   5   6
ENDBRANCH   4   5
ENDBRANCH   3   4
ENDBRANCH   2   3
ENDBRANCH   1   2
BRANCH   1  27
ATOM     27  C   UNL A   1      34.466  32.580  29.327  1.00  0.00     0.188 C 
BRANCH  27  28
ATOM     28  O   UNL A   1      35.010  33.879  29.280  1.00  0.00    -0.376 OA
BRANCH  28  29
ATOM     29  C   UNL A   1      34.290  34.857  28.533  1.00  0.00     0.202 C 
BRANCH  29  30
ATOM     30  C   UNL A   1      33.157  35.704  29.152  1.00  0.00     0.261 C 
BRANCH  30  31
ATOM     31  O   UNL A   1      32.536  35.163  30.334  1.00  0.00    -0.460 OA
BRANCH  31  32
ATOM     32  C   UNL A   1      32.759  35.867  31.473  1.00  0.00     0.338 C 
ATOM     33  O   UNL A   1      32.178  36.872  31.850  1.00  0.00    -0.246 OA
BRANCH  32  34
ATOM     34  C   UNL A   1      33.737  35.185  32.341  1.00  0.00     0.060 A 
ATOM     35  C   UNL A   1      35.054  35.654  32.408  1.00  0.00     0.016 A 
ATOM     36  C   UNL A   1      33.421  33.942  32.880  1.00  0.00     0.016 A 
ATOM     37  C   UNL A   1      36.059  34.897  32.984  1.00  0.00     0.010 A 
ATOM     38  C   UNL A   1      34.432  33.180  33.473  1.00  0.00     0.010 A 
ATOM     39  C   UNL A   1      35.759  33.645  33.502  1.00  0.00    -0.014 A 
BRANCH  39  40
ATOM     40  C   UNL A   1      36.862  32.765  33.933  1.00  0.00     0.031 A 
ATOM     41  C   UNL A   1      37.451  32.974  35.291  1.00  0.00     0.074 A 
ATOM     42  C   UNL A   1      37.291  31.761  33.151  1.00  0.00     0.049 A 
ATOM     43  N   UNL A   1      38.609  32.598  35.758  1.00  0.00    -0.248 NA
ATOM     44  C   UNL A   1      36.618  33.713  36.254  1.00  0.00     0.031 C 
ATOM     45  C   UNL A   1      36.667  31.324  31.902  1.00  0.00     0.029 A 
ATOM     46  N   UNL A   1      38.379  30.939  33.290  1.00  0.00    -0.354 N 
ATOM     47  C   UNL A   1      38.673  33.107  37.047  1.00  0.00     0.074 A 
ATOM     48  C   UNL A   1      37.428  33.799  37.301  1.00  0.00     0.031 C 
ATOM     49  C   UNL A   1      37.400  30.332  31.372  1.00  0.00     0.029 A 
ATOM     50  C   UNL A   1      38.596  30.151  32.187  1.00  0.00     0.049 A 
ATOM     51  H   UNL A   1      38.944  30.914  34.096  1.00  0.00     0.167 HD
ATOM     52  C   UNL A   1      39.703  33.015  37.917  1.00  0.00     0.037 A 
ATOM     53  C   UNL A   1      39.685  29.445  31.833  1.00  0.00     0.037 A 
ATOM     54  C   UNL A   1      40.915  32.293  37.631  1.00  0.00     0.049 A 
ATOM     55  C   UNL A   1      40.884  29.477  32.742  1.00  0.00     0.074 A 
ATOM     56  C   UNL A   1      42.056  32.170  38.402  1.00  0.00     0.029 A 
ATOM     57  N   UNL A   1      41.129  31.557  36.472  1.00  0.00    -0.354 N 
ATOM     58  N   UNL A   1      41.026  30.070  33.904  1.00  0.00    -0.248 NA
ATOM     59  C   UNL A   1      42.085  28.769  32.279  1.00  0.00     0.031 C 
ATOM     60  C   UNL A   1      42.978  31.398  37.688  1.00  0.00     0.029 A 
ATOM     61  C   UNL A   1      42.390  30.989  36.501  1.00  0.00     0.049 A 
ATOM     62  H   UNL A   1      40.479  31.455  35.739  1.00  0.00     0.167 HD
ATOM     63  C   UNL A   1      42.314  29.776  34.329  1.00  0.00     0.074 A 
ATOM     64  C   UNL A   1      42.915  28.955  33.297  1.00  0.00     0.031 C 
ATOM     65  C   UNL A   1      42.943  30.146  35.471  1.00  0.00     0.037 A 
BRANCH  52  66
ATOM     66  C   UNL A   1      39.600  33.768  39.209  1.00  0.00     0.064 A 
ATOM     67  C   UNL A   1      39.033  33.207  40.362  1.00  0.00     0.173 A 
ATOM     68  C   UNL A   1      40.108  35.075  39.299  1.00  0.00     0.173 A 
ATOM     69  F   UNL A   1      38.511  31.972  40.326  1.00  0.00    -0.203 F 
ATOM     70  C   UNL A   1      38.964  33.931  41.550  1.00  0.00     0.198 A 
ATOM     71  C   UNL A   1      40.065  35.784  40.495  1.00  0.00     0.198 A 
ATOM     72  F   UNL A   1      40.657  35.662  38.223  1.00  0.00    -0.203 F 
ATOM     73  F   UNL A   1      38.378  33.391  42.628  1.00  0.00    -0.200 F 
ATOM     74  C   UNL A   1      39.488  35.214  41.619  1.00  0.00     0.200 A 
ATOM     75  F   UNL A   1      40.580  37.019  40.558  1.00  0.00    -0.200 F 
ATOM     76  F   UNL A   1      39.429  35.904  42.766  1.00  0.00    -0.200 F 
ENDBRANCH  52  66
BRANCH  53  77
ATOM     77  C   UNL A   1      39.722  28.740  30.526  1.00  0.00     0.064 A 
ATOM     78  C   UNL A   1      40.247  29.361  29.386  1.00  0.00     0.173 A 
ATOM     79  C   UNL A   1      39.230  27.432  30.387  1.00  0.00     0.173 A 
ATOM     80  F   UNL A   1      40.705  30.619  29.460  1.00  0.00    -0.203 F 
ATOM     81  C   UNL A   1      40.268  28.706  28.155  1.00  0.00     0.198 A 
ATOM     82  C   UNL A   1      39.283  26.766  29.164  1.00  0.00     0.198 A 
ATOM     83  F   UNL A   1      38.710  26.792  31.445  1.00  0.00    -0.203 F 
ATOM     84  F   UNL A   1      40.732  29.341  27.071  1.00  0.00    -0.200 F 
ATOM     85  C   UNL A   1      39.794  27.407  28.048  1.00  0.00     0.200 A 
ATOM     86  F   UNL A   1      38.837  25.506  29.070  1.00  0.00    -0.200 F 
ATOM     87  F   UNL A   1      39.820  26.778  26.865  1.00  0.00    -0.200 F 
ENDBRANCH  53  77
BRANCH  65  88
ATOM     88  C   UNL A   1      44.319  29.602  35.708  1.00  0.00     0.064 A 
ATOM     89  C   UNL A   1      44.531  28.379  36.358  1.00  0.00     0.173 A 
ATOM     90  C   UNL A   1      45.437  30.286  35.204  1.00  0.00     0.173 A 
ATOM     91  F   UNL A   1      43.495  27.699  36.870  1.00  0.00    -0.203 F 
ATOM     92  C   UNL A   1      45.816  27.865  36.505  1.00  0.00     0.198 A 
ATOM     93  C   UNL A   1      46.715  29.755  35.326  1.00  0.00     0.198 A 
ATOM     94  F   UNL A   1      45.281  31.457  34.567  1.00  0.00    -0.203 F 
ATOM     95  F   UNL A   1      46.002  26.710  37.159  1.00  0.00    -0.200 F 
ATOM     96  C   UNL A   1      46.905  28.547  35.980  1.00  0.00     0.200 A 
ATOM     97  F   UNL A   1      47.763  30.407  34.804  1.00  0.00    -0.200 F 
ATOM     98  F   UNL A   1      48.138  28.040  36.105  1.00  0.00    -0.200 F 
ENDBRANCH  65  88
ENDBRANCH  39  40
ENDBRANCH  32  34
ENDBRANCH  31  32
ENDBRANCH  30  31
ENDBRANCH  29  30
ENDBRANCH  28  29
ENDBRANCH  27  28
ENDBRANCH   1  27
TORSDOF 22
ENDMDL
MODEL 3
REMARK VINA RESULT:      -9.7      3.766      9.069
REMARK SMILES CC[NH2+][C@@]1(C(=O)OCCOCCOCCOC(=O)c2ccc(-c3c4nc(c(-c5c(F)c(F)c(F)c(F)c5F)c5ccc([nH]5)c(-c5c(F)c(F)c(F)c(F)c5F)c5nc(c(-c6c(F)c(F)c(F)c(F)c6F)c6ccc3[nH]6)C=C5)C=C4)cc2)CCC[C@H]1CCN1C(=O)CCC1=O
REMARK SMILES IDX 11 1 10 2 9 3 8 4 7 5 5 6 6 7 4 8 82 9 85 10 83 11 84 12
REMARK SMILES IDX 3 13 2 16 1 17 86 18 87 19 88 20 89 21 93 22 90 23 91 24
REMARK SMILES IDX 92 25 94 26 12 27 13 28 14 29 15 30 16 31 17 32 18 33 19 34
REMARK SMILES IDX 20 35 81 36 21 37 80 38 22 39 23 40 24 41 74 42 25 43 79 44
REMARK SMILES IDX 73 45 75 46 26 47 78 48 72 49 71 50 27 52 59 53 39 54 58 55
REMARK SMILES IDX 40 56 43 57 57 58 76 59 41 60 42 61 56 63 77 64 44 65 28 66
REMARK SMILES IDX 29 67 37 68 30 69 31 70 35 71 38 72 32 73 33 74 36 75 34 76
REMARK SMILES IDX 60 77 61 78 69 79 62 80 63 81 67 82 70 83 64 84 65 85 68 86
REMARK SMILES IDX 66 87 45 88 46 89 54 90 47 91 48 92 52 93 55 94 49 95 50 96
REMARK SMILES IDX 53 97 51 98
REMARK H PARENT 3 14 3 15 75 51 43 62
REMARK Flexibility Score: inf
ROOT
ATOM      1  C   UNL A   1      39.873  21.146  26.362  1.00  0.00     0.188 C 
ENDROOT
BRANCH   1   2
ATOM      2  O   UNL A   1      38.524  21.455  26.104  1.00  0.00    -0.376 OA
BRANCH   2   3
ATOM      3  C   UNL A   1      38.203  22.759  25.638  1.00  0.00     0.202 C 
BRANCH   3   4
ATOM      4  C   UNL A   1      36.914  23.072  24.860  1.00  0.00     0.261 C 
BRANCH   4   5
ATOM      5  O   UNL A   1      35.672  22.976  25.594  1.00  0.00    -0.459 OA
BRANCH   5   6
ATOM      6  C   UNL A   1      34.552  23.028  24.821  1.00  0.00     0.368 C 
ATOM      7  O   UNL A   1      34.302  22.187  23.956  1.00  0.00    -0.245 OA
BRANCH   6   8
ATOM      8  C   UNL A   1      33.571  24.244  25.100  1.00  0.00     0.197 C 
ATOM      9  C   UNL A   1      32.484  24.060  24.017  1.00  0.00     0.081 C 
ATOM     10  C   UNL A   1      34.050  25.708  24.797  1.00  0.00     0.064 C 
ATOM     11  C   UNL A   1      33.142  24.629  22.763  1.00  0.00     0.008 C 
ATOM     12  C   UNL A   1      34.021  25.778  23.247  1.00  0.00     0.011 C 
BRANCH   8  13
ATOM     13  N   UNL A   1      33.179  24.044  26.505  1.00  0.00    -0.332 N 
ATOM     14  H   UNL A   1      34.024  24.143  27.069  1.00  0.00     0.347 HD
ATOM     15  H   UNL A   1      32.448  24.739  26.658  1.00  0.00     0.347 HD
BRANCH  13  16
ATOM     16  C   UNL A   1      32.556  22.791  26.884  1.00  0.00     0.257 C 
ATOM     17  C   UNL A   1      33.286  22.186  28.078  1.00  0.00     0.071 C 
ENDBRANCH  13  16
ENDBRANCH   8  13
BRANCH  10  18
ATOM     18  C   UNL A   1      33.182  26.891  25.340  1.00  0.00     0.033 C 
BRANCH  18  19
ATOM     19  C   UNL A   1      32.266  27.707  24.408  1.00  0.00     0.129 C 
BRANCH  19  20
ATOM     20  N   UNL A   1      30.841  27.407  24.362  1.00  0.00    -0.283 N 
ATOM     21  C   UNL A   1      30.055  27.542  23.253  1.00  0.00     0.229 C 
ATOM     22  C   UNL A   1      30.267  26.561  25.271  1.00  0.00     0.229 C 
ATOM     23  O   UNL A   1      30.374  28.036  22.184  1.00  0.00    -0.274 OA
ATOM     24  C   UNL A   1      28.713  26.921  23.516  1.00  0.00     0.110 C 
ATOM     25  C   UNL A   1      28.886  26.188  24.824  1.00  0.00     0.110 C 
ATOM     26  O   UNL A   1      30.796  26.122  26.285  1.00  0.00    -0.274 OA
ENDBRANCH  19  20
ENDBRANCH  18  19
ENDBRANCH  10  18
ENDBRANCH   6   8
ENDBRANCH   5   6
ENDBRANCH   4   5
ENDBRANCH   3   4
ENDBRANCH   2   3
ENDBRANCH   1   2
BRANCH   1  27
ATOM     27  C   UNL A   1      40.338  19.703  26.122  1.00  0.00     0.188 C 
BRANCH  27  28
ATOM     28  O   UNL A   1      41.497  19.421  25.372  1.00  0.00    -0.376 OA
BRANCH  28  29
ATOM     29  C   UNL A   1      42.752  19.614  26.020  1.00  0.00     0.202 C 
BRANCH  29  30
ATOM     30  C   UNL A   1      43.658  20.829  25.726  1.00  0.00     0.261 C 
BRANCH  30  31
ATOM     31  O   UNL A   1      43.284  22.066  26.364  1.00  0.00    -0.460 OA
BRANCH  31  32
ATOM     32  C   UNL A   1      42.946  23.070  25.516  1.00  0.00     0.338 C 
ATOM     33  O   UNL A   1      42.999  23.063  24.297  1.00  0.00    -0.246 OA
BRANCH  32  34
ATOM     34  C   UNL A   1      42.336  24.200  26.242  1.00  0.00     0.060 A 
ATOM     35  C   UNL A   1      42.661  25.514  25.885  1.00  0.00     0.016 A 
ATOM     36  C   UNL A   1      41.651  23.960  27.428  1.00  0.00     0.016 A 
ATOM     37  C   UNL A   1      42.333  26.584  26.700  1.00  0.00     0.010 A 
ATOM     38  C   UNL A   1      41.309  25.040  28.248  1.00  0.00     0.010 A 
ATOM     39  C   UNL A   1      41.673  26.352  27.898  1.00  0.00    -0.014 A 
BRANCH  39  40
ATOM     40  C   UNL A   1      41.504  27.466  28.850  1.00  0.00     0.031 A 
ATOM     41  C   UNL A   1      42.473  27.590  29.981  1.00  0.00     0.074 A 
ATOM     42  C   UNL A   1      40.538  28.383  28.675  1.00  0.00     0.049 A 
ATOM     43  N   UNL A   1      42.351  28.230  31.110  1.00  0.00    -0.248 NA
ATOM     44  C   UNL A   1      43.759  26.891  29.815  1.00  0.00     0.031 C 
ATOM     45  C   UNL A   1      39.665  28.493  27.507  1.00  0.00     0.029 A 
ATOM     46  N   UNL A   1      40.120  29.390  29.505  1.00  0.00    -0.354 N 
ATOM     47  C   UNL A   1      43.513  27.963  31.818  1.00  0.00     0.074 A 
ATOM     48  C   UNL A   1      44.343  27.120  30.983  1.00  0.00     0.031 C 
ATOM     49  C   UNL A   1      38.792  29.493  27.708  1.00  0.00     0.029 A 
ATOM     50  C   UNL A   1      38.977  30.008  29.059  1.00  0.00     0.049 A 
ATOM     51  H   UNL A   1      40.588  29.645  30.333  1.00  0.00     0.167 HD
ATOM     52  C   UNL A   1      43.828  28.372  33.067  1.00  0.00     0.037 A 
ATOM     53  C   UNL A   1      38.127  30.819  29.712  1.00  0.00     0.037 A 
ATOM     54  C   UNL A   1      42.982  29.232  33.852  1.00  0.00     0.049 A 
ATOM     55  C   UNL A   1      38.411  31.144  31.154  1.00  0.00     0.074 A 
ATOM     56  C   UNL A   1      43.157  29.674  35.150  1.00  0.00     0.029 A 
ATOM     57  N   UNL A   1      41.795  29.789  33.392  1.00  0.00    -0.354 N 
ATOM     58  N   UNL A   1      39.432  30.787  31.896  1.00  0.00    -0.248 NA
ATOM     59  C   UNL A   1      37.413  31.959  31.858  1.00  0.00     0.031 C 
ATOM     60  C   UNL A   1      42.053  30.462  35.491  1.00  0.00     0.029 A 
ATOM     61  C   UNL A   1      41.221  30.561  34.386  1.00  0.00     0.049 A 
ATOM     62  H   UNL A   1      41.420  29.656  32.491  1.00  0.00     0.167 HD
ATOM     63  C   UNL A   1      39.220  31.363  33.141  1.00  0.00     0.074 A 
ATOM     64  C   UNL A   1      37.970  32.090  33.055  1.00  0.00     0.031 C 
ATOM     65  C   UNL A   1      39.991  31.301  34.254  1.00  0.00     0.037 A 
BRANCH  52  66
ATOM     66  C   UNL A   1      45.086  27.839  33.684  1.00  0.00     0.064 A 
ATOM     67  C   UNL A   1      45.123  26.626  34.385  1.00  0.00     0.173 A 
ATOM     68  C   UNL A   1      46.289  28.551  33.544  1.00  0.00     0.173 A 
ATOM     69  F   UNL A   1      43.998  25.917  34.569  1.00  0.00    -0.203 F 
ATOM     70  C   UNL A   1      46.312  26.153  34.935  1.00  0.00     0.198 A 
ATOM     71  C   UNL A   1      47.481  28.062  34.069  1.00  0.00     0.198 A 
ATOM     72  F   UNL A   1      46.309  29.722  32.887  1.00  0.00    -0.203 F 
ATOM     73  F   UNL A   1      46.316  25.013  35.639  1.00  0.00    -0.200 F 
ATOM     74  C   UNL A   1      47.491  26.866  34.769  1.00  0.00     0.200 A 
ATOM     75  F   UNL A   1      48.618  28.750  33.899  1.00  0.00    -0.200 F 
ATOM     76  F   UNL A   1      48.636  26.405  35.292  1.00  0.00    -0.200 F 
ENDBRANCH  52  66
BRANCH  53  77
ATOM     77  C   UNL A   1      36.888  31.292  29.041  1.00  0.00     0.064 A 
ATOM     78  C   UNL A   1      35.814  30.423  28.813  1.00  0.00     0.173 A 
ATOM     79  C   UNL A   1      36.752  32.623  28.610  1.00  0.00     0.173 A 
ATOM     80  F   UNL A   1      35.904  29.137  29.182  1.00  0.00    -0.203 F 
ATOM     81  C   UNL A   1      34.658  30.861  28.170  1.00  0.00     0.198 A 
ATOM     82  C   UNL A   1      35.583  33.068  27.998  1.00  0.00     0.198 A 
ATOM     83  F   UNL A   1      37.752  33.496  28.796  1.00  0.00    -0.203 F 
ATOM     84  F   UNL A   1      33.665  29.997  27.921  1.00  0.00    -0.200 F 
ATOM     85  C   UNL A   1      34.540  32.185  27.770  1.00  0.00     0.200 A 
ATOM     86  F   UNL A   1      35.469  34.351  27.628  1.00  0.00    -0.200 F 
ATOM     87  F   UNL A   1      33.425  32.605  27.157  1.00  0.00    -0.200 F 
ENDBRANCH  53  77
BRANCH  65  88
ATOM     88  C   UNL A   1      39.553  32.103  35.441  1.00  0.00     0.064 A 
ATOM     89  C   UNL A   1      39.956  33.432  35.628  1.00  0.00     0.173 A 
ATOM     90  C   UNL A   1      38.652  31.549  36.365  1.00  0.00     0.173 A 
ATOM     91  F   UNL A   1      40.829  33.998  34.781  1.00  0.00    -0.203 F 
ATOM     92  C   UNL A   1      39.481  34.175  36.704  1.00  0.00     0.198 A 
ATOM     93  C   UNL A   1      38.156  32.304  37.421  1.00  0.00     0.198 A 
ATOM     94  F   UNL A   1      38.233  30.282  36.222  1.00  0.00    -0.203 F 
ATOM     95  F   UNL A   1      39.903  35.434  36.885  1.00  0.00    -0.200 F 
ATOM     96  C   UNL A   1      38.573  33.615  37.593  1.00  0.00     0.200 A 
ATOM     97  F   UNL A   1      37.268  31.766  38.268  1.00  0.00    -0.200 F 
ATOM     98  F   UNL A   1      38.101  34.339  38.616  1.00  0.00    -0.200 F 
ENDBRANCH  65  88
ENDBRANCH  39  40
ENDBRANCH  32  34
ENDBRANCH  31  32
ENDBRANCH  30  31
ENDBRANCH  29  30
ENDBRANCH  28  29
ENDBRANCH  27  28
ENDBRANCH   1  27
TORSDOF 22
ENDMDL
