MODEL 1
REMARK VINA RESULT:     -11.4      0.000      0.000
REMARK SMILES Cc1cc(C(=O)N2[C@@H](C(=O)OCCOCCOCCOC(=O)c3ccc(-c4c5nc(c(-c6c(F)c(F)c(F)c(F)c6F)c6ccc([nH]6)c(-c6c(F)c(F)c(F)c(F)c6F)c6nc(c(-c7c(F)c(F)c(F)c(F)c7F)c7ccc4[nH]7)C=C6)C=C5)cc3)C[C@H]3CCCC[C@H]32)c(C)s1
REMARK SMILES IDX 15 1 14 2 13 3 12 4 11 5 9 6 10 7 8 8 7 9 92 10 86 11 87 12
REMARK SMILES IDX 91 13 88 14 90 15 89 16 5 17 6 18 4 19 1 20 2 21 3 22 95 23
REMARK SMILES IDX 93 24 94 25 16 26 17 27 18 28 19 29 20 30 21 31 22 32 23 33
REMARK SMILES IDX 24 34 85 35 25 36 84 37 26 38 27 39 28 40 78 41 29 42 83 43
REMARK SMILES IDX 77 44 79 45 30 46 82 47 76 48 75 49 31 51 63 52 43 53 62 54
REMARK SMILES IDX 44 55 47 56 61 57 80 58 45 59 46 60 60 62 81 63 48 64 32 65
REMARK SMILES IDX 33 66 41 67 34 68 35 69 39 70 42 71 36 72 37 73 40 74 38 75
REMARK SMILES IDX 64 76 65 77 73 78 66 79 67 80 71 81 74 82 68 83 69 84 72 85
REMARK SMILES IDX 70 86 49 87 50 88 58 89 51 90 52 91 56 92 59 93 53 94 54 95
REMARK SMILES IDX 57 96 55 97
REMARK H PARENT 79 50 47 61
REMARK Flexibility Score: inf
ROOT
ATOM      1  C   UNL A   1      35.746  22.556  25.191  1.00  0.00     0.188 C 
ENDROOT
BRANCH   1   2
ATOM      2  O   UNL A   1      34.936  21.625  25.902  1.00  0.00    -0.376 OA
BRANCH   2   3
ATOM      3  C   UNL A   1      33.638  22.010  26.323  1.00  0.00     0.202 C 
BRANCH   3   4
ATOM      4  C   UNL A   1      32.720  22.577  25.231  1.00  0.00     0.261 C 
BRANCH   4   5
ATOM      5  O   UNL A   1      32.485  23.999  25.263  1.00  0.00    -0.462 OA
BRANCH   5   6
ATOM      6  C   UNL A   1      31.462  24.449  24.487  1.00  0.00     0.328 C 
ATOM      7  O   UNL A   1      30.944  23.808  23.578  1.00  0.00    -0.250 OA
BRANCH   6   8
ATOM      8  C   UNL A   1      30.923  25.829  24.905  1.00  0.00     0.196 C 
ATOM      9  N   UNL A   1      31.278  27.014  24.096  1.00  0.00    -0.322 N 
ATOM     10  C   UNL A   1      31.846  28.084  24.913  1.00  0.00     0.089 C 
ATOM     11  C   UNL A   1      31.383  26.195  26.324  1.00  0.00     0.043 C 
ATOM     12  C   UNL A   1      31.353  27.727  26.321  1.00  0.00     0.014 C 
ATOM     13  C   UNL A   1      33.365  28.202  24.762  1.00  0.00     0.025 C 
ATOM     14  C   UNL A   1      32.116  28.385  27.462  1.00  0.00     0.006 C 
ATOM     15  C   UNL A   1      34.020  28.956  25.914  1.00  0.00     0.002 C 
ATOM     16  C   UNL A   1      33.625  28.378  27.267  1.00  0.00     0.000 C 
BRANCH   9  17
ATOM     17  C   UNL A   1      30.824  27.317  22.816  1.00  0.00     0.255 C 
ATOM     18  O   UNL A   1      31.313  26.794  21.817  1.00  0.00    -0.269 OA
BRANCH  17  19
ATOM     19  C   UNL A   1      29.806  28.366  22.706  1.00  0.00     0.053 A 
ATOM     20  C   UNL A   1      28.837  31.885  21.680  1.00  0.00     0.056 C 
ATOM     21  C   UNL A   1      28.924  30.472  22.138  1.00  0.00     0.003 A 
ATOM     22  C   UNL A   1      29.984  29.609  22.004  1.00  0.00     0.029 A 
ATOM     23  S   UNL A   1      27.609  29.705  22.904  1.00  0.00    -0.145 S 
ATOM     24  C   UNL A   1      28.491  28.248  23.130  1.00  0.00     0.014 A 
ATOM     25  C   UNL A   1      27.790  27.069  23.723  1.00  0.00     0.057 C 
ENDBRANCH  17  19
ENDBRANCH   9  17
ENDBRANCH   6   8
ENDBRANCH   5   6
ENDBRANCH   4   5
ENDBRANCH   3   4
ENDBRANCH   2   3
ENDBRANCH   1   2
BRANCH   1  26
ATOM     26  C   UNL A   1      37.141  22.143  24.708  1.00  0.00     0.188 C 
BRANCH  26  27
ATOM     27  O   UNL A   1      37.748  21.200  25.580  1.00  0.00    -0.376 OA
BRANCH  27  28
ATOM     28  C   UNL A   1      38.078  19.959  24.976  1.00  0.00     0.202 C 
BRANCH  28  29
ATOM     29  C   UNL A   1      39.331  19.357  25.619  1.00  0.00     0.261 C 
BRANCH  29  30
ATOM     30  O   UNL A   1      40.398  20.297  25.857  1.00  0.00    -0.460 OA
BRANCH  30  31
ATOM     31  C   UNL A   1      40.852  20.410  27.119  1.00  0.00     0.338 C 
ATOM     32  O   UNL A   1      41.195  19.492  27.861  1.00  0.00    -0.246 OA
BRANCH  31  33
ATOM     33  C   UNL A   1      41.041  21.841  27.435  1.00  0.00     0.060 A 
ATOM     34  C   UNL A   1      40.370  22.803  26.671  1.00  0.00     0.016 A 
ATOM     35  C   UNL A   1      41.897  22.240  28.465  1.00  0.00     0.016 A 
ATOM     36  C   UNL A   1      40.576  24.164  26.908  1.00  0.00     0.010 A 
ATOM     37  C   UNL A   1      42.115  23.604  28.693  1.00  0.00     0.010 A 
ATOM     38  C   UNL A   1      41.479  24.574  27.896  1.00  0.00    -0.014 A 
BRANCH  38  39
ATOM     39  C   UNL A   1      41.892  25.997  27.995  1.00  0.00     0.031 A 
ATOM     40  C   UNL A   1      43.230  26.400  27.438  1.00  0.00     0.074 A 
ATOM     41  C   UNL A   1      41.104  26.921  28.574  1.00  0.00     0.049 A 
ATOM     42  N   UNL A   1      43.847  27.552  27.498  1.00  0.00    -0.248 NA
ATOM     43  C   UNL A   1      43.974  25.356  26.716  1.00  0.00     0.031 C 
ATOM     44  C   UNL A   1      39.770  26.677  29.112  1.00  0.00     0.029 A 
ATOM     45  N   UNL A   1      41.331  28.254  28.820  1.00  0.00    -0.354 N 
ATOM     46  C   UNL A   1      45.056  27.367  26.840  1.00  0.00     0.074 A 
ATOM     47  C   UNL A   1      45.094  25.987  26.404  1.00  0.00     0.031 C 
ATOM     48  C   UNL A   1      39.303  27.819  29.649  1.00  0.00     0.029 A 
ATOM     49  C   UNL A   1      40.321  28.861  29.525  1.00  0.00     0.049 A 
ATOM     50  H   UNL A   1      42.140  28.729  28.519  1.00  0.00     0.167 HD
ATOM     51  C   UNL A   1      46.045  28.266  26.617  1.00  0.00     0.037 A 
ATOM     52  C   UNL A   1      40.245  30.104  30.041  1.00  0.00     0.037 A 
ATOM     53  C   UNL A   1      46.009  29.639  27.048  1.00  0.00     0.049 A 
ATOM     54  C   UNL A   1      41.390  31.067  29.844  1.00  0.00     0.074 A 
ATOM     55  C   UNL A   1      46.952  30.631  26.846  1.00  0.00     0.029 A 
ATOM     56  N   UNL A   1      44.978  30.210  27.779  1.00  0.00    -0.354 N 
ATOM     57  N   UNL A   1      42.519  30.893  29.201  1.00  0.00    -0.248 NA
ATOM     58  C   UNL A   1      41.247  32.401  30.448  1.00  0.00     0.031 C 
ATOM     59  C   UNL A   1      46.519  31.788  27.503  1.00  0.00     0.029 A 
ATOM     60  C   UNL A   1      45.277  31.534  28.062  1.00  0.00     0.049 A 
ATOM     61  H   UNL A   1      44.156  29.745  28.056  1.00  0.00     0.167 HD
ATOM     62  C   UNL A   1      43.206  32.099  29.299  1.00  0.00     0.074 A 
ATOM     63  C   UNL A   1      42.362  33.000  30.052  1.00  0.00     0.031 C 
ATOM     64  C   UNL A   1      44.426  32.428  28.806  1.00  0.00     0.037 A 
BRANCH  51  65
ATOM     65  C   UNL A   1      47.273  27.780  25.904  1.00  0.00     0.064 A 
ATOM     66  C   UNL A   1      48.402  27.322  26.601  1.00  0.00     0.173 A 
ATOM     67  C   UNL A   1      47.309  27.747  24.502  1.00  0.00     0.173 A 
ATOM     68  F   UNL A   1      48.423  27.347  27.942  1.00  0.00    -0.203 F 
ATOM     69  C   UNL A   1      49.531  26.878  25.919  1.00  0.00     0.198 A 
ATOM     70  C   UNL A   1      48.429  27.273  23.824  1.00  0.00     0.198 A 
ATOM     71  F   UNL A   1      46.255  28.170  23.788  1.00  0.00    -0.203 F 
ATOM     72  F   UNL A   1      50.618  26.492  26.604  1.00  0.00    -0.200 F 
ATOM     73  C   UNL A   1      49.541  26.847  24.533  1.00  0.00     0.200 A 
ATOM     74  F   UNL A   1      48.432  27.233  22.485  1.00  0.00    -0.200 F 
ATOM     75  F   UNL A   1      50.628  26.413  23.878  1.00  0.00    -0.200 F 
ENDBRANCH  51  65
BRANCH  52  76
ATOM     76  C   UNL A   1      39.048  30.510  30.824  1.00  0.00     0.064 A 
ATOM     77  C   UNL A   1      37.930  31.080  30.197  1.00  0.00     0.173 A 
ATOM     78  C   UNL A   1      39.007  30.362  32.218  1.00  0.00     0.173 A 
ATOM     79  F   UNL A   1      37.933  31.272  28.871  1.00  0.00    -0.203 F 
ATOM     80  C   UNL A   1      36.826  31.500  30.937  1.00  0.00     0.198 A 
ATOM     81  C   UNL A   1      37.891  30.755  32.953  1.00  0.00     0.198 A 
ATOM     82  F   UNL A   1      40.054  29.832  32.868  1.00  0.00    -0.203 F 
ATOM     83  F   UNL A   1      35.793  32.088  30.318  1.00  0.00    -0.200 F 
ATOM     84  C   UNL A   1      36.805  31.331  32.314  1.00  0.00     0.200 A 
ATOM     85  F   UNL A   1      37.872  30.585  34.283  1.00  0.00    -0.200 F 
ATOM     86  F   UNL A   1      35.742  31.736  33.023  1.00  0.00    -0.200 F 
ENDBRANCH  52  76
BRANCH  64  87
ATOM     87  C   UNL A   1      44.910  33.834  29.025  1.00  0.00     0.064 A 
ATOM     88  C   UNL A   1      45.705  34.179  30.128  1.00  0.00     0.173 A 
ATOM     89  C   UNL A   1      44.617  34.838  28.089  1.00  0.00     0.173 A 
ATOM     90  F   UNL A   1      46.004  33.260  31.059  1.00  0.00    -0.203 F 
ATOM     91  C   UNL A   1      46.166  35.482  30.299  1.00  0.00     0.198 A 
ATOM     92  C   UNL A   1      45.105  36.132  28.246  1.00  0.00     0.198 A 
ATOM     93  F   UNL A   1      43.868  34.560  27.011  1.00  0.00    -0.203 F 
ATOM     94  F   UNL A   1      46.886  35.799  31.384  1.00  0.00    -0.200 F 
ATOM     95  C   UNL A   1      45.874  36.455  29.354  1.00  0.00     0.200 A 
ATOM     96  F   UNL A   1      44.835  37.066  27.324  1.00  0.00    -0.200 F 
ATOM     97  F   UNL A   1      46.328  37.706  29.514  1.00  0.00    -0.200 F 
ENDBRANCH  64  87
ENDBRANCH  38  39
ENDBRANCH  31  33
ENDBRANCH  30  31
ENDBRANCH  29  30
ENDBRANCH  28  29
ENDBRANCH  27  28
ENDBRANCH  26  27
ENDBRANCH   1  26
TORSDOF 19
ENDMDL
MODEL 2
REMARK VINA RESULT:     -11.2      2.820      3.889
REMARK SMILES Cc1cc(C(=O)N2[C@@H](C(=O)OCCOCCOCCOC(=O)c3ccc(-c4c5nc(c(-c6c(F)c(F)c(F)c(F)c6F)c6ccc([nH]6)c(-c6c(F)c(F)c(F)c(F)c6F)c6nc(c(-c7c(F)c(F)c(F)c(F)c7F)c7ccc4[nH]7)C=C6)C=C5)cc3)C[C@H]3CCCC[C@H]32)c(C)s1
REMARK SMILES IDX 15 1 14 2 13 3 12 4 11 5 9 6 10 7 8 8 7 9 92 10 86 11 87 12
REMARK SMILES IDX 91 13 88 14 90 15 89 16 5 17 6 18 4 19 1 20 2 21 3 22 95 23
REMARK SMILES IDX 93 24 94 25 16 26 17 27 18 28 19 29 20 30 21 31 22 32 23 33
REMARK SMILES IDX 24 34 85 35 25 36 84 37 26 38 27 39 28 40 78 41 29 42 83 43
REMARK SMILES IDX 77 44 79 45 30 46 82 47 76 48 75 49 31 51 63 52 43 53 62 54
REMARK SMILES IDX 44 55 47 56 61 57 80 58 45 59 46 60 60 62 81 63 48 64 32 65
REMARK SMILES IDX 33 66 41 67 34 68 35 69 39 70 42 71 36 72 37 73 40 74 38 75
REMARK SMILES IDX 64 76 65 77 73 78 66 79 67 80 71 81 74 82 68 83 69 84 72 85
REMARK SMILES IDX 70 86 49 87 50 88 58 89 51 90 52 91 56 92 59 93 53 94 54 95
REMARK SMILES IDX 57 96 55 97
REMARK H PARENT 79 50 47 61
REMARK Flexibility Score: inf
ROOT
ATOM      1  C   UNL A   1      34.427  21.451  26.555  1.00  0.00     0.188 C 
ENDROOT
BRANCH   1   2
ATOM      2  O   UNL A   1      33.008  21.365  26.462  1.00  0.00    -0.376 OA
BRANCH   2   3
ATOM      3  C   UNL A   1      32.232  22.548  26.554  1.00  0.00     0.202 C 
BRANCH   3   4
ATOM      4  C   UNL A   1      31.015  22.625  25.622  1.00  0.00     0.261 C 
BRANCH   4   5
ATOM      5  O   UNL A   1      31.183  23.383  24.407  1.00  0.00    -0.462 OA
BRANCH   5   6
ATOM      6  C   UNL A   1      32.007  24.462  24.490  1.00  0.00     0.328 C 
ATOM      7  O   UNL A   1      33.195  24.456  24.182  1.00  0.00    -0.250 OA
BRANCH   6   8
ATOM      8  C   UNL A   1      31.296  25.756  24.924  1.00  0.00     0.196 C 
ATOM      9  N   UNL A   1      31.506  26.990  24.138  1.00  0.00    -0.322 N 
ATOM     10  C   UNL A   1      31.929  28.109  24.976  1.00  0.00     0.089 C 
ATOM     11  C   UNL A   1      31.695  26.154  26.353  1.00  0.00     0.043 C 
ATOM     12  C   UNL A   1      31.474  27.670  26.373  1.00  0.00     0.014 C 
ATOM     13  C   UNL A   1      33.423  28.419  24.842  1.00  0.00     0.025 C 
ATOM     14  C   UNL A   1      32.140  28.400  27.532  1.00  0.00     0.006 C 
ATOM     15  C   UNL A   1      33.970  29.229  26.012  1.00  0.00     0.002 C 
ATOM     16  C   UNL A   1      33.640  28.584  27.351  1.00  0.00     0.000 C 
BRANCH   9  17
ATOM     17  C   UNL A   1      31.028  27.256  22.858  1.00  0.00     0.255 C 
ATOM     18  O   UNL A   1      31.556  26.774  21.858  1.00  0.00    -0.269 OA
BRANCH  17  19
ATOM     19  C   UNL A   1      29.928  28.218  22.749  1.00  0.00     0.053 A 
ATOM     20  C   UNL A   1      28.667  31.632  21.687  1.00  0.00     0.056 C 
ATOM     21  C   UNL A   1      28.872  30.238  22.164  1.00  0.00     0.003 A 
ATOM     22  C   UNL A   1      29.996  29.460  22.025  1.00  0.00     0.029 A 
ATOM     23  S   UNL A   1      27.635  29.382  22.962  1.00  0.00    -0.145 S 
ATOM     24  C   UNL A   1      28.633  28.003  23.196  1.00  0.00     0.014 A 
ATOM     25  C   UNL A   1      28.037  26.782  23.817  1.00  0.00     0.057 C 
ENDBRANCH  17  19
ENDBRANCH   9  17
ENDBRANCH   6   8
ENDBRANCH   5   6
ENDBRANCH   4   5
ENDBRANCH   3   4
ENDBRANCH   2   3
ENDBRANCH   1   2
BRANCH   1  26
ATOM     26  C   UNL A   1      35.301  20.946  25.401  1.00  0.00     0.188 C 
BRANCH  26  27
ATOM     27  O   UNL A   1      35.341  21.867  24.320  1.00  0.00    -0.376 OA
BRANCH  27  28
ATOM     28  C   UNL A   1      36.646  22.234  23.900  1.00  0.00     0.202 C 
BRANCH  28  29
ATOM     29  C   UNL A   1      37.025  23.614  24.444  1.00  0.00     0.261 C 
BRANCH  29  30
ATOM     30  O   UNL A   1      37.311  23.647  25.857  1.00  0.00    -0.460 OA
BRANCH  30  31
ATOM     31  C   UNL A   1      38.549  23.286  26.245  1.00  0.00     0.338 C 
ATOM     32  O   UNL A   1      39.123  22.232  25.982  1.00  0.00    -0.246 OA
BRANCH  31  33
ATOM     33  C   UNL A   1      39.199  24.436  26.907  1.00  0.00     0.060 A 
ATOM     34  C   UNL A   1      38.995  24.638  28.277  1.00  0.00     0.016 A 
ATOM     35  C   UNL A   1      39.986  25.332  26.179  1.00  0.00     0.016 A 
ATOM     36  C   UNL A   1      39.547  25.751  28.918  1.00  0.00     0.010 A 
ATOM     37  C   UNL A   1      40.527  26.454  26.817  1.00  0.00     0.010 A 
ATOM     38  C   UNL A   1      40.286  26.686  28.184  1.00  0.00    -0.014 A 
BRANCH  38  39
ATOM     39  C   UNL A   1      40.667  27.987  28.791  1.00  0.00     0.031 A 
ATOM     40  C   UNL A   1      42.086  28.179  29.253  1.00  0.00     0.074 A 
ATOM     41  C   UNL A   1      39.776  28.983  28.941  1.00  0.00     0.049 A 
ATOM     42  N   UNL A   1      42.625  29.180  29.901  1.00  0.00    -0.248 NA
ATOM     43  C   UNL A   1      43.022  27.088  28.942  1.00  0.00     0.031 C 
ATOM     44  C   UNL A   1      38.385  28.948  28.498  1.00  0.00     0.029 A 
ATOM     45  N   UNL A   1      39.913  30.217  29.531  1.00  0.00    -0.354 N 
ATOM     46  C   UNL A   1      43.956  28.832  30.091  1.00  0.00     0.074 A 
ATOM     47  C   UNL A   1      44.140  27.521  29.506  1.00  0.00     0.031 C 
ATOM     48  C   UNL A   1      37.787  30.099  28.854  1.00  0.00     0.029 A 
ATOM     49  C   UNL A   1      38.743  30.934  29.581  1.00  0.00     0.049 A 
ATOM     50  H   UNL A   1      40.768  30.555  29.883  1.00  0.00     0.167 HD
ATOM     51  C   UNL A   1      44.939  29.542  30.696  1.00  0.00     0.037 A 
ATOM     52  C   UNL A   1      38.467  32.111  30.178  1.00  0.00     0.037 A 
ATOM     53  C   UNL A   1      44.760  30.847  31.277  1.00  0.00     0.049 A 
ATOM     54  C   UNL A   1      39.559  32.851  30.910  1.00  0.00     0.074 A 
ATOM     55  C   UNL A   1      45.702  31.655  31.889  1.00  0.00     0.029 A 
ATOM     56  N   UNL A   1      43.554  31.530  31.327  1.00  0.00    -0.354 N 
ATOM     57  N   UNL A   1      40.821  32.528  31.066  1.00  0.00    -0.248 NA
ATOM     58  C   UNL A   1      39.186  34.121  31.552  1.00  0.00     0.031 C 
ATOM     59  C   UNL A   1      45.055  32.802  32.360  1.00  0.00     0.029 A 
ATOM     60  C   UNL A   1      43.722  32.738  31.988  1.00  0.00     0.049 A 
ATOM     61  H   UNL A   1      42.704  31.206  30.951  1.00  0.00     0.167 HD
ATOM     62  C   UNL A   1      41.394  33.564  31.796  1.00  0.00     0.074 A 
ATOM     63  C   UNL A   1      40.348  34.532  32.041  1.00  0.00     0.031 C 
ATOM     64  C   UNL A   1      42.675  33.700  32.221  1.00  0.00     0.037 A 
BRANCH  51  65
ATOM     65  C   UNL A   1      46.292  28.902  30.796  1.00  0.00     0.064 A 
ATOM     66  C   UNL A   1      46.651  28.093  31.885  1.00  0.00     0.173 A 
ATOM     67  C   UNL A   1      47.235  29.080  29.772  1.00  0.00     0.173 A 
ATOM     68  F   UNL A   1      45.791  27.903  32.897  1.00  0.00    -0.203 F 
ATOM     69  C   UNL A   1      47.914  27.511  31.958  1.00  0.00     0.198 A 
ATOM     70  C   UNL A   1      48.486  28.472  29.835  1.00  0.00     0.198 A 
ATOM     71  F   UNL A   1      46.941  29.842  28.707  1.00  0.00    -0.203 F 
ATOM     72  F   UNL A   1      48.254  26.783  33.032  1.00  0.00    -0.200 F 
ATOM     73  C   UNL A   1      48.827  27.695  30.931  1.00  0.00     0.200 A 
ATOM     74  F   UNL A   1      49.362  28.642  28.835  1.00  0.00    -0.200 F 
ATOM     75  F   UNL A   1      50.040  27.129  31.001  1.00  0.00    -0.200 F 
ENDBRANCH  51  65
BRANCH  52  76
ATOM     76  C   UNL A   1      37.086  32.660  30.134  1.00  0.00     0.064 A 
ATOM     77  C   UNL A   1      36.653  33.452  29.061  1.00  0.00     0.173 A 
ATOM     78  C   UNL A   1      36.179  32.426  31.179  1.00  0.00     0.173 A 
ATOM     79  F   UNL A   1      37.493  33.730  28.055  1.00  0.00    -0.203 F 
ATOM     80  C   UNL A   1      35.373  34.002  29.043  1.00  0.00     0.198 A 
ATOM     81  C   UNL A   1      34.889  32.952  31.145  1.00  0.00     0.198 A 
ATOM     82  F   UNL A   1      36.546  31.683  32.234  1.00  0.00    -0.203 F 
ATOM     83  F   UNL A   1      35.003  34.796  28.030  1.00  0.00    -0.200 F 
ATOM     84  C   UNL A   1      34.490  33.746  30.081  1.00  0.00     0.200 A 
ATOM     85  F   UNL A   1      34.037  32.697  32.147  1.00  0.00    -0.200 F 
ATOM     86  F   UNL A   1      33.259  34.275  30.062  1.00  0.00    -0.200 F 
ENDBRANCH  52  76
BRANCH  64  87
ATOM     87  C   UNL A   1      43.034  34.958  32.961  1.00  0.00     0.064 A 
ATOM     88  C   UNL A   1      43.497  36.101  32.295  1.00  0.00     0.173 A 
ATOM     89  C   UNL A   1      42.864  35.034  34.353  1.00  0.00     0.173 A 
ATOM     90  F   UNL A   1      43.689  36.078  30.968  1.00  0.00    -0.203 F 
ATOM     91  C   UNL A   1      43.799  37.266  32.996  1.00  0.00     0.198 A 
ATOM     92  C   UNL A   1      43.137  36.209  35.047  1.00  0.00     0.198 A 
ATOM     93  F   UNL A   1      42.416  33.971  35.039  1.00  0.00    -0.203 F 
ATOM     94  F   UNL A   1      44.283  38.332  32.344  1.00  0.00    -0.200 F 
ATOM     95  C   UNL A   1      43.612  37.322  34.370  1.00  0.00     0.200 A 
ATOM     96  F   UNL A   1      42.940  36.265  36.371  1.00  0.00    -0.200 F 
ATOM     97  F   UNL A   1      43.893  38.447  35.042  1.00  0.00    -0.200 F 
ENDBRANCH  64  87
ENDBRANCH  38  39
ENDBRANCH  31  33
ENDBRANCH  30  31
ENDBRANCH  29  30
ENDBRANCH  28  29
ENDBRANCH  27  28
ENDBRANCH  26  27
ENDBRANCH   1  26
TORSDOF 19
ENDMDL
MODEL 3
REMARK VINA RESULT:     -11.2      0.575      7.087
REMARK SMILES Cc1cc(C(=O)N2[C@@H](C(=O)OCCOCCOCCOC(=O)c3ccc(-c4c5nc(c(-c6c(F)c(F)c(F)c(F)c6F)c6ccc([nH]6)c(-c6c(F)c(F)c(F)c(F)c6F)c6nc(c(-c7c(F)c(F)c(F)c(F)c7F)c7ccc4[nH]7)C=C6)C=C5)cc3)C[C@H]3CCCC[C@H]32)c(C)s1
REMARK SMILES IDX 15 1 14 2 13 3 12 4 11 5 9 6 10 7 8 8 7 9 92 10 86 11 87 12
REMARK SMILES IDX 91 13 88 14 90 15 89 16 5 17 6 18 4 19 1 20 2 21 3 22 95 23
REMARK SMILES IDX 93 24 94 25 16 26 17 27 18 28 19 29 20 30 21 31 22 32 23 33
REMARK SMILES IDX 24 34 85 35 25 36 84 37 26 38 27 39 28 40 78 41 29 42 83 43
REMARK SMILES IDX 77 44 79 45 30 46 82 47 76 48 75 49 31 51 63 52 43 53 62 54
REMARK SMILES IDX 44 55 47 56 61 57 80 58 45 59 46 60 60 62 81 63 48 64 32 65
REMARK SMILES IDX 33 66 41 67 34 68 35 69 39 70 42 71 36 72 37 73 40 74 38 75
REMARK SMILES IDX 64 76 65 77 73 78 66 79 67 80 71 81 74 82 68 83 69 84 72 85
REMARK SMILES IDX 70 86 49 87 50 88 58 89 51 90 52 91 56 92 59 93 53 94 54 95
REMARK SMILES IDX 57 96 55 97
REMARK H PARENT 79 50 47 61
REMARK Flexibility Score: inf
ROOT
ATOM      1  C   UNL A   1      35.033  22.258  24.525  1.00  0.00     0.188 C 
ENDROOT
BRANCH   1   2
ATOM      2  O   UNL A   1      34.151  21.330  25.148  1.00  0.00    -0.376 OA
BRANCH   2   3
ATOM      3  C   UNL A   1      32.857  21.756  25.540  1.00  0.00     0.202 C 
BRANCH   3   4
ATOM      4  C   UNL A   1      32.108  22.640  24.534  1.00  0.00     0.261 C 
BRANCH   4   5
ATOM      5  O   UNL A   1      31.715  23.949  24.995  1.00  0.00    -0.462 OA
BRANCH   5   6
ATOM      6  C   UNL A   1      30.835  24.618  24.201  1.00  0.00     0.328 C 
ATOM      7  O   UNL A   1      30.301  24.145  23.203  1.00  0.00    -0.250 OA
BRANCH   6   8
ATOM      8  C   UNL A   1      30.478  26.023  24.716  1.00  0.00     0.196 C 
ATOM      9  N   UNL A   1      30.924  27.205  23.948  1.00  0.00    -0.322 N 
ATOM     10  C   UNL A   1      31.649  28.159  24.783  1.00  0.00     0.089 C 
ATOM     11  C   UNL A   1      31.046  26.258  26.123  1.00  0.00     0.043 C 
ATOM     12  C   UNL A   1      31.190  27.782  26.197  1.00  0.00     0.014 C 
ATOM     13  C   UNL A   1      33.163  28.116  24.554  1.00  0.00     0.025 C 
ATOM     14  C   UNL A   1      32.078  28.288  27.325  1.00  0.00     0.006 C 
ATOM     15  C   UNL A   1      33.956  28.729  25.704  1.00  0.00     0.002 C 
ATOM     16  C   UNL A   1      33.566  28.125  27.046  1.00  0.00     0.000 C 
BRANCH   9  17
ATOM     17  C   UNL A   1      30.445  27.626  22.711  1.00  0.00     0.255 C 
ATOM     18  O   UNL A   1      30.845  27.131  21.660  1.00  0.00    -0.269 OA
BRANCH  17  19
ATOM     19  C   UNL A   1      29.514  28.759  22.713  1.00  0.00     0.053 A 
ATOM     20  C   UNL A   1      28.844  32.437  22.082  1.00  0.00     0.056 C 
ATOM     21  C   UNL A   1      28.811  30.979  22.379  1.00  0.00     0.003 A 
ATOM     22  C   UNL A   1      29.801  30.054  22.156  1.00  0.00     0.029 A 
ATOM     23  S   UNL A   1      27.428  30.241  23.046  1.00  0.00    -0.145 S 
ATOM     24  C   UNL A   1      28.188  28.701  23.114  1.00  0.00     0.014 A 
ATOM     25  C   UNL A   1      27.387  27.524  23.566  1.00  0.00     0.057 C 
ENDBRANCH  17  19
ENDBRANCH   9  17
ENDBRANCH   6   8
ENDBRANCH   5   6
ENDBRANCH   4   5
ENDBRANCH   3   4
ENDBRANCH   2   3
ENDBRANCH   1   2
BRANCH   1  26
ATOM     26  C   UNL A   1      36.504  21.885  24.303  1.00  0.00     0.188 C 
BRANCH  26  27
ATOM     27  O   UNL A   1      37.022  21.106  25.372  1.00  0.00    -0.376 OA
BRANCH  27  28
ATOM     28  C   UNL A   1      37.452  19.804  25.005  1.00  0.00     0.202 C 
BRANCH  28  29
ATOM     29  C   UNL A   1      38.907  19.575  25.421  1.00  0.00     0.261 C 
BRANCH  29  30
ATOM     30  O   UNL A   1      39.619  20.767  25.808  1.00  0.00    -0.460 OA
BRANCH  30  31
ATOM     31  C   UNL A   1      40.376  20.702  26.919  1.00  0.00     0.338 C 
ATOM     32  O   UNL A   1      40.785  19.682  27.470  1.00  0.00    -0.246 OA
BRANCH  31  33
ATOM     33  C   UNL A   1      40.794  22.068  27.296  1.00  0.00     0.060 A 
ATOM     34  C   UNL A   1      40.306  23.157  26.564  1.00  0.00     0.016 A 
ATOM     35  C   UNL A   1      41.686  22.279  28.351  1.00  0.00     0.016 A 
ATOM     36  C   UNL A   1      40.731  24.455  26.860  1.00  0.00     0.010 A 
ATOM     37  C   UNL A   1      42.123  23.577  28.637  1.00  0.00     0.010 A 
ATOM     38  C   UNL A   1      41.672  24.670  27.874  1.00  0.00    -0.014 A 
BRANCH  38  39
ATOM     39  C   UNL A   1      42.313  26.000  28.035  1.00  0.00     0.031 A 
ATOM     40  C   UNL A   1      41.555  27.084  28.752  1.00  0.00     0.074 A 
ATOM     41  C   UNL A   1      43.542  26.253  27.551  1.00  0.00     0.049 A 
ATOM     42  N   UNL A   1      41.862  28.344  28.924  1.00  0.00    -0.248 NA
ATOM     43  C   UNL A   1      40.272  26.689  29.354  1.00  0.00     0.031 C 
ATOM     44  C   UNL A   1      44.402  25.284  26.878  1.00  0.00     0.029 A 
ATOM     45  N   UNL A   1      44.269  27.419  27.538  1.00  0.00    -0.354 N 
ATOM     46  C   UNL A   1      40.806  28.896  29.636  1.00  0.00     0.074 A 
ATOM     47  C   UNL A   1      39.840  27.839  29.849  1.00  0.00     0.031 C 
ATOM     48  C   UNL A   1      45.534  25.902  26.494  1.00  0.00     0.029 A 
ATOM     49  C   UNL A   1      45.460  27.315  26.862  1.00  0.00     0.049 A 
ATOM     50  H   UNL A   1      43.967  28.249  27.973  1.00  0.00     0.167 HD
ATOM     51  C   UNL A   1      40.653  30.169  30.076  1.00  0.00     0.037 A 
ATOM     52  C   UNL A   1      46.367  28.261  26.545  1.00  0.00     0.037 A 
ATOM     53  C   UNL A   1      41.612  31.221  29.867  1.00  0.00     0.049 A 
ATOM     54  C   UNL A   1      46.142  29.688  26.981  1.00  0.00     0.074 A 
ATOM     55  C   UNL A   1      41.558  32.535  30.297  1.00  0.00     0.029 A 
ATOM     56  N   UNL A   1      42.796  31.082  29.158  1.00  0.00    -0.354 N 
ATOM     57  N   UNL A   1      45.153  30.198  27.674  1.00  0.00    -0.248 NA
ATOM     58  C   UNL A   1      47.163  30.672  26.587  1.00  0.00     0.031 C 
ATOM     59  C   UNL A   1      42.680  33.206  29.800  1.00  0.00     0.029 A 
ATOM     60  C   UNL A   1      43.466  32.296  29.113  1.00  0.00     0.049 A 
ATOM     61  H   UNL A   1      43.114  30.246  28.747  1.00  0.00     0.167 HD
ATOM     62  C   UNL A   1      45.446  31.550  27.823  1.00  0.00     0.074 A 
ATOM     63  C   UNL A   1      46.710  31.779  27.160  1.00  0.00     0.031 C 
ATOM     64  C   UNL A   1      44.730  32.512  28.456  1.00  0.00     0.037 A 
BRANCH  51  65
ATOM     65  C   UNL A   1      39.380  30.503  30.796  1.00  0.00     0.064 A 
ATOM     66  C   UNL A   1      38.248  30.978  30.117  1.00  0.00     0.173 A 
ATOM     67  C   UNL A   1      39.284  30.321  32.184  1.00  0.00     0.173 A 
ATOM     68  F   UNL A   1      38.292  31.184  28.792  1.00  0.00    -0.203 F 
ATOM     69  C   UNL A   1      37.078  31.285  30.806  1.00  0.00     0.198 A 
ATOM     70  C   UNL A   1      38.103  30.600  32.864  1.00  0.00     0.198 A 
ATOM     71  F   UNL A   1      40.337  29.865  32.880  1.00  0.00    -0.203 F 
ATOM     72  F   UNL A   1      36.024  31.785  30.144  1.00  0.00    -0.200 F 
ATOM     73  C   UNL A   1      37.003  31.089  32.176  1.00  0.00     0.200 A 
ATOM     74  F   UNL A   1      38.030  30.398  34.187  1.00  0.00    -0.200 F 
ATOM     75  F   UNL A   1      35.874  31.379  32.836  1.00  0.00    -0.200 F 
ENDBRANCH  51  65
BRANCH  52  76
ATOM     76  C   UNL A   1      47.568  27.900  25.746  1.00  0.00     0.064 A 
ATOM     77  C   UNL A   1      47.509  27.810  24.348  1.00  0.00     0.173 A 
ATOM     78  C   UNL A   1      48.793  27.610  26.366  1.00  0.00     0.173 A 
ATOM     79  F   UNL A   1      46.353  28.046  23.711  1.00  0.00    -0.203 F 
ATOM     80  C   UNL A   1      48.623  27.428  23.604  1.00  0.00     0.198 A 
ATOM     81  C   UNL A   1      49.914  27.258  25.618  1.00  0.00     0.198 A 
ATOM     82  F   UNL A   1      48.900  27.672  27.702  1.00  0.00    -0.203 F 
ATOM     83  F   UNL A   1      48.525  27.301  22.274  1.00  0.00    -0.200 F 
ATOM     84  C   UNL A   1      49.827  27.159  24.239  1.00  0.00     0.200 A 
ATOM     85  F   UNL A   1      51.076  27.005  26.236  1.00  0.00    -0.200 F 
ATOM     86  F   UNL A   1      50.898  26.793  23.521  1.00  0.00    -0.200 F 
ENDBRANCH  52  76
BRANCH  64  87
ATOM     87  C   UNL A   1      45.312  33.898  28.501  1.00  0.00     0.064 A 
ATOM     88  C   UNL A   1      46.266  34.268  29.459  1.00  0.00     0.173 A 
ATOM     89  C   UNL A   1      44.945  34.852  27.539  1.00  0.00     0.173 A 
ATOM     90  F   UNL A   1      46.643  33.398  30.409  1.00  0.00    -0.203 F 
ATOM     91  C   UNL A   1      46.814  35.549  29.468  1.00  0.00     0.198 A 
ATOM     92  C   UNL A   1      45.516  36.121  27.531  1.00  0.00     0.198 A 
ATOM     93  F   UNL A   1      44.042  34.548  26.594  1.00  0.00    -0.203 F 
ATOM     94  F   UNL A   1      47.690  35.895  30.421  1.00  0.00    -0.200 F 
ATOM     95  C   UNL A   1      46.445  36.471  28.500  1.00  0.00     0.200 A 
ATOM     96  F   UNL A   1      45.170  37.005  26.585  1.00  0.00    -0.200 F 
ATOM     97  F   UNL A   1      46.980  37.700  28.503  1.00  0.00    -0.200 F 
ENDBRANCH  64  87
ENDBRANCH  38  39
ENDBRANCH  31  33
ENDBRANCH  30  31
ENDBRANCH  29  30
ENDBRANCH  28  29
ENDBRANCH  27  28
ENDBRANCH  26  27
ENDBRANCH   1  26
TORSDOF 19
ENDMDL
