MODEL 1
REMARK VINA RESULT:     -11.2      0.000      0.000
REMARK SMILES COc1nc2c(cc1C(=O)NCc1ccc(C(=O)OCCOCCOCCOC(=O)c3ccc(-c4c5nc(c(-c6c(F)c(F)c(F)c(F)c6F)c6ccc([nH]6)c(-c6c(F)c(F)c(F)c(F)c6F)c6nc(c(-c7c(F)c(F)c(F)c(F)c7F)c7ccc4[nH]7)C=C6)C=C5)cc3)s1)CCC2
REMARK SMILES IDX 23 1 22 2 21 3 20 4 19 5 17 6 18 7 16 8 13 9 14 10 94 11
REMARK SMILES IDX 15 12 12 13 11 14 9 15 10 16 8 18 3 19 4 20 5 21 7 22 6 23
REMARK SMILES IDX 97 24 95 25 96 26 2 27 1 28 24 29 25 30 26 31 27 32 28 33
REMARK SMILES IDX 29 34 30 35 31 36 32 37 93 38 33 39 92 40 34 41 35 42 36 43
REMARK SMILES IDX 86 44 37 45 91 46 85 47 87 48 38 49 90 50 84 51 83 52 39 54
REMARK SMILES IDX 71 55 51 56 70 57 52 58 55 59 69 60 88 61 53 62 54 63 68 65
REMARK SMILES IDX 89 66 56 67 40 68 41 69 49 70 42 71 43 72 47 73 50 74 44 75
REMARK SMILES IDX 45 76 48 77 46 78 72 79 73 80 81 81 74 82 75 83 79 84 82 85
REMARK SMILES IDX 76 86 77 87 80 88 78 89 57 90 58 91 66 92 59 93 60 94 64 95
REMARK SMILES IDX 67 96 61 97 62 98 65 99 63 100
REMARK H PARENT 11 17 87 53 55 64
REMARK Flexibility Score: inf
ROOT
ATOM      1  C   UNL A   1      41.154  21.190  27.448  1.00  0.00     0.188 C 
ENDROOT
BRANCH   1   2
ATOM      2  O   UNL A   1      40.105  22.144  27.429  1.00  0.00    -0.376 OA
BRANCH   2   3
ATOM      3  C   UNL A   1      39.508  22.508  26.189  1.00  0.00     0.202 C 
BRANCH   3   4
ATOM      4  C   UNL A   1      38.019  22.844  26.149  1.00  0.00     0.261 C 
BRANCH   4   5
ATOM      5  O   UNL A   1      37.453  22.620  24.850  1.00  0.00    -0.459 OA
BRANCH   5   6
ATOM      6  C   UNL A   1      36.450  21.694  24.809  1.00  0.00     0.348 C 
ATOM      7  O   UNL A   1      36.503  20.591  25.343  1.00  0.00    -0.245 OA
BRANCH   6   8
ATOM      8  C   UNL A   1      35.284  22.278  24.185  1.00  0.00     0.112 A 
ATOM      9  C   UNL A   1      32.917  22.780  23.701  1.00  0.00     0.025 A 
ATOM     10  C   UNL A   1      33.766  23.747  23.197  1.00  0.00     0.018 A 
ATOM     11  S   UNL A   1      33.788  21.463  24.356  1.00  0.00    -0.131 S 
ATOM     12  C   UNL A   1      35.134  23.470  23.502  1.00  0.00     0.028 A 
BRANCH   9  13
ATOM     13  C   UNL A   1      31.431  22.818  23.821  1.00  0.00     0.163 C 
BRANCH  13  14
ATOM     14  N   UNL A   1      31.009  22.858  25.201  1.00  0.00    -0.347 N 
ATOM     15  C   UNL A   1      30.874  23.929  26.049  1.00  0.00     0.257 C 
ATOM     16  O   UNL A   1      30.478  23.712  27.196  1.00  0.00    -0.269 OA
ATOM     17  H   UNL A   1      30.785  21.985  25.595  1.00  0.00     0.164 HD
BRANCH  15  18
ATOM     18  C   UNL A   1      31.232  25.325  25.686  1.00  0.00     0.102 A 
ATOM     19  C   UNL A   1      30.410  26.235  25.009  1.00  0.00     0.226 A 
ATOM     20  N   UNL A   1      30.779  27.495  24.652  1.00  0.00    -0.218 NA
ATOM     21  C   UNL A   1      31.998  27.876  25.061  1.00  0.00     0.048 A 
ATOM     22  C   UNL A   1      32.475  25.799  26.144  1.00  0.00     0.025 A 
ATOM     23  C   UNL A   1      32.849  27.091  25.826  1.00  0.00    -0.025 A 
ATOM     24  C   UNL A   1      32.591  29.236  24.816  1.00  0.00     0.057 C 
ATOM     25  C   UNL A   1      34.059  27.860  26.244  1.00  0.00     0.038 C 
ATOM     26  C   UNL A   1      34.056  29.002  25.216  1.00  0.00     0.011 C 
BRANCH  19  27
ATOM     27  O   UNL A   1      29.134  25.916  24.629  1.00  0.00    -0.480 OA
ATOM     28  C   UNL A   1      28.609  26.945  23.798  1.00  0.00     0.280 C 
ENDBRANCH  19  27
ENDBRANCH  15  18
ENDBRANCH  13  14
ENDBRANCH   9  13
ENDBRANCH   6   8
ENDBRANCH   5   6
ENDBRANCH   4   5
ENDBRANCH   3   4
ENDBRANCH   2   3
ENDBRANCH   1   2
BRANCH   1  29
ATOM     29  C   UNL A   1      41.788  20.692  26.132  1.00  0.00     0.188 C 
BRANCH  29  30
ATOM     30  O   UNL A   1      43.195  20.580  26.010  1.00  0.00    -0.376 OA
BRANCH  30  31
ATOM     31  C   UNL A   1      43.972  21.772  25.915  1.00  0.00     0.202 C 
BRANCH  31  32
ATOM     32  C   UNL A   1      43.934  22.568  24.612  1.00  0.00     0.261 C 
BRANCH  32  33
ATOM     33  O   UNL A   1      43.159  23.769  24.753  1.00  0.00    -0.460 OA
BRANCH  33  34
ATOM     34  C   UNL A   1      43.877  24.869  25.070  1.00  0.00     0.338 C 
ATOM     35  O   UNL A   1      44.958  25.214  24.628  1.00  0.00    -0.246 OA
BRANCH  34  36
ATOM     36  C   UNL A   1      43.085  25.716  25.972  1.00  0.00     0.060 A 
ATOM     37  C   UNL A   1      43.452  27.059  26.116  1.00  0.00     0.016 A 
ATOM     38  C   UNL A   1      42.071  25.158  26.750  1.00  0.00     0.016 A 
ATOM     39  C   UNL A   1      42.815  27.849  27.069  1.00  0.00     0.010 A 
ATOM     40  C   UNL A   1      41.451  25.944  27.723  1.00  0.00     0.010 A 
ATOM     41  C   UNL A   1      41.844  27.281  27.905  1.00  0.00    -0.014 A 
BRANCH  41  42
ATOM     42  C   UNL A   1      41.366  28.039  29.081  1.00  0.00     0.031 A 
ATOM     43  C   UNL A   1      42.115  27.905  30.376  1.00  0.00     0.074 A 
ATOM     44  C   UNL A   1      40.298  28.848  28.991  1.00  0.00     0.049 A 
ATOM     45  N   UNL A   1      41.887  28.480  31.529  1.00  0.00    -0.248 NA
ATOM     46  C   UNL A   1      43.281  27.005  30.370  1.00  0.00     0.031 C 
ATOM     47  C   UNL A   1      39.523  29.087  27.777  1.00  0.00     0.029 A 
ATOM     48  N   UNL A   1      39.683  29.616  29.946  1.00  0.00    -0.354 N 
ATOM     49  C   UNL A   1      42.895  28.034  32.373  1.00  0.00     0.074 A 
ATOM     50  C   UNL A   1      43.713  27.113  31.617  1.00  0.00     0.031 C 
ATOM     51  C   UNL A   1      38.524  29.943  28.062  1.00  0.00     0.029 A 
ATOM     52  C   UNL A   1      38.582  30.289  29.481  1.00  0.00     0.049 A 
ATOM     53  H   UNL A   1      40.000  29.678  30.876  1.00  0.00     0.167 HD
ATOM     54  C   UNL A   1      43.123  28.377  33.662  1.00  0.00     0.037 A 
ATOM     55  C   UNL A   1      37.714  31.084  30.137  1.00  0.00     0.037 A 
ATOM     56  C   UNL A   1      42.289  29.266  34.423  1.00  0.00     0.049 A 
ATOM     57  C   UNL A   1      37.919  31.349  31.605  1.00  0.00     0.074 A 
ATOM     58  C   UNL A   1      42.436  29.675  35.736  1.00  0.00     0.029 A 
ATOM     59  N   UNL A   1      41.138  29.870  33.939  1.00  0.00    -0.354 N 
ATOM     60  N   UNL A   1      38.895  30.959  32.389  1.00  0.00    -0.248 NA
ATOM     61  C   UNL A   1      36.898  32.162  32.283  1.00  0.00     0.031 C 
ATOM     62  C   UNL A   1      41.349  30.492  36.061  1.00  0.00     0.029 A 
ATOM     63  C   UNL A   1      40.548  30.625  34.937  1.00  0.00     0.049 A 
ATOM     64  H   UNL A   1      40.793  29.775  33.022  1.00  0.00     0.167 HD
ATOM     65  C   UNL A   1      38.619  31.494  33.640  1.00  0.00     0.074 A 
ATOM     66  C   UNL A   1      37.388  32.245  33.512  1.00  0.00     0.031 C 
ATOM     67  C   UNL A   1      39.326  31.372  34.790  1.00  0.00     0.037 A 
BRANCH  54  68
ATOM     68  C   UNL A   1      44.320  27.778  34.332  1.00  0.00     0.064 A 
ATOM     69  C   UNL A   1      45.557  28.439  34.334  1.00  0.00     0.173 A 
ATOM     70  C   UNL A   1      44.223  26.557  35.014  1.00  0.00     0.173 A 
ATOM     71  F   UNL A   1      45.700  29.604  33.685  1.00  0.00    -0.203 F 
ATOM     72  C   UNL A   1      46.659  27.891  34.984  1.00  0.00     0.198 A 
ATOM     73  C   UNL A   1      45.321  26.022  35.681  1.00  0.00     0.198 A 
ATOM     74  F   UNL A   1      43.060  25.889  35.041  1.00  0.00    -0.203 F 
ATOM     75  F   UNL A   1      47.839  28.524  34.950  1.00  0.00    -0.200 F 
ATOM     76  C   UNL A   1      46.539  26.688  35.662  1.00  0.00     0.200 A 
ATOM     77  F   UNL A   1      45.202  24.862  36.343  1.00  0.00    -0.200 F 
ATOM     78  F   UNL A   1      47.598  26.165  36.295  1.00  0.00    -0.200 F 
ENDBRANCH  54  68
BRANCH  55  79
ATOM     79  C   UNL A   1      36.573  31.690  29.407  1.00  0.00     0.064 A 
ATOM     80  C   UNL A   1      35.491  30.905  28.989  1.00  0.00     0.173 A 
ATOM     81  C   UNL A   1      36.542  33.061  29.112  1.00  0.00     0.173 A 
ATOM     82  F   UNL A   1      35.490  29.585  29.227  1.00  0.00    -0.203 F 
ATOM     83  C   UNL A   1      34.422  31.467  28.295  1.00  0.00     0.198 A 
ATOM     84  C   UNL A   1      35.462  33.626  28.437  1.00  0.00     0.198 A 
ATOM     85  F   UNL A   1      37.558  33.851  29.485  1.00  0.00    -0.203 F 
ATOM     86  F   UNL A   1      33.414  30.689  27.875  1.00  0.00    -0.200 F 
ATOM     87  C   UNL A   1      34.405  32.828  28.024  1.00  0.00     0.200 A 
ATOM     88  F   UNL A   1      35.448  34.941  28.181  1.00  0.00    -0.200 F 
ATOM     89  F   UNL A   1      33.376  33.368  27.359  1.00  0.00    -0.200 F 
ENDBRANCH  55  79
BRANCH  67  90
ATOM     90  C   UNL A   1      38.805  32.078  36.006  1.00  0.00     0.064 A 
ATOM     91  C   UNL A   1      38.061  31.400  36.981  1.00  0.00     0.173 A 
ATOM     92  C   UNL A   1      39.138  33.420  36.245  1.00  0.00     0.173 A 
ATOM     93  F   UNL A   1      37.708  30.120  36.791  1.00  0.00    -0.203 F 
ATOM     94  C   UNL A   1      37.666  32.041  38.152  1.00  0.00     0.198 A 
ATOM     95  C   UNL A   1      38.762  34.051  37.427  1.00  0.00     0.198 A 
ATOM     96  F   UNL A   1      39.856  34.109  35.344  1.00  0.00    -0.203 F 
ATOM     97  F   UNL A   1      36.938  31.381  39.063  1.00  0.00    -0.200 F 
ATOM     98  C   UNL A   1      38.027  33.362  38.378  1.00  0.00     0.200 A 
ATOM     99  F   UNL A   1      39.124  35.322  37.650  1.00  0.00    -0.200 F 
ATOM    100  F   UNL A   1      37.665  33.971  39.516  1.00  0.00    -0.200 F 
ENDBRANCH  67  90
ENDBRANCH  41  42
ENDBRANCH  34  36
ENDBRANCH  33  34
ENDBRANCH  32  33
ENDBRANCH  31  32
ENDBRANCH  30  31
ENDBRANCH  29  30
ENDBRANCH   1  29
TORSDOF 21
ENDMDL
MODEL 2
REMARK VINA RESULT:     -10.7      0.481      7.010
REMARK SMILES COc1nc2c(cc1C(=O)NCc1ccc(C(=O)OCCOCCOCCOC(=O)c3ccc(-c4c5nc(c(-c6c(F)c(F)c(F)c(F)c6F)c6ccc([nH]6)c(-c6c(F)c(F)c(F)c(F)c6F)c6nc(c(-c7c(F)c(F)c(F)c(F)c7F)c7ccc4[nH]7)C=C6)C=C5)cc3)s1)CCC2
REMARK SMILES IDX 23 1 22 2 21 3 20 4 19 5 17 6 18 7 16 8 13 9 14 10 94 11
REMARK SMILES IDX 15 12 12 13 11 14 9 15 10 16 8 18 3 19 4 20 5 21 7 22 6 23
REMARK SMILES IDX 97 24 95 25 96 26 2 27 1 28 24 29 25 30 26 31 27 32 28 33
REMARK SMILES IDX 29 34 30 35 31 36 32 37 93 38 33 39 92 40 34 41 35 42 36 43
REMARK SMILES IDX 86 44 37 45 91 46 85 47 87 48 38 49 90 50 84 51 83 52 39 54
REMARK SMILES IDX 71 55 51 56 70 57 52 58 55 59 69 60 88 61 53 62 54 63 68 65
REMARK SMILES IDX 89 66 56 67 40 68 41 69 49 70 42 71 43 72 47 73 50 74 44 75
REMARK SMILES IDX 45 76 48 77 46 78 72 79 73 80 81 81 74 82 75 83 79 84 82 85
REMARK SMILES IDX 76 86 77 87 80 88 78 89 57 90 58 91 66 92 59 93 60 94 64 95
REMARK SMILES IDX 67 96 61 97 62 98 65 99 63 100
REMARK H PARENT 11 17 87 53 55 64
REMARK Flexibility Score: inf
ROOT
ATOM      1  C   UNL A   1      41.382  21.733  27.438  1.00  0.00     0.188 C 
ENDROOT
BRANCH   1   2
ATOM      2  O   UNL A   1      40.084  22.295  27.540  1.00  0.00    -0.376 OA
BRANCH   2   3
ATOM      3  C   UNL A   1      39.361  22.613  26.355  1.00  0.00     0.202 C 
BRANCH   3   4
ATOM      4  C   UNL A   1      37.862  22.327  26.297  1.00  0.00     0.261 C 
BRANCH   4   5
ATOM      5  O   UNL A   1      37.367  22.323  24.950  1.00  0.00    -0.459 OA
BRANCH   5   6
ATOM      6  C   UNL A   1      36.429  21.368  24.683  1.00  0.00     0.348 C 
ATOM      7  O   UNL A   1      36.503  20.201  25.053  1.00  0.00    -0.245 OA
BRANCH   6   8
ATOM      8  C   UNL A   1      35.287  21.983  24.045  1.00  0.00     0.112 A 
ATOM      9  C   UNL A   1      32.957  22.682  23.630  1.00  0.00     0.025 A 
ATOM     10  C   UNL A   1      33.863  23.454  22.928  1.00  0.00     0.018 A 
ATOM     11  S   UNL A   1      33.731  21.386  24.433  1.00  0.00    -0.131 S 
ATOM     12  C   UNL A   1      35.213  23.067  23.190  1.00  0.00     0.028 A 
BRANCH   9  13
ATOM     13  C   UNL A   1      31.497  22.913  23.833  1.00  0.00     0.163 C 
BRANCH  13  14
ATOM     14  N   UNL A   1      31.143  22.892  25.232  1.00  0.00    -0.347 N 
ATOM     15  C   UNL A   1      31.014  23.929  26.122  1.00  0.00     0.257 C 
ATOM     16  O   UNL A   1      30.684  23.660  27.279  1.00  0.00    -0.269 OA
ATOM     17  H   UNL A   1      30.970  21.999  25.605  1.00  0.00     0.164 HD
BRANCH  15  18
ATOM     18  C   UNL A   1      31.307  25.348  25.790  1.00  0.00     0.102 A 
ATOM     19  C   UNL A   1      30.398  26.272  25.260  1.00  0.00     0.226 A 
ATOM     20  N   UNL A   1      30.703  27.555  24.927  1.00  0.00    -0.218 NA
ATOM     21  C   UNL A   1      31.955  27.942  25.211  1.00  0.00     0.048 A 
ATOM     22  C   UNL A   1      32.587  25.825  26.125  1.00  0.00     0.025 A 
ATOM     23  C   UNL A   1      32.902  27.139  25.832  1.00  0.00    -0.025 A 
ATOM     24  C   UNL A   1      32.494  29.324  24.967  1.00  0.00     0.057 C 
ATOM     25  C   UNL A   1      34.140  27.913  26.145  1.00  0.00     0.038 C 
ATOM     26  C   UNL A   1      34.000  29.103  25.183  1.00  0.00     0.011 C 
BRANCH  19  27
ATOM     27  O   UNL A   1      29.091  25.944  25.014  1.00  0.00    -0.480 OA
ATOM     28  C   UNL A   1      28.635  26.629  23.853  1.00  0.00     0.280 C 
ENDBRANCH  19  27
ENDBRANCH  15  18
ENDBRANCH  13  14
ENDBRANCH   9  13
ENDBRANCH   6   8
ENDBRANCH   5   6
ENDBRANCH   4   5
ENDBRANCH   3   4
ENDBRANCH   2   3
ENDBRANCH   1   2
BRANCH   1  29
ATOM     29  C   UNL A   1      41.935  21.272  26.073  1.00  0.00     0.188 C 
BRANCH  29  30
ATOM     30  O   UNL A   1      43.316  20.999  25.913  1.00  0.00    -0.376 OA
BRANCH  30  31
ATOM     31  C   UNL A   1      44.204  22.084  25.651  1.00  0.00     0.202 C 
BRANCH  31  32
ATOM     32  C   UNL A   1      43.957  22.950  24.418  1.00  0.00     0.261 C 
BRANCH  32  33
ATOM     33  O   UNL A   1      43.223  24.140  24.750  1.00  0.00    -0.460 OA
BRANCH  33  34
ATOM     34  C   UNL A   1      43.987  25.174  25.168  1.00  0.00     0.338 C 
ATOM     35  O   UNL A   1      45.074  25.524  24.744  1.00  0.00    -0.246 OA
BRANCH  34  36
ATOM     36  C   UNL A   1      43.242  25.949  26.169  1.00  0.00     0.060 A 
ATOM     37  C   UNL A   1      43.631  27.271  26.411  1.00  0.00     0.016 A 
ATOM     38  C   UNL A   1      42.250  25.336  26.935  1.00  0.00     0.016 A 
ATOM     39  C   UNL A   1      43.042  27.984  27.451  1.00  0.00     0.010 A 
ATOM     40  C   UNL A   1      41.679  26.043  27.995  1.00  0.00     0.010 A 
ATOM     41  C   UNL A   1      42.096  27.356  28.274  1.00  0.00    -0.014 A 
BRANCH  41  42
ATOM     42  C   UNL A   1      41.673  28.016  29.528  1.00  0.00     0.031 A 
ATOM     43  C   UNL A   1      40.474  28.920  29.496  1.00  0.00     0.074 A 
ATOM     44  C   UNL A   1      42.333  27.798  30.677  1.00  0.00     0.049 A 
ATOM     45  N   UNL A   1      39.917  29.593  30.470  1.00  0.00    -0.248 NA
ATOM     46  C   UNL A   1      39.810  29.084  28.192  1.00  0.00     0.031 C 
ATOM     47  C   UNL A   1      43.482  26.909  30.832  1.00  0.00     0.029 A 
ATOM     48  N   UNL A   1      42.128  28.313  31.930  1.00  0.00    -0.354 N 
ATOM     49  C   UNL A   1      38.825  30.234  29.903  1.00  0.00     0.074 A 
ATOM     50  C   UNL A   1      38.816  29.905  28.496  1.00  0.00     0.031 C 
ATOM     51  C   UNL A   1      43.888  26.947  32.114  1.00  0.00     0.029 A 
ATOM     52  C   UNL A   1      43.040  27.878  32.858  1.00  0.00     0.049 A 
ATOM     53  H   UNL A   1      41.396  28.937  32.145  1.00  0.00     0.167 HD
ATOM     54  C   UNL A   1      37.903  31.017  30.510  1.00  0.00     0.037 A 
ATOM     55  C   UNL A   1      43.177  28.208  34.156  1.00  0.00     0.037 A 
ATOM     56  C   UNL A   1      37.931  31.371  31.902  1.00  0.00     0.049 A 
ATOM     57  C   UNL A   1      42.211  29.182  34.778  1.00  0.00     0.074 A 
ATOM     58  C   UNL A   1      37.044  32.160  32.611  1.00  0.00     0.029 A 
ATOM     59  N   UNL A   1      38.915  30.971  32.794  1.00  0.00    -0.354 N 
ATOM     60  N   UNL A   1      41.157  29.754  34.249  1.00  0.00    -0.248 NA
ATOM     61  C   UNL A   1      42.457  29.562  36.177  1.00  0.00     0.031 C 
ATOM     62  C   UNL A   1      37.514  32.273  33.923  1.00  0.00     0.029 A 
ATOM     63  C   UNL A   1      38.673  31.521  34.040  1.00  0.00     0.049 A 
ATOM     64  H   UNL A   1      39.674  30.384  32.572  1.00  0.00     0.167 HD
ATOM     65  C   UNL A   1      40.604  30.539  35.251  1.00  0.00     0.074 A 
ATOM     66  C   UNL A   1      41.433  30.366  36.425  1.00  0.00     0.031 C 
ATOM     67  C   UNL A   1      39.505  31.332  35.200  1.00  0.00     0.037 A 
BRANCH  54  68
ATOM     68  C   UNL A   1      36.789  31.551  29.664  1.00  0.00     0.064 A 
ATOM     69  C   UNL A   1      36.785  32.883  29.225  1.00  0.00     0.173 A 
ATOM     70  C   UNL A   1      35.739  30.717  29.253  1.00  0.00     0.173 A 
ATOM     71  F   UNL A   1      37.763  33.720  29.602  1.00  0.00    -0.203 F 
ATOM     72  C   UNL A   1      35.762  33.365  28.414  1.00  0.00     0.198 A 
ATOM     73  C   UNL A   1      34.728  31.197  28.425  1.00  0.00     0.198 A 
ATOM     74  F   UNL A   1      35.700  29.435  29.646  1.00  0.00    -0.203 F 
ATOM     75  F   UNL A   1      35.762  34.649  28.030  1.00  0.00    -0.200 F 
ATOM     76  C   UNL A   1      34.739  32.522  28.010  1.00  0.00     0.200 A 
ATOM     77  F   UNL A   1      33.744  30.379  28.028  1.00  0.00    -0.200 F 
ATOM     78  F   UNL A   1      33.759  32.985  27.222  1.00  0.00    -0.200 F 
ENDBRANCH  54  68
BRANCH  55  79
ATOM     79  C   UNL A   1      44.273  27.608  34.958  1.00  0.00     0.064 A 
ATOM     80  C   UNL A   1      44.114  26.357  35.567  1.00  0.00     0.173 A 
ATOM     81  C   UNL A   1      45.496  28.273  35.134  1.00  0.00     0.173 A 
ATOM     82  F   UNL A   1      42.952  25.698  35.447  1.00  0.00    -0.203 F 
ATOM     83  C   UNL A   1      45.135  25.795  36.329  1.00  0.00     0.198 A 
ATOM     84  C   UNL A   1      46.524  27.699  35.878  1.00  0.00     0.198 A 
ATOM     85  F   UNL A   1      45.692  29.477  34.577  1.00  0.00    -0.203 F 
ATOM     86  F   UNL A   1      44.947  24.611  36.929  1.00  0.00    -0.200 F 
ATOM     87  C   UNL A   1      46.342  26.463  36.479  1.00  0.00     0.200 A 
ATOM     88  F   UNL A   1      47.689  28.346  36.017  1.00  0.00    -0.200 F 
ATOM     89  F   UNL A   1      47.324  25.920  37.210  1.00  0.00    -0.200 F 
ENDBRANCH  55  79
BRANCH  67  90
ATOM     90  C   UNL A   1      39.115  32.064  36.449  1.00  0.00     0.064 A 
ATOM     91  C   UNL A   1      39.626  33.336  36.739  1.00  0.00     0.173 A 
ATOM     92  C   UNL A   1      38.146  31.529  37.312  1.00  0.00     0.173 A 
ATOM     93  F   UNL A   1      40.562  33.883  35.950  1.00  0.00    -0.203 F 
ATOM     94  C   UNL A   1      39.182  34.047  37.851  1.00  0.00     0.198 A 
ATOM     95  C   UNL A   1      37.688  32.251  38.409  1.00  0.00     0.198 A 
ATOM     96  F   UNL A   1      37.623  30.317  37.071  1.00  0.00    -0.203 F 
ATOM     97  F   UNL A   1      39.698  35.254  38.122  1.00  0.00    -0.200 F 
ATOM     98  C   UNL A   1      38.206  33.509  38.678  1.00  0.00     0.200 A 
ATOM     99  F   UNL A   1      36.735  31.736  39.198  1.00  0.00    -0.200 F 
ATOM    100  F   UNL A   1      37.764  34.204  39.735  1.00  0.00    -0.200 F 
ENDBRANCH  67  90
ENDBRANCH  41  42
ENDBRANCH  34  36
ENDBRANCH  33  34
ENDBRANCH  32  33
ENDBRANCH  31  32
ENDBRANCH  30  31
ENDBRANCH  29  30
ENDBRANCH   1  29
TORSDOF 21
ENDMDL
MODEL 3
REMARK VINA RESULT:     -10.6      3.511      8.996
REMARK SMILES COc1nc2c(cc1C(=O)NCc1ccc(C(=O)OCCOCCOCCOC(=O)c3ccc(-c4c5nc(c(-c6c(F)c(F)c(F)c(F)c6F)c6ccc([nH]6)c(-c6c(F)c(F)c(F)c(F)c6F)c6nc(c(-c7c(F)c(F)c(F)c(F)c7F)c7ccc4[nH]7)C=C6)C=C5)cc3)s1)CCC2
REMARK SMILES IDX 23 1 22 2 21 3 20 4 19 5 17 6 18 7 16 8 13 9 14 10 94 11
REMARK SMILES IDX 15 12 12 13 11 14 9 15 10 16 8 18 3 19 4 20 5 21 7 22 6 23
REMARK SMILES IDX 97 24 95 25 96 26 2 27 1 28 24 29 25 30 26 31 27 32 28 33
REMARK SMILES IDX 29 34 30 35 31 36 32 37 93 38 33 39 92 40 34 41 35 42 36 43
REMARK SMILES IDX 86 44 37 45 91 46 85 47 87 48 38 49 90 50 84 51 83 52 39 54
REMARK SMILES IDX 71 55 51 56 70 57 52 58 55 59 69 60 88 61 53 62 54 63 68 65
REMARK SMILES IDX 89 66 56 67 40 68 41 69 49 70 42 71 43 72 47 73 50 74 44 75
REMARK SMILES IDX 45 76 48 77 46 78 72 79 73 80 81 81 74 82 75 83 79 84 82 85
REMARK SMILES IDX 76 86 77 87 80 88 78 89 57 90 58 91 66 92 59 93 60 94 64 95
REMARK SMILES IDX 67 96 61 97 62 98 65 99 63 100
REMARK H PARENT 11 17 87 53 55 64
REMARK Flexibility Score: inf
ROOT
ATOM      1  C   UNL A   1      34.575  31.561  28.007  1.00  0.00     0.188 C 
ENDROOT
BRANCH   1   2
ATOM      2  O   UNL A   1      33.357  30.939  27.630  1.00  0.00    -0.376 OA
BRANCH   2   3
ATOM      3  C   UNL A   1      33.341  30.037  26.528  1.00  0.00     0.202 C 
BRANCH   3   4
ATOM      4  C   UNL A   1      32.041  29.316  26.175  1.00  0.00     0.261 C 
BRANCH   4   5
ATOM      5  O   UNL A   1      31.591  29.640  24.851  1.00  0.00    -0.459 OA
BRANCH   5   6
ATOM      6  C   UNL A   1      32.131  28.876  23.856  1.00  0.00     0.348 C 
ATOM      7  O   UNL A   1      33.129  29.183  23.211  1.00  0.00    -0.245 OA
BRANCH   6   8
ATOM      8  C   UNL A   1      31.444  27.606  23.800  1.00  0.00     0.112 A 
ATOM      9  C   UNL A   1      31.025  25.183  24.005  1.00  0.00     0.025 A 
ATOM     10  C   UNL A   1      29.851  25.909  23.939  1.00  0.00     0.018 A 
ATOM     11  S   UNL A   1      32.390  26.181  23.760  1.00  0.00    -0.131 S 
ATOM     12  C   UNL A   1      30.094  27.314  23.849  1.00  0.00     0.028 A 
BRANCH   9  13
ATOM     13  C   UNL A   1      31.211  23.744  24.353  1.00  0.00     0.163 C 
BRANCH  13  14
ATOM     14  N   UNL A   1      31.118  23.524  25.777  1.00  0.00    -0.347 N 
ATOM     15  C   UNL A   1      32.050  23.025  26.652  1.00  0.00     0.257 C 
ATOM     16  O   UNL A   1      31.738  22.942  27.842  1.00  0.00    -0.269 OA
ATOM     17  H   UNL A   1      30.254  23.767  26.180  1.00  0.00     0.164 HD
BRANCH  15  18
ATOM     18  C   UNL A   1      33.387  22.524  26.243  1.00  0.00     0.102 A 
ATOM     19  C   UNL A   1      33.662  21.264  25.696  1.00  0.00     0.226 A 
ATOM     20  N   UNL A   1      34.903  20.816  25.368  1.00  0.00    -0.218 NA
ATOM     21  C   UNL A   1      35.897  21.702  25.528  1.00  0.00     0.048 A 
ATOM     22  C   UNL A   1      34.457  23.433  26.330  1.00  0.00     0.025 A 
ATOM     23  C   UNL A   1      35.720  23.008  25.961  1.00  0.00    -0.025 A 
ATOM     24  C   UNL A   1      37.337  21.435  25.188  1.00  0.00     0.057 C 
ATOM     25  C   UNL A   1      36.997  23.778  25.882  1.00  0.00     0.038 C 
ATOM     26  C   UNL A   1      38.029  22.641  25.844  1.00  0.00     0.011 C 
BRANCH  19  27
ATOM     27  O   UNL A   1      32.673  20.348  25.453  1.00  0.00    -0.480 OA
ATOM     28  C   UNL A   1      32.475  20.217  24.050  1.00  0.00     0.280 C 
ENDBRANCH  19  27
ENDBRANCH  15  18
ENDBRANCH  13  14
ENDBRANCH   9  13
ENDBRANCH   6   8
ENDBRANCH   5   6
ENDBRANCH   4   5
ENDBRANCH   3   4
ENDBRANCH   2   3
ENDBRANCH   1   2
BRANCH   1  29
ATOM     29  C   UNL A   1      34.624  32.533  29.204  1.00  0.00     0.188 C 
BRANCH  29  30
ATOM     30  O   UNL A   1      34.932  33.902  29.004  1.00  0.00    -0.376 OA
BRANCH  30  31
ATOM     31  C   UNL A   1      33.944  34.749  28.420  1.00  0.00     0.202 C 
BRANCH  31  32
ATOM     32  C   UNL A   1      33.134  35.667  29.334  1.00  0.00     0.261 C 
BRANCH  32  33
ATOM     33  O   UNL A   1      32.600  34.950  30.459  1.00  0.00    -0.460 OA
BRANCH  33  34
ATOM     34  C   UNL A   1      32.786  35.556  31.653  1.00  0.00     0.338 C 
ATOM     35  O   UNL A   1      32.084  36.397  32.185  1.00  0.00    -0.246 OA
BRANCH  34  36
ATOM     36  C   UNL A   1      33.938  34.945  32.328  1.00  0.00     0.060 A 
ATOM     37  C   UNL A   1      35.176  35.591  32.245  1.00  0.00     0.016 A 
ATOM     38  C   UNL A   1      33.816  33.694  32.932  1.00  0.00     0.016 A 
ATOM     39  C   UNL A   1      36.314  34.968  32.749  1.00  0.00     0.010 A 
ATOM     40  C   UNL A   1      34.962  33.058  33.412  1.00  0.00     0.010 A 
ATOM     41  C   UNL A   1      36.216  33.680  33.294  1.00  0.00    -0.014 A 
BRANCH  41  42
ATOM     42  C   UNL A   1      37.451  32.917  33.579  1.00  0.00     0.031 A 
ATOM     43  C   UNL A   1      38.195  33.202  34.851  1.00  0.00     0.074 A 
ATOM     44  C   UNL A   1      37.887  31.972  32.729  1.00  0.00     0.049 A 
ATOM     45  N   UNL A   1      39.289  32.653  35.313  1.00  0.00    -0.248 NA
ATOM     46  C   UNL A   1      37.629  34.246  35.723  1.00  0.00     0.031 C 
ATOM     47  C   UNL A   1      37.223  31.583  31.488  1.00  0.00     0.029 A 
ATOM     48  N   UNL A   1      39.000  31.173  32.787  1.00  0.00    -0.354 N 
ATOM     49  C   UNL A   1      39.523  33.262  36.538  1.00  0.00     0.074 A 
ATOM     50  C   UNL A   1      38.485  34.248  36.733  1.00  0.00     0.031 C 
ATOM     51  C   UNL A   1      37.948  30.618  30.894  1.00  0.00     0.029 A 
ATOM     52  C   UNL A   1      39.134  30.343  31.703  1.00  0.00     0.049 A 
ATOM     53  H   UNL A   1      39.641  31.193  33.534  1.00  0.00     0.167 HD
ATOM     54  C   UNL A   1      40.511  33.007  37.427  1.00  0.00     0.037 A 
ATOM     55  C   UNL A   1      40.114  29.471  31.398  1.00  0.00     0.037 A 
ATOM     56  C   UNL A   1      41.562  32.050  37.217  1.00  0.00     0.049 A 
ATOM     57  C   UNL A   1      41.271  29.297  32.347  1.00  0.00     0.074 A 
ATOM     58  C   UNL A   1      42.610  31.720  38.056  1.00  0.00     0.029 A 
ATOM     59  N   UNL A   1      41.707  31.281  36.071  1.00  0.00    -0.354 N 
ATOM     60  N   UNL A   1      41.467  29.844  33.522  1.00  0.00    -0.248 NA
ATOM     61  C   UNL A   1      42.347  28.388  31.924  1.00  0.00     0.031 C 
ATOM     62  C   UNL A   1      43.415  30.783  37.401  1.00  0.00     0.029 A 
ATOM     63  C   UNL A   1      42.844  30.499  36.170  1.00  0.00     0.049 A 
ATOM     64  H   UNL A   1      41.092  31.292  35.302  1.00  0.00     0.167 HD
ATOM     65  C   UNL A   1      42.670  29.332  33.987  1.00  0.00     0.074 A 
ATOM     66  C   UNL A   1      43.159  28.422  32.972  1.00  0.00     0.031 C 
ATOM     67  C   UNL A   1      43.311  29.594  35.153  1.00  0.00     0.037 A 
BRANCH  54  68
ATOM     68  C   UNL A   1      40.504  33.785  38.706  1.00  0.00     0.064 A 
ATOM     69  C   UNL A   1      41.298  34.930  38.863  1.00  0.00     0.173 A 
ATOM     70  C   UNL A   1      39.667  33.411  39.767  1.00  0.00     0.173 A 
ATOM     71  F   UNL A   1      42.123  35.319  37.879  1.00  0.00    -0.203 F 
ATOM     72  C   UNL A   1      41.266  35.665  40.045  1.00  0.00     0.198 A 
ATOM     73  C   UNL A   1      39.621  34.161  40.938  1.00  0.00     0.198 A 
ATOM     74  F   UNL A   1      38.888  32.324  39.662  1.00  0.00    -0.203 F 
ATOM     75  F   UNL A   1      42.054  36.739  40.185  1.00  0.00    -0.200 F 
ATOM     76  C   UNL A   1      40.423  35.285  41.077  1.00  0.00     0.200 A 
ATOM     77  F   UNL A   1      38.800  33.797  41.934  1.00  0.00    -0.200 F 
ATOM     78  F   UNL A   1      40.385  35.999  42.211  1.00  0.00    -0.200 F 
ENDBRANCH  54  68
BRANCH  55  79
ATOM     79  C   UNL A   1      40.042  28.691  30.137  1.00  0.00     0.064 A 
ATOM     80  C   UNL A   1      40.547  29.214  28.940  1.00  0.00     0.173 A 
ATOM     81  C   UNL A   1      39.465  27.412  30.104  1.00  0.00     0.173 A 
ATOM     82  F   UNL A   1      41.083  30.443  28.921  1.00  0.00    -0.203 F 
ATOM     83  C   UNL A   1      40.472  28.490  27.753  1.00  0.00     0.198 A 
ATOM     84  C   UNL A   1      39.411  26.680  28.920  1.00  0.00     0.198 A 
ATOM     85  F   UNL A   1      38.961  26.873  31.223  1.00  0.00    -0.203 F 
ATOM     86  F   UNL A   1      40.931  29.026  26.613  1.00  0.00    -0.200 F 
ATOM     87  C   UNL A   1      39.909  27.221  27.744  1.00  0.00     0.200 A 
ATOM     88  F   UNL A   1      38.871  25.454  28.916  1.00  0.00    -0.200 F 
ATOM     89  F   UNL A   1      39.840  26.525  26.602  1.00  0.00    -0.200 F 
ENDBRANCH  55  79
BRANCH  67  90
ATOM     90  C   UNL A   1      44.603  28.879  35.414  1.00  0.00     0.064 A 
ATOM     91  C   UNL A   1      45.839  29.499  35.188  1.00  0.00     0.173 A 
ATOM     92  C   UNL A   1      44.602  27.599  35.988  1.00  0.00     0.173 A 
ATOM     93  F   UNL A   1      45.890  30.717  34.629  1.00  0.00    -0.203 F 
ATOM     94  C   UNL A   1      47.030  28.862  35.525  1.00  0.00     0.198 A 
ATOM     95  C   UNL A   1      45.793  26.974  36.346  1.00  0.00     0.198 A 
ATOM     96  F   UNL A   1      43.443  26.968  36.230  1.00  0.00    -0.203 F 
ATOM     97  F   UNL A   1      48.202  29.464  35.282  1.00  0.00    -0.200 F 
ATOM     98  C   UNL A   1      47.005  27.606  36.114  1.00  0.00     0.200 A 
ATOM     99  F   UNL A   1      45.766  25.767  36.928  1.00  0.00    -0.200 F 
ATOM    100  F   UNL A   1      48.151  27.004  36.459  1.00  0.00    -0.200 F 
ENDBRANCH  67  90
ENDBRANCH  41  42
ENDBRANCH  34  36
ENDBRANCH  33  34
ENDBRANCH  32  33
ENDBRANCH  31  32
ENDBRANCH  30  31
ENDBRANCH  29  30
ENDBRANCH   1  29
TORSDOF 21
ENDMDL
