MODEL 1
REMARK VINA RESULT:      -9.0      0.000      0.000
REMARK SMILES O=C(COCCNS(=O)(=O)c1ccccc1)OCCOCCOCCOC(=O)c1ccc(-c2c3nc(c(-c4c(F)c(F)c(F)c(F)c4F)c4ccc([nH]4)c(-c4c(F)c(F)c(F)c(F)c4F)c4nc(c(-c5c(F)c(F)c(F)c(F)c5F)c5ccc2[nH]5)C=C4)C=C3)cc1
REMARK SMILES IDX 19 1 18 2 17 3 2 4 1 5 3 6 4 7 5 8 6 9 7 10 8 12 9 13 10 14
REMARK SMILES IDX 11 15 12 16 16 17 13 18 15 19 14 20 20 21 21 22 22 23 23 24
REMARK SMILES IDX 24 25 25 26 26 27 27 28 28 29 29 30 30 31 91 32 31 33 90 34
REMARK SMILES IDX 32 35 33 36 34 37 84 38 35 39 89 40 83 41 85 42 36 43 88 44
REMARK SMILES IDX 82 45 81 46 37 48 69 49 49 50 68 51 50 52 53 53 67 54 86 55
REMARK SMILES IDX 51 56 52 57 66 59 87 60 54 61 38 62 39 63 47 64 40 65 41 66
REMARK SMILES IDX 45 67 48 68 42 69 43 70 46 71 44 72 70 73 71 74 79 75 72 76
REMARK SMILES IDX 73 77 77 78 80 79 74 80 75 81 78 82 76 83 55 84 56 85 64 86
REMARK SMILES IDX 57 87 58 88 62 89 65 90 59 91 60 92 63 93 61 94
REMARK H PARENT 7 11 85 47 53 58
REMARK Flexibility Score: inf
ROOT
ATOM      1  C   UNL A   1      30.701  27.420  25.349  1.00  0.00     0.202 C 
ENDROOT
BRANCH   1   2
ATOM      2  C   UNL A   1      29.913  26.105  25.325  1.00  0.00     0.261 C 
BRANCH   2   3
ATOM      3  O   UNL A   1      30.420  25.065  26.190  1.00  0.00    -0.462 OA
BRANCH   3   4
ATOM      4  C   UNL A   1      30.639  23.778  25.843  1.00  0.00     0.332 C 
ATOM      5  O   UNL A   1      30.632  23.454  24.653  1.00  0.00    -0.250 OA
BRANCH   4   6
ATOM      6  C   UNL A   1      30.814  22.735  26.950  1.00  0.00     0.282 C 
BRANCH   6   7
ATOM      7  O   UNL A   1      31.891  22.875  27.854  1.00  0.00    -0.368 OA
BRANCH   7   8
ATOM      8  C   UNL A   1      33.182  22.972  27.270  1.00  0.00     0.177 C 
BRANCH   8   9
ATOM      9  C   UNL A   1      34.172  21.915  27.760  1.00  0.00     0.127 C 
BRANCH   9  10
ATOM     10  N   UNL A   1      34.710  21.087  26.657  1.00  0.00    -0.209 NA
ATOM     11  H   UNL A   1      33.942  20.527  26.284  1.00  0.00     0.141 HD
BRANCH  10  12
ATOM     12  S   UNL A   1      35.411  21.927  25.364  1.00  0.00     0.240 S 
ATOM     13  O   UNL A   1      35.650  23.278  25.813  1.00  0.00    -0.207 OA
ATOM     14  O   UNL A   1      36.462  21.090  24.826  1.00  0.00    -0.207 OA
BRANCH  12  15
ATOM     15  C   UNL A   1      34.058  21.955  24.215  1.00  0.00     0.082 A 
ATOM     16  C   UNL A   1      33.147  20.893  24.201  1.00  0.00     0.022 A 
ATOM     17  C   UNL A   1      34.015  22.957  23.244  1.00  0.00     0.022 A 
ATOM     18  C   UNL A   1      32.231  20.796  23.157  1.00  0.00     0.001 A 
ATOM     19  C   UNL A   1      33.086  22.858  22.210  1.00  0.00     0.001 A 
ATOM     20  C   UNL A   1      32.211  21.770  22.156  1.00  0.00     0.000 A 
ENDBRANCH  12  15
ENDBRANCH  10  12
ENDBRANCH   9  10
ENDBRANCH   8   9
ENDBRANCH   7   8
ENDBRANCH   6   7
ENDBRANCH   4   6
ENDBRANCH   3   4
ENDBRANCH   2   3
ENDBRANCH   1   2
BRANCH   1  21
ATOM     21  O   UNL A   1      30.699  28.047  24.088  1.00  0.00    -0.376 OA
BRANCH  21  22
ATOM     22  C   UNL A   1      31.760  27.774  23.193  1.00  0.00     0.188 C 
BRANCH  22  23
ATOM     23  C   UNL A   1      32.844  28.863  23.275  1.00  0.00     0.188 C 
BRANCH  23  24
ATOM     24  O   UNL A   1      33.731  28.873  24.390  1.00  0.00    -0.376 OA
BRANCH  24  25
ATOM     25  C   UNL A   1      33.317  29.497  25.600  1.00  0.00     0.202 C 
BRANCH  25  26
ATOM     26  C   UNL A   1      33.909  28.991  26.923  1.00  0.00     0.261 C 
BRANCH  26  27
ATOM     27  O   UNL A   1      33.961  29.959  27.991  1.00  0.00    -0.460 OA
BRANCH  27  28
ATOM     28  C   UNL A   1      35.020  30.807  27.951  1.00  0.00     0.338 C 
ATOM     29  O   UNL A   1      34.999  32.011  27.754  1.00  0.00    -0.246 OA
BRANCH  28  30
ATOM     30  C   UNL A   1      36.275  30.092  28.251  1.00  0.00     0.060 A 
ATOM     31  C   UNL A   1      36.457  29.522  29.518  1.00  0.00     0.016 A 
ATOM     32  C   UNL A   1      37.327  30.123  27.335  1.00  0.00     0.016 A 
ATOM     33  C   UNL A   1      37.700  28.988  29.876  1.00  0.00     0.010 A 
ATOM     34  C   UNL A   1      38.575  29.605  27.702  1.00  0.00     0.010 A 
ATOM     35  C   UNL A   1      38.777  29.055  28.982  1.00  0.00    -0.014 A 
BRANCH  35  36
ATOM     36  C   UNL A   1      40.143  28.630  29.386  1.00  0.00     0.031 A 
ATOM     37  C   UNL A   1      41.009  29.564  30.184  1.00  0.00     0.074 A 
ATOM     38  C   UNL A   1      40.634  27.443  28.991  1.00  0.00     0.049 A 
ATOM     39  N   UNL A   1      42.276  29.455  30.499  1.00  0.00    -0.248 NA
ATOM     40  C   UNL A   1      40.366  30.787  30.689  1.00  0.00     0.031 C 
ATOM     41  C   UNL A   1      39.888  26.431  28.250  1.00  0.00     0.029 A 
ATOM     42  N   UNL A   1      41.886  26.898  29.141  1.00  0.00    -0.354 N 
ATOM     43  C   UNL A   1      42.589  30.605  31.211  1.00  0.00     0.074 A 
ATOM     44  C   UNL A   1      41.380  31.398  31.287  1.00  0.00     0.031 C 
ATOM     45  C   UNL A   1      40.702  25.395  27.990  1.00  0.00     0.029 A 
ATOM     46  C   UNL A   1      42.035  25.688  28.510  1.00  0.00     0.049 A 
ATOM     47  H   UNL A   1      42.607  27.332  29.652  1.00  0.00     0.167 HD
ATOM     48  C   UNL A   1      43.780  30.965  31.744  1.00  0.00     0.037 A 
ATOM     49  C   UNL A   1      43.129  24.918  28.338  1.00  0.00     0.037 A 
ATOM     50  C   UNL A   1      44.979  30.167  31.690  1.00  0.00     0.049 A 
ATOM     51  C   UNL A   1      44.453  25.372  28.897  1.00  0.00     0.074 A 
ATOM     52  C   UNL A   1      46.214  30.431  32.257  1.00  0.00     0.029 A 
ATOM     53  N   UNL A   1      45.095  28.958  31.023  1.00  0.00    -0.354 N 
ATOM     54  N   UNL A   1      44.733  26.441  29.600  1.00  0.00    -0.248 NA
ATOM     55  C   UNL A   1      45.619  24.518  28.623  1.00  0.00     0.031 C 
ATOM     56  C   UNL A   1      47.094  29.412  31.883  1.00  0.00     0.029 A 
ATOM     57  C   UNL A   1      46.395  28.488  31.126  1.00  0.00     0.049 A 
ATOM     58  H   UNL A   1      44.364  28.502  30.548  1.00  0.00     0.167 HD
ATOM     59  C   UNL A   1      46.096  26.382  29.861  1.00  0.00     0.074 A 
ATOM     60  C   UNL A   1      46.586  25.158  29.265  1.00  0.00     0.031 C 
ATOM     61  C   UNL A   1      46.874  27.270  30.527  1.00  0.00     0.037 A 
BRANCH  48  62
ATOM     62  C   UNL A   1      43.876  32.304  32.412  1.00  0.00     0.064 A 
ATOM     63  C   UNL A   1      43.639  32.467  33.783  1.00  0.00     0.173 A 
ATOM     64  C   UNL A   1      44.304  33.422  31.677  1.00  0.00     0.173 A 
ATOM     65  F   UNL A   1      43.222  31.430  34.524  1.00  0.00    -0.203 F 
ATOM     66  C   UNL A   1      43.821  33.705  34.395  1.00  0.00     0.198 A 
ATOM     67  C   UNL A   1      44.508  34.651  32.298  1.00  0.00     0.198 A 
ATOM     68  F   UNL A   1      44.552  33.314  30.364  1.00  0.00    -0.203 F 
ATOM     69  F   UNL A   1      43.571  33.845  35.704  1.00  0.00    -0.200 F 
ATOM     70  C   UNL A   1      44.265  34.792  33.655  1.00  0.00     0.200 A 
ATOM     71  F   UNL A   1      44.950  35.696  31.584  1.00  0.00    -0.200 F 
ATOM     72  F   UNL A   1      44.459  35.976  34.251  1.00  0.00    -0.200 F 
ENDBRANCH  48  62
BRANCH  49  73
ATOM     73  C   UNL A   1      43.041  23.659  27.552  1.00  0.00     0.064 A 
ATOM     74  C   UNL A   1      43.455  23.610  26.213  1.00  0.00     0.173 A 
ATOM     75  C   UNL A   1      42.492  22.493  28.107  1.00  0.00     0.173 A 
ATOM     76  F   UNL A   1      43.952  24.706  25.623  1.00  0.00    -0.203 F 
ATOM     77  C   UNL A   1      43.298  22.452  25.453  1.00  0.00     0.198 A 
ATOM     78  C   UNL A   1      42.368  21.326  27.357  1.00  0.00     0.198 A 
ATOM     79  F   UNL A   1      42.070  22.487  29.380  1.00  0.00    -0.203 F 
ATOM     80  F   UNL A   1      43.642  22.449  24.158  1.00  0.00    -0.200 F 
ATOM     81  C   UNL A   1      42.759  21.309  26.028  1.00  0.00     0.200 A 
ATOM     82  F   UNL A   1      41.854  20.223  27.918  1.00  0.00    -0.200 F 
ATOM     83  F   UNL A   1      42.604  20.198  25.295  1.00  0.00    -0.200 F 
ENDBRANCH  49  73
BRANCH  61  84
ATOM     84  C   UNL A   1      48.336  26.953  30.654  1.00  0.00     0.064 A 
ATOM     85  C   UNL A   1      48.813  26.099  31.659  1.00  0.00     0.173 A 
ATOM     86  C   UNL A   1      49.262  27.465  29.732  1.00  0.00     0.173 A 
ATOM     87  F   UNL A   1      47.971  25.596  32.575  1.00  0.00    -0.203 F 
ATOM     88  C   UNL A   1      50.167  25.781  31.746  1.00  0.00     0.198 A 
ATOM     89  C   UNL A   1      50.610  27.123  29.806  1.00  0.00     0.198 A 
ATOM     90  F   UNL A   1      48.858  28.281  28.749  1.00  0.00    -0.203 F 
ATOM     91  F   UNL A   1      50.605  24.993  32.738  1.00  0.00    -0.200 F 
ATOM     92  C   UNL A   1      51.062  26.286  30.815  1.00  0.00     0.200 A 
ATOM     93  F   UNL A   1      51.472  27.600  28.897  1.00  0.00    -0.200 F 
ATOM     94  F   UNL A   1      52.361  25.970  30.894  1.00  0.00    -0.200 F 
ENDBRANCH  61  84
ENDBRANCH  35  36
ENDBRANCH  28  30
ENDBRANCH  27  28
ENDBRANCH  26  27
ENDBRANCH  25  26
ENDBRANCH  24  25
ENDBRANCH  23  24
ENDBRANCH  22  23
ENDBRANCH  21  22
ENDBRANCH   1  21
TORSDOF 23
ENDMDL
MODEL 2
REMARK VINA RESULT:      -8.8      3.338      9.254
REMARK SMILES O=C(COCCNS(=O)(=O)c1ccccc1)OCCOCCOCCOC(=O)c1ccc(-c2c3nc(c(-c4c(F)c(F)c(F)c(F)c4F)c4ccc([nH]4)c(-c4c(F)c(F)c(F)c(F)c4F)c4nc(c(-c5c(F)c(F)c(F)c(F)c5F)c5ccc2[nH]5)C=C4)C=C3)cc1
REMARK SMILES IDX 19 1 18 2 17 3 2 4 1 5 3 6 4 7 5 8 6 9 7 10 8 12 9 13 10 14
REMARK SMILES IDX 11 15 12 16 16 17 13 18 15 19 14 20 20 21 21 22 22 23 23 24
REMARK SMILES IDX 24 25 25 26 26 27 27 28 28 29 29 30 30 31 91 32 31 33 90 34
REMARK SMILES IDX 32 35 33 36 34 37 84 38 35 39 89 40 83 41 85 42 36 43 88 44
REMARK SMILES IDX 82 45 81 46 37 48 69 49 49 50 68 51 50 52 53 53 67 54 86 55
REMARK SMILES IDX 51 56 52 57 66 59 87 60 54 61 38 62 39 63 47 64 40 65 41 66
REMARK SMILES IDX 45 67 48 68 42 69 43 70 46 71 44 72 70 73 71 74 79 75 72 76
REMARK SMILES IDX 73 77 77 78 80 79 74 80 75 81 78 82 76 83 55 84 56 85 64 86
REMARK SMILES IDX 57 87 58 88 62 89 65 90 59 91 60 92 63 93 61 94
REMARK H PARENT 7 11 85 47 53 58
REMARK Flexibility Score: inf
ROOT
ATOM      1  C   UNL A   1      35.852  20.721  24.725  1.00  0.00     0.202 C 
ENDROOT
BRANCH   1   2
ATOM      2  C   UNL A   1      34.741  21.239  25.646  1.00  0.00     0.261 C 
BRANCH   2   3
ATOM      3  O   UNL A   1      33.543  21.691  24.977  1.00  0.00    -0.462 OA
BRANCH   3   4
ATOM      4  C   UNL A   1      32.275  21.518  25.411  1.00  0.00     0.332 C 
ATOM      5  O   UNL A   1      31.662  20.490  25.118  1.00  0.00    -0.250 OA
BRANCH   4   6
ATOM      6  C   UNL A   1      31.604  22.648  26.196  1.00  0.00     0.282 C 
BRANCH   6   7
ATOM      7  O   UNL A   1      30.729  23.524  25.515  1.00  0.00    -0.368 OA
BRANCH   7   8
ATOM      8  C   UNL A   1      30.714  24.868  25.974  1.00  0.00     0.177 C 
BRANCH   8   9
ATOM      9  C   UNL A   1      30.676  25.911  24.858  1.00  0.00     0.127 C 
BRANCH   9  10
ATOM     10  N   UNL A   1      31.005  27.271  25.340  1.00  0.00    -0.209 NA
ATOM     11  H   UNL A   1      31.249  27.200  26.329  1.00  0.00     0.141 HD
BRANCH  10  12
ATOM     12  S   UNL A   1      32.281  28.057  24.550  1.00  0.00     0.240 S 
ATOM     13  O   UNL A   1      33.221  27.040  24.143  1.00  0.00    -0.207 OA
ATOM     14  O   UNL A   1      31.697  28.995  23.616  1.00  0.00    -0.207 OA
BRANCH  12  15
ATOM     15  C   UNL A   1      32.996  28.965  25.899  1.00  0.00     0.082 A 
ATOM     16  C   UNL A   1      32.443  30.196  26.268  1.00  0.00     0.022 A 
ATOM     17  C   UNL A   1      34.188  28.509  26.465  1.00  0.00     0.022 A 
ATOM     18  C   UNL A   1      33.134  31.012  27.159  1.00  0.00     0.001 A 
ATOM     19  C   UNL A   1      34.865  29.328  27.366  1.00  0.00     0.001 A 
ATOM     20  C   UNL A   1      34.350  30.584  27.696  1.00  0.00     0.000 A 
ENDBRANCH  12  15
ENDBRANCH  10  12
ENDBRANCH   9  10
ENDBRANCH   8   9
ENDBRANCH   7   8
ENDBRANCH   6   7
ENDBRANCH   4   6
ENDBRANCH   3   4
ENDBRANCH   2   3
ENDBRANCH   1   2
BRANCH   1  21
ATOM     21  O   UNL A   1      36.966  20.273  25.460  1.00  0.00    -0.376 OA
BRANCH  21  22
ATOM     22  C   UNL A   1      38.227  20.225  24.820  1.00  0.00     0.188 C 
BRANCH  22  23
ATOM     23  C   UNL A   1      39.173  19.248  25.538  1.00  0.00     0.188 C 
BRANCH  23  24
ATOM     24  O   UNL A   1      40.112  19.760  26.479  1.00  0.00    -0.376 OA
BRANCH  24  25
ATOM     25  C   UNL A   1      41.140  20.635  26.027  1.00  0.00     0.202 C 
BRANCH  25  26
ATOM     26  C   UNL A   1      41.292  21.999  26.715  1.00  0.00     0.261 C 
BRANCH  26  27
ATOM     27  O   UNL A   1      40.122  22.480  27.407  1.00  0.00    -0.460 OA
BRANCH  27  28
ATOM     28  C   UNL A   1      39.370  23.376  26.717  1.00  0.00     0.338 C 
ATOM     29  O   UNL A   1      38.615  23.150  25.787  1.00  0.00    -0.246 OA
BRANCH  28  30
ATOM     30  C   UNL A   1      39.519  24.730  27.283  1.00  0.00     0.060 A 
ATOM     31  C   UNL A   1      40.215  25.707  26.558  1.00  0.00     0.016 A 
ATOM     32  C   UNL A   1      39.109  24.984  28.591  1.00  0.00     0.016 A 
ATOM     33  C   UNL A   1      40.510  26.941  27.146  1.00  0.00     0.010 A 
ATOM     34  C   UNL A   1      39.423  26.213  29.185  1.00  0.00     0.010 A 
ATOM     35  C   UNL A   1      40.144  27.191  28.476  1.00  0.00    -0.014 A 
BRANCH  35  36
ATOM     36  C   UNL A   1      40.572  28.432  29.174  1.00  0.00     0.031 A 
ATOM     37  C   UNL A   1      41.955  28.524  29.754  1.00  0.00     0.074 A 
ATOM     38  C   UNL A   1      39.711  29.449  29.346  1.00  0.00     0.049 A 
ATOM     39  N   UNL A   1      42.469  29.442  30.532  1.00  0.00    -0.248 NA
ATOM     40  C   UNL A   1      42.881  27.431  29.419  1.00  0.00     0.031 C 
ATOM     41  C   UNL A   1      38.358  29.505  28.801  1.00  0.00     0.029 A 
ATOM     42  N   UNL A   1      39.842  30.624  30.047  1.00  0.00    -0.354 N 
ATOM     43  C   UNL A   1      43.765  29.027  30.804  1.00  0.00     0.074 A 
ATOM     44  C   UNL A   1      43.963  27.774  30.105  1.00  0.00     0.031 C 
ATOM     45  C   UNL A   1      37.774  30.645  29.205  1.00  0.00     0.029 A 
ATOM     46  C   UNL A   1      38.695  31.379  30.069  1.00  0.00     0.049 A 
ATOM     47  H   UNL A   1      40.677  30.899  30.490  1.00  0.00     0.167 HD
ATOM     48  C   UNL A   1      44.699  29.634  31.575  1.00  0.00     0.037 A 
ATOM     49  C   UNL A   1      38.406  32.514  30.737  1.00  0.00     0.037 A 
ATOM     50  C   UNL A   1      44.512  30.891  32.252  1.00  0.00     0.049 A 
ATOM     51  C   UNL A   1      39.449  33.138  31.630  1.00  0.00     0.074 A 
ATOM     52  C   UNL A   1      45.428  31.607  33.005  1.00  0.00     0.029 A 
ATOM     53  N   UNL A   1      43.330  31.614  32.269  1.00  0.00    -0.354 N 
ATOM     54  N   UNL A   1      40.683  32.759  31.853  1.00  0.00    -0.248 NA
ATOM     55  C   UNL A   1      39.051  34.340  32.378  1.00  0.00     0.031 C 
ATOM     56  C   UNL A   1      44.782  32.731  33.527  1.00  0.00     0.029 A 
ATOM     57  C   UNL A   1      43.480  32.744  33.057  1.00  0.00     0.049 A 
ATOM     58  H   UNL A   1      42.507  31.362  31.791  1.00  0.00     0.167 HD
ATOM     59  C   UNL A   1      41.209  33.677  32.752  1.00  0.00     0.074 A 
ATOM     60  C   UNL A   1      40.171  34.650  33.015  1.00  0.00     0.031 C 
ATOM     61  C   UNL A   1      42.441  33.705  33.317  1.00  0.00     0.037 A 
BRANCH  48  62
ATOM     62  C   UNL A   1      46.013  28.938  31.768  1.00  0.00     0.064 A 
ATOM     63  C   UNL A   1      46.212  28.005  32.794  1.00  0.00     0.173 A 
ATOM     64  C   UNL A   1      47.055  29.144  30.851  1.00  0.00     0.173 A 
ATOM     65  F   UNL A   1      45.248  27.779  33.698  1.00  0.00    -0.203 F 
ATOM     66  C   UNL A   1      47.412  27.306  32.899  1.00  0.00     0.198 A 
ATOM     67  C   UNL A   1      48.244  28.427  30.944  1.00  0.00     0.198 A 
ATOM     68  F   UNL A   1      46.908  30.021  29.846  1.00  0.00    -0.203 F 
ATOM     69  F   UNL A   1      47.592  26.432  33.898  1.00  0.00    -0.200 F 
ATOM     70  C   UNL A   1      48.422  27.510  31.969  1.00  0.00     0.200 A 
ATOM     71  F   UNL A   1      49.212  28.615  30.036  1.00  0.00    -0.200 F 
ATOM     72  F   UNL A   1      49.568  26.822  32.059  1.00  0.00    -0.200 F 
ENDBRANCH  48  62
BRANCH  49  73
ATOM     73  C   UNL A   1      37.049  33.113  30.640  1.00  0.00     0.064 A 
ATOM     74  C   UNL A   1      36.126  32.992  31.689  1.00  0.00     0.173 A 
ATOM     75  C   UNL A   1      36.629  33.774  29.476  1.00  0.00     0.173 A 
ATOM     76  F   UNL A   1      36.465  32.337  32.809  1.00  0.00    -0.203 F 
ATOM     77  C   UNL A   1      34.828  33.484  31.566  1.00  0.00     0.198 A 
ATOM     78  C   UNL A   1      35.342  34.297  29.368  1.00  0.00     0.198 A 
ATOM     79  F   UNL A   1      37.467  33.910  28.438  1.00  0.00    -0.203 F 
ATOM     80  F   UNL A   1      33.945  33.300  32.557  1.00  0.00    -0.200 F 
ATOM     81  C   UNL A   1      34.439  34.141  30.407  1.00  0.00     0.200 A 
ATOM     82  F   UNL A   1      34.973  34.936  28.250  1.00  0.00    -0.200 F 
ATOM     83  F   UNL A   1      33.189  34.609  30.287  1.00  0.00    -0.200 F 
ENDBRANCH  49  73
BRANCH  61  84
ATOM     84  C   UNL A   1      42.741  34.823  34.272  1.00  0.00     0.064 A 
ATOM     85  C   UNL A   1      43.169  36.079  33.816  1.00  0.00     0.173 A 
ATOM     86  C   UNL A   1      42.549  34.657  35.652  1.00  0.00     0.173 A 
ATOM     87  F   UNL A   1      43.383  36.284  32.507  1.00  0.00    -0.203 F 
ATOM     88  C   UNL A   1      43.409  37.122  34.708  1.00  0.00     0.198 A 
ATOM     89  C   UNL A   1      42.763  35.709  36.538  1.00  0.00     0.198 A 
ATOM     90  F   UNL A   1      42.135  33.478  36.141  1.00  0.00    -0.203 F 
ATOM     91  F   UNL A   1      43.855  38.300  34.252  1.00  0.00    -0.200 F 
ATOM     92  C   UNL A   1      43.198  36.938  36.066  1.00  0.00     0.200 A 
ATOM     93  F   UNL A   1      42.545  35.535  37.849  1.00  0.00    -0.200 F 
ATOM     94  F   UNL A   1      43.419  37.946  36.921  1.00  0.00    -0.200 F 
ENDBRANCH  61  84
ENDBRANCH  35  36
ENDBRANCH  28  30
ENDBRANCH  27  28
ENDBRANCH  26  27
ENDBRANCH  25  26
ENDBRANCH  24  25
ENDBRANCH  23  24
ENDBRANCH  22  23
ENDBRANCH  21  22
ENDBRANCH   1  21
TORSDOF 23
ENDMDL
MODEL 3
REMARK VINA RESULT:      -8.8      5.786     10.841
REMARK SMILES O=C(COCCNS(=O)(=O)c1ccccc1)OCCOCCOCCOC(=O)c1ccc(-c2c3nc(c(-c4c(F)c(F)c(F)c(F)c4F)c4ccc([nH]4)c(-c4c(F)c(F)c(F)c(F)c4F)c4nc(c(-c5c(F)c(F)c(F)c(F)c5F)c5ccc2[nH]5)C=C4)C=C3)cc1
REMARK SMILES IDX 19 1 18 2 17 3 2 4 1 5 3 6 4 7 5 8 6 9 7 10 8 12 9 13 10 14
REMARK SMILES IDX 11 15 12 16 16 17 13 18 15 19 14 20 20 21 21 22 22 23 23 24
REMARK SMILES IDX 24 25 25 26 26 27 27 28 28 29 29 30 30 31 91 32 31 33 90 34
REMARK SMILES IDX 32 35 33 36 34 37 84 38 35 39 89 40 83 41 85 42 36 43 88 44
REMARK SMILES IDX 82 45 81 46 37 48 69 49 49 50 68 51 50 52 53 53 67 54 86 55
REMARK SMILES IDX 51 56 52 57 66 59 87 60 54 61 38 62 39 63 47 64 40 65 41 66
REMARK SMILES IDX 45 67 48 68 42 69 43 70 46 71 44 72 70 73 71 74 79 75 72 76
REMARK SMILES IDX 73 77 77 78 80 79 74 80 75 81 78 82 76 83 55 84 56 85 64 86
REMARK SMILES IDX 57 87 58 88 62 89 65 90 59 91 60 92 63 93 61 94
REMARK H PARENT 7 11 85 47 53 58
REMARK Flexibility Score: inf
ROOT
ATOM      1  C   UNL A   1      46.649  24.012  25.504  1.00  0.00     0.202 C 
ENDROOT
BRANCH   1   2
ATOM      2  C   UNL A   1      46.645  23.065  24.299  1.00  0.00     0.261 C 
BRANCH   2   3
ATOM      3  O   UNL A   1      46.243  21.706  24.581  1.00  0.00    -0.462 OA
BRANCH   3   4
ATOM      4  C   UNL A   1      45.166  21.072  24.069  1.00  0.00     0.332 C 
ATOM      5  O   UNL A   1      44.083  21.658  24.005  1.00  0.00    -0.250 OA
BRANCH   4   6
ATOM      6  C   UNL A   1      45.304  19.605  23.652  1.00  0.00     0.282 C 
BRANCH   6   7
ATOM      7  O   UNL A   1      45.606  18.642  24.640  1.00  0.00    -0.368 OA
BRANCH   7   8
ATOM      8  C   UNL A   1      44.806  18.682  25.812  1.00  0.00     0.177 C 
BRANCH   8   9
ATOM      9  C   UNL A   1      43.371  18.196  25.608  1.00  0.00     0.127 C 
BRANCH   9  10
ATOM     10  N   UNL A   1      42.427  19.306  25.346  1.00  0.00    -0.209 NA
ATOM     11  H   UNL A   1      41.620  18.918  24.855  1.00  0.00     0.141 HD
BRANCH  10  12
ATOM     12  S   UNL A   1      41.853  20.138  26.705  1.00  0.00     0.240 S 
ATOM     13  O   UNL A   1      41.854  19.205  27.807  1.00  0.00    -0.207 OA
ATOM     14  O   UNL A   1      42.549  21.405  26.760  1.00  0.00    -0.207 OA
BRANCH  12  15
ATOM     15  C   UNL A   1      40.169  20.431  26.227  1.00  0.00     0.082 A 
ATOM     16  C   UNL A   1      39.441  19.406  25.613  1.00  0.00     0.022 A 
ATOM     17  C   UNL A   1      39.651  21.723  26.331  1.00  0.00     0.022 A 
ATOM     18  C   UNL A   1      38.212  19.700  25.029  1.00  0.00     0.001 A 
ATOM     19  C   UNL A   1      38.413  22.004  25.756  1.00  0.00     0.001 A 
ATOM     20  C   UNL A   1      37.706  21.000  25.090  1.00  0.00     0.000 A 
ENDBRANCH  12  15
ENDBRANCH  10  12
ENDBRANCH   9  10
ENDBRANCH   8   9
ENDBRANCH   7   8
ENDBRANCH   6   7
ENDBRANCH   4   6
ENDBRANCH   3   4
ENDBRANCH   2   3
ENDBRANCH   1   2
BRANCH   1  21
ATOM     21  O   UNL A   1      46.521  23.307  26.716  1.00  0.00    -0.376 OA
BRANCH  21  22
ATOM     22  C   UNL A   1      45.317  23.428  27.449  1.00  0.00     0.188 C 
BRANCH  22  23
ATOM     23  C   UNL A   1      45.112  24.872  27.938  1.00  0.00     0.188 C 
BRANCH  23  24
ATOM     24  O   UNL A   1      43.998  25.615  27.453  1.00  0.00    -0.376 OA
BRANCH  24  25
ATOM     25  C   UNL A   1      43.489  25.334  26.153  1.00  0.00     0.202 C 
BRANCH  25  26
ATOM     26  C   UNL A   1      42.075  24.749  26.034  1.00  0.00     0.261 C 
BRANCH  26  27
ATOM     27  O   UNL A   1      40.996  25.693  26.201  1.00  0.00    -0.460 OA
BRANCH  27  28
ATOM     28  C   UNL A   1      40.342  25.618  27.388  1.00  0.00     0.338 C 
ATOM     29  O   UNL A   1      39.757  24.655  27.853  1.00  0.00    -0.246 OA
BRANCH  28  30
ATOM     30  C   UNL A   1      40.473  26.882  28.138  1.00  0.00     0.060 A 
ATOM     31  C   UNL A   1      39.811  28.028  27.677  1.00  0.00     0.016 A 
ATOM     32  C   UNL A   1      41.372  26.968  29.201  1.00  0.00     0.016 A 
ATOM     33  C   UNL A   1      40.055  29.268  28.275  1.00  0.00     0.010 A 
ATOM     34  C   UNL A   1      41.629  28.214  29.785  1.00  0.00     0.010 A 
ATOM     35  C   UNL A   1      40.990  29.376  29.313  1.00  0.00    -0.014 A 
BRANCH  35  36
ATOM     36  C   UNL A   1      41.379  30.699  29.868  1.00  0.00     0.031 A 
ATOM     37  C   UNL A   1      42.612  31.390  29.358  1.00  0.00     0.074 A 
ATOM     38  C   UNL A   1      40.671  31.255  30.866  1.00  0.00     0.049 A 
ATOM     39  N   UNL A   1      43.212  32.461  29.814  1.00  0.00    -0.248 NA
ATOM     40  C   UNL A   1      43.263  30.789  28.183  1.00  0.00     0.031 C 
ATOM     41  C   UNL A   1      39.436  30.712  31.423  1.00  0.00     0.029 A 
ATOM     42  N   UNL A   1      40.903  32.392  31.603  1.00  0.00    -0.354 N 
ATOM     43  C   UNL A   1      44.323  32.647  29.003  1.00  0.00     0.074 A 
ATOM     44  C   UNL A   1      44.315  31.581  28.023  1.00  0.00     0.031 C 
ATOM     45  C   UNL A   1      39.029  31.503  32.429  1.00  0.00     0.029 A 
ATOM     46  C   UNL A   1      39.994  32.584  32.613  1.00  0.00     0.049 A 
ATOM     47  H   UNL A   1      41.648  33.009  31.423  1.00  0.00     0.167 HD
ATOM     48  C   UNL A   1      45.266  33.617  29.078  1.00  0.00     0.037 A 
ATOM     49  C   UNL A   1      39.960  33.504  33.598  1.00  0.00     0.037 A 
ATOM     50  C   UNL A   1      45.263  34.692  30.037  1.00  0.00     0.049 A 
ATOM     51  C   UNL A   1      41.053  34.538  33.688  1.00  0.00     0.074 A 
ATOM     52  C   UNL A   1      46.148  35.751  30.144  1.00  0.00     0.029 A 
ATOM     53  N   UNL A   1      44.338  34.839  31.058  1.00  0.00    -0.354 N 
ATOM     54  N   UNL A   1      42.080  34.730  32.896  1.00  0.00    -0.248 NA
ATOM     55  C   UNL A   1      40.992  35.475  34.820  1.00  0.00     0.031 C 
ATOM     56  C   UNL A   1      45.795  36.505  31.267  1.00  0.00     0.029 A 
ATOM     57  C   UNL A   1      44.659  35.946  31.828  1.00  0.00     0.049 A 
ATOM     58  H   UNL A   1      43.567  34.246  31.213  1.00  0.00     0.167 HD
ATOM     59  C   UNL A   1      42.775  35.809  33.425  1.00  0.00     0.074 A 
ATOM     60  C   UNL A   1      42.041  36.252  34.591  1.00  0.00     0.031 C 
ATOM     61  C   UNL A   1      43.925  36.377  32.988  1.00  0.00     0.037 A 
BRANCH  48  62
ATOM     62  C   UNL A   1      46.416  33.555  28.119  1.00  0.00     0.064 A 
ATOM     63  C   UNL A   1      46.402  34.245  26.900  1.00  0.00     0.173 A 
ATOM     64  C   UNL A   1      47.587  32.866  28.475  1.00  0.00     0.173 A 
ATOM     65  F   UNL A   1      45.304  34.911  26.513  1.00  0.00    -0.203 F 
ATOM     66  C   UNL A   1      47.518  34.243  26.067  1.00  0.00     0.198 A 
ATOM     67  C   UNL A   1      48.708  32.886  27.651  1.00  0.00     0.198 A 
ATOM     68  F   UNL A   1      47.651  32.198  29.636  1.00  0.00    -0.203 F 
ATOM     69  F   UNL A   1      47.479  34.893  24.896  1.00  0.00    -0.200 F 
ATOM     70  C   UNL A   1      48.672  33.573  26.447  1.00  0.00     0.200 A 
ATOM     71  F   UNL A   1      49.827  32.251  28.028  1.00  0.00    -0.200 F 
ATOM     72  F   UNL A   1      49.752  33.590  25.654  1.00  0.00    -0.200 F 
ENDBRANCH  48  62
BRANCH  49  73
ATOM     73  C   UNL A   1      38.884  33.462  34.624  1.00  0.00     0.064 A 
ATOM     74  C   UNL A   1      37.611  33.987  34.360  1.00  0.00     0.173 A 
ATOM     75  C   UNL A   1      39.123  32.945  35.906  1.00  0.00     0.173 A 
ATOM     76  F   UNL A   1      37.341  34.526  33.163  1.00  0.00    -0.203 F 
ATOM     77  C   UNL A   1      36.627  34.020  35.348  1.00  0.00     0.198 A 
ATOM     78  C   UNL A   1      38.128  32.947  36.881  1.00  0.00     0.198 A 
ATOM     79  F   UNL A   1      40.326  32.440  36.216  1.00  0.00    -0.203 F 
ATOM     80  F   UNL A   1      35.440  34.584  35.091  1.00  0.00    -0.200 F 
ATOM     81  C   UNL A   1      36.886  33.495  36.606  1.00  0.00     0.200 A 
ATOM     82  F   UNL A   1      38.380  32.432  38.092  1.00  0.00    -0.200 F 
ATOM     83  F   UNL A   1      35.942  33.532  37.556  1.00  0.00    -0.200 F 
ENDBRANCH  49  73
BRANCH  61  84
ATOM     84  C   UNL A   1      44.464  37.542  33.767  1.00  0.00     0.064 A 
ATOM     85  C   UNL A   1      44.086  38.859  33.465  1.00  0.00     0.173 A 
ATOM     86  C   UNL A   1      45.323  37.339  34.858  1.00  0.00     0.173 A 
ATOM     87  F   UNL A   1      43.280  39.108  32.422  1.00  0.00    -0.203 F 
ATOM     88  C   UNL A   1      44.562  39.931  34.217  1.00  0.00     0.198 A 
ATOM     89  C   UNL A   1      45.775  38.410  35.624  1.00  0.00     0.198 A 
ATOM     90  F   UNL A   1      45.710  36.099  35.192  1.00  0.00    -0.203 F 
ATOM     91  F   UNL A   1      44.219  41.183  33.886  1.00  0.00    -0.200 F 
ATOM     92  C   UNL A   1      45.398  39.704  35.301  1.00  0.00     0.200 A 
ATOM     93  F   UNL A   1      46.572  38.189  36.679  1.00  0.00    -0.200 F 
ATOM     94  F   UNL A   1      45.846  40.736  36.029  1.00  0.00    -0.200 F 
ENDBRANCH  61  84
ENDBRANCH  35  36
ENDBRANCH  28  30
ENDBRANCH  27  28
ENDBRANCH  26  27
ENDBRANCH  25  26
ENDBRANCH  24  25
ENDBRANCH  23  24
ENDBRANCH  22  23
ENDBRANCH  21  22
ENDBRANCH   1  21
TORSDOF 23
ENDMDL
