MODEL 1
REMARK VINA RESULT:     -11.3      0.000      0.000
REMARK SMILES C[C@@H]1[NH2+]CC[C@H]1C(=O)Nc1ccc(C(=O)OCCOCCOCCOC(=O)c2ccc(-c3c4nc(c(-c5c(F)c(F)c(F)c(F)c5F)c5ccc([nH]5)c(-c5c(F)c(F)c(F)c(F)c5F)c5nc(c(-c6c(F)c(F)c(F)c(F)c6F)c6ccc3[nH]6)C=C5)C=C4)cc2)c(Cl)c1
REMARK SMILES IDX 20 1 19 2 18 3 17 4 16 5 14 6 15 7 13 8 10 9 11 10 93 11
REMARK SMILES IDX 12 12 91 13 92 14 9 15 7 16 8 17 6 19 1 20 2 21 3 22 4 23
REMARK SMILES IDX 5 26 21 27 22 28 23 29 24 30 25 31 26 32 27 33 28 34 29 35
REMARK SMILES IDX 90 36 30 37 89 38 31 39 32 40 33 41 83 42 34 43 88 44 82 45
REMARK SMILES IDX 84 46 35 47 87 48 81 49 80 50 36 52 68 53 48 54 67 55 49 56
REMARK SMILES IDX 52 57 66 58 85 59 50 60 51 61 65 63 86 64 53 65 37 66 38 67
REMARK SMILES IDX 46 68 39 69 40 70 44 71 47 72 41 73 42 74 45 75 43 76 69 77
REMARK SMILES IDX 70 78 78 79 71 80 72 81 76 82 79 83 73 84 74 85 77 86 75 87
REMARK SMILES IDX 54 88 55 89 63 90 56 91 57 92 61 93 64 94 58 95 59 96 62 97
REMARK SMILES IDX 60 98
REMARK H PARENT 9 18 3 24 3 25 84 51 52 62
REMARK Flexibility Score: inf
ROOT
ATOM      1  C   UNL A   1      40.588  21.406  27.087  1.00  0.00     0.188 C 
ENDROOT
BRANCH   1   2
ATOM      2  O   UNL A   1      39.601  22.296  26.600  1.00  0.00    -0.376 OA
BRANCH   2   3
ATOM      3  C   UNL A   1      38.580  21.799  25.740  1.00  0.00     0.202 C 
BRANCH   3   4
ATOM      4  C   UNL A   1      37.177  22.403  25.803  1.00  0.00     0.261 C 
BRANCH   4   5
ATOM      5  O   UNL A   1      36.428  22.151  24.603  1.00  0.00    -0.460 OA
BRANCH   5   6
ATOM      6  C   UNL A   1      35.415  21.268  24.742  1.00  0.00     0.339 C 
ATOM      7  O   UNL A   1      35.510  20.083  25.040  1.00  0.00    -0.246 OA
BRANCH   6   8
ATOM      8  C   UNL A   1      34.119  21.966  24.725  1.00  0.00     0.078 A 
ATOM      9  C   UNL A   1      31.699  23.383  24.471  1.00  0.00     0.042 A 
ATOM     10  C   UNL A   1      32.390  22.965  23.338  1.00  0.00     0.027 A 
ATOM     11  C   UNL A   1      32.252  23.127  25.732  1.00  0.00     0.047 A 
ATOM     12  C   UNL A   1      33.585  22.251  23.460  1.00  0.00     0.019 A 
ATOM     13  C   UNL A   1      33.450  22.405  25.866  1.00  0.00     0.057 A 
ATOM     14  Cl  UNL A   1      34.063  22.154  27.459  1.00  0.00    -0.083 Cl
BRANCH   9  15
ATOM     15  N   UNL A   1      30.574  24.217  24.398  1.00  0.00    -0.326 N 
ATOM     16  C   UNL A   1      30.396  25.566  24.527  1.00  0.00     0.233 C 
ATOM     17  O   UNL A   1      29.282  25.951  24.898  1.00  0.00    -0.274 OA
ATOM     18  H   UNL A   1      29.738  23.729  24.215  1.00  0.00     0.169 HD
BRANCH  16  19
ATOM     19  C   UNL A   1      31.416  26.600  24.048  1.00  0.00     0.142 C 
ATOM     20  C   UNL A   1      33.342  26.446  22.393  1.00  0.00     0.076 C 
ATOM     21  C   UNL A   1      31.826  26.567  22.580  1.00  0.00     0.192 C 
ATOM     22  N   UNL A   1      31.371  27.849  22.005  1.00  0.00    -0.343 N 
ATOM     23  C   UNL A   1      31.387  28.812  23.109  1.00  0.00     0.261 C 
ATOM     24  H   UNL A   1      30.427  27.755  21.630  1.00  0.00     0.346 HD
ATOM     25  H   UNL A   1      31.971  28.150  21.237  1.00  0.00     0.346 HD
ATOM     26  C   UNL A   1      31.002  28.036  24.347  1.00  0.00     0.081 C 
ENDBRANCH  16  19
ENDBRANCH   9  15
ENDBRANCH   6   8
ENDBRANCH   5   6
ENDBRANCH   4   5
ENDBRANCH   3   4
ENDBRANCH   2   3
ENDBRANCH   1   2
BRANCH   1  27
ATOM     27  C   UNL A   1      41.569  20.720  26.112  1.00  0.00     0.188 C 
BRANCH  27  28
ATOM     28  O   UNL A   1      42.933  20.566  26.441  1.00  0.00    -0.376 OA
BRANCH  28  29
ATOM     29  C   UNL A   1      43.912  21.432  25.883  1.00  0.00     0.202 C 
BRANCH  29  30
ATOM     30  C   UNL A   1      43.728  22.155  24.545  1.00  0.00     0.261 C 
BRANCH  30  31
ATOM     31  O   UNL A   1      43.033  23.405  24.609  1.00  0.00    -0.460 OA
BRANCH  31  32
ATOM     32  C   UNL A   1      43.791  24.445  25.019  1.00  0.00     0.338 C 
ATOM     33  O   UNL A   1      44.909  24.761  24.627  1.00  0.00    -0.246 OA
BRANCH  32  34
ATOM     34  C   UNL A   1      43.028  25.295  25.936  1.00  0.00     0.060 A 
ATOM     35  C   UNL A   1      43.335  26.657  25.969  1.00  0.00     0.016 A 
ATOM     36  C   UNL A   1      42.125  24.748  26.844  1.00  0.00     0.016 A 
ATOM     37  C   UNL A   1      42.762  27.483  26.927  1.00  0.00     0.010 A 
ATOM     38  C   UNL A   1      41.554  25.577  27.817  1.00  0.00     0.010 A 
ATOM     39  C   UNL A   1      41.893  26.941  27.879  1.00  0.00    -0.014 A 
BRANCH  39  40
ATOM     40  C   UNL A   1      41.472  27.776  29.025  1.00  0.00     0.031 A 
ATOM     41  C   UNL A   1      42.259  27.701  30.303  1.00  0.00     0.074 A 
ATOM     42  C   UNL A   1      40.441  28.631  28.913  1.00  0.00     0.049 A 
ATOM     43  N   UNL A   1      42.023  28.267  31.459  1.00  0.00    -0.248 NA
ATOM     44  C   UNL A   1      43.480  26.881  30.270  1.00  0.00     0.031 C 
ATOM     45  C   UNL A   1      39.663  28.861  27.697  1.00  0.00     0.029 A 
ATOM     46  N   UNL A   1      39.871  29.465  29.842  1.00  0.00    -0.354 N 
ATOM     47  C   UNL A   1      43.055  27.860  32.293  1.00  0.00     0.074 A 
ATOM     48  C   UNL A   1      43.912  26.989  31.518  1.00  0.00     0.031 C 
ATOM     49  C   UNL A   1      38.704  29.765  27.959  1.00  0.00     0.029 A 
ATOM     50  C   UNL A   1      38.776  30.142  29.370  1.00  0.00     0.049 A 
ATOM     51  H   UNL A   1      40.216  29.567  30.759  1.00  0.00     0.167 HD
ATOM     52  C   UNL A   1      43.266  28.187  33.590  1.00  0.00     0.037 A 
ATOM     53  C   UNL A   1      37.909  30.946  30.016  1.00  0.00     0.037 A 
ATOM     54  C   UNL A   1      42.416  29.060  34.353  1.00  0.00     0.049 A 
ATOM     55  C   UNL A   1      38.113  31.217  31.485  1.00  0.00     0.074 A 
ATOM     56  C   UNL A   1      42.535  29.441  35.679  1.00  0.00     0.029 A 
ATOM     57  N   UNL A   1      41.284  29.689  33.855  1.00  0.00    -0.354 N 
ATOM     58  N   UNL A   1      39.073  30.807  32.279  1.00  0.00    -0.248 NA
ATOM     59  C   UNL A   1      37.107  32.058  32.149  1.00  0.00     0.031 C 
ATOM     60  C   UNL A   1      41.453  30.268  35.994  1.00  0.00     0.029 A 
ATOM     61  C   UNL A   1      40.685  30.441  34.853  1.00  0.00     0.049 A 
ATOM     62  H   UNL A   1      40.957  29.614  32.930  1.00  0.00     0.167 HD
ATOM     63  C   UNL A   1      38.802  31.359  33.524  1.00  0.00     0.074 A 
ATOM     64  C   UNL A   1      37.595  32.144  33.378  1.00  0.00     0.031 C 
ATOM     65  C   UNL A   1      39.490  31.227  34.684  1.00  0.00     0.037 A 
BRANCH  52  66
ATOM     66  C   UNL A   1      44.445  27.565  34.275  1.00  0.00     0.064 A 
ATOM     67  C   UNL A   1      44.332  26.376  35.008  1.00  0.00     0.173 A 
ATOM     68  C   UNL A   1      45.714  28.156  34.170  1.00  0.00     0.173 A 
ATOM     69  F   UNL A   1      43.137  25.783  35.154  1.00  0.00    -0.203 F 
ATOM     70  C   UNL A   1      45.444  25.809  35.627  1.00  0.00     0.198 A 
ATOM     71  C   UNL A   1      46.827  27.573  34.768  1.00  0.00     0.198 A 
ATOM     72  F   UNL A   1      45.875  29.295  33.479  1.00  0.00    -0.203 F 
ATOM     73  F   UNL A   1      45.307  24.693  36.355  1.00  0.00    -0.200 F 
ATOM     74  C   UNL A   1      46.691  26.404  35.500  1.00  0.00     0.200 A 
ATOM     75  F   UNL A   1      48.033  28.144  34.637  1.00  0.00    -0.200 F 
ATOM     76  F   UNL A   1      47.761  25.852  36.090  1.00  0.00    -0.200 F 
ENDBRANCH  52  66
BRANCH  53  77
ATOM     77  C   UNL A   1      36.746  31.524  29.295  1.00  0.00     0.064 A 
ATOM     78  C   UNL A   1      36.682  32.893  29.004  1.00  0.00     0.173 A 
ATOM     79  C   UNL A   1      35.659  30.724  28.914  1.00  0.00     0.173 A 
ATOM     80  F   UNL A   1      37.683  33.705  29.373  1.00  0.00    -0.203 F 
ATOM     81  C   UNL A   1      35.564  33.444  28.378  1.00  0.00     0.198 A 
ATOM     82  C   UNL A   1      34.555  31.270  28.262  1.00  0.00     0.198 A 
ATOM     83  F   UNL A   1      35.668  29.409  29.175  1.00  0.00    -0.203 F 
ATOM     84  F   UNL A   1      35.506  34.764  28.158  1.00  0.00    -0.200 F 
ATOM     85  C   UNL A   1      34.505  32.631  28.002  1.00  0.00     0.200 A 
ATOM     86  F   UNL A   1      33.538  30.479  27.894  1.00  0.00    -0.200 F 
ATOM     87  F   UNL A   1      33.430  33.161  27.404  1.00  0.00    -0.200 F 
ENDBRANCH  53  77
BRANCH  65  88
ATOM     88  C   UNL A   1      38.980  31.979  35.878  1.00  0.00     0.064 A 
ATOM     89  C   UNL A   1      38.164  31.367  36.840  1.00  0.00     0.173 A 
ATOM     90  C   UNL A   1      39.351  33.317  36.085  1.00  0.00     0.173 A 
ATOM     91  F   UNL A   1      37.770  30.095  36.679  1.00  0.00    -0.203 F 
ATOM     92  C   UNL A   1      37.720  32.074  37.954  1.00  0.00     0.198 A 
ATOM     93  C   UNL A   1      38.929  34.011  37.215  1.00  0.00     0.198 A 
ATOM     94  F   UNL A   1      40.137  33.946  35.198  1.00  0.00    -0.203 F 
ATOM     95  F   UNL A   1      36.905  31.483  38.840  1.00  0.00    -0.200 F 
ATOM     96  C   UNL A   1      38.108  33.393  38.144  1.00  0.00     0.200 A 
ATOM     97  F   UNL A   1      39.315  35.281  37.403  1.00  0.00    -0.200 F 
ATOM     98  F   UNL A   1      37.685  34.068  39.222  1.00  0.00    -0.200 F 
ENDBRANCH  65  88
ENDBRANCH  39  40
ENDBRANCH  32  34
ENDBRANCH  31  32
ENDBRANCH  30  31
ENDBRANCH  29  30
ENDBRANCH  28  29
ENDBRANCH  27  28
ENDBRANCH   1  27
TORSDOF 19
ENDMDL
MODEL 2
REMARK VINA RESULT:     -11.1      2.913      8.286
REMARK SMILES C[C@@H]1[NH2+]CC[C@H]1C(=O)Nc1ccc(C(=O)OCCOCCOCCOC(=O)c2ccc(-c3c4nc(c(-c5c(F)c(F)c(F)c(F)c5F)c5ccc([nH]5)c(-c5c(F)c(F)c(F)c(F)c5F)c5nc(c(-c6c(F)c(F)c(F)c(F)c6F)c6ccc3[nH]6)C=C5)C=C4)cc2)c(Cl)c1
REMARK SMILES IDX 20 1 19 2 18 3 17 4 16 5 14 6 15 7 13 8 10 9 11 10 93 11
REMARK SMILES IDX 12 12 91 13 92 14 9 15 7 16 8 17 6 19 1 20 2 21 3 22 4 23
REMARK SMILES IDX 5 26 21 27 22 28 23 29 24 30 25 31 26 32 27 33 28 34 29 35
REMARK SMILES IDX 90 36 30 37 89 38 31 39 32 40 33 41 83 42 34 43 88 44 82 45
REMARK SMILES IDX 84 46 35 47 87 48 81 49 80 50 36 52 68 53 48 54 67 55 49 56
REMARK SMILES IDX 52 57 66 58 85 59 50 60 51 61 65 63 86 64 53 65 37 66 38 67
REMARK SMILES IDX 46 68 39 69 40 70 44 71 47 72 41 73 42 74 45 75 43 76 69 77
REMARK SMILES IDX 70 78 78 79 71 80 72 81 76 82 79 83 73 84 74 85 77 86 75 87
REMARK SMILES IDX 54 88 55 89 63 90 56 91 57 92 61 93 64 94 58 95 59 96 62 97
REMARK SMILES IDX 60 98
REMARK H PARENT 9 18 3 24 3 25 84 51 52 62
REMARK Flexibility Score: inf
ROOT
ATOM      1  C   UNL A   1      31.818  25.183  25.859  1.00  0.00     0.188 C 
ENDROOT
BRANCH   1   2
ATOM      2  O   UNL A   1      31.199  23.968  26.239  1.00  0.00    -0.376 OA
BRANCH   2   3
ATOM      3  C   UNL A   1      31.811  23.159  27.239  1.00  0.00     0.202 C 
BRANCH   3   4
ATOM      4  C   UNL A   1      33.312  22.879  27.172  1.00  0.00     0.261 C 
BRANCH   4   5
ATOM      5  O   UNL A   1      33.594  21.566  26.664  1.00  0.00    -0.460 OA
BRANCH   5   6
ATOM      6  C   UNL A   1      34.561  21.517  25.723  1.00  0.00     0.339 C 
ATOM      7  O   UNL A   1      35.564  20.812  25.736  1.00  0.00    -0.246 OA
BRANCH   6   8
ATOM      8  C   UNL A   1      34.147  22.260  24.520  1.00  0.00     0.078 A 
ATOM      9  C   UNL A   1      33.436  23.882  22.332  1.00  0.00     0.042 A 
ATOM     10  C   UNL A   1      34.444  24.281  23.203  1.00  0.00     0.027 A 
ATOM     11  C   UNL A   1      32.754  22.686  22.590  1.00  0.00     0.047 A 
ATOM     12  C   UNL A   1      34.808  23.474  24.284  1.00  0.00     0.019 A 
ATOM     13  C   UNL A   1      33.116  21.864  23.670  1.00  0.00     0.057 A 
ATOM     14  Cl  UNL A   1      32.208  20.419  23.921  1.00  0.00    -0.083 Cl
BRANCH   9  15
ATOM     15  N   UNL A   1      32.945  24.719  21.320  1.00  0.00    -0.326 N 
ATOM     16  C   UNL A   1      32.084  25.781  21.316  1.00  0.00     0.233 C 
ATOM     17  O   UNL A   1      31.469  26.000  20.266  1.00  0.00    -0.274 OA
ATOM     18  H   UNL A   1      33.292  24.496  20.426  1.00  0.00     0.169 HD
BRANCH  16  19
ATOM     19  C   UNL A   1      32.003  26.805  22.449  1.00  0.00     0.142 C 
ATOM     20  C   UNL A   1      33.801  27.906  23.874  1.00  0.00     0.076 C 
ATOM     21  C   UNL A   1      33.087  27.875  22.518  1.00  0.00     0.192 C 
ATOM     22  N   UNL A   1      32.397  29.163  22.308  1.00  0.00    -0.343 N 
ATOM     23  C   UNL A   1      31.034  28.974  22.809  1.00  0.00     0.261 C 
ATOM     24  H   UNL A   1      32.381  29.400  21.316  1.00  0.00     0.346 HD
ATOM     25  H   UNL A   1      32.871  29.926  22.792  1.00  0.00     0.346 HD
ATOM     26  C   UNL A   1      30.669  27.541  22.502  1.00  0.00     0.081 C 
ENDBRANCH  16  19
ENDBRANCH   9  15
ENDBRANCH   6   8
ENDBRANCH   5   6
ENDBRANCH   4   5
ENDBRANCH   3   4
ENDBRANCH   2   3
ENDBRANCH   1   2
BRANCH   1  27
ATOM     27  C   UNL A   1      31.072  26.524  26.027  1.00  0.00     0.188 C 
BRANCH  27  28
ATOM     28  O   UNL A   1      31.047  27.192  27.271  1.00  0.00    -0.376 OA
BRANCH  28  29
ATOM     29  C   UNL A   1      31.967  28.239  27.546  1.00  0.00     0.202 C 
BRANCH  29  30
ATOM     30  C   UNL A   1      31.839  29.646  26.954  1.00  0.00     0.261 C 
BRANCH  30  31
ATOM     31  O   UNL A   1      33.054  30.218  26.456  1.00  0.00    -0.460 OA
BRANCH  31  32
ATOM     32  C   UNL A   1      33.566  31.202  27.227  1.00  0.00     0.338 C 
ATOM     33  O   UNL A   1      32.991  32.196  27.658  1.00  0.00    -0.246 OA
BRANCH  32  34
ATOM     34  C   UNL A   1      34.928  30.859  27.644  1.00  0.00     0.060 A 
ATOM     35  C   UNL A   1      35.241  29.507  27.792  1.00  0.00     0.016 A 
ATOM     36  C   UNL A   1      35.838  31.845  28.016  1.00  0.00     0.016 A 
ATOM     37  C   UNL A   1      36.460  29.124  28.337  1.00  0.00     0.010 A 
ATOM     38  C   UNL A   1      37.063  31.461  28.575  1.00  0.00     0.010 A 
ATOM     39  C   UNL A   1      37.365  30.101  28.764  1.00  0.00    -0.014 A 
BRANCH  39  40
ATOM     40  C   UNL A   1      38.551  29.688  29.547  1.00  0.00     0.031 A 
ATOM     41  C   UNL A   1      38.748  30.265  30.920  1.00  0.00     0.074 A 
ATOM     42  C   UNL A   1      39.409  28.771  29.067  1.00  0.00     0.049 A 
ATOM     43  N   UNL A   1      39.752  30.121  31.746  1.00  0.00    -0.248 NA
ATOM     44  C   UNL A   1      37.660  31.113  31.433  1.00  0.00     0.031 C 
ATOM     45  C   UNL A   1      39.271  28.073  27.791  1.00  0.00     0.029 A 
ATOM     46  N   UNL A   1      40.570  28.273  29.602  1.00  0.00    -0.354 N 
ATOM     47  C   UNL A   1      39.426  30.872  32.867  1.00  0.00     0.074 A 
ATOM     48  C   UNL A   1      38.138  31.481  32.613  1.00  0.00     0.031 C 
ATOM     49  C   UNL A   1      40.319  27.246  27.633  1.00  0.00     0.029 A 
ATOM     50  C   UNL A   1      41.218  27.391  28.775  1.00  0.00     0.049 A 
ATOM     51  H   UNL A   1      40.904  28.524  30.494  1.00  0.00     0.167 HD
ATOM     52  C   UNL A   1      40.140  31.035  34.006  1.00  0.00     0.037 A 
ATOM     53  C   UNL A   1      42.421  26.799  28.914  1.00  0.00     0.037 A 
ATOM     54  C   UNL A   1      41.416  30.421  34.257  1.00  0.00     0.049 A 
ATOM     55  C   UNL A   1      43.239  27.074  30.149  1.00  0.00     0.074 A 
ATOM     56  C   UNL A   1      42.226  30.537  35.372  1.00  0.00     0.029 A 
ATOM     57  N   UNL A   1      42.067  29.572  33.374  1.00  0.00    -0.354 N 
ATOM     58  N   UNL A   1      42.942  27.808  31.195  1.00  0.00    -0.248 NA
ATOM     59  C   UNL A   1      44.565  26.444  30.220  1.00  0.00     0.031 C 
ATOM     60  C   UNL A   1      43.387  29.791  35.147  1.00  0.00     0.029 A 
ATOM     61  C   UNL A   1      43.279  29.172  33.912  1.00  0.00     0.049 A 
ATOM     62  H   UNL A   1      41.719  29.295  32.496  1.00  0.00     0.167 HD
ATOM     63  C   UNL A   1      44.027  27.706  32.056  1.00  0.00     0.074 A 
ATOM     64  C   UNL A   1      44.985  26.829  31.416  1.00  0.00     0.031 C 
ATOM     65  C   UNL A   1      44.214  28.287  33.265  1.00  0.00     0.037 A 
BRANCH  52  66
ATOM     66  C   UNL A   1      39.571  31.945  35.052  1.00  0.00     0.064 A 
ATOM     67  C   UNL A   1      39.763  33.333  35.008  1.00  0.00     0.173 A 
ATOM     68  C   UNL A   1      38.797  31.420  36.099  1.00  0.00     0.173 A 
ATOM     69  F   UNL A   1      40.511  33.881  34.038  1.00  0.00    -0.203 F 
ATOM     70  C   UNL A   1      39.215  34.162  35.985  1.00  0.00     0.198 A 
ATOM     71  C   UNL A   1      38.230  32.254  37.058  1.00  0.00     0.198 A 
ATOM     72  F   UNL A   1      38.584  30.098  36.185  1.00  0.00    -0.203 F 
ATOM     73  F   UNL A   1      39.443  35.482  35.946  1.00  0.00    -0.200 F 
ATOM     74  C   UNL A   1      38.443  33.623  37.004  1.00  0.00     0.200 A 
ATOM     75  F   UNL A   1      37.477  31.732  38.037  1.00  0.00    -0.200 F 
ATOM     76  F   UNL A   1      37.911  34.423  37.938  1.00  0.00    -0.200 F 
ENDBRANCH  52  66
BRANCH  53  77
ATOM     77  C   UNL A   1      42.947  25.919  27.839  1.00  0.00     0.064 A 
ATOM     78  C   UNL A   1      43.802  26.418  26.847  1.00  0.00     0.173 A 
ATOM     79  C   UNL A   1      42.576  24.568  27.762  1.00  0.00     0.173 A 
ATOM     80  F   UNL A   1      44.163  27.709  26.861  1.00  0.00    -0.203 F 
ATOM     81  C   UNL A   1      44.249  25.604  25.807  1.00  0.00     0.198 A 
ATOM     82  C   UNL A   1      43.047  23.748  26.738  1.00  0.00     0.198 A 
ATOM     83  F   UNL A   1      41.755  24.043  28.682  1.00  0.00    -0.203 F 
ATOM     84  F   UNL A   1      45.024  26.120  24.843  1.00  0.00    -0.200 F 
ATOM     85  C   UNL A   1      43.876  24.269  25.757  1.00  0.00     0.200 A 
ATOM     86  F   UNL A   1      42.690  22.457  26.699  1.00  0.00    -0.200 F 
ATOM     87  F   UNL A   1      44.304  23.489  24.755  1.00  0.00    -0.200 F 
ENDBRANCH  53  77
BRANCH  65  88
ATOM     88  C   UNL A   1      45.483  27.962  33.997  1.00  0.00     0.064 A 
ATOM     89  C   UNL A   1      46.633  28.750  33.862  1.00  0.00     0.173 A 
ATOM     90  C   UNL A   1      45.532  26.873  34.882  1.00  0.00     0.173 A 
ATOM     91  F   UNL A   1      46.641  29.793  33.017  1.00  0.00    -0.203 F 
ATOM     92  C   UNL A   1      47.794  28.448  34.567  1.00  0.00     0.198 A 
ATOM     93  C   UNL A   1      46.685  26.591  35.608  1.00  0.00     0.198 A 
ATOM     94  F   UNL A   1      44.454  26.092  35.054  1.00  0.00    -0.203 F 
ATOM     95  F   UNL A   1      48.897  29.190  34.390  1.00  0.00    -0.200 F 
ATOM     96  C   UNL A   1      47.817  27.373  35.445  1.00  0.00     0.200 A 
ATOM     97  F   UNL A   1      46.701  25.560  36.465  1.00  0.00    -0.200 F 
ATOM     98  F   UNL A   1      48.934  27.089  36.130  1.00  0.00    -0.200 F 
ENDBRANCH  65  88
ENDBRANCH  39  40
ENDBRANCH  32  34
ENDBRANCH  31  32
ENDBRANCH  30  31
ENDBRANCH  29  30
ENDBRANCH  28  29
ENDBRANCH  27  28
ENDBRANCH   1  27
TORSDOF 19
ENDMDL
MODEL 3
REMARK VINA RESULT:     -10.9      5.265     10.628
REMARK SMILES C[C@@H]1[NH2+]CC[C@H]1C(=O)Nc1ccc(C(=O)OCCOCCOCCOC(=O)c2ccc(-c3c4nc(c(-c5c(F)c(F)c(F)c(F)c5F)c5ccc([nH]5)c(-c5c(F)c(F)c(F)c(F)c5F)c5nc(c(-c6c(F)c(F)c(F)c(F)c6F)c6ccc3[nH]6)C=C5)C=C4)cc2)c(Cl)c1
REMARK SMILES IDX 20 1 19 2 18 3 17 4 16 5 14 6 15 7 13 8 10 9 11 10 93 11
REMARK SMILES IDX 12 12 91 13 92 14 9 15 7 16 8 17 6 19 1 20 2 21 3 22 4 23
REMARK SMILES IDX 5 26 21 27 22 28 23 29 24 30 25 31 26 32 27 33 28 34 29 35
REMARK SMILES IDX 90 36 30 37 89 38 31 39 32 40 33 41 83 42 34 43 88 44 82 45
REMARK SMILES IDX 84 46 35 47 87 48 81 49 80 50 36 52 68 53 48 54 67 55 49 56
REMARK SMILES IDX 52 57 66 58 85 59 50 60 51 61 65 63 86 64 53 65 37 66 38 67
REMARK SMILES IDX 46 68 39 69 40 70 44 71 47 72 41 73 42 74 45 75 43 76 69 77
REMARK SMILES IDX 70 78 78 79 71 80 72 81 76 82 79 83 73 84 74 85 77 86 75 87
REMARK SMILES IDX 54 88 55 89 63 90 56 91 57 92 61 93 64 94 58 95 59 96 62 97
REMARK SMILES IDX 60 98
REMARK H PARENT 9 18 3 24 3 25 84 51 52 62
REMARK Flexibility Score: inf
ROOT
ATOM      1  C   UNL A   1      34.886  32.088  27.907  1.00  0.00     0.188 C 
ENDROOT
BRANCH   1   2
ATOM      2  O   UNL A   1      34.246  30.857  27.630  1.00  0.00    -0.376 OA
BRANCH   2   3
ATOM      3  C   UNL A   1      32.856  30.850  27.321  1.00  0.00     0.202 C 
BRANCH   3   4
ATOM      4  C   UNL A   1      32.393  30.442  25.922  1.00  0.00     0.261 C 
BRANCH   4   5
ATOM      5  O   UNL A   1      32.433  29.019  25.735  1.00  0.00    -0.460 OA
BRANCH   5   6
ATOM      6  C   UNL A   1      31.525  28.536  24.859  1.00  0.00     0.339 C 
ATOM      7  O   UNL A   1      30.989  29.151  23.944  1.00  0.00    -0.246 OA
BRANCH   6   8
ATOM      8  C   UNL A   1      31.421  27.073  24.980  1.00  0.00     0.078 A 
ATOM      9  C   UNL A   1      31.263  24.302  25.451  1.00  0.00     0.042 A 
ATOM     10  C   UNL A   1      30.988  25.204  26.473  1.00  0.00     0.027 A 
ATOM     11  C   UNL A   1      31.663  24.796  24.203  1.00  0.00     0.047 A 
ATOM     12  C   UNL A   1      31.054  26.580  26.241  1.00  0.00     0.019 A 
ATOM     13  C   UNL A   1      31.727  26.177  23.956  1.00  0.00     0.057 A 
ATOM     14  Cl  UNL A   1      32.247  26.693  22.395  1.00  0.00    -0.083 Cl
BRANCH   9  15
ATOM     15  N   UNL A   1      31.344  22.919  25.673  1.00  0.00    -0.326 N 
ATOM     16  C   UNL A   1      32.203  21.948  25.239  1.00  0.00     0.233 C 
ATOM     17  O   UNL A   1      31.763  20.794  25.186  1.00  0.00    -0.274 OA
ATOM     18  H   UNL A   1      30.635  22.577  26.264  1.00  0.00     0.169 HD
BRANCH  16  19
ATOM     19  C   UNL A   1      33.698  22.182  25.020  1.00  0.00     0.142 C 
ATOM     20  C   UNL A   1      35.211  24.146  25.590  1.00  0.00     0.076 C 
ATOM     21  C   UNL A   1      34.470  22.912  26.114  1.00  0.00     0.192 C 
ATOM     22  N   UNL A   1      35.457  21.941  26.628  1.00  0.00    -0.343 N 
ATOM     23  C   UNL A   1      35.758  21.044  25.510  1.00  0.00     0.261 C 
ATOM     24  H   UNL A   1      35.065  21.415  27.409  1.00  0.00     0.346 HD
ATOM     25  H   UNL A   1      36.298  22.406  26.971  1.00  0.00     0.346 HD
ATOM     26  C   UNL A   1      34.472  20.901  24.731  1.00  0.00     0.081 C 
ENDBRANCH  16  19
ENDBRANCH   9  15
ENDBRANCH   6   8
ENDBRANCH   5   6
ENDBRANCH   4   5
ENDBRANCH   3   4
ENDBRANCH   2   3
ENDBRANCH   1   2
BRANCH   1  27
ATOM     27  C   UNL A   1      34.107  33.239  28.580  1.00  0.00     0.188 C 
BRANCH  27  28
ATOM     28  O   UNL A   1      34.711  34.050  29.564  1.00  0.00    -0.376 OA
BRANCH  28  29
ATOM     29  C   UNL A   1      34.020  34.362  30.766  1.00  0.00     0.202 C 
BRANCH  29  30
ATOM     30  C   UNL A   1      34.190  33.566  32.064  1.00  0.00     0.261 C 
BRANCH  30  31
ATOM     31  O   UNL A   1      34.900  32.328  31.939  1.00  0.00    -0.460 OA
BRANCH  31  32
ATOM     32  C   UNL A   1      36.080  32.293  32.596  1.00  0.00     0.338 C 
ATOM     33  O   UNL A   1      36.332  32.729  33.714  1.00  0.00    -0.246 OA
BRANCH  32  34
ATOM     34  C   UNL A   1      37.053  31.498  31.841  1.00  0.00     0.060 A 
ATOM     35  C   UNL A   1      38.016  30.793  32.565  1.00  0.00     0.016 A 
ATOM     36  C   UNL A   1      37.106  31.552  30.451  1.00  0.00     0.016 A 
ATOM     37  C   UNL A   1      39.060  30.154  31.906  1.00  0.00     0.010 A 
ATOM     38  C   UNL A   1      38.162  30.918  29.787  1.00  0.00     0.010 A 
ATOM     39  C   UNL A   1      39.157  30.241  30.515  1.00  0.00    -0.014 A 
BRANCH  39  40
ATOM     40  C   UNL A   1      40.387  29.757  29.849  1.00  0.00     0.031 A 
ATOM     41  C   UNL A   1      41.540  30.705  29.680  1.00  0.00     0.074 A 
ATOM     42  C   UNL A   1      40.497  28.477  29.453  1.00  0.00     0.049 A 
ATOM     43  N   UNL A   1      42.674  30.531  29.051  1.00  0.00    -0.248 NA
ATOM     44  C   UNL A   1      41.396  32.026  30.312  1.00  0.00     0.031 C 
ATOM     45  C   UNL A   1      39.485  27.442  29.649  1.00  0.00     0.029 A 
ATOM     46  N   UNL A   1      41.518  27.833  28.800  1.00  0.00    -0.354 N 
ATOM     47  C   UNL A   1      43.370  31.723  29.197  1.00  0.00     0.074 A 
ATOM     48  C   UNL A   1      42.529  32.618  29.962  1.00  0.00     0.031 C 
ATOM     49  C   UNL A   1      39.928  26.293  29.112  1.00  0.00     0.029 A 
ATOM     50  C   UNL A   1      41.234  26.525  28.498  1.00  0.00     0.049 A 
ATOM     51  H   UNL A   1      42.372  28.268  28.572  1.00  0.00     0.167 HD
ATOM     52  C   UNL A   1      44.603  32.039  28.734  1.00  0.00     0.037 A 
ATOM     53  C   UNL A   1      41.937  25.631  27.775  1.00  0.00     0.037 A 
ATOM     54  C   UNL A   1      45.438  31.142  27.981  1.00  0.00     0.049 A 
ATOM     55  C   UNL A   1      43.264  26.040  27.189  1.00  0.00     0.074 A 
ATOM     56  C   UNL A   1      46.697  31.373  27.452  1.00  0.00     0.029 A 
ATOM     57  N   UNL A   1      45.096  29.840  27.649  1.00  0.00    -0.354 N 
ATOM     58  N   UNL A   1      43.907  27.177  27.303  1.00  0.00    -0.248 NA
ATOM     59  C   UNL A   1      43.959  25.041  26.364  1.00  0.00     0.031 C 
ATOM     60  C   UNL A   1      47.098  30.223  26.766  1.00  0.00     0.029 A 
ATOM     61  C   UNL A   1      46.112  29.260  26.907  1.00  0.00     0.049 A 
ATOM     62  H   UNL A   1      44.257  29.393  27.905  1.00  0.00     0.167 HD
ATOM     63  C   UNL A   1      45.090  27.022  26.592  1.00  0.00     0.074 A 
ATOM     64  C   UNL A   1      45.082  25.675  26.059  1.00  0.00     0.031 C 
ATOM     65  C   UNL A   1      46.091  27.913  26.396  1.00  0.00     0.037 A 
BRANCH  52  66
ATOM     66  C   UNL A   1      45.105  33.426  28.998  1.00  0.00     0.064 A 
ATOM     67  C   UNL A   1      45.879  33.729  30.126  1.00  0.00     0.173 A 
ATOM     68  C   UNL A   1      44.829  34.460  28.090  1.00  0.00     0.173 A 
ATOM     69  F   UNL A   1      46.154  32.779  31.032  1.00  0.00    -0.203 F 
ATOM     70  C   UNL A   1      46.346  35.024  30.345  1.00  0.00     0.198 A 
ATOM     71  C   UNL A   1      45.318  35.746  28.300  1.00  0.00     0.198 A 
ATOM     72  F   UNL A   1      44.092  34.220  26.995  1.00  0.00    -0.203 F 
ATOM     73  F   UNL A   1      47.051  35.302  31.450  1.00  0.00    -0.200 F 
ATOM     74  C   UNL A   1      46.071  36.029  29.429  1.00  0.00     0.200 A 
ATOM     75  F   UNL A   1      45.059  36.713  27.408  1.00  0.00    -0.200 F 
ATOM     76  F   UNL A   1      46.527  37.271  29.639  1.00  0.00    -0.200 F 
ENDBRANCH  52  66
BRANCH  53  77
ATOM     77  C   UNL A   1      41.387  24.274  27.528  1.00  0.00     0.064 A 
ATOM     78  C   UNL A   1      41.980  23.137  28.094  1.00  0.00     0.173 A 
ATOM     79  C   UNL A   1      40.277  24.082  26.691  1.00  0.00     0.173 A 
ATOM     80  F   UNL A   1      43.060  23.266  28.878  1.00  0.00    -0.203 F 
ATOM     81  C   UNL A   1      41.498  21.859  27.816  1.00  0.00     0.198 A 
ATOM     82  C   UNL A   1      39.777  22.806  26.437  1.00  0.00     0.198 A 
ATOM     83  F   UNL A   1      39.676  25.135  26.119  1.00  0.00    -0.203 F 
ATOM     84  F   UNL A   1      42.115  20.787  28.328  1.00  0.00    -0.200 F 
ATOM     85  C   UNL A   1      40.393  21.695  26.993  1.00  0.00     0.200 A 
ATOM     86  F   UNL A   1      38.705  22.654  25.647  1.00  0.00    -0.200 F 
ATOM     87  F   UNL A   1      39.932  20.467  26.723  1.00  0.00    -0.200 F 
ENDBRANCH  53  77
BRANCH  65  88
ATOM     88  C   UNL A   1      47.281  27.451  25.608  1.00  0.00     0.064 A 
ATOM     89  C   UNL A   1      47.360  27.631  24.220  1.00  0.00     0.173 A 
ATOM     90  C   UNL A   1      48.377  26.862  26.258  1.00  0.00     0.173 A 
ATOM     91  F   UNL A   1      46.332  28.175  23.551  1.00  0.00    -0.203 F 
ATOM     92  C   UNL A   1      48.482  27.218  23.508  1.00  0.00     0.198 A 
ATOM     93  C   UNL A   1      49.510  26.477  25.547  1.00  0.00     0.198 A 
ATOM     94  F   UNL A   1      48.355  26.675  27.587  1.00  0.00    -0.203 F 
ATOM     95  F   UNL A   1      48.519  27.361  22.175  1.00  0.00    -0.200 F 
ATOM     96  C   UNL A   1      49.559  26.648  24.172  1.00  0.00     0.200 A 
ATOM     97  F   UNL A   1      50.554  25.938  26.193  1.00  0.00    -0.200 F 
ATOM     98  F   UNL A   1      50.642  26.259  23.486  1.00  0.00    -0.200 F 
ENDBRANCH  65  88
ENDBRANCH  39  40
ENDBRANCH  32  34
ENDBRANCH  31  32
ENDBRANCH  30  31
ENDBRANCH  29  30
ENDBRANCH  28  29
ENDBRANCH  27  28
ENDBRANCH   1  27
TORSDOF 19
ENDMDL
