MODEL 1
REMARK VINA RESULT:     -10.8      0.000      0.000
REMARK SMILES CC1(C)S[C@@H]2[C@H]([NH2+]Cn3nnc4ccccc43)C(=O)N2[C@@H]1C(=O)OCCOCCOCCOC(=O)c1ccc(-c2c3nc(c(-c4c(F)c(F)c(F)c(F)c4F)c4ccc([nH]4)c(-c4c(F)c(F)c(F)c(F)c4F)c4nc(c(-c5c(F)c(F)c(F)c(F)c5F)c5ccc2[nH]5)C=C4)C=C3)cc1
REMARK SMILES IDX 28 1 27 2 26 3 25 4 24 5 22 6 23 7 21 8 1 9 2 10 3 11 4 12
REMARK SMILES IDX 5 13 20 14 6 15 18 16 19 17 7 18 8 21 9 22 10 23 17 24 11 25
REMARK SMILES IDX 12 26 16 27 13 28 15 29 14 30 29 31 30 32 31 33 32 34 33 35
REMARK SMILES IDX 34 36 35 37 36 38 37 39 98 40 38 41 97 42 39 43 40 44 41 45
REMARK SMILES IDX 91 46 42 47 96 48 90 49 92 50 43 51 95 52 89 53 88 54 44 56
REMARK SMILES IDX 76 57 56 58 75 59 57 60 60 61 74 62 93 63 58 64 59 65 73 67
REMARK SMILES IDX 94 68 61 69 45 70 46 71 54 72 47 73 48 74 52 75 55 76 49 77
REMARK SMILES IDX 50 78 53 79 51 80 77 81 78 82 86 83 79 84 80 85 84 86 87 87
REMARK SMILES IDX 81 88 82 89 85 90 83 91 62 92 63 93 71 94 64 95 65 96 69 97
REMARK SMILES IDX 72 98 66 99 67 100 70 101 68 102
REMARK H PARENT 7 19 7 20 92 55 60 66
REMARK Flexibility Score: inf
ROOT
ATOM      1  C   UNL A   1      32.243  28.225  26.230  1.00  0.00     0.188 C 
ENDROOT
BRANCH   1   2
ATOM      2  O   UNL A   1      31.290  27.183  26.302  1.00  0.00    -0.376 OA
BRANCH   2   3
ATOM      3  C   UNL A   1      30.891  26.532  25.106  1.00  0.00     0.202 C 
BRANCH   3   4
ATOM      4  C   UNL A   1      31.981  26.141  24.087  1.00  0.00     0.261 C 
BRANCH   4   5
ATOM      5  O   UNL A   1      32.307  24.718  23.978  1.00  0.00    -0.462 OA
BRANCH   5   6
ATOM      6  C   UNL A   1      33.529  24.345  24.460  1.00  0.00     0.330 C 
ATOM      7  O   UNL A   1      34.231  25.118  25.107  1.00  0.00    -0.250 OA
BRANCH   6   8
ATOM      8  C   UNL A   1      33.993  22.856  24.166  1.00  0.00     0.212 C 
ATOM      9  C   UNL A   1      32.228  22.438  26.041  1.00  0.00     0.026 C 
ATOM     10  C   UNL A   1      33.329  21.836  25.156  1.00  0.00     0.044 C 
ATOM     11  C   UNL A   1      32.933  20.509  24.470  1.00  0.00     0.026 C 
ATOM     12  S   UNL A   1      34.684  21.244  26.293  1.00  0.00    -0.121 SA
ATOM     13  C   UNL A   1      35.863  21.315  24.924  1.00  0.00     0.213 C 
ATOM     14  N   UNL A   1      35.405  22.502  24.195  1.00  0.00    -0.304 N 
ATOM     15  C   UNL A   1      37.285  21.957  24.804  1.00  0.00     0.307 C 
ATOM     16  C   UNL A   1      36.558  22.577  23.497  1.00  0.00     0.285 C 
ATOM     17  O   UNL A   1      36.847  22.944  22.399  1.00  0.00    -0.268 OA
BRANCH  15  18
ATOM     18  N   UNL A   1      37.745  23.044  25.731  1.00  0.00    -0.315 N 
ATOM     19  H   UNL A   1      36.989  23.281  26.373  1.00  0.00     0.348 HD
ATOM     20  H   UNL A   1      38.006  23.862  25.181  1.00  0.00     0.348 HD
BRANCH  18  21
ATOM     21  C   UNL A   1      38.895  22.602  26.491  1.00  0.00     0.415 C 
BRANCH  21  22
ATOM     22  N   UNL A   1      39.526  23.552  27.385  1.00  0.00    -0.194 N 
ATOM     23  N   UNL A   1      39.115  24.807  27.606  1.00  0.00    -0.061 NA
ATOM     24  C   UNL A   1      40.792  23.317  27.871  1.00  0.00     0.095 A 
ATOM     25  N   UNL A   1      40.104  25.428  28.245  1.00  0.00    -0.130 NA
ATOM     26  C   UNL A   1      41.147  24.546  28.394  1.00  0.00     0.113 A 
ATOM     27  C   UNL A   1      41.639  22.199  27.840  1.00  0.00     0.030 A 
ATOM     28  C   UNL A   1      42.431  24.693  28.935  1.00  0.00     0.032 A 
ATOM     29  C   UNL A   1      42.912  22.363  28.382  1.00  0.00     0.002 A 
ATOM     30  C   UNL A   1      43.304  23.589  28.920  1.00  0.00     0.002 A 
ENDBRANCH  21  22
ENDBRANCH  18  21
ENDBRANCH  15  18
ENDBRANCH   6   8
ENDBRANCH   5   6
ENDBRANCH   4   5
ENDBRANCH   3   4
ENDBRANCH   2   3
ENDBRANCH   1   2
BRANCH   1  31
ATOM     31  C   UNL A   1      31.818  29.573  25.654  1.00  0.00     0.188 C 
BRANCH  31  32
ATOM     32  O   UNL A   1      31.898  30.674  26.513  1.00  0.00    -0.376 OA
BRANCH  32  33
ATOM     33  C   UNL A   1      33.100  30.824  27.247  1.00  0.00     0.202 C 
BRANCH  33  34
ATOM     34  C   UNL A   1      33.674  32.201  27.708  1.00  0.00     0.261 C 
BRANCH  34  35
ATOM     35  O   UNL A   1      35.110  32.403  27.642  1.00  0.00    -0.460 OA
BRANCH  35  36
ATOM     36  C   UNL A   1      35.839  32.445  28.796  1.00  0.00     0.338 C 
ATOM     37  O   UNL A   1      35.428  32.807  29.885  1.00  0.00    -0.246 OA
BRANCH  36  38
ATOM     38  C   UNL A   1      37.102  31.631  28.597  1.00  0.00     0.060 A 
ATOM     39  C   UNL A   1      37.157  30.433  27.876  1.00  0.00     0.016 A 
ATOM     40  C   UNL A   1      38.180  31.945  29.437  1.00  0.00     0.016 A 
ATOM     41  C   UNL A   1      38.226  29.524  28.082  1.00  0.00     0.010 A 
ATOM     42  C   UNL A   1      39.221  31.026  29.666  1.00  0.00     0.010 A 
ATOM     43  C   UNL A   1      39.254  29.785  29.016  1.00  0.00    -0.014 A 
BRANCH  43  44
ATOM     44  C   UNL A   1      40.565  29.068  28.967  1.00  0.00     0.031 A 
ATOM     45  C   UNL A   1      40.988  28.728  30.329  1.00  0.00     0.074 A 
ATOM     46  C   UNL A   1      41.447  28.740  27.982  1.00  0.00     0.049 A 
ATOM     47  N   UNL A   1      41.945  29.366  30.911  1.00  0.00    -0.248 NA
ATOM     48  C   UNL A   1      40.215  27.848  31.200  1.00  0.00     0.031 C 
ATOM     49  C   UNL A   1      41.553  29.343  26.675  1.00  0.00     0.029 A 
ATOM     50  N   UNL A   1      42.500  27.813  27.945  1.00  0.00    -0.354 N 
ATOM     51  C   UNL A   1      42.070  28.792  32.154  1.00  0.00     0.074 A 
ATOM     52  C   UNL A   1      40.883  27.996  32.350  1.00  0.00     0.031 C 
ATOM     53  C   UNL A   1      42.447  28.674  25.913  1.00  0.00     0.029 A 
ATOM     54  C   UNL A   1      42.963  27.518  26.640  1.00  0.00     0.049 A 
ATOM     55  H   UNL A   1      42.883  27.404  28.755  1.00  0.00     0.167 HD
ATOM     56  C   UNL A   1      43.298  28.788  32.732  1.00  0.00     0.037 A 
ATOM     57  C   UNL A   1      44.127  26.978  26.166  1.00  0.00     0.037 A 
ATOM     58  C   UNL A   1      44.175  29.762  32.120  1.00  0.00     0.049 A 
ATOM     59  C   UNL A   1      45.202  27.459  27.048  1.00  0.00     0.074 A 
ATOM     60  C   UNL A   1      44.384  31.123  32.202  1.00  0.00     0.029 A 
ATOM     61  N   UNL A   1      44.728  29.350  30.938  1.00  0.00    -0.354 N 
ATOM     62  N   UNL A   1      45.646  28.680  27.024  1.00  0.00    -0.248 NA
ATOM     63  C   UNL A   1      45.542  26.666  28.226  1.00  0.00     0.031 C 
ATOM     64  C   UNL A   1      45.044  31.518  30.998  1.00  0.00     0.029 A 
ATOM     65  C   UNL A   1      45.269  30.387  30.226  1.00  0.00     0.049 A 
ATOM     66  H   UNL A   1      44.737  28.414  30.634  1.00  0.00     0.167 HD
ATOM     67  C   UNL A   1      45.907  28.941  28.350  1.00  0.00     0.074 A 
ATOM     68  C   UNL A   1      45.982  27.645  29.014  1.00  0.00     0.031 C 
ATOM     69  C   UNL A   1      45.688  30.179  28.866  1.00  0.00     0.037 A 
BRANCH  56  70
ATOM     70  C   UNL A   1      43.843  27.586  33.455  1.00  0.00     0.064 A 
ATOM     71  C   UNL A   1      44.042  26.388  32.747  1.00  0.00     0.173 A 
ATOM     72  C   UNL A   1      43.895  27.482  34.863  1.00  0.00     0.173 A 
ATOM     73  F   UNL A   1      43.950  26.362  31.409  1.00  0.00    -0.203 F 
ATOM     74  C   UNL A   1      44.258  25.174  33.406  1.00  0.00     0.198 A 
ATOM     75  C   UNL A   1      44.163  26.282  35.514  1.00  0.00     0.198 A 
ATOM     76  F   UNL A   1      43.567  28.501  35.666  1.00  0.00    -0.203 F 
ATOM     77  F   UNL A   1      44.343  24.039  32.698  1.00  0.00    -0.200 F 
ATOM     78  C   UNL A   1      44.326  25.123  34.787  1.00  0.00     0.200 A 
ATOM     79  F   UNL A   1      44.181  26.250  36.854  1.00  0.00    -0.200 F 
ATOM     80  F   UNL A   1      44.492  23.955  35.420  1.00  0.00    -0.200 F 
ENDBRANCH  56  70
BRANCH  57  81
ATOM     81  C   UNL A   1      44.270  25.662  25.460  1.00  0.00     0.064 A 
ATOM     82  C   UNL A   1      45.536  25.204  25.033  1.00  0.00     0.173 A 
ATOM     83  C   UNL A   1      43.203  24.769  25.277  1.00  0.00     0.173 A 
ATOM     84  F   UNL A   1      46.607  26.009  25.117  1.00  0.00    -0.203 F 
ATOM     85  C   UNL A   1      45.736  23.907  24.543  1.00  0.00     0.198 A 
ATOM     86  C   UNL A   1      43.403  23.469  24.795  1.00  0.00     0.198 A 
ATOM     87  F   UNL A   1      41.953  25.130  25.603  1.00  0.00    -0.203 F 
ATOM     88  F   UNL A   1      46.966  23.498  24.201  1.00  0.00    -0.200 F 
ATOM     89  C   UNL A   1      44.671  23.031  24.449  1.00  0.00     0.200 A 
ATOM     90  F   UNL A   1      42.363  22.628  24.700  1.00  0.00    -0.200 F 
ATOM     91  F   UNL A   1      44.866  21.767  24.045  1.00  0.00    -0.200 F 
ENDBRANCH  57  81
BRANCH  69  92
ATOM     92  C   UNL A   1      45.778  31.342  27.936  1.00  0.00     0.064 A 
ATOM     93  C   UNL A   1      46.974  31.882  27.450  1.00  0.00     0.173 A 
ATOM     94  C   UNL A   1      44.583  31.886  27.458  1.00  0.00     0.173 A 
ATOM     95  F   UNL A   1      48.148  31.358  27.804  1.00  0.00    -0.203 F 
ATOM     96  C   UNL A   1      46.978  32.943  26.545  1.00  0.00     0.198 A 
ATOM     97  C   UNL A   1      44.583  32.918  26.526  1.00  0.00     0.198 A 
ATOM     98  F   UNL A   1      43.408  31.384  27.871  1.00  0.00    -0.203 F 
ATOM     99  F   UNL A   1      48.140  33.453  26.109  1.00  0.00    -0.200 F 
ATOM    100  C   UNL A   1      45.780  33.454  26.076  1.00  0.00     0.200 A 
ATOM    101  F   UNL A   1      43.421  33.377  26.044  1.00  0.00    -0.200 F 
ATOM    102  F   UNL A   1      45.777  34.443  25.172  1.00  0.00    -0.200 F 
ENDBRANCH  69  92
ENDBRANCH  43  44
ENDBRANCH  36  38
ENDBRANCH  35  36
ENDBRANCH  34  35
ENDBRANCH  33  34
ENDBRANCH  32  33
ENDBRANCH  31  32
ENDBRANCH   1  31
TORSDOF 20
ENDMDL
MODEL 2
REMARK VINA RESULT:     -10.5      4.627      8.518
REMARK SMILES CC1(C)S[C@@H]2[C@H]([NH2+]Cn3nnc4ccccc43)C(=O)N2[C@@H]1C(=O)OCCOCCOCCOC(=O)c1ccc(-c2c3nc(c(-c4c(F)c(F)c(F)c(F)c4F)c4ccc([nH]4)c(-c4c(F)c(F)c(F)c(F)c4F)c4nc(c(-c5c(F)c(F)c(F)c(F)c5F)c5ccc2[nH]5)C=C4)C=C3)cc1
REMARK SMILES IDX 28 1 27 2 26 3 25 4 24 5 22 6 23 7 21 8 1 9 2 10 3 11 4 12
REMARK SMILES IDX 5 13 20 14 6 15 18 16 19 17 7 18 8 21 9 22 10 23 17 24 11 25
REMARK SMILES IDX 12 26 16 27 13 28 15 29 14 30 29 31 30 32 31 33 32 34 33 35
REMARK SMILES IDX 34 36 35 37 36 38 37 39 98 40 38 41 97 42 39 43 40 44 41 45
REMARK SMILES IDX 91 46 42 47 96 48 90 49 92 50 43 51 95 52 89 53 88 54 44 56
REMARK SMILES IDX 76 57 56 58 75 59 57 60 60 61 74 62 93 63 58 64 59 65 73 67
REMARK SMILES IDX 94 68 61 69 45 70 46 71 54 72 47 73 48 74 52 75 55 76 49 77
REMARK SMILES IDX 50 78 53 79 51 80 77 81 78 82 86 83 79 84 80 85 84 86 87 87
REMARK SMILES IDX 81 88 82 89 85 90 83 91 62 92 63 93 71 94 64 95 65 96 69 97
REMARK SMILES IDX 72 98 66 99 67 100 70 101 68 102
REMARK H PARENT 7 19 7 20 92 55 60 66
REMARK Flexibility Score: inf
ROOT
ATOM      1  C   UNL A   1      33.025  36.836  31.969  1.00  0.00     0.188 C 
ENDROOT
BRANCH   1   2
ATOM      2  O   UNL A   1      34.254  36.781  32.665  1.00  0.00    -0.376 OA
BRANCH   2   3
ATOM      3  C   UNL A   1      34.317  36.072  33.893  1.00  0.00     0.202 C 
BRANCH   3   4
ATOM      4  C   UNL A   1      34.748  34.591  33.861  1.00  0.00     0.261 C 
BRANCH   4   5
ATOM      5  O   UNL A   1      36.139  34.298  34.209  1.00  0.00    -0.462 OA
BRANCH   5   6
ATOM      6  C   UNL A   1      37.033  34.322  33.177  1.00  0.00     0.330 C 
ATOM      7  O   UNL A   1      36.686  34.593  32.029  1.00  0.00    -0.250 OA
BRANCH   6   8
ATOM      8  C   UNL A   1      38.548  34.008  33.529  1.00  0.00     0.212 C 
ATOM      9  C   UNL A   1      37.788  31.688  32.612  1.00  0.00     0.026 C 
ATOM     10  C   UNL A   1      38.892  32.494  33.311  1.00  0.00     0.044 C 
ATOM     11  C   UNL A   1      40.302  32.281  32.716  1.00  0.00     0.026 C 
ATOM     12  S   UNL A   1      39.120  31.753  35.008  1.00  0.00    -0.121 SA
ATOM     13  C   UNL A   1      39.863  33.298  35.582  1.00  0.00     0.213 C 
ATOM     14  N   UNL A   1      39.074  34.299  34.856  1.00  0.00    -0.304 N 
ATOM     15  C   UNL A   1      39.582  34.187  36.838  1.00  0.00     0.307 C 
ATOM     16  C   UNL A   1      39.509  35.293  35.658  1.00  0.00     0.285 C 
ATOM     17  O   UNL A   1      39.725  36.456  35.503  1.00  0.00    -0.268 OA
BRANCH  15  18
ATOM     18  N   UNL A   1      38.286  34.112  37.589  1.00  0.00    -0.315 N 
ATOM     19  H   UNL A   1      37.530  33.903  36.936  1.00  0.00     0.348 HD
ATOM     20  H   UNL A   1      38.114  35.007  38.047  1.00  0.00     0.348 HD
BRANCH  18  21
ATOM     21  C   UNL A   1      38.348  33.074  38.596  1.00  0.00     0.415 C 
BRANCH  21  22
ATOM     22  N   UNL A   1      37.100  32.545  39.106  1.00  0.00    -0.194 N 
ATOM     23  N   UNL A   1      35.897  32.691  38.534  1.00  0.00    -0.061 NA
ATOM     24  C   UNL A   1      37.016  32.080  40.399  1.00  0.00     0.095 A 
ATOM     25  N   UNL A   1      34.993  32.326  39.440  1.00  0.00    -0.130 NA
ATOM     26  C   UNL A   1      35.651  31.974  40.594  1.00  0.00     0.113 A 
ATOM     27  C   UNL A   1      37.975  31.817  41.388  1.00  0.00     0.030 A 
ATOM     28  C   UNL A   1      35.188  31.573  41.854  1.00  0.00     0.032 A 
ATOM     29  C   UNL A   1      37.497  31.421  42.635  1.00  0.00     0.002 A 
ATOM     30  C   UNL A   1      36.126  31.302  42.866  1.00  0.00     0.002 A 
ENDBRANCH  21  22
ENDBRANCH  18  21
ENDBRANCH  15  18
ENDBRANCH   6   8
ENDBRANCH   5   6
ENDBRANCH   4   5
ENDBRANCH   3   4
ENDBRANCH   2   3
ENDBRANCH   1   2
BRANCH   1  31
ATOM     31  C   UNL A   1      32.679  35.713  30.994  1.00  0.00     0.188 C 
BRANCH  31  32
ATOM     32  O   UNL A   1      33.750  35.125  30.311  1.00  0.00    -0.376 OA
BRANCH  32  33
ATOM     33  C   UNL A   1      33.811  35.343  28.913  1.00  0.00     0.202 C 
BRANCH  33  34
ATOM     34  C   UNL A   1      34.940  34.782  27.992  1.00  0.00     0.261 C 
BRANCH  34  35
ATOM     35  O   UNL A   1      35.658  33.598  28.430  1.00  0.00    -0.460 OA
BRANCH  35  36
ATOM     36  C   UNL A   1      35.124  32.363  28.201  1.00  0.00     0.338 C 
ATOM     37  O   UNL A   1      34.019  32.139  27.740  1.00  0.00    -0.246 OA
BRANCH  36  38
ATOM     38  C   UNL A   1      36.241  31.339  28.253  1.00  0.00     0.060 A 
ATOM     39  C   UNL A   1      36.046  29.959  28.126  1.00  0.00     0.016 A 
ATOM     40  C   UNL A   1      37.469  31.788  28.762  1.00  0.00     0.016 A 
ATOM     41  C   UNL A   1      37.029  29.053  28.601  1.00  0.00     0.010 A 
ATOM     42  C   UNL A   1      38.426  30.886  29.266  1.00  0.00     0.010 A 
ATOM     43  C   UNL A   1      38.216  29.501  29.222  1.00  0.00    -0.014 A 
BRANCH  43  44
ATOM     44  C   UNL A   1      39.415  28.620  29.361  1.00  0.00     0.031 A 
ATOM     45  C   UNL A   1      39.703  28.406  30.783  1.00  0.00     0.074 A 
ATOM     46  C   UNL A   1      40.301  28.054  28.494  1.00  0.00     0.049 A 
ATOM     47  N   UNL A   1      40.703  28.985  31.357  1.00  0.00    -0.248 NA
ATOM     48  C   UNL A   1      38.764  27.756  31.691  1.00  0.00     0.031 C 
ATOM     49  C   UNL A   1      40.569  28.463  27.136  1.00  0.00     0.029 A 
ATOM     50  N   UNL A   1      41.215  27.000  28.651  1.00  0.00    -0.354 N 
ATOM     51  C   UNL A   1      40.672  28.565  32.665  1.00  0.00     0.074 A 
ATOM     52  C   UNL A   1      39.375  27.964  32.863  1.00  0.00     0.031 C 
ATOM     53  C   UNL A   1      41.405  27.590  26.532  1.00  0.00     0.029 A 
ATOM     54  C   UNL A   1      41.711  26.481  27.431  1.00  0.00     0.049 A 
ATOM     55  H   UNL A   1      41.488  26.654  29.532  1.00  0.00     0.167 HD
ATOM     56  C   UNL A   1      41.849  28.476  33.333  1.00  0.00     0.037 A 
ATOM     57  C   UNL A   1      42.814  25.736  27.117  1.00  0.00     0.037 A 
ATOM     58  C   UNL A   1      42.889  29.239  32.678  1.00  0.00     0.049 A 
ATOM     59  C   UNL A   1      43.890  26.183  28.016  1.00  0.00     0.074 A 
ATOM     60  C   UNL A   1      43.281  30.560  32.612  1.00  0.00     0.029 A 
ATOM     61  N   UNL A   1      43.450  28.609  31.601  1.00  0.00    -0.354 N 
ATOM     62  N   UNL A   1      44.501  27.322  27.879  1.00  0.00    -0.248 NA
ATOM     63  C   UNL A   1      44.044  25.512  29.304  1.00  0.00     0.031 C 
ATOM     64  C   UNL A   1      44.061  30.706  31.423  1.00  0.00     0.029 A 
ATOM     65  C   UNL A   1      44.172  29.465  30.814  1.00  0.00     0.049 A 
ATOM     66  H   UNL A   1      43.347  27.648  31.413  1.00  0.00     0.167 HD
ATOM     67  C   UNL A   1      44.715  27.717  29.181  1.00  0.00     0.074 A 
ATOM     68  C   UNL A   1      44.568  26.520  30.000  1.00  0.00     0.031 C 
ATOM     69  C   UNL A   1      44.640  29.029  29.525  1.00  0.00     0.037 A 
BRANCH  56  70
ATOM     70  C   UNL A   1      42.177  27.317  34.235  1.00  0.00     0.064 A 
ATOM     71  C   UNL A   1      41.902  27.416  35.611  1.00  0.00     0.173 A 
ATOM     72  C   UNL A   1      43.014  26.245  33.853  1.00  0.00     0.173 A 
ATOM     73  F   UNL A   1      41.170  28.434  36.090  1.00  0.00    -0.203 F 
ATOM     74  C   UNL A   1      42.443  26.516  36.534  1.00  0.00     0.198 A 
ATOM     75  C   UNL A   1      43.507  25.320  34.768  1.00  0.00     0.198 A 
ATOM     76  F   UNL A   1      43.489  26.119  32.608  1.00  0.00    -0.203 F 
ATOM     77  F   UNL A   1      42.238  26.704  37.844  1.00  0.00    -0.200 F 
ATOM     78  C   UNL A   1      43.238  25.465  36.111  1.00  0.00     0.200 A 
ATOM     79  F   UNL A   1      44.311  24.335  34.340  1.00  0.00    -0.200 F 
ATOM     80  F   UNL A   1      43.790  24.627  36.998  1.00  0.00    -0.200 F 
ENDBRANCH  56  70
BRANCH  57  81
ATOM     81  C   UNL A   1      42.815  24.333  26.588  1.00  0.00     0.064 A 
ATOM     82  C   UNL A   1      43.493  24.012  25.391  1.00  0.00     0.173 A 
ATOM     83  C   UNL A   1      42.252  23.250  27.282  1.00  0.00     0.173 A 
ATOM     84  F   UNL A   1      44.017  24.986  24.631  1.00  0.00    -0.203 F 
ATOM     85  C   UNL A   1      43.675  22.688  24.967  1.00  0.00     0.198 A 
ATOM     86  C   UNL A   1      42.441  21.926  26.863  1.00  0.00     0.198 A 
ATOM     87  F   UNL A   1      41.544  23.457  28.402  1.00  0.00    -0.203 F 
ATOM     88  F   UNL A   1      44.373  22.428  23.852  1.00  0.00    -0.200 F 
ATOM     89  C   UNL A   1      43.170  21.644  25.719  1.00  0.00     0.200 A 
ATOM     90  F   UNL A   1      41.941  20.920  27.594  1.00  0.00    -0.200 F 
ATOM     91  F   UNL A   1      43.398  20.374  25.356  1.00  0.00    -0.200 F 
ENDBRANCH  57  81
BRANCH  69  92
ATOM     92  C   UNL A   1      44.947  30.039  28.472  1.00  0.00     0.064 A 
ATOM     93  C   UNL A   1      43.986  30.730  27.726  1.00  0.00     0.173 A 
ATOM     94  C   UNL A   1      46.288  30.374  28.264  1.00  0.00     0.173 A 
ATOM     95  F   UNL A   1      42.686  30.516  27.931  1.00  0.00    -0.203 F 
ATOM     96  C   UNL A   1      44.349  31.696  26.788  1.00  0.00     0.198 A 
ATOM     97  C   UNL A   1      46.652  31.365  27.357  1.00  0.00     0.198 A 
ATOM     98  F   UNL A   1      47.248  29.762  28.975  1.00  0.00    -0.203 F 
ATOM     99  F   UNL A   1      43.406  32.330  26.074  1.00  0.00    -0.200 F 
ATOM    100  C   UNL A   1      45.683  32.019  26.612  1.00  0.00     0.200 A 
ATOM    101  F   UNL A   1      47.941  31.703  27.225  1.00  0.00    -0.200 F 
ATOM    102  F   UNL A   1      46.035  32.979  25.745  1.00  0.00    -0.200 F 
ENDBRANCH  69  92
ENDBRANCH  43  44
ENDBRANCH  36  38
ENDBRANCH  35  36
ENDBRANCH  34  35
ENDBRANCH  33  34
ENDBRANCH  32  33
ENDBRANCH  31  32
ENDBRANCH   1  31
TORSDOF 20
ENDMDL
MODEL 3
REMARK VINA RESULT:     -10.4      1.537      2.949
REMARK SMILES CC1(C)S[C@@H]2[C@H]([NH2+]Cn3nnc4ccccc43)C(=O)N2[C@@H]1C(=O)OCCOCCOCCOC(=O)c1ccc(-c2c3nc(c(-c4c(F)c(F)c(F)c(F)c4F)c4ccc([nH]4)c(-c4c(F)c(F)c(F)c(F)c4F)c4nc(c(-c5c(F)c(F)c(F)c(F)c5F)c5ccc2[nH]5)C=C4)C=C3)cc1
REMARK SMILES IDX 28 1 27 2 26 3 25 4 24 5 22 6 23 7 21 8 1 9 2 10 3 11 4 12
REMARK SMILES IDX 5 13 20 14 6 15 18 16 19 17 7 18 8 21 9 22 10 23 17 24 11 25
REMARK SMILES IDX 12 26 16 27 13 28 15 29 14 30 29 31 30 32 31 33 32 34 33 35
REMARK SMILES IDX 34 36 35 37 36 38 37 39 98 40 38 41 97 42 39 43 40 44 41 45
REMARK SMILES IDX 91 46 42 47 96 48 90 49 92 50 43 51 95 52 89 53 88 54 44 56
REMARK SMILES IDX 76 57 56 58 75 59 57 60 60 61 74 62 93 63 58 64 59 65 73 67
REMARK SMILES IDX 94 68 61 69 45 70 46 71 54 72 47 73 48 74 52 75 55 76 49 77
REMARK SMILES IDX 50 78 53 79 51 80 77 81 78 82 86 83 79 84 80 85 84 86 87 87
REMARK SMILES IDX 81 88 82 89 85 90 83 91 62 92 63 93 71 94 64 95 65 96 69 97
REMARK SMILES IDX 72 98 66 99 67 100 70 101 68 102
REMARK H PARENT 7 19 7 20 92 55 60 66
REMARK Flexibility Score: inf
ROOT
ATOM      1  C   UNL A   1      30.204  29.551  24.041  1.00  0.00     0.188 C 
ENDROOT
BRANCH   1   2
ATOM      2  O   UNL A   1      29.935  28.199  23.726  1.00  0.00    -0.376 OA
BRANCH   2   3
ATOM      3  C   UNL A   1      30.096  27.759  22.387  1.00  0.00     0.202 C 
BRANCH   3   4
ATOM      4  C   UNL A   1      31.358  26.947  22.031  1.00  0.00     0.261 C 
BRANCH   4   5
ATOM      5  O   UNL A   1      32.583  27.270  22.764  1.00  0.00    -0.462 OA
BRANCH   5   6
ATOM      6  C   UNL A   1      33.128  26.255  23.496  1.00  0.00     0.330 C 
ATOM      7  O   UNL A   1      34.312  26.260  23.826  1.00  0.00    -0.250 OA
BRANCH   6   8
ATOM      8  C   UNL A   1      32.157  25.076  23.925  1.00  0.00     0.212 C 
ATOM      9  C   UNL A   1      32.167  26.495  26.113  1.00  0.00     0.026 C 
ATOM     10  C   UNL A   1      31.741  25.186  25.433  1.00  0.00     0.044 C 
ATOM     11  C   UNL A   1      30.264  24.800  25.676  1.00  0.00     0.026 C 
ATOM     12  S   UNL A   1      32.609  23.797  26.325  1.00  0.00    -0.121 SA
ATOM     13  C   UNL A   1      32.394  22.734  24.878  1.00  0.00     0.213 C 
ATOM     14  N   UNL A   1      32.570  23.687  23.777  1.00  0.00    -0.304 N 
ATOM     15  C   UNL A   1      33.400  21.838  24.083  1.00  0.00     0.307 C 
ATOM     16  C   UNL A   1      32.734  22.693  22.879  1.00  0.00     0.285 C 
ATOM     17  O   UNL A   1      32.476  22.562  21.722  1.00  0.00    -0.268 OA
BRANCH  15  18
ATOM     18  N   UNL A   1      34.883  22.061  24.146  1.00  0.00    -0.315 N 
ATOM     19  H   UNL A   1      35.066  23.025  24.425  1.00  0.00     0.348 HD
ATOM     20  H   UNL A   1      35.285  21.881  23.227  1.00  0.00     0.348 HD
BRANCH  18  21
ATOM     21  C   UNL A   1      35.485  21.164  25.109  1.00  0.00     0.415 C 
BRANCH  21  22
ATOM     22  N   UNL A   1      36.931  21.096  25.164  1.00  0.00    -0.194 N 
ATOM     23  N   UNL A   1      37.667  19.989  25.002  1.00  0.00    -0.061 NA
ATOM     24  C   UNL A   1      37.658  22.143  25.683  1.00  0.00     0.095 A 
ATOM     25  N   UNL A   1      38.899  20.283  25.411  1.00  0.00    -0.130 NA
ATOM     26  C   UNL A   1      38.911  21.584  25.854  1.00  0.00     0.113 A 
ATOM     27  C   UNL A   1      37.323  23.452  26.057  1.00  0.00     0.030 A 
ATOM     28  C   UNL A   1      39.917  22.369  26.433  1.00  0.00     0.032 A 
ATOM     29  C   UNL A   1      38.334  24.219  26.631  1.00  0.00     0.002 A 
ATOM     30  C   UNL A   1      39.611  23.688  26.818  1.00  0.00     0.002 A 
ENDBRANCH  21  22
ENDBRANCH  18  21
ENDBRANCH  15  18
ENDBRANCH   6   8
ENDBRANCH   5   6
ENDBRANCH   4   5
ENDBRANCH   3   4
ENDBRANCH   2   3
ENDBRANCH   1   2
BRANCH   1  31
ATOM     31  C   UNL A   1      31.522  29.899  24.728  1.00  0.00     0.188 C 
BRANCH  31  32
ATOM     32  O   UNL A   1      31.457  30.823  25.776  1.00  0.00    -0.376 OA
BRANCH  32  33
ATOM     33  C   UNL A   1      32.227  30.534  26.930  1.00  0.00     0.202 C 
BRANCH  33  34
ATOM     34  C   UNL A   1      33.769  30.757  27.027  1.00  0.00     0.261 C 
BRANCH  34  35
ATOM     35  O   UNL A   1      34.309  31.281  28.268  1.00  0.00    -0.460 OA
BRANCH  35  36
ATOM     36  C   UNL A   1      35.426  32.067  28.239  1.00  0.00     0.338 C 
ATOM     37  O   UNL A   1      35.457  33.268  28.442  1.00  0.00    -0.246 OA
BRANCH  36  38
ATOM     38  C   UNL A   1      36.646  31.169  28.288  1.00  0.00     0.060 A 
ATOM     39  C   UNL A   1      36.619  29.793  28.034  1.00  0.00     0.016 A 
ATOM     40  C   UNL A   1      37.781  31.701  28.920  1.00  0.00     0.016 A 
ATOM     41  C   UNL A   1      37.666  28.960  28.503  1.00  0.00     0.010 A 
ATOM     42  C   UNL A   1      38.801  30.866  29.416  1.00  0.00     0.010 A 
ATOM     43  C   UNL A   1      38.753  29.476  29.244  1.00  0.00    -0.014 A 
BRANCH  43  44
ATOM     44  C   UNL A   1      40.034  28.720  29.397  1.00  0.00     0.031 A 
ATOM     45  C   UNL A   1      40.343  28.566  30.821  1.00  0.00     0.074 A 
ATOM     46  C   UNL A   1      40.970  28.227  28.538  1.00  0.00     0.049 A 
ATOM     47  N   UNL A   1      41.282  29.252  31.380  1.00  0.00    -0.248 NA
ATOM     48  C   UNL A   1      39.475  27.844  31.746  1.00  0.00     0.031 C 
ATOM     49  C   UNL A   1      41.194  28.633  27.172  1.00  0.00     0.029 A 
ATOM     50  N   UNL A   1      41.984  27.273  28.713  1.00  0.00    -0.354 N 
ATOM     51  C   UNL A   1      41.294  28.858  32.697  1.00  0.00     0.074 A 
ATOM     52  C   UNL A   1      40.063  28.136  32.911  1.00  0.00     0.031 C 
ATOM     53  C   UNL A   1      42.112  27.835  26.582  1.00  0.00     0.029 A 
ATOM     54  C   UNL A   1      42.527  26.780  27.502  1.00  0.00     0.049 A 
ATOM     55  H   UNL A   1      42.291  26.973  29.600  1.00  0.00     0.167 HD
ATOM     56  C   UNL A   1      42.476  28.899  33.362  1.00  0.00     0.037 A 
ATOM     57  C   UNL A   1      43.698  26.141  27.200  1.00  0.00     0.037 A 
ATOM     58  C   UNL A   1      43.434  29.748  32.689  1.00  0.00     0.049 A 
ATOM     59  C   UNL A   1      44.726  26.711  28.086  1.00  0.00     0.074 A 
ATOM     60  C   UNL A   1      43.693  31.100  32.595  1.00  0.00     0.029 A 
ATOM     61  N   UNL A   1      44.053  29.155  31.623  1.00  0.00    -0.354 N 
ATOM     62  N   UNL A   1      45.221  27.902  27.924  1.00  0.00    -0.248 NA
ATOM     63  C   UNL A   1      44.947  26.085  29.386  1.00  0.00     0.031 C 
ATOM     64  C   UNL A   1      44.453  31.298  31.401  1.00  0.00     0.029 A 
ATOM     65  C   UNL A   1      44.686  30.062  30.816  1.00  0.00     0.049 A 
ATOM     66  H   UNL A   1      44.045  28.185  31.455  1.00  0.00     0.167 HD
ATOM     67  C   UNL A   1      45.396  28.342  29.217  1.00  0.00     0.074 A 
ATOM     68  C   UNL A   1      45.370  27.154  30.060  1.00  0.00     0.031 C 
ATOM     69  C   UNL A   1      45.193  29.647  29.535  1.00  0.00     0.037 A 
BRANCH  56  70
ATOM     70  C   UNL A   1      42.917  27.798  34.287  1.00  0.00     0.064 A 
ATOM     71  C   UNL A   1      43.148  28.087  35.643  1.00  0.00     0.173 A 
ATOM     72  C   UNL A   1      43.404  26.550  33.835  1.00  0.00     0.173 A 
ATOM     73  F   UNL A   1      42.784  29.271  36.160  1.00  0.00    -0.203 F 
ATOM     74  C   UNL A   1      43.833  27.198  36.477  1.00  0.00     0.198 A 
ATOM     75  C   UNL A   1      44.038  25.645  34.681  1.00  0.00     0.198 A 
ATOM     76  F   UNL A   1      43.400  26.209  32.541  1.00  0.00    -0.203 F 
ATOM     77  F   UNL A   1      44.120  27.555  37.737  1.00  0.00    -0.200 F 
ATOM     78  C   UNL A   1      44.270  25.977  35.998  1.00  0.00     0.200 A 
ATOM     79  F   UNL A   1      44.491  24.486  34.183  1.00  0.00    -0.200 F 
ATOM     80  F   UNL A   1      44.962  25.142  36.785  1.00  0.00    -0.200 F 
ENDBRANCH  56  70
BRANCH  57  81
ATOM     81  C   UNL A   1      43.837  24.735  26.699  1.00  0.00     0.064 A 
ATOM     82  C   UNL A   1      43.319  23.649  27.439  1.00  0.00     0.173 A 
ATOM     83  C   UNL A   1      44.377  24.417  25.444  1.00  0.00     0.173 A 
ATOM     84  F   UNL A   1      42.831  23.846  28.674  1.00  0.00    -0.203 F 
ATOM     85  C   UNL A   1      43.262  22.349  26.919  1.00  0.00     0.198 A 
ATOM     86  C   UNL A   1      44.313  23.119  24.919  1.00  0.00     0.198 A 
ATOM     87  F   UNL A   1      44.940  25.371  24.686  1.00  0.00    -0.203 F 
ATOM     88  F   UNL A   1      42.712  21.359  27.637  1.00  0.00    -0.200 F 
ATOM     89  C   UNL A   1      43.736  22.091  25.647  1.00  0.00     0.200 A 
ATOM     90  F   UNL A   1      44.782  22.876  23.687  1.00  0.00    -0.200 F 
ATOM     91  F   UNL A   1      43.624  20.865  25.116  1.00  0.00    -0.200 F 
ENDBRANCH  57  81
BRANCH  69  92
ATOM     92  C   UNL A   1      45.397  30.661  28.460  1.00  0.00     0.064 A 
ATOM     93  C   UNL A   1      44.371  31.234  27.701  1.00  0.00     0.173 A 
ATOM     94  C   UNL A   1      46.697  31.127  28.244  1.00  0.00     0.173 A 
ATOM     95  F   UNL A   1      43.100  30.893  27.910  1.00  0.00    -0.203 F 
ATOM     96  C   UNL A   1      44.636  32.212  26.742  1.00  0.00     0.198 A 
ATOM     97  C   UNL A   1      46.960  32.130  27.317  1.00  0.00     0.198 A 
ATOM     98  F   UNL A   1      47.713  30.631  28.968  1.00  0.00    -0.203 F 
ATOM     99  F   UNL A   1      43.635  32.732  26.015  1.00  0.00    -0.200 F 
ATOM    100  C   UNL A   1      45.930  32.667  26.559  1.00  0.00     0.200 A 
ATOM    101  F   UNL A   1      48.208  32.595  27.177  1.00  0.00    -0.200 F 
ATOM    102  F   UNL A   1      46.185  33.638  25.671  1.00  0.00    -0.200 F 
ENDBRANCH  69  92
ENDBRANCH  43  44
ENDBRANCH  36  38
ENDBRANCH  35  36
ENDBRANCH  34  35
ENDBRANCH  33  34
ENDBRANCH  32  33
ENDBRANCH  31  32
ENDBRANCH   1  31
TORSDOF 20
ENDMDL
