MODEL 1
REMARK VINA RESULT:     -10.9      0.000      0.000
REMARK SMILES O=C(CCc1cccnc1)Nc1ccsc1C(=O)OCCOCCOCCOC(=O)c1ccc(-c2c3nc(c(-c4c(F)c(F)c(F)c(F)c4F)c4ccc([nH]4)c(-c4c(F)c(F)c(F)c(F)c4F)c4nc(c(-c5c(F)c(F)c(F)c(F)c5F)c5ccc2[nH]5)C=C4)C=C3)cc1
REMARK SMILES IDX 23 1 22 2 21 3 20 4 19 5 17 6 18 7 16 8 12 9 13 10 14 11
REMARK SMILES IDX 15 12 11 13 1 14 2 15 3 17 4 18 5 19 6 20 10 21 7 22 9 23
REMARK SMILES IDX 8 24 24 25 25 26 26 27 27 28 28 29 29 30 30 31 31 32 32 33
REMARK SMILES IDX 93 34 33 35 92 36 34 37 35 38 36 39 86 40 37 41 91 42 85 43
REMARK SMILES IDX 87 44 38 45 90 46 84 47 83 48 39 50 71 51 51 52 70 53 52 54
REMARK SMILES IDX 55 55 69 56 88 57 53 58 54 59 68 61 89 62 56 63 40 64 41 65
REMARK SMILES IDX 49 66 42 67 43 68 47 69 50 70 44 71 45 72 48 73 46 74 72 75
REMARK SMILES IDX 73 76 81 77 74 78 75 79 79 80 82 81 76 82 77 83 80 84 78 85
REMARK SMILES IDX 57 86 58 87 66 88 59 89 60 90 64 91 67 92 61 93 62 94 65 95
REMARK SMILES IDX 63 96
REMARK H PARENT 11 16 87 49 55 60
REMARK Flexibility Score: inf
ROOT
ATOM      1  C   UNL A   1      33.851  28.917  26.424  1.00  0.00     0.188 C 
ENDROOT
BRANCH   1   2
ATOM      2  O   UNL A   1      33.183  27.806  27.007  1.00  0.00    -0.376 OA
BRANCH   2   3
ATOM      3  C   UNL A   1      32.339  27.006  26.186  1.00  0.00     0.202 C 
BRANCH   3   4
ATOM      4  C   UNL A   1      32.195  25.535  26.583  1.00  0.00     0.261 C 
BRANCH   4   5
ATOM      5  O   UNL A   1      30.839  25.057  26.463  1.00  0.00    -0.459 OA
BRANCH   5   6
ATOM      6  C   UNL A   1      30.704  23.697  26.519  1.00  0.00     0.350 C 
ATOM      7  O   UNL A   1      30.133  23.106  27.429  1.00  0.00    -0.245 OA
BRANCH   6   8
ATOM      8  C   UNL A   1      31.223  23.081  25.310  1.00  0.00     0.136 A 
ATOM      9  C   UNL A   1      31.053  23.374  23.960  1.00  0.00     0.066 A 
ATOM     10  C   UNL A   1      31.776  22.447  23.140  1.00  0.00     0.039 A 
ATOM     11  C   UNL A   1      32.455  21.497  23.866  1.00  0.00     0.068 A 
ATOM     12  S   UNL A   1      32.252  21.716  25.538  1.00  0.00    -0.135 S 
BRANCH   9  13
ATOM     13  N   UNL A   1      30.311  24.466  23.506  1.00  0.00    -0.325 N 
ATOM     14  O   UNL A   1      32.024  25.885  22.851  1.00  0.00    -0.275 OA
ATOM     15  C   UNL A   1      30.837  25.678  23.102  1.00  0.00     0.224 C 
ATOM     16  H   UNL A   1      29.332  24.365  23.472  1.00  0.00     0.169 HD
BRANCH  15  17
ATOM     17  C   UNL A   1      29.874  26.861  23.121  1.00  0.00     0.105 C 
BRANCH  17  18
ATOM     18  C   UNL A   1      30.469  28.263  23.211  1.00  0.00     0.047 C 
BRANCH  18  19
ATOM     19  C   UNL A   1      29.525  29.440  23.272  1.00  0.00    -0.029 A 
ATOM     20  C   UNL A   1      29.841  30.692  23.809  1.00  0.00     0.007 A 
ATOM     21  C   UNL A   1      28.236  29.285  22.763  1.00  0.00     0.114 A 
ATOM     22  C   UNL A   1      28.872  31.688  23.874  1.00  0.00     0.020 A 
ATOM     23  N   UNL A   1      27.280  30.240  22.797  1.00  0.00    -0.264 NA
ATOM     24  C   UNL A   1      27.619  31.420  23.354  1.00  0.00     0.111 A 
ENDBRANCH  18  19
ENDBRANCH  17  18
ENDBRANCH  15  17
ENDBRANCH   9  13
ENDBRANCH   6   8
ENDBRANCH   5   6
ENDBRANCH   4   5
ENDBRANCH   3   4
ENDBRANCH   2   3
ENDBRANCH   1   2
BRANCH   1  25
ATOM     25  C   UNL A   1      33.046  30.179  26.057  1.00  0.00     0.188 C 
BRANCH  25  26
ATOM     26  O   UNL A   1      32.166  30.646  27.068  1.00  0.00    -0.376 OA
BRANCH  26  27
ATOM     27  C   UNL A   1      31.642  31.953  26.861  1.00  0.00     0.202 C 
BRANCH  27  28
ATOM     28  C   UNL A   1      32.610  33.074  27.253  1.00  0.00     0.261 C 
BRANCH  28  29
ATOM     29  O   UNL A   1      32.157  33.907  28.333  1.00  0.00    -0.460 OA
BRANCH  29  30
ATOM     30  C   UNL A   1      32.960  34.927  28.713  1.00  0.00     0.338 C 
ATOM     31  O   UNL A   1      32.702  36.115  28.700  1.00  0.00    -0.246 OA
BRANCH  30  32
ATOM     32  C   UNL A   1      34.150  34.323  29.347  1.00  0.00     0.060 A 
ATOM     33  C   UNL A   1      33.977  33.448  30.427  1.00  0.00     0.016 A 
ATOM     34  C   UNL A   1      35.424  34.562  28.825  1.00  0.00     0.016 A 
ATOM     35  C   UNL A   1      35.084  32.793  30.976  1.00  0.00     0.010 A 
ATOM     36  C   UNL A   1      36.530  33.928  29.392  1.00  0.00     0.010 A 
ATOM     37  C   UNL A   1      36.368  33.044  30.472  1.00  0.00    -0.014 A 
BRANCH  37  38
ATOM     38  C   UNL A   1      37.570  32.484  31.132  1.00  0.00     0.031 A 
ATOM     39  C   UNL A   1      38.294  31.347  30.473  1.00  0.00     0.074 A 
ATOM     40  C   UNL A   1      37.980  32.942  32.329  1.00  0.00     0.049 A 
ATOM     41  N   UNL A   1      39.293  30.629  30.916  1.00  0.00    -0.248 NA
ATOM     42  C   UNL A   1      37.825  30.969  29.130  1.00  0.00     0.031 C 
ATOM     43  C   UNL A   1      37.381  34.058  33.058  1.00  0.00     0.029 A 
ATOM     44  N   UNL A   1      38.986  32.501  33.152  1.00  0.00    -0.354 N 
ATOM     45  C   UNL A   1      39.574  29.717  29.910  1.00  0.00     0.074 A 
ATOM     46  C   UNL A   1      38.629  29.957  28.840  1.00  0.00     0.031 C 
ATOM     47  C   UNL A   1      38.015  34.197  34.235  1.00  0.00     0.029 A 
ATOM     48  C   UNL A   1      39.038  33.159  34.357  1.00  0.00     0.049 A 
ATOM     49  H   UNL A   1      39.612  31.783  32.903  1.00  0.00     0.167 HD
ATOM     50  C   UNL A   1      40.537  28.766  29.881  1.00  0.00     0.037 A 
ATOM     51  C   UNL A   1      39.799  32.923  35.444  1.00  0.00     0.037 A 
ATOM     52  C   UNL A   1      41.464  28.512  30.950  1.00  0.00     0.049 A 
ATOM     53  C   UNL A   1      40.787  31.784  35.429  1.00  0.00     0.074 A 
ATOM     54  C   UNL A   1      42.499  27.597  30.995  1.00  0.00     0.029 A 
ATOM     55  N   UNL A   1      41.450  29.163  32.173  1.00  0.00    -0.354 N 
ATOM     56  N   UNL A   1      41.079  30.953  34.458  1.00  0.00    -0.248 NA
ATOM     57  C   UNL A   1      41.541  31.541  36.669  1.00  0.00     0.031 C 
ATOM     58  C   UNL A   1      43.081  27.659  32.265  1.00  0.00     0.029 A 
ATOM     59  C   UNL A   1      42.433  28.641  32.997  1.00  0.00     0.049 A 
ATOM     60  H   UNL A   1      40.833  29.889  32.420  1.00  0.00     0.167 HD
ATOM     61  C   UNL A   1      42.056  30.103  34.961  1.00  0.00     0.074 A 
ATOM     62  C   UNL A   1      42.318  30.525  36.321  1.00  0.00     0.031 C 
ATOM     63  C   UNL A   1      42.677  29.064  34.352  1.00  0.00     0.037 A 
BRANCH  50  64
ATOM     64  C   UNL A   1      40.617  27.909  28.655  1.00  0.00     0.064 A 
ATOM     65  C   UNL A   1      39.904  26.704  28.558  1.00  0.00     0.173 A 
ATOM     66  C   UNL A   1      41.387  28.312  27.557  1.00  0.00     0.173 A 
ATOM     67  F   UNL A   1      39.166  26.271  29.591  1.00  0.00    -0.203 F 
ATOM     68  C   UNL A   1      39.978  25.923  27.408  1.00  0.00     0.198 A 
ATOM     69  C   UNL A   1      41.441  27.539  26.400  1.00  0.00     0.198 A 
ATOM     70  F   UNL A   1      42.086  29.456  27.603  1.00  0.00    -0.203 F 
ATOM     71  F   UNL A   1      39.320  24.757  27.348  1.00  0.00    -0.200 F 
ATOM     72  C   UNL A   1      40.741  26.344  26.328  1.00  0.00     0.200 A 
ATOM     73  F   UNL A   1      42.174  27.950  25.355  1.00  0.00    -0.200 F 
ATOM     74  F   UNL A   1      40.808  25.593  25.221  1.00  0.00    -0.200 F 
ENDBRANCH  50  64
BRANCH  51  75
ATOM     75  C   UNL A   1      39.632  33.755  36.664  1.00  0.00     0.064 A 
ATOM     76  C   UNL A   1      38.801  33.340  37.713  1.00  0.00     0.173 A 
ATOM     77  C   UNL A   1      40.273  34.996  36.789  1.00  0.00     0.173 A 
ATOM     78  F   UNL A   1      38.138  32.177  37.622  1.00  0.00    -0.203 F 
ATOM     79  C   UNL A   1      38.608  34.140  38.837  1.00  0.00     0.198 A 
ATOM     80  C   UNL A   1      40.099  35.784  37.925  1.00  0.00     0.198 A 
ATOM     81  F   UNL A   1      41.067  35.444  35.806  1.00  0.00    -0.203 F 
ATOM     82  F   UNL A   1      37.773  33.742  39.806  1.00  0.00    -0.200 F 
ATOM     83  C   UNL A   1      39.261  35.359  38.944  1.00  0.00     0.200 A 
ATOM     84  F   UNL A   1      40.733  36.960  38.025  1.00  0.00    -0.200 F 
ATOM     85  F   UNL A   1      39.073  36.129  40.025  1.00  0.00    -0.200 F 
ENDBRANCH  51  75
BRANCH  63  86
ATOM     86  C   UNL A   1      43.704  28.309  35.142  1.00  0.00     0.064 A 
ATOM     87  C   UNL A   1      43.354  27.198  35.921  1.00  0.00     0.173 A 
ATOM     88  C   UNL A   1      45.061  28.662  35.071  1.00  0.00     0.173 A 
ATOM     89  F   UNL A   1      42.067  26.831  36.032  1.00  0.00    -0.203 F 
ATOM     90  C   UNL A   1      44.322  26.473  36.610  1.00  0.00     0.198 A 
ATOM     91  C   UNL A   1      46.029  27.921  35.741  1.00  0.00     0.198 A 
ATOM     92  F   UNL A   1      45.448  29.715  34.334  1.00  0.00    -0.203 F 
ATOM     93  F   UNL A   1      43.961  25.432  37.372  1.00  0.00    -0.200 F 
ATOM     94  C   UNL A   1      45.659  26.829  36.512  1.00  0.00     0.200 A 
ATOM     95  F   UNL A   1      47.322  28.259  35.637  1.00  0.00    -0.200 F 
ATOM     96  F   UNL A   1      46.592  26.121  37.166  1.00  0.00    -0.200 F 
ENDBRANCH  63  86
ENDBRANCH  37  38
ENDBRANCH  30  32
ENDBRANCH  29  30
ENDBRANCH  28  29
ENDBRANCH  27  28
ENDBRANCH  26  27
ENDBRANCH  25  26
ENDBRANCH   1  25
TORSDOF 21
ENDMDL
MODEL 2
REMARK VINA RESULT:     -10.5      4.793     10.093
REMARK SMILES O=C(CCc1cccnc1)Nc1ccsc1C(=O)OCCOCCOCCOC(=O)c1ccc(-c2c3nc(c(-c4c(F)c(F)c(F)c(F)c4F)c4ccc([nH]4)c(-c4c(F)c(F)c(F)c(F)c4F)c4nc(c(-c5c(F)c(F)c(F)c(F)c5F)c5ccc2[nH]5)C=C4)C=C3)cc1
REMARK SMILES IDX 23 1 22 2 21 3 20 4 19 5 17 6 18 7 16 8 12 9 13 10 14 11
REMARK SMILES IDX 15 12 11 13 1 14 2 15 3 17 4 18 5 19 6 20 10 21 7 22 9 23
REMARK SMILES IDX 8 24 24 25 25 26 26 27 27 28 28 29 29 30 30 31 31 32 32 33
REMARK SMILES IDX 93 34 33 35 92 36 34 37 35 38 36 39 86 40 37 41 91 42 85 43
REMARK SMILES IDX 87 44 38 45 90 46 84 47 83 48 39 50 71 51 51 52 70 53 52 54
REMARK SMILES IDX 55 55 69 56 88 57 53 58 54 59 68 61 89 62 56 63 40 64 41 65
REMARK SMILES IDX 49 66 42 67 43 68 47 69 50 70 44 71 45 72 48 73 46 74 72 75
REMARK SMILES IDX 73 76 81 77 74 78 75 79 79 80 82 81 76 82 77 83 80 84 78 85
REMARK SMILES IDX 57 86 58 87 66 88 59 89 60 90 64 91 67 92 61 93 62 94 65 95
REMARK SMILES IDX 63 96
REMARK H PARENT 11 16 87 49 55 60
REMARK Flexibility Score: inf
ROOT
ATOM      1  C   UNL A   1      32.323  20.375  24.626  1.00  0.00     0.188 C 
ENDROOT
BRANCH   1   2
ATOM      2  O   UNL A   1      32.075  20.576  23.240  1.00  0.00    -0.376 OA
BRANCH   2   3
ATOM      3  C   UNL A   1      32.367  21.846  22.668  1.00  0.00     0.202 C 
BRANCH   3   4
ATOM      4  C   UNL A   1      32.002  23.072  23.507  1.00  0.00     0.261 C 
BRANCH   4   5
ATOM      5  O   UNL A   1      31.966  24.286  22.729  1.00  0.00    -0.459 OA
BRANCH   5   6
ATOM      6  C   UNL A   1      32.972  25.172  23.002  1.00  0.00     0.350 C 
ATOM      7  O   UNL A   1      33.927  25.370  22.259  1.00  0.00    -0.245 OA
BRANCH   6   8
ATOM      8  C   UNL A   1      32.686  25.910  24.221  1.00  0.00     0.136 A 
ATOM      9  C   UNL A   1      31.562  26.607  24.654  1.00  0.00     0.066 A 
ATOM     10  C   UNL A   1      31.784  27.185  25.947  1.00  0.00     0.039 A 
ATOM     11  C   UNL A   1      33.038  26.924  26.448  1.00  0.00     0.068 A 
ATOM     12  S   UNL A   1      33.955  25.967  25.386  1.00  0.00    -0.135 S 
BRANCH   9  13
ATOM     13  N   UNL A   1      30.375  26.669  23.920  1.00  0.00    -0.325 N 
ATOM     14  O   UNL A   1      30.350  28.920  23.365  1.00  0.00    -0.275 OA
ATOM     15  C   UNL A   1      29.793  27.824  23.435  1.00  0.00     0.224 C 
ATOM     16  H   UNL A   1      29.915  25.819  23.733  1.00  0.00     0.169 HD
BRANCH  15  17
ATOM     17  C   UNL A   1      28.305  27.735  23.111  1.00  0.00     0.105 C 
BRANCH  17  18
ATOM     18  C   UNL A   1      27.429  28.938  23.446  1.00  0.00     0.047 C 
BRANCH  18  19
ATOM     19  C   UNL A   1      27.681  30.234  22.713  1.00  0.00    -0.029 A 
ATOM     20  C   UNL A   1      27.938  30.341  21.343  1.00  0.00     0.007 A 
ATOM     21  C   UNL A   1      27.664  31.424  23.442  1.00  0.00     0.114 A 
ATOM     22  C   UNL A   1      28.222  31.583  20.781  1.00  0.00     0.020 A 
ATOM     23  N   UNL A   1      27.918  32.644  22.920  1.00  0.00    -0.264 NA
ATOM     24  C   UNL A   1      28.193  32.696  21.601  1.00  0.00     0.111 A 
ENDBRANCH  18  19
ENDBRANCH  17  18
ENDBRANCH  15  17
ENDBRANCH   9  13
ENDBRANCH   6   8
ENDBRANCH   5   6
ENDBRANCH   4   5
ENDBRANCH   3   4
ENDBRANCH   2   3
ENDBRANCH   1   2
BRANCH   1  25
ATOM     25  C   UNL A   1      33.687  19.817  25.079  1.00  0.00     0.188 C 
BRANCH  25  26
ATOM     26  O   UNL A   1      34.571  20.776  25.641  1.00  0.00    -0.376 OA
BRANCH  26  27
ATOM     27  C   UNL A   1      35.511  21.340  24.733  1.00  0.00     0.202 C 
BRANCH  27  28
ATOM     28  C   UNL A   1      36.957  20.910  24.998  1.00  0.00     0.261 C 
BRANCH  28  29
ATOM     29  O   UNL A   1      37.716  21.823  25.807  1.00  0.00    -0.460 OA
BRANCH  29  30
ATOM     30  C   UNL A   1      38.956  21.437  26.187  1.00  0.00     0.338 C 
ATOM     31  O   UNL A   1      39.452  20.333  26.078  1.00  0.00    -0.246 OA
BRANCH  30  32
ATOM     32  C   UNL A   1      39.685  22.661  26.581  1.00  0.00     0.060 A 
ATOM     33  C   UNL A   1      39.262  23.898  26.078  1.00  0.00     0.016 A 
ATOM     34  C   UNL A   1      40.731  22.591  27.504  1.00  0.00     0.016 A 
ATOM     35  C   UNL A   1      39.879  25.074  26.515  1.00  0.00     0.010 A 
ATOM     36  C   UNL A   1      41.363  23.765  27.918  1.00  0.00     0.010 A 
ATOM     37  C   UNL A   1      40.943  25.011  27.425  1.00  0.00    -0.014 A 
BRANCH  37  38
ATOM     38  C   UNL A   1      41.712  26.225  27.785  1.00  0.00     0.031 A 
ATOM     39  C   UNL A   1      41.024  27.315  28.553  1.00  0.00     0.074 A 
ATOM     40  C   UNL A   1      42.987  26.381  27.387  1.00  0.00     0.049 A 
ATOM     41  N   UNL A   1      41.459  28.505  28.876  1.00  0.00    -0.248 NA
ATOM     42  C   UNL A   1      39.658  27.023  29.015  1.00  0.00     0.031 C 
ATOM     43  C   UNL A   1      43.775  25.387  26.662  1.00  0.00     0.029 A 
ATOM     44  N   UNL A   1      43.835  27.455  27.517  1.00  0.00    -0.354 N 
ATOM     45  C   UNL A   1      40.425  29.103  29.582  1.00  0.00     0.074 A 
ATOM     46  C   UNL A   1      39.333  28.153  29.623  1.00  0.00     0.031 C 
ATOM     47  C   UNL A   1      44.985  25.907  26.387  1.00  0.00     0.029 A 
ATOM     48  C   UNL A   1      45.041  27.282  26.884  1.00  0.00     0.049 A 
ATOM     49  H   UNL A   1      43.600  28.269  28.017  1.00  0.00     0.167 HD
ATOM     50  C   UNL A   1      40.391  30.332  30.147  1.00  0.00     0.037 A 
ATOM     51  C   UNL A   1      46.056  28.148  26.696  1.00  0.00     0.037 A 
ATOM     52  C   UNL A   1      41.466  31.284  30.091  1.00  0.00     0.049 A 
ATOM     53  C   UNL A   1      45.948  29.551  27.238  1.00  0.00     0.074 A 
ATOM     54  C   UNL A   1      41.539  32.538  30.668  1.00  0.00     0.029 A 
ATOM     55  N   UNL A   1      42.650  31.092  29.396  1.00  0.00    -0.354 N 
ATOM     56  N   UNL A   1      44.986  30.095  27.943  1.00  0.00    -0.248 NA
ATOM     57  C   UNL A   1      47.063  30.466  26.944  1.00  0.00     0.031 C 
ATOM     58  C   UNL A   1      42.747  33.127  30.280  1.00  0.00     0.029 A 
ATOM     59  C   UNL A   1      43.444  32.223  29.495  1.00  0.00     0.049 A 
ATOM     60  H   UNL A   1      42.891  30.274  28.906  1.00  0.00     0.167 HD
ATOM     61  C   UNL A   1      45.383  31.403  28.189  1.00  0.00     0.074 A 
ATOM     62  C   UNL A   1      46.680  31.570  27.569  1.00  0.00     0.031 C 
ATOM     63  C   UNL A   1      44.730  32.379  28.865  1.00  0.00     0.037 A 
BRANCH  50  64
ATOM     64  C   UNL A   1      39.132  30.726  30.857  1.00  0.00     0.064 A 
ATOM     65  C   UNL A   1      38.065  31.327  30.173  1.00  0.00     0.173 A 
ATOM     66  C   UNL A   1      38.980  30.471  32.226  1.00  0.00     0.173 A 
ATOM     67  F   UNL A   1      38.172  31.605  28.865  1.00  0.00    -0.203 F 
ATOM     68  C   UNL A   1      36.896  31.678  30.842  1.00  0.00     0.198 A 
ATOM     69  C   UNL A   1      37.801  30.802  32.888  1.00  0.00     0.198 A 
ATOM     70  F   UNL A   1      39.973  29.897  32.922  1.00  0.00    -0.203 F 
ATOM     71  F   UNL A   1      35.902  32.285  30.179  1.00  0.00    -0.200 F 
ATOM     72  C   UNL A   1      36.763  31.409  32.197  1.00  0.00     0.200 A 
ATOM     73  F   UNL A   1      37.671  30.537  34.195  1.00  0.00    -0.200 F 
ATOM     74  F   UNL A   1      35.635  31.743  32.839  1.00  0.00    -0.200 F 
ENDBRANCH  50  64
BRANCH  51  75
ATOM     75  C   UNL A   1      47.255  27.734  25.921  1.00  0.00     0.064 A 
ATOM     76  C   UNL A   1      47.254  27.758  24.521  1.00  0.00     0.173 A 
ATOM     77  C   UNL A   1      48.412  27.273  26.567  1.00  0.00     0.173 A 
ATOM     78  F   UNL A   1      46.157  28.156  23.859  1.00  0.00    -0.203 F 
ATOM     79  C   UNL A   1      48.361  27.327  23.794  1.00  0.00     0.198 A 
ATOM     80  C   UNL A   1      49.528  26.865  25.838  1.00  0.00     0.198 A 
ATOM     81  F   UNL A   1      48.457  27.217  27.906  1.00  0.00    -0.203 F 
ATOM     82  F   UNL A   1      48.319  27.317  22.454  1.00  0.00    -0.200 F 
ATOM     83  C   UNL A   1      49.499  26.886  24.453  1.00  0.00     0.200 A 
ATOM     84  F   UNL A   1      50.625  26.441  26.480  1.00  0.00    -0.200 F 
ATOM     85  F   UNL A   1      50.563  26.469  23.752  1.00  0.00    -0.200 F 
ENDBRANCH  51  75
BRANCH  63  86
ATOM     86  C   UNL A   1      45.402  33.715  28.978  1.00  0.00     0.064 A 
ATOM     87  C   UNL A   1      45.097  34.762  28.097  1.00  0.00     0.173 A 
ATOM     88  C   UNL A   1      46.313  33.971  30.015  1.00  0.00     0.173 A 
ATOM     89  F   UNL A   1      44.244  34.561  27.080  1.00  0.00    -0.203 F 
ATOM     90  C   UNL A   1      45.688  36.014  28.242  1.00  0.00     0.198 A 
ATOM     91  C   UNL A   1      46.883  35.231  30.172  1.00  0.00     0.198 A 
ATOM     92  F   UNL A   1      46.633  33.003  30.887  1.00  0.00    -0.203 F 
ATOM     93  F   UNL A   1      45.405  36.992  27.371  1.00  0.00    -0.200 F 
ATOM     94  C   UNL A   1      46.573  36.250  29.283  1.00  0.00     0.200 A 
ATOM     95  F   UNL A   1      47.730  35.461  31.185  1.00  0.00    -0.200 F 
ATOM     96  F   UNL A   1      47.131  37.460  29.429  1.00  0.00    -0.200 F 
ENDBRANCH  63  86
ENDBRANCH  37  38
ENDBRANCH  30  32
ENDBRANCH  29  30
ENDBRANCH  28  29
ENDBRANCH  27  28
ENDBRANCH  26  27
ENDBRANCH  25  26
ENDBRANCH   1  25
TORSDOF 21
ENDMDL
MODEL 3
REMARK VINA RESULT:     -10.5      1.175      2.154
REMARK SMILES O=C(CCc1cccnc1)Nc1ccsc1C(=O)OCCOCCOCCOC(=O)c1ccc(-c2c3nc(c(-c4c(F)c(F)c(F)c(F)c4F)c4ccc([nH]4)c(-c4c(F)c(F)c(F)c(F)c4F)c4nc(c(-c5c(F)c(F)c(F)c(F)c5F)c5ccc2[nH]5)C=C4)C=C3)cc1
REMARK SMILES IDX 23 1 22 2 21 3 20 4 19 5 17 6 18 7 16 8 12 9 13 10 14 11
REMARK SMILES IDX 15 12 11 13 1 14 2 15 3 17 4 18 5 19 6 20 10 21 7 22 9 23
REMARK SMILES IDX 8 24 24 25 25 26 26 27 27 28 28 29 29 30 30 31 31 32 32 33
REMARK SMILES IDX 93 34 33 35 92 36 34 37 35 38 36 39 86 40 37 41 91 42 85 43
REMARK SMILES IDX 87 44 38 45 90 46 84 47 83 48 39 50 71 51 51 52 70 53 52 54
REMARK SMILES IDX 55 55 69 56 88 57 53 58 54 59 68 61 89 62 56 63 40 64 41 65
REMARK SMILES IDX 49 66 42 67 43 68 47 69 50 70 44 71 45 72 48 73 46 74 72 75
REMARK SMILES IDX 73 76 81 77 74 78 75 79 79 80 82 81 76 82 77 83 80 84 78 85
REMARK SMILES IDX 57 86 58 87 66 88 59 89 60 90 64 91 67 92 61 93 62 94 65 95
REMARK SMILES IDX 63 96
REMARK H PARENT 11 16 87 49 55 60
REMARK Flexibility Score: inf
ROOT
ATOM      1  C   UNL A   1      33.312  29.718  25.981  1.00  0.00     0.188 C 
ENDROOT
BRANCH   1   2
ATOM      2  O   UNL A   1      33.722  28.568  26.709  1.00  0.00    -0.376 OA
BRANCH   2   3
ATOM      3  C   UNL A   1      33.042  27.337  26.486  1.00  0.00     0.202 C 
BRANCH   3   4
ATOM      4  C   UNL A   1      33.647  26.404  25.435  1.00  0.00     0.261 C 
BRANCH   4   5
ATOM      5  O   UNL A   1      33.867  25.070  25.937  1.00  0.00    -0.459 OA
BRANCH   5   6
ATOM      6  C   UNL A   1      34.240  24.156  24.990  1.00  0.00     0.350 C 
ATOM      7  O   UNL A   1      35.217  24.288  24.262  1.00  0.00    -0.245 OA
BRANCH   6   8
ATOM      8  C   UNL A   1      33.392  22.977  25.055  1.00  0.00     0.136 A 
ATOM      9  C   UNL A   1      32.023  22.817  25.249  1.00  0.00     0.066 A 
ATOM     10  C   UNL A   1      31.664  21.429  25.246  1.00  0.00     0.039 A 
ATOM     11  C   UNL A   1      32.740  20.593  25.060  1.00  0.00     0.068 A 
ATOM     12  S   UNL A   1      34.187  21.460  24.866  1.00  0.00    -0.135 S 
BRANCH   9  13
ATOM     13  N   UNL A   1      31.140  23.893  25.374  1.00  0.00    -0.325 N 
ATOM     14  O   UNL A   1      30.513  24.170  23.158  1.00  0.00    -0.275 OA
ATOM     15  C   UNL A   1      30.547  24.566  24.323  1.00  0.00     0.224 C 
ATOM     16  H   UNL A   1      30.924  24.197  26.284  1.00  0.00     0.169 HD
BRANCH  15  17
ATOM     17  C   UNL A   1      30.036  25.969  24.636  1.00  0.00     0.105 C 
BRANCH  17  18
ATOM     18  C   UNL A   1      28.786  26.452  23.907  1.00  0.00     0.047 C 
BRANCH  18  19
ATOM     19  C   UNL A   1      28.835  27.791  23.209  1.00  0.00    -0.029 A 
ATOM     20  C   UNL A   1      27.764  28.686  23.121  1.00  0.00     0.007 A 
ATOM     21  C   UNL A   1      30.027  28.179  22.600  1.00  0.00     0.114 A 
ATOM     22  C   UNL A   1      27.899  29.866  22.396  1.00  0.00     0.020 A 
ATOM     23  N   UNL A   1      30.193  29.327  21.906  1.00  0.00    -0.264 NA
ATOM     24  C   UNL A   1      29.124  30.144  21.818  1.00  0.00     0.111 A 
ENDBRANCH  18  19
ENDBRANCH  17  18
ENDBRANCH  15  17
ENDBRANCH   9  13
ENDBRANCH   6   8
ENDBRANCH   5   6
ENDBRANCH   4   5
ENDBRANCH   3   4
ENDBRANCH   2   3
ENDBRANCH   1   2
BRANCH   1  25
ATOM     25  C   UNL A   1      31.864  29.810  25.460  1.00  0.00     0.188 C 
BRANCH  25  26
ATOM     26  O   UNL A   1      31.222  31.056  25.687  1.00  0.00    -0.376 OA
BRANCH  26  27
ATOM     27  C   UNL A   1      31.479  31.650  26.955  1.00  0.00     0.202 C 
BRANCH  27  28
ATOM     28  C   UNL A   1      31.791  33.148  26.881  1.00  0.00     0.261 C 
BRANCH  28  29
ATOM     29  O   UNL A   1      33.134  33.499  27.253  1.00  0.00    -0.460 OA
BRANCH  29  30
ATOM     30  C   UNL A   1      33.299  34.216  28.389  1.00  0.00     0.338 C 
ATOM     31  O   UNL A   1      32.536  35.035  28.863  1.00  0.00    -0.246 OA
BRANCH  30  32
ATOM     32  C   UNL A   1      34.493  33.674  29.070  1.00  0.00     0.060 A 
ATOM     33  C   UNL A   1      35.751  34.212  28.770  1.00  0.00     0.016 A 
ATOM     34  C   UNL A   1      34.358  32.694  30.055  1.00  0.00     0.016 A 
ATOM     35  C   UNL A   1      36.879  33.779  29.474  1.00  0.00     0.010 A 
ATOM     36  C   UNL A   1      35.489  32.244  30.738  1.00  0.00     0.010 A 
ATOM     37  C   UNL A   1      36.755  32.780  30.450  1.00  0.00    -0.014 A 
BRANCH  37  38
ATOM     38  C   UNL A   1      37.951  32.196  31.100  1.00  0.00     0.031 A 
ATOM     39  C   UNL A   1      38.699  31.106  30.390  1.00  0.00     0.074 A 
ATOM     40  C   UNL A   1      38.333  32.588  32.328  1.00  0.00     0.049 A 
ATOM     41  N   UNL A   1      39.697  30.374  30.810  1.00  0.00    -0.248 NA
ATOM     42  C   UNL A   1      38.259  30.801  29.019  1.00  0.00     0.031 C 
ATOM     43  C   UNL A   1      37.709  33.654  33.109  1.00  0.00     0.029 A 
ATOM     44  N   UNL A   1      39.330  32.110  33.144  1.00  0.00    -0.354 N 
ATOM     45  C   UNL A   1      40.008  29.524  29.759  1.00  0.00     0.074 A 
ATOM     46  C   UNL A   1      39.080  29.816  28.687  1.00  0.00     0.031 C 
ATOM     47  C   UNL A   1      38.320  33.731  34.304  1.00  0.00     0.029 A 
ATOM     48  C   UNL A   1      39.353  32.698  34.385  1.00  0.00     0.049 A 
ATOM     49  H   UNL A   1      39.968  31.414  32.865  1.00  0.00     0.167 HD
ATOM     50  C   UNL A   1      40.981  28.586  29.693  1.00  0.00     0.037 A 
ATOM     51  C   UNL A   1      40.096  32.408  35.471  1.00  0.00     0.037 A 
ATOM     52  C   UNL A   1      41.891  28.280  30.763  1.00  0.00     0.049 A 
ATOM     53  C   UNL A   1      41.097  31.282  35.409  1.00  0.00     0.074 A 
ATOM     54  C   UNL A   1      42.936  27.375  30.775  1.00  0.00     0.029 A 
ATOM     55  N   UNL A   1      41.848  28.860  32.021  1.00  0.00    -0.354 N 
ATOM     56  N   UNL A   1      41.416  30.511  34.398  1.00  0.00    -0.248 NA
ATOM     57  C   UNL A   1      41.830  30.975  36.647  1.00  0.00     0.031 C 
ATOM     58  C   UNL A   1      43.494  27.369  32.058  1.00  0.00     0.029 A 
ATOM     59  C   UNL A   1      42.822  28.301  32.832  1.00  0.00     0.049 A 
ATOM     60  H   UNL A   1      41.218  29.564  32.298  1.00  0.00     0.167 HD
ATOM     61  C   UNL A   1      42.392  29.643  34.870  1.00  0.00     0.074 A 
ATOM     62  C   UNL A   1      42.625  29.989  36.256  1.00  0.00     0.031 C 
ATOM     63  C   UNL A   1      43.036  28.647  34.213  1.00  0.00     0.037 A 
BRANCH  50  64
ATOM     64  C   UNL A   1      41.093  27.801  28.422  1.00  0.00     0.064 A 
ATOM     65  C   UNL A   1      41.908  28.233  27.366  1.00  0.00     0.173 A 
ATOM     66  C   UNL A   1      40.402  26.592  28.272  1.00  0.00     0.173 A 
ATOM     67  F   UNL A   1      42.576  29.393  27.459  1.00  0.00    -0.203 F 
ATOM     68  C   UNL A   1      42.012  27.488  26.195  1.00  0.00     0.198 A 
ATOM     69  C   UNL A   1      40.525  25.838  27.109  1.00  0.00     0.198 A 
ATOM     70  F   UNL A   1      39.609  26.138  29.256  1.00  0.00    -0.203 F 
ATOM     71  F   UNL A   1      42.768  27.935  25.182  1.00  0.00    -0.200 F 
ATOM     72  C   UNL A   1      41.326  26.289  26.070  1.00  0.00     0.200 A 
ATOM     73  F   UNL A   1      39.866  24.677  26.991  1.00  0.00    -0.200 F 
ATOM     74  F   UNL A   1      41.430  25.571  24.943  1.00  0.00    -0.200 F 
ENDBRANCH  50  64
BRANCH  51  75
ATOM     75  C   UNL A   1      39.897  33.166  36.734  1.00  0.00     0.064 A 
ATOM     76  C   UNL A   1      38.909  32.792  37.653  1.00  0.00     0.173 A 
ATOM     77  C   UNL A   1      40.669  34.300  37.027  1.00  0.00     0.173 A 
ATOM     78  F   UNL A   1      38.122  31.736  37.398  1.00  0.00    -0.203 F 
ATOM     79  C   UNL A   1      38.693  33.529  38.815  1.00  0.00     0.198 A 
ATOM     80  C   UNL A   1      40.467  35.023  38.202  1.00  0.00     0.198 A 
ATOM     81  F   UNL A   1      41.618  34.708  36.171  1.00  0.00    -0.203 F 
ATOM     82  F   UNL A   1      37.711  33.177  39.657  1.00  0.00    -0.200 F 
ATOM     83  C   UNL A   1      39.475  34.640  39.091  1.00  0.00     0.200 A 
ATOM     84  F   UNL A   1      41.227  36.095  38.465  1.00  0.00    -0.200 F 
ATOM     85  F   UNL A   1      39.264  35.351  40.208  1.00  0.00    -0.200 F 
ENDBRANCH  51  75
BRANCH  63  86
ATOM     86  C   UNL A   1      44.057  27.859  34.978  1.00  0.00     0.064 A 
ATOM     87  C   UNL A   1      45.369  28.325  35.136  1.00  0.00     0.173 A 
ATOM     88  C   UNL A   1      43.704  26.658  35.612  1.00  0.00     0.173 A 
ATOM     89  F   UNL A   1      45.759  29.461  34.535  1.00  0.00    -0.203 F 
ATOM     90  C   UNL A   1      46.296  27.611  35.891  1.00  0.00     0.198 A 
ATOM     91  C   UNL A   1      44.626  25.960  36.387  1.00  0.00     0.198 A 
ATOM     92  F   UNL A   1      42.458  26.173  35.497  1.00  0.00    -0.203 F 
ATOM     93  F   UNL A   1      47.554  28.059  36.004  1.00  0.00    -0.200 F 
ATOM     94  C   UNL A   1      45.922  26.435  36.523  1.00  0.00     0.200 A 
ATOM     95  F   UNL A   1      44.259  24.829  37.006  1.00  0.00    -0.200 F 
ATOM     96  F   UNL A   1      46.812  25.756  37.261  1.00  0.00    -0.200 F 
ENDBRANCH  63  86
ENDBRANCH  37  38
ENDBRANCH  30  32
ENDBRANCH  29  30
ENDBRANCH  28  29
ENDBRANCH  27  28
ENDBRANCH  26  27
ENDBRANCH  25  26
ENDBRANCH   1  25
TORSDOF 21
ENDMDL
