MODEL 1
REMARK VINA RESULT:     -10.0      0.000      0.000
REMARK SMILES C[C@H](CO)CSc1cc(Cl)ccc1C(=O)OCCOCCOCCOC(=O)c1ccc(-c2c3nc(c(-c4c(F)c(F)c(F)c(F)c4F)c4ccc([nH]4)c(-c4c(F)c(F)c(F)c(F)c4F)c4nc(c(-c5c(F)c(F)c(F)c(F)c5F)c5ccc2[nH]5)C=C4)C=C3)cc1
REMARK SMILES IDX 19 1 18 2 17 3 16 4 14 5 15 6 13 7 7 8 8 9 9 10 12 11 10 12
REMARK SMILES IDX 11 13 6 14 5 15 2 16 1 17 3 18 4 19 20 21 21 22 22 23 23 24
REMARK SMILES IDX 24 25 25 26 26 27 27 28 28 29 29 30 90 31 30 32 89 33 31 34
REMARK SMILES IDX 32 35 33 36 83 37 34 38 88 39 82 40 84 41 35 42 87 43 81 44
REMARK SMILES IDX 80 45 36 47 68 48 48 49 67 50 49 51 52 52 66 53 85 54 50 55
REMARK SMILES IDX 51 56 65 58 86 59 53 60 37 61 38 62 46 63 39 64 40 65 44 66
REMARK SMILES IDX 47 67 41 68 42 69 45 70 43 71 69 72 70 73 78 74 71 75 72 76
REMARK SMILES IDX 76 77 79 78 73 79 74 80 77 81 75 82 54 83 55 84 63 85 56 86
REMARK SMILES IDX 57 87 61 88 64 89 58 90 59 91 62 92 60 93
REMARK H PARENT 4 20 84 46 52 57
REMARK Flexibility Score: inf
ROOT
ATOM      1  O   UNL A   1      35.988  23.189  23.650  1.00  0.00    -0.376 OA
ENDROOT
BRANCH   1   2
ATOM      2  C   UNL A   1      34.711  23.629  24.119  1.00  0.00     0.202 C 
BRANCH   2   3
ATOM      3  C   UNL A   1      33.690  24.117  23.081  1.00  0.00     0.261 C 
BRANCH   3   4
ATOM      4  O   UNL A   1      33.165  25.413  23.408  1.00  0.00    -0.460 OA
BRANCH   4   5
ATOM      5  C   UNL A   1      32.084  25.455  24.215  1.00  0.00     0.339 C 
ATOM      6  O   UNL A   1      31.406  24.503  24.582  1.00  0.00    -0.246 OA
BRANCH   5   7
ATOM      7  C   UNL A   1      31.972  26.801  24.832  1.00  0.00     0.073 A 
ATOM      8  C   UNL A   1      31.274  27.888  24.262  1.00  0.00     0.023 A 
ATOM      9  C   UNL A   1      31.359  29.142  24.894  1.00  0.00     0.036 A 
ATOM     10  C   UNL A   1      32.055  29.293  26.095  1.00  0.00     0.042 A 
ATOM     11  C   UNL A   1      32.674  26.971  26.041  1.00  0.00     0.018 A 
ATOM     12  Cl  UNL A   1      32.098  30.828  26.868  1.00  0.00    -0.084 Cl
ATOM     13  C   UNL A   1      32.709  28.212  26.675  1.00  0.00     0.021 A 
BRANCH   8  14
ATOM     14  S   UNL A   1      30.329  27.736  22.751  1.00  0.00    -0.125 SA
BRANCH  14  15
ATOM     15  C   UNL A   1      28.720  28.501  23.167  1.00  0.00     0.080 C 
BRANCH  15  16
ATOM     16  C   UNL A   1      28.455  29.841  22.459  1.00  0.00     0.022 C 
ATOM     17  C   UNL A   1      29.700  30.221  21.646  1.00  0.00     0.011 C 
BRANCH  16  18
ATOM     18  C   UNL A   1      28.100  31.002  23.400  1.00  0.00     0.160 C 
BRANCH  18  19
ATOM     19  O   UNL A   1      29.135  31.974  23.461  1.00  0.00    -0.396 OA
ATOM     20  H   UNL A   1      29.089  32.442  24.308  1.00  0.00     0.210 HD
ENDBRANCH  18  19
ENDBRANCH  16  18
ENDBRANCH  15  16
ENDBRANCH  14  15
ENDBRANCH   8  14
ENDBRANCH   5   7
ENDBRANCH   4   5
ENDBRANCH   3   4
ENDBRANCH   2   3
ENDBRANCH   1   2
BRANCH   1  21
ATOM     21  C   UNL A   1      36.999  22.866  24.603  1.00  0.00     0.188 C 
BRANCH  21  22
ATOM     22  C   UNL A   1      36.688  21.832  25.705  1.00  0.00     0.188 C 
BRANCH  22  23
ATOM     23  O   UNL A   1      36.536  20.520  25.218  1.00  0.00    -0.376 OA
BRANCH  23  24
ATOM     24  C   UNL A   1      37.658  19.872  24.651  1.00  0.00     0.202 C 
BRANCH  24  25
ATOM     25  C   UNL A   1      38.919  19.559  25.482  1.00  0.00     0.261 C 
BRANCH  25  26
ATOM     26  O   UNL A   1      39.845  20.630  25.714  1.00  0.00    -0.460 OA
BRANCH  26  27
ATOM     27  C   UNL A   1      40.572  20.581  26.846  1.00  0.00     0.338 C 
ATOM     28  O   UNL A   1      41.125  19.596  27.329  1.00  0.00    -0.246 OA
BRANCH  27  29
ATOM     29  C   UNL A   1      40.773  21.957  27.341  1.00  0.00     0.060 A 
ATOM     30  C   UNL A   1      40.037  22.996  26.757  1.00  0.00     0.016 A 
ATOM     31  C   UNL A   1      41.701  22.229  28.350  1.00  0.00     0.016 A 
ATOM     32  C   UNL A   1      40.266  24.317  27.142  1.00  0.00     0.010 A 
ATOM     33  C   UNL A   1      41.942  23.556  28.724  1.00  0.00     0.010 A 
ATOM     34  C   UNL A   1      41.256  24.608  28.090  1.00  0.00    -0.014 A 
BRANCH  34  35
ATOM     35  C   UNL A   1      41.715  26.012  28.250  1.00  0.00     0.031 A 
ATOM     36  C   UNL A   1      43.056  26.395  27.683  1.00  0.00     0.074 A 
ATOM     37  C   UNL A   1      40.943  26.941  28.840  1.00  0.00     0.049 A 
ATOM     38  N   UNL A   1      43.663  27.555  27.683  1.00  0.00    -0.248 NA
ATOM     39  C   UNL A   1      43.817  25.320  27.026  1.00  0.00     0.031 C 
ATOM     40  C   UNL A   1      39.616  26.706  29.401  1.00  0.00     0.029 A 
ATOM     41  N   UNL A   1      41.174  28.277  29.063  1.00  0.00    -0.354 N 
ATOM     42  C   UNL A   1      44.871  27.348  27.030  1.00  0.00     0.074 A 
ATOM     43  C   UNL A   1      44.930  25.945  26.680  1.00  0.00     0.031 C 
ATOM     44  C   UNL A   1      39.149  27.860  29.911  1.00  0.00     0.029 A 
ATOM     45  C   UNL A   1      40.155  28.906  29.733  1.00  0.00     0.049 A 
ATOM     46  H   UNL A   1      41.992  28.738  28.770  1.00  0.00     0.167 HD
ATOM     47  C   UNL A   1      45.839  28.248  26.735  1.00  0.00     0.037 A 
ATOM     48  C   UNL A   1      40.057  30.181  30.164  1.00  0.00     0.037 A 
ATOM     49  C   UNL A   1      45.784  29.642  27.086  1.00  0.00     0.049 A 
ATOM     50  C   UNL A   1      41.176  31.150  29.876  1.00  0.00     0.074 A 
ATOM     51  C   UNL A   1      46.708  30.637  26.819  1.00  0.00     0.029 A 
ATOM     52  N   UNL A   1      44.748  30.238  27.789  1.00  0.00    -0.354 N 
ATOM     53  N   UNL A   1      42.298  30.955  29.227  1.00  0.00    -0.248 NA
ATOM     54  C   UNL A   1      41.005  32.523  30.374  1.00  0.00     0.031 C 
ATOM     55  C   UNL A   1      46.256  31.823  27.407  1.00  0.00     0.029 A 
ATOM     56  C   UNL A   1      45.021  31.583  27.986  1.00  0.00     0.049 A 
ATOM     57  H   UNL A   1      43.937  29.774  28.101  1.00  0.00     0.167 HD
ATOM     58  C   UNL A   1      42.950  32.183  29.209  1.00  0.00     0.074 A 
ATOM     59  C   UNL A   1      42.090  33.120  29.900  1.00  0.00     0.031 C 
ATOM     60  C   UNL A   1      44.152  32.507  28.669  1.00  0.00     0.037 A 
BRANCH  47  61
ATOM     61  C   UNL A   1      47.057  27.740  26.019  1.00  0.00     0.064 A 
ATOM     62  C   UNL A   1      48.165  27.233  26.717  1.00  0.00     0.173 A 
ATOM     63  C   UNL A   1      47.110  27.741  24.618  1.00  0.00     0.173 A 
ATOM     64  F   UNL A   1      48.173  27.224  28.058  1.00  0.00    -0.203 F 
ATOM     65  C   UNL A   1      49.290  26.771  26.036  1.00  0.00     0.198 A 
ATOM     66  C   UNL A   1      48.223  27.251  23.941  1.00  0.00     0.198 A 
ATOM     67  F   UNL A   1      46.077  28.213  23.903  1.00  0.00    -0.203 F 
ATOM     68  F   UNL A   1      50.356  26.339  26.724  1.00  0.00    -0.200 F 
ATOM     69  C   UNL A   1      49.315  26.774  24.650  1.00  0.00     0.200 A 
ATOM     70  F   UNL A   1      48.240  27.243  22.601  1.00  0.00    -0.200 F 
ATOM     71  F   UNL A   1      50.395  26.325  23.997  1.00  0.00    -0.200 F 
ENDBRANCH  47  61
BRANCH  48  72
ATOM     72  C   UNL A   1      38.851  30.621  30.915  1.00  0.00     0.064 A 
ATOM     73  C   UNL A   1      37.732  31.141  30.249  1.00  0.00     0.173 A 
ATOM     74  C   UNL A   1      38.806  30.559  32.315  1.00  0.00     0.173 A 
ATOM     75  F   UNL A   1      37.737  31.247  28.912  1.00  0.00    -0.203 F 
ATOM     76  C   UNL A   1      36.623  31.603  30.958  1.00  0.00     0.198 A 
ATOM     77  C   UNL A   1      37.685  30.994  33.020  1.00  0.00     0.198 A 
ATOM     78  F   UNL A   1      39.852  30.074  33.000  1.00  0.00    -0.203 F 
ATOM     79  F   UNL A   1      35.589  32.144  30.300  1.00  0.00    -0.200 F 
ATOM     80  C   UNL A   1      36.599  31.523  32.342  1.00  0.00     0.200 A 
ATOM     81  F   UNL A   1      37.662  30.905  34.357  1.00  0.00    -0.200 F 
ATOM     82  F   UNL A   1      35.533  31.967  33.021  1.00  0.00    -0.200 F 
ENDBRANCH  48  72
BRANCH  60  83
ATOM     83  C   UNL A   1      44.587  33.942  28.762  1.00  0.00     0.064 A 
ATOM     84  C   UNL A   1      45.379  34.410  29.822  1.00  0.00     0.173 A 
ATOM     85  C   UNL A   1      44.229  34.858  27.760  1.00  0.00     0.173 A 
ATOM     86  F   UNL A   1      45.740  33.579  30.813  1.00  0.00    -0.203 F 
ATOM     87  C   UNL A   1      45.763  35.746  29.894  1.00  0.00     0.198 A 
ATOM     88  C   UNL A   1      44.644  36.185  27.817  1.00  0.00     0.198 A 
ATOM     89  F   UNL A   1      43.482  34.462  26.718  1.00  0.00    -0.203 F 
ATOM     90  F   UNL A   1      46.470  36.183  30.946  1.00  0.00    -0.200 F 
ATOM     91  C   UNL A   1      45.402  36.631  28.889  1.00  0.00     0.200 A 
ATOM     92  F   UNL A   1      44.306  37.034  26.837  1.00  0.00    -0.200 F 
ATOM     93  F   UNL A   1      45.774  37.916  28.959  1.00  0.00    -0.200 F 
ENDBRANCH  60  83
ENDBRANCH  34  35
ENDBRANCH  27  29
ENDBRANCH  26  27
ENDBRANCH  25  26
ENDBRANCH  24  25
ENDBRANCH  23  24
ENDBRANCH  22  23
ENDBRANCH  21  22
ENDBRANCH   1  21
TORSDOF 22
ENDMDL
MODEL 2
REMARK VINA RESULT:      -9.9      4.496     10.406
REMARK SMILES C[C@H](CO)CSc1cc(Cl)ccc1C(=O)OCCOCCOCCOC(=O)c1ccc(-c2c3nc(c(-c4c(F)c(F)c(F)c(F)c4F)c4ccc([nH]4)c(-c4c(F)c(F)c(F)c(F)c4F)c4nc(c(-c5c(F)c(F)c(F)c(F)c5F)c5ccc2[nH]5)C=C4)C=C3)cc1
REMARK SMILES IDX 19 1 18 2 17 3 16 4 14 5 15 6 13 7 7 8 8 9 9 10 12 11 10 12
REMARK SMILES IDX 11 13 6 14 5 15 2 16 1 17 3 18 4 19 20 21 21 22 22 23 23 24
REMARK SMILES IDX 24 25 25 26 26 27 27 28 28 29 29 30 90 31 30 32 89 33 31 34
REMARK SMILES IDX 32 35 33 36 83 37 34 38 88 39 82 40 84 41 35 42 87 43 81 44
REMARK SMILES IDX 80 45 36 47 68 48 48 49 67 50 49 51 52 52 66 53 85 54 50 55
REMARK SMILES IDX 51 56 65 58 86 59 53 60 37 61 38 62 46 63 39 64 40 65 44 66
REMARK SMILES IDX 47 67 41 68 42 69 45 70 43 71 69 72 70 73 78 74 71 75 72 76
REMARK SMILES IDX 76 77 79 78 73 79 74 80 77 81 75 82 54 83 55 84 63 85 56 86
REMARK SMILES IDX 57 87 61 88 64 89 58 90 59 91 62 92 60 93
REMARK H PARENT 4 20 84 46 52 57
REMARK Flexibility Score: inf
ROOT
ATOM      1  O   UNL A   1      29.887  25.791  24.053  1.00  0.00    -0.376 OA
ENDROOT
BRANCH   1   2
ATOM      2  C   UNL A   1      31.068  25.227  23.480  1.00  0.00     0.202 C 
BRANCH   2   3
ATOM      3  C   UNL A   1      32.098  24.592  24.427  1.00  0.00     0.261 C 
BRANCH   3   4
ATOM      4  O   UNL A   1      32.201  23.172  24.240  1.00  0.00    -0.460 OA
BRANCH   4   5
ATOM      5  C   UNL A   1      33.047  22.735  23.284  1.00  0.00     0.339 C 
ATOM      6  O   UNL A   1      32.882  22.804  22.072  1.00  0.00    -0.246 OA
BRANCH   5   7
ATOM      7  C   UNL A   1      34.356  22.389  23.894  1.00  0.00     0.073 A 
ATOM      8  C   UNL A   1      34.551  21.366  24.846  1.00  0.00     0.023 A 
ATOM      9  C   UNL A   1      35.821  21.233  25.435  1.00  0.00     0.036 A 
ATOM     10  C   UNL A   1      36.884  22.046  25.034  1.00  0.00     0.042 A 
ATOM     11  C   UNL A   1      35.437  23.204  23.504  1.00  0.00     0.018 A 
ATOM     12  Cl  UNL A   1      38.437  21.825  25.737  1.00  0.00    -0.084 Cl
ATOM     13  C   UNL A   1      36.699  23.027  24.067  1.00  0.00     0.021 A 
BRANCH   8  14
ATOM     14  S   UNL A   1      33.234  20.268  25.360  1.00  0.00    -0.125 SA
BRANCH  14  15
ATOM     15  C   UNL A   1      32.963  19.204  23.897  1.00  0.00     0.080 C 
BRANCH  15  16
ATOM     16  C   UNL A   1      33.004  17.695  24.197  1.00  0.00     0.022 C 
ATOM     17  C   UNL A   1      32.741  17.485  25.694  1.00  0.00     0.011 C 
BRANCH  16  18
ATOM     18  C   UNL A   1      34.323  17.005  23.820  1.00  0.00     0.160 C 
BRANCH  18  19
ATOM     19  O   UNL A   1      34.140  16.020  22.812  1.00  0.00    -0.396 OA
ATOM     20  H   UNL A   1      33.912  16.453  21.975  1.00  0.00     0.210 HD
ENDBRANCH  18  19
ENDBRANCH  16  18
ENDBRANCH  15  16
ENDBRANCH  14  15
ENDBRANCH   8  14
ENDBRANCH   5   7
ENDBRANCH   4   5
ENDBRANCH   3   4
ENDBRANCH   2   3
ENDBRANCH   1   2
BRANCH   1  21
ATOM     21  C   UNL A   1      29.768  27.211  24.128  1.00  0.00     0.188 C 
BRANCH  21  22
ATOM     22  C   UNL A   1      30.786  28.090  23.373  1.00  0.00     0.188 C 
BRANCH  22  23
ATOM     23  O   UNL A   1      31.032  29.328  23.996  1.00  0.00    -0.376 OA
BRANCH  23  24
ATOM     24  C   UNL A   1      31.579  29.335  25.301  1.00  0.00     0.202 C 
BRANCH  24  25
ATOM     25  C   UNL A   1      32.599  30.402  25.746  1.00  0.00     0.261 C 
BRANCH  25  26
ATOM     26  O   UNL A   1      32.629  30.757  27.136  1.00  0.00    -0.460 OA
BRANCH  26  27
ATOM     27  C   UNL A   1      33.385  31.814  27.486  1.00  0.00     0.338 C 
ATOM     28  O   UNL A   1      33.008  32.973  27.645  1.00  0.00    -0.246 OA
BRANCH  27  29
ATOM     29  C   UNL A   1      34.733  31.336  27.845  1.00  0.00     0.060 A 
ATOM     30  C   UNL A   1      34.930  29.962  28.037  1.00  0.00     0.016 A 
ATOM     31  C   UNL A   1      35.790  32.232  28.023  1.00  0.00     0.016 A 
ATOM     32  C   UNL A   1      36.171  29.486  28.461  1.00  0.00     0.010 A 
ATOM     33  C   UNL A   1      37.030  31.756  28.464  1.00  0.00     0.010 A 
ATOM     34  C   UNL A   1      37.212  30.386  28.727  1.00  0.00    -0.014 A 
BRANCH  34  35
ATOM     35  C   UNL A   1      38.403  29.914  29.478  1.00  0.00     0.031 A 
ATOM     36  C   UNL A   1      38.613  30.424  30.879  1.00  0.00     0.074 A 
ATOM     37  C   UNL A   1      39.255  29.015  28.955  1.00  0.00     0.049 A 
ATOM     38  N   UNL A   1      39.564  30.148  31.735  1.00  0.00    -0.248 NA
ATOM     39  C   UNL A   1      37.613  31.380  31.381  1.00  0.00     0.031 C 
ATOM     40  C   UNL A   1      39.146  28.422  27.625  1.00  0.00     0.029 A 
ATOM     41  N   UNL A   1      40.385  28.446  29.489  1.00  0.00    -0.354 N 
ATOM     42  C   UNL A   1      39.276  30.893  32.872  1.00  0.00     0.074 A 
ATOM     43  C   UNL A   1      38.085  31.662  32.585  1.00  0.00     0.031 C 
ATOM     44  C   UNL A   1      40.174  27.574  27.442  1.00  0.00     0.029 A 
ATOM     45  C   UNL A   1      41.024  27.584  28.633  1.00  0.00     0.049 A 
ATOM     46  H   UNL A   1      40.706  28.639  30.398  1.00  0.00     0.167 HD
ATOM     47  C   UNL A   1      39.935  30.924  34.054  1.00  0.00     0.037 A 
ATOM     48  C   UNL A   1      42.171  26.894  28.792  1.00  0.00     0.037 A 
ATOM     49  C   UNL A   1      41.123  30.163  34.340  1.00  0.00     0.049 A 
ATOM     50  C   UNL A   1      42.922  26.992  30.097  1.00  0.00     0.074 A 
ATOM     51  C   UNL A   1      41.856  30.115  35.512  1.00  0.00     0.029 A 
ATOM     52  N   UNL A   1      41.756  29.321  33.438  1.00  0.00    -0.354 N 
ATOM     53  N   UNL A   1      42.623  27.670  31.179  1.00  0.00    -0.248 NA
ATOM     54  C   UNL A   1      44.166  26.215  30.204  1.00  0.00     0.031 C 
ATOM     55  C   UNL A   1      42.963  29.285  35.302  1.00  0.00     0.029 A 
ATOM     56  C   UNL A   1      42.885  28.766  34.020  1.00  0.00     0.049 A 
ATOM     57  H   UNL A   1      41.447  29.142  32.520  1.00  0.00     0.167 HD
ATOM     58  C   UNL A   1      43.620  27.378  32.103  1.00  0.00     0.074 A 
ATOM     59  C   UNL A   1      44.523  26.448  31.459  1.00  0.00     0.031 C 
ATOM     60  C   UNL A   1      43.773  27.836  33.370  1.00  0.00     0.037 A 
BRANCH  47  61
ATOM     61  C   UNL A   1      39.400  31.836  35.119  1.00  0.00     0.064 A 
ATOM     62  C   UNL A   1      38.556  31.366  36.137  1.00  0.00     0.173 A 
ATOM     63  C   UNL A   1      39.751  33.194  35.134  1.00  0.00     0.173 A 
ATOM     64  F   UNL A   1      38.175  30.080  36.160  1.00  0.00    -0.203 F 
ATOM     65  C   UNL A   1      38.063  32.228  37.115  1.00  0.00     0.198 A 
ATOM     66  C   UNL A   1      39.282  34.046  36.129  1.00  0.00     0.198 A 
ATOM     67  F   UNL A   1      40.557  33.694  34.184  1.00  0.00    -0.203 F 
ATOM     68  F   UNL A   1      37.218  31.768  38.047  1.00  0.00    -0.200 F 
ATOM     69  C   UNL A   1      38.432  33.565  37.114  1.00  0.00     0.200 A 
ATOM     70  F   UNL A   1      39.649  35.335  36.134  1.00  0.00    -0.200 F 
ATOM     71  F   UNL A   1      37.962  34.392  38.057  1.00  0.00    -0.200 F 
ENDBRANCH  47  61
BRANCH  48  72
ATOM     72  C   UNL A   1      42.688  26.044  27.686  1.00  0.00     0.064 A 
ATOM     73  C   UNL A   1      43.736  26.482  26.864  1.00  0.00     0.173 A 
ATOM     74  C   UNL A   1      42.123  24.791  27.409  1.00  0.00     0.173 A 
ATOM     75  F   UNL A   1      44.291  27.685  27.071  1.00  0.00    -0.203 F 
ATOM     76  C   UNL A   1      44.184  25.707  25.795  1.00  0.00     0.198 A 
ATOM     77  C   UNL A   1      42.592  24.005  26.358  1.00  0.00     0.198 A 
ATOM     78  F   UNL A   1      41.115  24.328  28.163  1.00  0.00    -0.203 F 
ATOM     79  F   UNL A   1      45.152  26.173  24.993  1.00  0.00    -0.200 F 
ATOM     80  C   UNL A   1      43.616  24.467  25.547  1.00  0.00     0.200 A 
ATOM     81  F   UNL A   1      42.046  22.803  26.129  1.00  0.00    -0.200 F 
ATOM     82  F   UNL A   1      44.047  23.724  24.519  1.00  0.00    -0.200 F 
ENDBRANCH  48  72
BRANCH  60  83
ATOM     83  C   UNL A   1      44.934  27.304  34.162  1.00  0.00     0.064 A 
ATOM     84  C   UNL A   1      44.875  26.070  34.827  1.00  0.00     0.173 A 
ATOM     85  C   UNL A   1      46.134  28.030  34.235  1.00  0.00     0.173 A 
ATOM     86  F   UNL A   1      43.749  25.342  34.799  1.00  0.00    -0.203 F 
ATOM     87  C   UNL A   1      45.960  25.600  35.563  1.00  0.00     0.198 A 
ATOM     88  C   UNL A   1      47.227  27.541  34.943  1.00  0.00     0.198 A 
ATOM     89  F   UNL A   1      46.249  29.212  33.610  1.00  0.00    -0.203 F 
ATOM     90  F   UNL A   1      45.860  24.445  36.238  1.00  0.00    -0.200 F 
ATOM     91  C   UNL A   1      47.137  26.332  35.616  1.00  0.00     0.200 A 
ATOM     92  F   UNL A   1      48.369  28.243  34.981  1.00  0.00    -0.200 F 
ATOM     93  F   UNL A   1      48.179  25.877  36.324  1.00  0.00    -0.200 F 
ENDBRANCH  60  83
ENDBRANCH  34  35
ENDBRANCH  27  29
ENDBRANCH  26  27
ENDBRANCH  25  26
ENDBRANCH  24  25
ENDBRANCH  23  24
ENDBRANCH  22  23
ENDBRANCH  21  22
ENDBRANCH   1  21
TORSDOF 22
ENDMDL
MODEL 3
REMARK VINA RESULT:      -9.9      4.590      7.984
REMARK SMILES C[C@H](CO)CSc1cc(Cl)ccc1C(=O)OCCOCCOCCOC(=O)c1ccc(-c2c3nc(c(-c4c(F)c(F)c(F)c(F)c4F)c4ccc([nH]4)c(-c4c(F)c(F)c(F)c(F)c4F)c4nc(c(-c5c(F)c(F)c(F)c(F)c5F)c5ccc2[nH]5)C=C4)C=C3)cc1
REMARK SMILES IDX 19 1 18 2 17 3 16 4 14 5 15 6 13 7 7 8 8 9 9 10 12 11 10 12
REMARK SMILES IDX 11 13 6 14 5 15 2 16 1 17 3 18 4 19 20 21 21 22 22 23 23 24
REMARK SMILES IDX 24 25 25 26 26 27 27 28 28 29 29 30 90 31 30 32 89 33 31 34
REMARK SMILES IDX 32 35 33 36 83 37 34 38 88 39 82 40 84 41 35 42 87 43 81 44
REMARK SMILES IDX 80 45 36 47 68 48 48 49 67 50 49 51 52 52 66 53 85 54 50 55
REMARK SMILES IDX 51 56 65 58 86 59 53 60 37 61 38 62 46 63 39 64 40 65 44 66
REMARK SMILES IDX 47 67 41 68 42 69 45 70 43 71 69 72 70 73 78 74 71 75 72 76
REMARK SMILES IDX 76 77 79 78 73 79 74 80 77 81 75 82 54 83 55 84 63 85 56 86
REMARK SMILES IDX 57 87 61 88 64 89 58 90 59 91 62 92 60 93
REMARK H PARENT 4 20 84 46 52 57
REMARK Flexibility Score: inf
ROOT
ATOM      1  O   UNL A   1      29.755  25.722  23.970  1.00  0.00    -0.376 OA
ENDROOT
BRANCH   1   2
ATOM      2  C   UNL A   1      30.915  25.059  23.466  1.00  0.00     0.202 C 
BRANCH   2   3
ATOM      3  C   UNL A   1      31.859  24.387  24.475  1.00  0.00     0.261 C 
BRANCH   3   4
ATOM      4  O   UNL A   1      31.920  22.964  24.292  1.00  0.00    -0.460 OA
BRANCH   4   5
ATOM      5  C   UNL A   1      32.789  22.496  23.372  1.00  0.00     0.339 C 
ATOM      6  O   UNL A   1      32.599  22.404  22.165  1.00  0.00    -0.246 OA
BRANCH   5   7
ATOM      7  C   UNL A   1      34.134  22.348  23.983  1.00  0.00     0.073 A 
ATOM      8  C   UNL A   1      34.485  21.350  24.916  1.00  0.00     0.023 A 
ATOM      9  C   UNL A   1      35.759  21.408  25.510  1.00  0.00     0.036 A 
ATOM     10  C   UNL A   1      36.682  22.386  25.131  1.00  0.00     0.042 A 
ATOM     11  C   UNL A   1      35.074  23.331  23.615  1.00  0.00     0.018 A 
ATOM     12  Cl  UNL A   1      38.248  22.398  25.840  1.00  0.00    -0.084 Cl
ATOM     13  C   UNL A   1      36.347  23.344  24.182  1.00  0.00     0.021 A 
BRANCH   8  14
ATOM     14  S   UNL A   1      33.357  20.049  25.400  1.00  0.00    -0.125 SA
BRANCH  14  15
ATOM     15  C   UNL A   1      33.966  18.585  24.486  1.00  0.00     0.080 C 
BRANCH  15  16
ATOM     16  C   UNL A   1      32.854  17.671  23.944  1.00  0.00     0.022 C 
ATOM     17  C   UNL A   1      33.327  16.214  24.037  1.00  0.00     0.011 C 
BRANCH  16  18
ATOM     18  C   UNL A   1      32.432  17.967  22.498  1.00  0.00     0.160 C 
BRANCH  18  19
ATOM     19  O   UNL A   1      32.075  19.331  22.315  1.00  0.00    -0.396 OA
ATOM     20  H   UNL A   1      32.184  19.571  21.382  1.00  0.00     0.210 HD
ENDBRANCH  18  19
ENDBRANCH  16  18
ENDBRANCH  15  16
ENDBRANCH  14  15
ENDBRANCH   8  14
ENDBRANCH   5   7
ENDBRANCH   4   5
ENDBRANCH   3   4
ENDBRANCH   2   3
ENDBRANCH   1   2
BRANCH   1  21
ATOM     21  C   UNL A   1      29.642  27.135  23.805  1.00  0.00     0.188 C 
BRANCH  21  22
ATOM     22  C   UNL A   1      30.606  27.857  22.842  1.00  0.00     0.188 C 
BRANCH  22  23
ATOM     23  O   UNL A   1      31.247  28.970  23.417  1.00  0.00    -0.376 OA
BRANCH  23  24
ATOM     24  C   UNL A   1      31.995  28.786  24.604  1.00  0.00     0.202 C 
BRANCH  24  25
ATOM     25  C   UNL A   1      32.802  29.935  25.240  1.00  0.00     0.261 C 
BRANCH  25  26
ATOM     26  O   UNL A   1      32.544  30.248  26.616  1.00  0.00    -0.460 OA
BRANCH  26  27
ATOM     27  C   UNL A   1      33.111  31.365  27.110  1.00  0.00     0.338 C 
ATOM     28  O   UNL A   1      32.576  32.461  27.265  1.00  0.00    -0.246 OA
BRANCH  27  29
ATOM     29  C   UNL A   1      34.449  31.027  27.631  1.00  0.00     0.060 A 
ATOM     30  C   UNL A   1      34.745  29.685  27.907  1.00  0.00     0.016 A 
ATOM     31  C   UNL A   1      35.398  32.024  27.876  1.00  0.00     0.016 A 
ATOM     32  C   UNL A   1      35.969  29.343  28.480  1.00  0.00     0.010 A 
ATOM     33  C   UNL A   1      36.620  31.681  28.467  1.00  0.00     0.010 A 
ATOM     34  C   UNL A   1      36.892  30.345  28.811  1.00  0.00    -0.014 A 
BRANCH  34  35
ATOM     35  C   UNL A   1      38.031  30.014  29.705  1.00  0.00     0.031 A 
ATOM     36  C   UNL A   1      39.089  29.071  29.195  1.00  0.00     0.074 A 
ATOM     37  C   UNL A   1      38.157  30.571  30.921  1.00  0.00     0.049 A 
ATOM     38  N   UNL A   1      40.180  28.645  29.780  1.00  0.00    -0.248 NA
ATOM     39  C   UNL A   1      38.886  28.535  27.840  1.00  0.00     0.031 C 
ATOM     40  C   UNL A   1      37.220  31.520  31.517  1.00  0.00     0.029 A 
ATOM     41  N   UNL A   1      39.132  30.414  31.875  1.00  0.00    -0.354 N 
ATOM     42  C   UNL A   1      40.789  27.794  28.866  1.00  0.00     0.074 A 
ATOM     43  C   UNL A   1      39.930  27.734  27.704  1.00  0.00     0.031 C 
ATOM     44  C   UNL A   1      37.663  31.857  32.742  1.00  0.00     0.029 A 
ATOM     45  C   UNL A   1      38.901  31.130  33.023  1.00  0.00     0.049 A 
ATOM     46  H   UNL A   1      39.922  29.841  31.748  1.00  0.00     0.167 HD
ATOM     47  C   UNL A   1      41.966  27.134  28.978  1.00  0.00     0.037 A 
ATOM     48  C   UNL A   1      39.604  31.180  34.172  1.00  0.00     0.037 A 
ATOM     49  C   UNL A   1      42.820  27.189  30.135  1.00  0.00     0.049 A 
ATOM     50  C   UNL A   1      40.881  30.386  34.296  1.00  0.00     0.074 A 
ATOM     51  C   UNL A   1      44.038  26.566  30.339  1.00  0.00     0.029 A 
ATOM     52  N   UNL A   1      42.538  27.904  31.289  1.00  0.00    -0.354 N 
ATOM     53  N   UNL A   1      41.468  29.614  33.414  1.00  0.00    -0.248 NA
ATOM     54  C   UNL A   1      41.598  30.484  35.576  1.00  0.00     0.031 C 
ATOM     55  C   UNL A   1      44.469  26.863  31.637  1.00  0.00     0.029 A 
ATOM     56  C   UNL A   1      43.550  27.720  32.219  1.00  0.00     0.049 A 
ATOM     57  H   UNL A   1      41.738  28.462  31.427  1.00  0.00     0.167 HD
ATOM     58  C   UNL A   1      42.636  29.161  34.018  1.00  0.00     0.074 A 
ATOM     59  C   UNL A   1      42.681  29.758  35.335  1.00  0.00     0.031 C 
ATOM     60  C   UNL A   1      43.586  28.327  33.525  1.00  0.00     0.037 A 
BRANCH  47  61
ATOM     61  C   UNL A   1      42.383  26.267  27.825  1.00  0.00     0.064 A 
ATOM     62  C   UNL A   1      41.869  24.973  27.651  1.00  0.00     0.173 A 
ATOM     63  C   UNL A   1      43.292  26.746  26.870  1.00  0.00     0.173 A 
ATOM     64  F   UNL A   1      41.010  24.461  28.544  1.00  0.00    -0.203 F 
ATOM     65  C   UNL A   1      42.272  24.181  26.577  1.00  0.00     0.198 A 
ATOM     66  C   UNL A   1      43.669  25.963  25.783  1.00  0.00     0.198 A 
ATOM     67  F   UNL A   1      43.811  27.977  26.988  1.00  0.00    -0.203 F 
ATOM     68  F   UNL A   1      41.808  22.929  26.460  1.00  0.00    -0.200 F 
ATOM     69  C   UNL A   1      43.166  24.679  25.641  1.00  0.00     0.200 A 
ATOM     70  F   UNL A   1      44.523  26.451  24.872  1.00  0.00    -0.200 F 
ATOM     71  F   UNL A   1      43.548  23.918  24.607  1.00  0.00    -0.200 F 
ENDBRANCH  47  61
BRANCH  48  72
ATOM     72  C   UNL A   1      39.120  32.013  35.306  1.00  0.00     0.064 A 
ATOM     73  C   UNL A   1      39.415  33.381  35.377  1.00  0.00     0.173 A 
ATOM     74  C   UNL A   1      38.380  31.450  36.355  1.00  0.00     0.173 A 
ATOM     75  F   UNL A   1      40.144  33.961  34.412  1.00  0.00    -0.203 F 
ATOM     76  C   UNL A   1      39.006  34.150  36.466  1.00  0.00     0.198 A 
ATOM     77  C   UNL A   1      37.947  32.226  37.429  1.00  0.00     0.198 A 
ATOM     78  F   UNL A   1      38.075  30.144  36.337  1.00  0.00    -0.203 F 
ATOM     79  F   UNL A   1      39.347  35.444  36.535  1.00  0.00    -0.200 F 
ATOM     80  C   UNL A   1      38.267  33.573  37.488  1.00  0.00     0.200 A 
ATOM     81  F   UNL A   1      37.224  31.665  38.408  1.00  0.00    -0.200 F 
ATOM     82  F   UNL A   1      37.875  34.312  38.533  1.00  0.00    -0.200 F 
ENDBRANCH  48  72
BRANCH  60  83
ATOM     83  C   UNL A   1      44.779  28.047  34.396  1.00  0.00     0.064 A 
ATOM     84  C   UNL A   1      44.817  26.952  35.272  1.00  0.00     0.173 A 
ATOM     85  C   UNL A   1      45.912  28.874  34.333  1.00  0.00     0.173 A 
ATOM     86  F   UNL A   1      43.757  26.136  35.379  1.00  0.00    -0.203 F 
ATOM     87  C   UNL A   1      45.929  26.717  36.077  1.00  0.00     0.198 A 
ATOM     88  C   UNL A   1      47.034  28.616  35.114  1.00  0.00     0.198 A 
ATOM     89  F   UNL A   1      45.933  29.930  33.505  1.00  0.00    -0.203 F 
ATOM     90  F   UNL A   1      45.919  25.697  36.948  1.00  0.00    -0.200 F 
ATOM     91  C   UNL A   1      47.038  27.544  35.993  1.00  0.00     0.200 A 
ATOM     92  F   UNL A   1      48.111  29.408  35.021  1.00  0.00    -0.200 F 
ATOM     93  F   UNL A   1      48.108  27.315  36.767  1.00  0.00    -0.200 F 
ENDBRANCH  60  83
ENDBRANCH  34  35
ENDBRANCH  27  29
ENDBRANCH  26  27
ENDBRANCH  25  26
ENDBRANCH  24  25
ENDBRANCH  23  24
ENDBRANCH  22  23
ENDBRANCH  21  22
ENDBRANCH   1  21
TORSDOF 22
ENDMDL
