MODEL 1
REMARK VINA RESULT:     -10.2      0.000      0.000
REMARK SMILES O=C(CSc1nc2[nH]cnc2c(=O)[nH]1)NCCC(=O)OCCOCCOCCOC(=O)c1ccc(-c2c3nc(c(-c4c(F)c(F)c(F)c(F)c4F)c4ccc([nH]4)c(-c4c(F)c(F)c(F)c(F)c4F)c4nc(c(-c5c(F)c(F)c(F)c(F)c5F)c5ccc2[nH]5)C=C4)C=C3)cc1
REMARK SMILES IDX 23 1 22 2 21 3 20 4 18 5 19 6 17 7 16 8 15 9 1 10 2 11 3 13
REMARK SMILES IDX 4 14 5 15 6 16 14 17 7 18 12 19 8 21 11 22 13 23 9 24 10 26
REMARK SMILES IDX 24 27 25 28 26 29 27 30 28 31 29 32 30 33 31 34 32 35 33 36
REMARK SMILES IDX 94 37 34 38 93 39 35 40 36 41 37 42 87 43 38 44 92 45 86 46
REMARK SMILES IDX 88 47 39 48 91 49 85 50 84 51 40 53 72 54 52 55 71 56 53 57
REMARK SMILES IDX 56 58 70 59 89 60 54 61 55 62 69 64 90 65 57 66 41 67 42 68
REMARK SMILES IDX 50 69 43 70 44 71 48 72 51 73 45 74 46 75 49 76 47 77 73 78
REMARK SMILES IDX 74 79 82 80 75 81 76 82 80 83 83 84 77 85 78 86 81 87 79 88
REMARK SMILES IDX 58 89 59 90 67 91 60 92 61 93 65 94 68 95 62 96 63 97 66 98
REMARK SMILES IDX 64 99
REMARK H PARENT 15 12 14 20 8 25 88 52 56 63
REMARK Flexibility Score: inf
ROOT
ATOM      1  O   UNL A   1      35.428  23.054  22.689  1.00  0.00    -0.376 OA
ENDROOT
BRANCH   1   2
ATOM      2  C   UNL A   1      34.138  23.493  23.109  1.00  0.00     0.202 C 
BRANCH   2   3
ATOM      3  C   UNL A   1      32.900  22.700  22.645  1.00  0.00     0.261 C 
BRANCH   3   4
ATOM      4  O   UNL A   1      31.948  22.344  23.683  1.00  0.00    -0.463 OA
BRANCH   4   5
ATOM      5  C   UNL A   1      31.131  23.345  24.098  1.00  0.00     0.307 C 
ATOM      6  O   UNL A   1      30.525  24.094  23.336  1.00  0.00    -0.252 OA
BRANCH   5   7
ATOM      7  C   UNL A   1      30.928  23.467  25.594  1.00  0.00     0.144 C 
BRANCH   7   8
ATOM      8  C   UNL A   1      31.101  24.756  26.381  1.00  0.00     0.127 C 
BRANCH   8   9
ATOM      9  N   UNL A   1      30.712  25.977  25.713  1.00  0.00    -0.355 N 
ATOM     10  O   UNL A   1      32.865  26.678  25.339  1.00  0.00    -0.274 OA
ATOM     11  C   UNL A   1      31.656  26.839  25.187  1.00  0.00     0.230 C 
ATOM     12  H   UNL A   1      29.756  26.199  25.632  1.00  0.00     0.163 HD
BRANCH  11  13
ATOM     13  C   UNL A   1      31.101  28.083  24.518  1.00  0.00     0.178 C 
BRANCH  13  14
ATOM     14  S   UNL A   1      30.095  27.731  23.053  1.00  0.00    -0.078 SA
BRANCH  14  15
ATOM     15  C   UNL A   1      29.558  29.332  22.641  1.00  0.00     0.170 A 
ATOM     16  N   UNL A   1      29.006  29.605  21.499  1.00  0.00    -0.204 NA
ATOM     17  N   UNL A   1      29.754  30.230  23.670  1.00  0.00    -0.299 N 
ATOM     18  C   UNL A   1      28.616  30.897  21.417  1.00  0.00     0.165 A 
ATOM     19  C   UNL A   1      29.365  31.559  23.617  1.00  0.00     0.279 A 
ATOM     20  H   UNL A   1      30.195  29.909  24.490  1.00  0.00     0.172 HD
ATOM     21  N   UNL A   1      27.989  31.478  20.355  1.00  0.00    -0.329 N 
ATOM     22  C   UNL A   1      28.731  31.894  22.359  1.00  0.00     0.172 A 
ATOM     23  O   UNL A   1      29.553  32.331  24.557  1.00  0.00    -0.267 OA
ATOM     24  C   UNL A   1      27.731  32.780  20.705  1.00  0.00     0.199 A 
ATOM     25  H   UNL A   1      27.764  31.046  19.500  1.00  0.00     0.169 HD
ATOM     26  N   UNL A   1      28.177  33.067  21.912  1.00  0.00    -0.229 NA
ENDBRANCH  14  15
ENDBRANCH  13  14
ENDBRANCH  11  13
ENDBRANCH   8   9
ENDBRANCH   7   8
ENDBRANCH   5   7
ENDBRANCH   4   5
ENDBRANCH   3   4
ENDBRANCH   2   3
ENDBRANCH   1   2
BRANCH   1  27
ATOM     27  C   UNL A   1      36.518  23.241  23.579  1.00  0.00     0.188 C 
BRANCH  27  28
ATOM     28  C   UNL A   1      36.707  22.236  24.723  1.00  0.00     0.188 C 
BRANCH  28  29
ATOM     29  O   UNL A   1      36.830  20.891  24.323  1.00  0.00    -0.376 OA
BRANCH  29  30
ATOM     30  C   UNL A   1      37.778  20.071  24.987  1.00  0.00     0.202 C 
BRANCH  30  31
ATOM     31  C   UNL A   1      39.115  20.697  25.438  1.00  0.00     0.261 C 
BRANCH  31  32
ATOM     32  O   UNL A   1      39.820  20.044  26.510  1.00  0.00    -0.460 OA
BRANCH  32  33
ATOM     33  C   UNL A   1      41.132  19.763  26.305  1.00  0.00     0.338 C 
ATOM     34  O   UNL A   1      41.587  18.790  25.735  1.00  0.00    -0.246 OA
BRANCH  33  35
ATOM     35  C   UNL A   1      41.912  20.988  26.630  1.00  0.00     0.060 A 
ATOM     36  C   UNL A   1      42.188  21.270  27.977  1.00  0.00     0.016 A 
ATOM     37  C   UNL A   1      42.398  21.828  25.628  1.00  0.00     0.016 A 
ATOM     38  C   UNL A   1      42.914  22.412  28.328  1.00  0.00     0.010 A 
ATOM     39  C   UNL A   1      43.103  22.986  25.980  1.00  0.00     0.010 A 
ATOM     40  C   UNL A   1      43.331  23.305  27.333  1.00  0.00    -0.014 A 
BRANCH  40  41
ATOM     41  C   UNL A   1      43.794  24.668  27.710  1.00  0.00     0.031 A 
ATOM     42  C   UNL A   1      42.750  25.700  28.046  1.00  0.00     0.074 A 
ATOM     43  C   UNL A   1      45.098  24.990  27.783  1.00  0.00     0.049 A 
ATOM     44  N   UNL A   1      42.892  26.964  28.357  1.00  0.00    -0.248 NA
ATOM     45  C   UNL A   1      41.353  25.241  28.023  1.00  0.00     0.031 C 
ATOM     46  C   UNL A   1      46.212  24.079  27.537  1.00  0.00     0.029 A 
ATOM     47  N   UNL A   1      45.701  26.187  28.084  1.00  0.00    -0.354 N 
ATOM     48  C   UNL A   1      41.605  27.450  28.552  1.00  0.00     0.074 A 
ATOM     49  C   UNL A   1      40.695  26.357  28.289  1.00  0.00     0.031 C 
ATOM     50  C   UNL A   1      47.366  24.752  27.690  1.00  0.00     0.029 A 
ATOM     51  C   UNL A   1      47.072  26.149  28.010  1.00  0.00     0.049 A 
ATOM     52  H   UNL A   1      45.197  26.997  28.330  1.00  0.00     0.167 HD
ATOM     53  C   UNL A   1      41.213  28.693  28.922  1.00  0.00     0.037 A 
ATOM     54  C   UNL A   1      47.980  27.134  28.163  1.00  0.00     0.037 A 
ATOM     55  C   UNL A   1      42.116  29.783  29.182  1.00  0.00     0.049 A 
ATOM     56  C   UNL A   1      47.515  28.534  28.488  1.00  0.00     0.074 A 
ATOM     57  C   UNL A   1      41.816  31.074  29.584  1.00  0.00     0.029 A 
ATOM     58  N   UNL A   1      43.496  29.717  29.052  1.00  0.00    -0.354 N 
ATOM     59  N   UNL A   1      46.300  28.980  28.699  1.00  0.00    -0.248 NA
ATOM     60  C   UNL A   1      48.556  29.569  28.599  1.00  0.00     0.031 C 
ATOM     61  C   UNL A   1      43.008  31.805  29.630  1.00  0.00     0.029 A 
ATOM     62  C   UNL A   1      44.058  30.952  29.332  1.00  0.00     0.049 A 
ATOM     63  H   UNL A   1      44.000  28.910  28.798  1.00  0.00     0.167 HD
ATOM     64  C   UNL A   1      46.433  30.330  29.007  1.00  0.00     0.074 A 
ATOM     65  C   UNL A   1      47.849  30.628  28.966  1.00  0.00     0.031 C 
ATOM     66  C   UNL A   1      45.470  31.238  29.303  1.00  0.00     0.037 A 
BRANCH  53  67
ATOM     67  C   UNL A   1      39.736  28.949  29.028  1.00  0.00     0.064 A 
ATOM     68  C   UNL A   1      38.965  29.329  27.918  1.00  0.00     0.173 A 
ATOM     69  C   UNL A   1      39.081  28.797  30.259  1.00  0.00     0.173 A 
ATOM     70  F   UNL A   1      39.543  29.503  26.720  1.00  0.00    -0.203 F 
ATOM     71  C   UNL A   1      37.601  29.583  28.047  1.00  0.00     0.198 A 
ATOM     72  C   UNL A   1      37.711  29.016  30.376  1.00  0.00     0.198 A 
ATOM     73  F   UNL A   1      39.769  28.431  31.352  1.00  0.00    -0.203 F 
ATOM     74  F   UNL A   1      36.899  30.006  26.987  1.00  0.00    -0.200 F 
ATOM     75  C   UNL A   1      36.975  29.420  29.273  1.00  0.00     0.200 A 
ATOM     76  F   UNL A   1      37.104  28.842  31.559  1.00  0.00    -0.200 F 
ATOM     77  F   UNL A   1      35.662  29.661  29.394  1.00  0.00    -0.200 F 
ENDBRANCH  53  67
BRANCH  54  78
ATOM     78  C   UNL A   1      49.433  26.846  28.010  1.00  0.00     0.064 A 
ATOM     79  C   UNL A   1      50.031  26.808  26.742  1.00  0.00     0.173 A 
ATOM     80  C   UNL A   1      50.243  26.560  29.119  1.00  0.00     0.173 A 
ATOM     81  F   UNL A   1      49.294  27.043  25.646  1.00  0.00    -0.203 F 
ATOM     82  C   UNL A   1      51.377  26.477  26.587  1.00  0.00     0.198 A 
ATOM     83  C   UNL A   1      51.595  26.260  28.967  1.00  0.00     0.198 A 
ATOM     84  F   UNL A   1      49.720  26.572  30.354  1.00  0.00    -0.203 F 
ATOM     85  F   UNL A   1      51.908  26.392  25.361  1.00  0.00    -0.200 F 
ATOM     86  C   UNL A   1      52.159  26.209  27.701  1.00  0.00     0.200 A 
ATOM     87  F   UNL A   1      52.349  26.011  30.046  1.00  0.00    -0.200 F 
ATOM     88  F   UNL A   1      53.452  25.890  27.553  1.00  0.00    -0.200 F 
ENDBRANCH  54  78
BRANCH  66  89
ATOM     89  C   UNL A   1      45.911  32.632  29.664  1.00  0.00     0.064 A 
ATOM     90  C   UNL A   1      46.150  33.019  30.991  1.00  0.00     0.173 A 
ATOM     91  C   UNL A   1      46.130  33.587  28.657  1.00  0.00     0.173 A 
ATOM     92  F   UNL A   1      45.947  32.151  31.994  1.00  0.00    -0.203 F 
ATOM     93  C   UNL A   1      46.556  34.316  31.299  1.00  0.00     0.198 A 
ATOM     94  C   UNL A   1      46.572  34.870  28.965  1.00  0.00     0.198 A 
ATOM     95  F   UNL A   1      45.927  33.270  27.368  1.00  0.00    -0.203 F 
ATOM     96  F   UNL A   1      46.721  34.678  32.578  1.00  0.00    -0.200 F 
ATOM     97  C   UNL A   1      46.775  35.237  30.286  1.00  0.00     0.200 A 
ATOM     98  F   UNL A   1      46.801  35.752  27.983  1.00  0.00    -0.200 F 
ATOM     99  F   UNL A   1      47.171  36.482  30.583  1.00  0.00    -0.200 F 
ENDBRANCH  66  89
ENDBRANCH  40  41
ENDBRANCH  33  35
ENDBRANCH  32  33
ENDBRANCH  31  32
ENDBRANCH  30  31
ENDBRANCH  29  30
ENDBRANCH  28  29
ENDBRANCH  27  28
ENDBRANCH   1  27
TORSDOF 22
ENDMDL
MODEL 2
REMARK VINA RESULT:     -10.1      2.035      3.928
REMARK SMILES O=C(CSc1nc2[nH]cnc2c(=O)[nH]1)NCCC(=O)OCCOCCOCCOC(=O)c1ccc(-c2c3nc(c(-c4c(F)c(F)c(F)c(F)c4F)c4ccc([nH]4)c(-c4c(F)c(F)c(F)c(F)c4F)c4nc(c(-c5c(F)c(F)c(F)c(F)c5F)c5ccc2[nH]5)C=C4)C=C3)cc1
REMARK SMILES IDX 23 1 22 2 21 3 20 4 18 5 19 6 17 7 16 8 15 9 1 10 2 11 3 13
REMARK SMILES IDX 4 14 5 15 6 16 14 17 7 18 12 19 8 21 11 22 13 23 9 24 10 26
REMARK SMILES IDX 24 27 25 28 26 29 27 30 28 31 29 32 30 33 31 34 32 35 33 36
REMARK SMILES IDX 94 37 34 38 93 39 35 40 36 41 37 42 87 43 38 44 92 45 86 46
REMARK SMILES IDX 88 47 39 48 91 49 85 50 84 51 40 53 72 54 52 55 71 56 53 57
REMARK SMILES IDX 56 58 70 59 89 60 54 61 55 62 69 64 90 65 57 66 41 67 42 68
REMARK SMILES IDX 50 69 43 70 44 71 48 72 51 73 45 74 46 75 49 76 47 77 73 78
REMARK SMILES IDX 74 79 82 80 75 81 76 82 80 83 83 84 77 85 78 86 81 87 79 88
REMARK SMILES IDX 58 89 59 90 67 91 60 92 61 93 65 94 68 95 62 96 63 97 66 98
REMARK SMILES IDX 64 99
REMARK H PARENT 15 12 14 20 8 25 88 52 56 63
REMARK Flexibility Score: inf
ROOT
ATOM      1  O   UNL A   1      35.539  22.908  23.031  1.00  0.00    -0.376 OA
ENDROOT
BRANCH   1   2
ATOM      2  C   UNL A   1      34.144  23.045  23.295  1.00  0.00     0.202 C 
BRANCH   2   3
ATOM      3  C   UNL A   1      33.245  23.672  22.210  1.00  0.00     0.261 C 
BRANCH   3   4
ATOM      4  O   UNL A   1      32.931  25.080  22.383  1.00  0.00    -0.463 OA
BRANCH   4   5
ATOM      5  C   UNL A   1      33.197  25.876  21.317  1.00  0.00     0.307 C 
ATOM      6  O   UNL A   1      32.905  25.589  20.159  1.00  0.00    -0.252 OA
BRANCH   5   7
ATOM      7  C   UNL A   1      33.831  27.217  21.623  1.00  0.00     0.144 C 
BRANCH   7   8
ATOM      8  C   UNL A   1      33.373  28.148  22.735  1.00  0.00     0.127 C 
BRANCH   8   9
ATOM      9  N   UNL A   1      32.269  27.692  23.546  1.00  0.00    -0.355 N 
ATOM     10  O   UNL A   1      32.372  29.456  25.010  1.00  0.00    -0.274 OA
ATOM     11  C   UNL A   1      31.814  28.432  24.621  1.00  0.00     0.230 C 
ATOM     12  H   UNL A   1      31.832  26.837  23.329  1.00  0.00     0.163 HD
BRANCH  11  13
ATOM     13  C   UNL A   1      30.649  27.827  25.383  1.00  0.00     0.178 C 
BRANCH  13  14
ATOM     14  S   UNL A   1      29.979  26.330  24.616  1.00  0.00    -0.078 SA
BRANCH  14  15
ATOM     15  C   UNL A   1      30.790  25.104  25.545  1.00  0.00     0.170 A 
ATOM     16  N   UNL A   1      32.083  25.015  25.594  1.00  0.00    -0.204 NA
ATOM     17  N   UNL A   1      29.904  24.297  26.229  1.00  0.00    -0.299 N 
ATOM     18  C   UNL A   1      32.494  24.026  26.421  1.00  0.00     0.165 A 
ATOM     19  C   UNL A   1      30.294  23.278  27.083  1.00  0.00     0.279 A 
ATOM     20  H   UNL A   1      28.939  24.454  26.104  1.00  0.00     0.172 HD
ATOM     21  N   UNL A   1      33.788  23.701  26.697  1.00  0.00    -0.329 N 
ATOM     22  C   UNL A   1      31.734  23.159  27.173  1.00  0.00     0.172 A 
ATOM     23  O   UNL A   1      29.475  22.579  27.681  1.00  0.00    -0.267 OA
ATOM     24  C   UNL A   1      33.757  22.679  27.614  1.00  0.00     0.199 A 
ATOM     25  H   UNL A   1      34.592  24.118  26.312  1.00  0.00     0.169 HD
ATOM     26  N   UNL A   1      32.525  22.321  27.916  1.00  0.00    -0.229 NA
ENDBRANCH  14  15
ENDBRANCH  13  14
ENDBRANCH  11  13
ENDBRANCH   8   9
ENDBRANCH   7   8
ENDBRANCH   5   7
ENDBRANCH   4   5
ENDBRANCH   3   4
ENDBRANCH   2   3
ENDBRANCH   1   2
BRANCH   1  27
ATOM     27  C   UNL A   1      36.451  23.438  23.981  1.00  0.00     0.188 C 
BRANCH  27  28
ATOM     28  C   UNL A   1      37.143  22.467  24.947  1.00  0.00     0.188 C 
BRANCH  28  29
ATOM     29  O   UNL A   1      37.042  21.105  24.600  1.00  0.00    -0.376 OA
BRANCH  29  30
ATOM     30  C   UNL A   1      38.076  20.223  25.011  1.00  0.00     0.202 C 
BRANCH  30  31
ATOM     31  C   UNL A   1      39.298  20.806  25.752  1.00  0.00     0.261 C 
BRANCH  31  32
ATOM     32  O   UNL A   1      40.013  19.923  26.638  1.00  0.00    -0.460 OA
BRANCH  32  33
ATOM     33  C   UNL A   1      41.302  19.643  26.320  1.00  0.00     0.338 C 
ATOM     34  O   UNL A   1      41.712  18.650  25.749  1.00  0.00    -0.246 OA
BRANCH  33  35
ATOM     35  C   UNL A   1      42.097  20.885  26.520  1.00  0.00     0.060 A 
ATOM     36  C   UNL A   1      42.328  21.330  27.831  1.00  0.00     0.016 A 
ATOM     37  C   UNL A   1      42.640  21.583  25.441  1.00  0.00     0.016 A 
ATOM     38  C   UNL A   1      43.065  22.494  28.065  1.00  0.00     0.010 A 
ATOM     39  C   UNL A   1      43.357  22.764  25.673  1.00  0.00     0.010 A 
ATOM     40  C   UNL A   1      43.540  23.246  26.984  1.00  0.00    -0.014 A 
BRANCH  40  41
ATOM     41  C   UNL A   1      44.019  24.638  27.205  1.00  0.00     0.031 A 
ATOM     42  C   UNL A   1      43.021  25.661  27.679  1.00  0.00     0.074 A 
ATOM     43  C   UNL A   1      45.303  24.994  27.020  1.00  0.00     0.049 A 
ATOM     44  N   UNL A   1      43.175  26.943  27.900  1.00  0.00    -0.248 NA
ATOM     45  C   UNL A   1      41.659  25.168  27.937  1.00  0.00     0.031 C 
ATOM     46  C   UNL A   1      46.382  24.099  26.615  1.00  0.00     0.029 A 
ATOM     47  N   UNL A   1      45.911  26.220  27.148  1.00  0.00    -0.354 N 
ATOM     48  C   UNL A   1      41.931  27.407  28.306  1.00  0.00     0.074 A 
ATOM     49  C   UNL A   1      41.024  26.280  28.268  1.00  0.00     0.031 C 
ATOM     50  C   UNL A   1      47.522  24.806  26.520  1.00  0.00     0.029 A 
ATOM     51  C   UNL A   1      47.245  26.211  26.823  1.00  0.00     0.049 A 
ATOM     52  H   UNL A   1      45.435  27.029  27.445  1.00  0.00     0.167 HD
ATOM     53  C   UNL A   1      41.573  28.658  28.684  1.00  0.00     0.037 A 
ATOM     54  C   UNL A   1      48.133  27.224  26.760  1.00  0.00     0.037 A 
ATOM     55  C   UNL A   1      42.472  29.782  28.722  1.00  0.00     0.049 A 
ATOM     56  C   UNL A   1      47.690  28.628  27.099  1.00  0.00     0.074 A 
ATOM     57  C   UNL A   1      42.208  31.084  29.112  1.00  0.00     0.029 A 
ATOM     58  N   UNL A   1      43.805  29.741  28.342  1.00  0.00    -0.354 N 
ATOM     59  N   UNL A   1      46.520  29.055  27.511  1.00  0.00    -0.248 NA
ATOM     60  C   UNL A   1      48.698  29.691  26.968  1.00  0.00     0.031 C 
ATOM     61  C   UNL A   1      43.363  31.844  28.903  1.00  0.00     0.029 A 
ATOM     62  C   UNL A   1      44.368  31.002  28.455  1.00  0.00     0.049 A 
ATOM     63  H   UNL A   1      44.280  28.935  28.037  1.00  0.00     0.167 HD
ATOM     64  C   UNL A   1      46.663  30.421  27.726  1.00  0.00     0.074 A 
ATOM     65  C   UNL A   1      48.036  30.751  27.409  1.00  0.00     0.031 C 
ATOM     66  C   UNL A   1      45.741  31.321  28.152  1.00  0.00     0.037 A 
BRANCH  53  67
ATOM     67  C   UNL A   1      40.133  28.883  29.050  1.00  0.00     0.064 A 
ATOM     68  C   UNL A   1      39.677  28.785  30.374  1.00  0.00     0.173 A 
ATOM     69  C   UNL A   1      39.197  29.217  28.059  1.00  0.00     0.173 A 
ATOM     70  F   UNL A   1      40.527  28.454  31.359  1.00  0.00    -0.203 F 
ATOM     71  C   UNL A   1      38.333  28.974  30.685  1.00  0.00     0.198 A 
ATOM     72  C   UNL A   1      37.861  29.442  28.380  1.00  0.00     0.198 A 
ATOM     73  F   UNL A   1      39.578  29.329  26.777  1.00  0.00    -0.203 F 
ATOM     74  F   UNL A   1      37.910  28.812  31.947  1.00  0.00    -0.200 F 
ATOM     75  C   UNL A   1      37.428  29.309  29.689  1.00  0.00     0.200 A 
ATOM     76  F   UNL A   1      36.991  29.783  27.418  1.00  0.00    -0.200 F 
ATOM     77  F   UNL A   1      36.135  29.496  29.992  1.00  0.00    -0.200 F 
ENDBRANCH  53  67
BRANCH  54  78
ATOM     78  C   UNL A   1      49.542  26.963  26.354  1.00  0.00     0.064 A 
ATOM     79  C   UNL A   1      49.924  27.007  25.005  1.00  0.00     0.173 A 
ATOM     80  C   UNL A   1      50.524  26.622  27.296  1.00  0.00     0.173 A 
ATOM     81  F   UNL A   1      49.016  27.296  24.061  1.00  0.00    -0.203 F 
ATOM     82  C   UNL A   1      51.227  26.702  24.613  1.00  0.00     0.198 A 
ATOM     83  C   UNL A   1      51.833  26.349  26.908  1.00  0.00     0.198 A 
ATOM     84  F   UNL A   1      50.210  26.556  28.599  1.00  0.00    -0.203 F 
ATOM     85  F   UNL A   1      51.550  26.696  23.313  1.00  0.00    -0.200 F 
ATOM     86  C   UNL A   1      52.182  26.379  25.566  1.00  0.00     0.200 A 
ATOM     87  F   UNL A   1      52.755  26.046  27.832  1.00  0.00    -0.200 F 
ATOM     88  F   UNL A   1      53.434  26.085  25.189  1.00  0.00    -0.200 F 
ENDBRANCH  54  78
BRANCH  66  89
ATOM     89  C   UNL A   1      46.194  32.741  28.360  1.00  0.00     0.064 A 
ATOM     90  C   UNL A   1      46.103  33.710  27.350  1.00  0.00     0.173 A 
ATOM     91  C   UNL A   1      46.700  33.145  29.607  1.00  0.00     0.173 A 
ATOM     92  F   UNL A   1      45.638  33.377  26.136  1.00  0.00    -0.203 F 
ATOM     93  C   UNL A   1      46.532  35.017  27.568  1.00  0.00     0.198 A 
ATOM     94  C   UNL A   1      47.092  34.461  29.834  1.00  0.00     0.198 A 
ATOM     95  F   UNL A   1      46.801  32.264  30.615  1.00  0.00    -0.203 F 
ATOM     96  F   UNL A   1      46.489  35.910  26.569  1.00  0.00    -0.200 F 
ATOM     97  C   UNL A   1      47.017  35.394  28.811  1.00  0.00     0.200 A 
ATOM     98  F   UNL A   1      47.543  34.827  31.041  1.00  0.00    -0.200 F 
ATOM     99  F   UNL A   1      47.424  36.654  29.021  1.00  0.00    -0.200 F 
ENDBRANCH  66  89
ENDBRANCH  40  41
ENDBRANCH  33  35
ENDBRANCH  32  33
ENDBRANCH  31  32
ENDBRANCH  30  31
ENDBRANCH  29  30
ENDBRANCH  28  29
ENDBRANCH  27  28
ENDBRANCH   1  27
TORSDOF 22
ENDMDL
MODEL 3
REMARK VINA RESULT:      -9.9      5.831     11.067
REMARK SMILES O=C(CSc1nc2[nH]cnc2c(=O)[nH]1)NCCC(=O)OCCOCCOCCOC(=O)c1ccc(-c2c3nc(c(-c4c(F)c(F)c(F)c(F)c4F)c4ccc([nH]4)c(-c4c(F)c(F)c(F)c(F)c4F)c4nc(c(-c5c(F)c(F)c(F)c(F)c5F)c5ccc2[nH]5)C=C4)C=C3)cc1
REMARK SMILES IDX 23 1 22 2 21 3 20 4 18 5 19 6 17 7 16 8 15 9 1 10 2 11 3 13
REMARK SMILES IDX 4 14 5 15 6 16 14 17 7 18 12 19 8 21 11 22 13 23 9 24 10 26
REMARK SMILES IDX 24 27 25 28 26 29 27 30 28 31 29 32 30 33 31 34 32 35 33 36
REMARK SMILES IDX 94 37 34 38 93 39 35 40 36 41 37 42 87 43 38 44 92 45 86 46
REMARK SMILES IDX 88 47 39 48 91 49 85 50 84 51 40 53 72 54 52 55 71 56 53 57
REMARK SMILES IDX 56 58 70 59 89 60 54 61 55 62 69 64 90 65 57 66 41 67 42 68
REMARK SMILES IDX 50 69 43 70 44 71 48 72 51 73 45 74 46 75 49 76 47 77 73 78
REMARK SMILES IDX 74 79 82 80 75 81 76 82 80 83 83 84 77 85 78 86 81 87 79 88
REMARK SMILES IDX 58 89 59 90 67 91 60 92 61 93 65 94 68 95 62 96 63 97 66 98
REMARK SMILES IDX 64 99
REMARK H PARENT 15 12 14 20 8 25 88 52 56 63
REMARK Flexibility Score: inf
ROOT
ATOM      1  O   UNL A   1      44.495  23.201  24.327  1.00  0.00    -0.376 OA
ENDROOT
BRANCH   1   2
ATOM      2  C   UNL A   1      43.745  24.239  24.955  1.00  0.00     0.202 C 
BRANCH   2   3
ATOM      3  C   UNL A   1      44.508  25.367  25.678  1.00  0.00     0.261 C 
BRANCH   3   4
ATOM      4  O   UNL A   1      44.613  26.625  24.959  1.00  0.00    -0.463 OA
BRANCH   4   5
ATOM      5  C   UNL A   1      43.654  27.544  25.240  1.00  0.00     0.307 C 
ATOM      6  O   UNL A   1      42.667  27.739  24.536  1.00  0.00    -0.252 OA
BRANCH   5   7
ATOM      7  C   UNL A   1      43.815  28.302  26.541  1.00  0.00     0.144 C 
BRANCH   7   8
ATOM      8  C   UNL A   1      43.171  29.648  26.834  1.00  0.00     0.127 C 
BRANCH   8   9
ATOM      9  N   UNL A   1      43.914  30.820  26.433  1.00  0.00    -0.355 N 
ATOM     10  O   UNL A   1      44.124  31.645  28.564  1.00  0.00    -0.274 OA
ATOM     11  C   UNL A   1      44.386  31.725  27.366  1.00  0.00     0.230 C 
ATOM     12  H   UNL A   1      44.086  30.978  25.477  1.00  0.00     0.163 HD
BRANCH  11  13
ATOM     13  C   UNL A   1      45.147  32.909  26.799  1.00  0.00     0.178 C 
BRANCH  13  14
ATOM     14  S   UNL A   1      44.228  33.824  25.535  1.00  0.00    -0.078 SA
BRANCH  14  15
ATOM     15  C   UNL A   1      43.828  35.270  26.413  1.00  0.00     0.170 A 
ATOM     16  N   UNL A   1      42.862  36.056  26.048  1.00  0.00    -0.204 NA
ATOM     17  N   UNL A   1      44.619  35.438  27.531  1.00  0.00    -0.299 N 
ATOM     18  C   UNL A   1      42.693  37.087  26.908  1.00  0.00     0.165 A 
ATOM     19  C   UNL A   1      44.470  36.482  28.430  1.00  0.00     0.279 A 
ATOM     20  H   UNL A   1      45.331  34.778  27.700  1.00  0.00     0.172 HD
ATOM     21  N   UNL A   1      41.750  38.065  26.808  1.00  0.00    -0.329 N 
ATOM     22  C   UNL A   1      43.390  37.372  28.060  1.00  0.00     0.172 A 
ATOM     23  O   UNL A   1      45.192  36.598  29.419  1.00  0.00    -0.267 OA
ATOM     24  C   UNL A   1      41.897  38.878  27.904  1.00  0.00     0.199 A 
ATOM     25  H   UNL A   1      41.089  38.170  26.086  1.00  0.00     0.169 HD
ATOM     26  N   UNL A   1      42.890  38.489  28.679  1.00  0.00    -0.229 NA
ENDBRANCH  14  15
ENDBRANCH  13  14
ENDBRANCH  11  13
ENDBRANCH   8   9
ENDBRANCH   7   8
ENDBRANCH   5   7
ENDBRANCH   4   5
ENDBRANCH   3   4
ENDBRANCH   2   3
ENDBRANCH   1   2
BRANCH   1  27
ATOM     27  C   UNL A   1      45.113  22.230  25.157  1.00  0.00     0.188 C 
BRANCH  27  28
ATOM     28  C   UNL A   1      44.412  20.878  25.344  1.00  0.00     0.188 C 
BRANCH  28  29
ATOM     29  O   UNL A   1      43.012  20.903  25.190  1.00  0.00    -0.376 OA
BRANCH  29  30
ATOM     30  C   UNL A   1      42.211  20.265  26.172  1.00  0.00     0.202 C 
BRANCH  30  31
ATOM     31  C   UNL A   1      41.003  21.029  26.756  1.00  0.00     0.261 C 
BRANCH  31  32
ATOM     32  O   UNL A   1      40.922  22.441  26.481  1.00  0.00    -0.460 OA
BRANCH  32  33
ATOM     33  C   UNL A   1      39.682  22.985  26.412  1.00  0.00     0.338 C 
ATOM     34  O   UNL A   1      38.657  22.421  26.076  1.00  0.00    -0.246 OA
BRANCH  33  35
ATOM     35  C   UNL A   1      39.728  24.305  27.097  1.00  0.00     0.060 A 
ATOM     36  C   UNL A   1      40.321  25.388  26.429  1.00  0.00     0.016 A 
ATOM     37  C   UNL A   1      39.166  24.489  28.361  1.00  0.00     0.016 A 
ATOM     38  C   UNL A   1      40.391  26.644  27.037  1.00  0.00     0.010 A 
ATOM     39  C   UNL A   1      39.258  25.741  28.982  1.00  0.00     0.010 A 
ATOM     40  C   UNL A   1      39.906  26.815  28.339  1.00  0.00    -0.014 A 
BRANCH  40  41
ATOM     41  C   UNL A   1      40.276  28.032  29.112  1.00  0.00     0.031 A 
ATOM     42  C   UNL A   1      41.665  28.107  29.688  1.00  0.00     0.074 A 
ATOM     43  C   UNL A   1      39.426  29.060  29.285  1.00  0.00     0.049 A 
ATOM     44  N   UNL A   1      42.214  29.033  30.435  1.00  0.00    -0.248 NA
ATOM     45  C   UNL A   1      42.557  26.978  29.381  1.00  0.00     0.031 C 
ATOM     46  C   UNL A   1      38.074  29.144  28.740  1.00  0.00     0.029 A 
ATOM     47  N   UNL A   1      39.583  30.235  29.980  1.00  0.00    -0.354 N 
ATOM     48  C   UNL A   1      43.504  28.589  30.696  1.00  0.00     0.074 A 
ATOM     49  C   UNL A   1      43.646  27.298  30.059  1.00  0.00     0.031 C 
ATOM     50  C   UNL A   1      37.520  30.307  29.128  1.00  0.00     0.029 A 
ATOM     51  C   UNL A   1      38.465  31.032  29.977  1.00  0.00     0.049 A 
ATOM     52  H   UNL A   1      40.419  30.481  30.438  1.00  0.00     0.167 HD
ATOM     53  C   UNL A   1      44.487  29.203  31.398  1.00  0.00     0.037 A 
ATOM     54  C   UNL A   1      38.229  32.202  30.604  1.00  0.00     0.037 A 
ATOM     55  C   UNL A   1      44.348  30.487  32.034  1.00  0.00     0.049 A 
ATOM     56  C   UNL A   1      39.310  32.826  31.455  1.00  0.00     0.074 A 
ATOM     57  C   UNL A   1      45.295  31.202  32.749  1.00  0.00     0.029 A 
ATOM     58  N   UNL A   1      43.186  31.243  32.045  1.00  0.00    -0.354 N 
ATOM     59  N   UNL A   1      40.537  32.417  31.673  1.00  0.00    -0.248 NA
ATOM     60  C   UNL A   1      38.970  34.080  32.145  1.00  0.00     0.031 C 
ATOM     61  C   UNL A   1      44.684  32.356  33.250  1.00  0.00     0.029 A 
ATOM     62  C   UNL A   1      43.380  32.399  32.783  1.00  0.00     0.049 A 
ATOM     63  H   UNL A   1      42.346  30.993  31.595  1.00  0.00     0.167 HD
ATOM     64  C   UNL A   1      41.125  33.379  32.487  1.00  0.00     0.074 A 
ATOM     65  C   UNL A   1      40.123  34.399  32.715  1.00  0.00     0.031 C 
ATOM     66  C   UNL A   1      42.382  33.418  32.995  1.00  0.00     0.037 A 
BRANCH  53  67
ATOM     67  C   UNL A   1      45.791  28.470  31.546  1.00  0.00     0.064 A 
ATOM     68  C   UNL A   1      46.855  28.657  30.651  1.00  0.00     0.173 A 
ATOM     69  C   UNL A   1      45.980  27.577  32.611  1.00  0.00     0.173 A 
ATOM     70  F   UNL A   1      46.723  29.489  29.606  1.00  0.00    -0.203 F 
ATOM     71  C   UNL A   1      48.046  27.948  30.795  1.00  0.00     0.198 A 
ATOM     72  C   UNL A   1      47.185  26.898  32.773  1.00  0.00     0.198 A 
ATOM     73  F   UNL A   1      44.998  27.363  33.500  1.00  0.00    -0.203 F 
ATOM     74  F   UNL A   1      49.024  28.095  29.891  1.00  0.00    -0.200 F 
ATOM     75  C   UNL A   1      48.212  27.074  31.859  1.00  0.00     0.200 A 
ATOM     76  F   UNL A   1      47.349  26.066  33.812  1.00  0.00    -0.200 F 
ATOM     77  F   UNL A   1      49.360  26.396  31.999  1.00  0.00    -0.200 F 
ENDBRANCH  53  67
BRANCH  54  78
ATOM     78  C   UNL A   1      36.908  32.876  30.462  1.00  0.00     0.064 A 
ATOM     79  C   UNL A   1      35.917  32.735  31.445  1.00  0.00     0.173 A 
ATOM     80  C   UNL A   1      36.593  33.637  29.326  1.00  0.00     0.173 A 
ATOM     81  F   UNL A   1      36.156  31.991  32.535  1.00  0.00    -0.203 F 
ATOM     82  C   UNL A   1      34.657  33.311  31.287  1.00  0.00     0.198 A 
ATOM     83  C   UNL A   1      35.345  34.240  29.185  1.00  0.00     0.198 A 
ATOM     84  F   UNL A   1      37.501  33.796  28.352  1.00  0.00    -0.203 F 
ATOM     85  F   UNL A   1      33.711  33.113  32.214  1.00  0.00    -0.200 F 
ATOM     86  C   UNL A   1      34.375  34.068  30.160  1.00  0.00     0.200 A 
ATOM     87  F   UNL A   1      35.079  34.977  28.098  1.00  0.00    -0.200 F 
ATOM     88  F   UNL A   1      33.164  34.622  30.009  1.00  0.00    -0.200 F 
ENDBRANCH  54  78
BRANCH  66  89
ATOM     89  C   UNL A   1      42.773  34.627  33.801  1.00  0.00     0.064 A 
ATOM     90  C   UNL A   1      42.714  34.641  35.203  1.00  0.00     0.173 A 
ATOM     91  C   UNL A   1      43.247  35.782  33.157  1.00  0.00     0.173 A 
ATOM     92  F   UNL A   1      42.259  33.570  35.870  1.00  0.00    -0.203 F 
ATOM     93  C   UNL A   1      43.081  35.775  35.926  1.00  0.00     0.198 A 
ATOM     94  C   UNL A   1      43.649  36.899  33.884  1.00  0.00     0.198 A 
ATOM     95  F   UNL A   1      43.335  35.823  31.818  1.00  0.00    -0.203 F 
ATOM     96  F   UNL A   1      42.960  35.784  37.260  1.00  0.00    -0.200 F 
ATOM     97  C   UNL A   1      43.555  36.899  35.267  1.00  0.00     0.200 A 
ATOM     98  F   UNL A   1      44.124  37.977  33.246  1.00  0.00    -0.200 F 
ATOM     99  F   UNL A   1      43.913  37.987  35.964  1.00  0.00    -0.200 F 
ENDBRANCH  66  89
ENDBRANCH  40  41
ENDBRANCH  33  35
ENDBRANCH  32  33
ENDBRANCH  31  32
ENDBRANCH  30  31
ENDBRANCH  29  30
ENDBRANCH  28  29
ENDBRANCH  27  28
ENDBRANCH   1  27
TORSDOF 22
ENDMDL
