MODEL 1
REMARK VINA RESULT:      -9.5      0.000      0.000
REMARK SMILES O=C(Cn1c(-c2nc(-c3ccc(C(F)(F)F)cc3)no2)cc2ccccc21)OCCOCCOCCOC(=O)c1ccc(-c2c3nc(c(-c4c(F)c(F)c(F)c(F)c4F)c4ccc([nH]4)c(-c4c(F)c(F)c(F)c(F)c4F)c4nc(c(-c5c(F)c(F)c(F)c(F)c5F)c5ccc2[nH]5)C=C4)C=C3)cc1
REMARK SMILES IDX 32 1 31 2 30 3 29 4 28 5 2 6 1 7 3 8 4 9 5 10 27 11 21 12
REMARK SMILES IDX 22 13 26 14 23 15 25 16 24 17 6 18 7 19 20 20 8 21 19 22
REMARK SMILES IDX 9 23 10 24 18 25 11 26 17 27 12 28 13 29 14 30 15 31 16 32
REMARK SMILES IDX 33 33 34 34 35 35 36 36 37 37 38 38 39 39 40 40 41 41 102 42
REMARK SMILES IDX 42 43 101 44 43 45 44 46 45 47 95 48 46 49 100 50 94 51
REMARK SMILES IDX 96 52 47 53 99 54 93 55 92 56 48 58 80 59 60 60 79 61 61 62
REMARK SMILES IDX 64 63 78 64 97 65 62 66 63 67 77 69 98 70 65 71 49 72 50 73
REMARK SMILES IDX 58 74 51 75 52 76 56 77 59 78 53 79 54 80 57 81 55 82 81 83
REMARK SMILES IDX 82 84 90 85 83 86 84 87 88 88 91 89 85 90 86 91 89 92 87 93
REMARK SMILES IDX 66 94 67 95 75 96 68 97 69 98 73 99 76 100 70 101 71 102
REMARK SMILES IDX 74 103 72 104
REMARK H PARENT 96 57 64 68
REMARK Flexibility Score: inf
ROOT
ATOM      1  C   UNL A   1      48.739  29.413  30.749  1.00  0.00     0.188 C 
ENDROOT
BRANCH   1   2
ATOM      2  O   UNL A   1      47.681  29.979  29.965  1.00  0.00    -0.376 OA
BRANCH   2   3
ATOM      3  C   UNL A   1      46.346  29.462  30.058  1.00  0.00     0.202 C 
BRANCH   3   4
ATOM      4  C   UNL A   1      45.454  29.150  28.834  1.00  0.00     0.261 C 
BRANCH   4   5
ATOM      5  O   UNL A   1      44.543  28.058  28.855  1.00  0.00    -0.462 OA
BRANCH   5   6
ATOM      6  C   UNL A   1      44.711  27.009  28.046  1.00  0.00     0.326 C 
ATOM      7  O   UNL A   1      44.440  25.870  28.439  1.00  0.00    -0.250 OA
BRANCH   6   8
ATOM      8  C   UNL A   1      45.312  27.245  26.680  1.00  0.00     0.245 C 
BRANCH   8   9
ATOM      9  N   UNL A   1      46.244  26.242  26.387  1.00  0.00    -0.325 N 
ATOM     10  C   UNL A   1      45.845  25.477  25.302  1.00  0.00     0.109 A 
ATOM     11  C   UNL A   1      47.588  26.449  26.652  1.00  0.00     0.049 A 
ATOM     12  C   UNL A   1      47.163  25.411  24.689  1.00  0.00     0.042 A 
ATOM     13  C   UNL A   1      48.248  25.910  25.572  1.00  0.00     0.000 A 
ATOM     14  C   UNL A   1      48.251  27.229  27.642  1.00  0.00     0.027 A 
ATOM     15  C   UNL A   1      49.675  26.062  25.545  1.00  0.00     0.010 A 
ATOM     16  C   UNL A   1      49.619  27.491  27.514  1.00  0.00     0.002 A 
ATOM     17  C   UNL A   1      50.335  26.885  26.494  1.00  0.00     0.001 A 
BRANCH  10  18
ATOM     18  C   UNL A   1      44.147  25.032  25.099  1.00  0.00     0.274 A 
ATOM     19  N   UNL A   1      43.083  25.902  25.084  1.00  0.00    -0.185 NA
ATOM     20  O   UNL A   1      43.516  23.800  25.318  1.00  0.00    -0.332 OA
ATOM     21  C   UNL A   1      41.969  25.424  25.906  1.00  0.00     0.202 A 
ATOM     22  N   UNL A   1      42.089  24.062  25.653  1.00  0.00    -0.057 NA
BRANCH  21  23
ATOM     23  C   UNL A   1      40.859  26.053  27.293  1.00  0.00     0.023 A 
ATOM     24  C   UNL A   1      41.259  27.744  26.856  1.00  0.00     0.013 A 
ATOM     25  C   UNL A   1      39.545  26.173  28.928  1.00  0.00     0.013 A 
ATOM     26  C   UNL A   1      40.505  28.989  27.639  1.00  0.00     0.014 A 
ATOM     27  C   UNL A   1      38.973  27.583  29.521  1.00  0.00     0.014 A 
ATOM     28  C   UNL A   1      39.414  28.878  28.850  1.00  0.00     0.056 A 
BRANCH  28  29
ATOM     29  C   UNL A   1      38.618  30.087  29.323  1.00  0.00     0.416 C 
ATOM     30  F   UNL A   1      38.287  30.946  28.330  1.00  0.00    -0.166 F 
ATOM     31  F   UNL A   1      37.449  29.703  29.907  1.00  0.00    -0.166 F 
ATOM     32  F   UNL A   1      39.285  30.805  30.266  1.00  0.00    -0.166 F 
ENDBRANCH  28  29
ENDBRANCH  21  23
ENDBRANCH  10  18
ENDBRANCH   8   9
ENDBRANCH   6   8
ENDBRANCH   5   6
ENDBRANCH   4   5
ENDBRANCH   3   4
ENDBRANCH   2   3
ENDBRANCH   1   2
BRANCH   1  33
ATOM     33  C   UNL A   1      48.739  28.230  31.693  1.00  0.00     0.188 C 
BRANCH  33  34
ATOM     34  O   UNL A   1      49.194  27.086  31.031  1.00  0.00    -0.376 OA
BRANCH  34  35
ATOM     35  C   UNL A   1      48.435  25.965  31.483  1.00  0.00     0.202 C 
BRANCH  35  36
ATOM     36  C   UNL A   1      46.931  25.880  30.934  1.00  0.00     0.261 C 
BRANCH  36  37
ATOM     37  O   UNL A   1      45.762  26.457  31.747  1.00  0.00    -0.460 OA
BRANCH  37  38
ATOM     38  C   UNL A   1      44.443  26.032  31.739  1.00  0.00     0.338 C 
ATOM     39  O   UNL A   1      44.121  24.855  31.672  1.00  0.00    -0.246 OA
BRANCH  38  40
ATOM     40  C   UNL A   1      43.431  27.170  32.157  1.00  0.00     0.060 A 
ATOM     41  C   UNL A   1      42.283  27.581  31.450  1.00  0.00     0.016 A 
ATOM     42  C   UNL A   1      43.664  27.930  33.310  1.00  0.00     0.016 A 
ATOM     43  C   UNL A   1      41.553  28.853  31.717  1.00  0.00     0.010 A 
ATOM     44  C   UNL A   1      42.968  29.197  33.551  1.00  0.00     0.010 A 
ATOM     45  C   UNL A   1      41.977  29.834  32.657  1.00  0.00    -0.014 A 
BRANCH  45  46
ATOM     46  C   UNL A   1      41.123  31.371  33.024  1.00  0.00     0.031 A 
ATOM     47  C   UNL A   1      42.318  32.030  31.997  1.00  0.00     0.074 A 
ATOM     48  C   UNL A   1      39.680  31.909  33.666  1.00  0.00     0.049 A 
ATOM     49  N   UNL A   1      43.406  32.623  32.421  1.00  0.00    -0.248 NA
ATOM     50  C   UNL A   1      42.630  31.598  30.551  1.00  0.00     0.031 C 
ATOM     51  C   UNL A   1      38.273  31.589  34.543  1.00  0.00     0.029 A 
ATOM     52  N   UNL A   1      38.750  32.900  33.228  1.00  0.00    -0.354 N 
ATOM     53  C   UNL A   1      44.106  33.109  31.302  1.00  0.00     0.074 A 
ATOM     54  C   UNL A   1      43.808  32.179  30.267  1.00  0.00     0.031 C 
ATOM     55  C   UNL A   1      37.030  32.010  34.083  1.00  0.00     0.029 A 
ATOM     56  C   UNL A   1      37.272  32.886  33.004  1.00  0.00     0.049 A 
ATOM     57  H   UNL A   1      39.167  33.770  33.034  1.00  0.00     0.167 HD
ATOM     58  C   UNL A   1      44.457  34.441  31.246  1.00  0.00     0.037 A 
ATOM     59  C   UNL A   1      36.621  33.603  31.954  1.00  0.00     0.037 A 
ATOM     60  C   UNL A   1      44.240  35.008  32.557  1.00  0.00     0.049 A 
ATOM     61  C   UNL A   1      37.860  34.495  31.041  1.00  0.00     0.074 A 
ATOM     62  C   UNL A   1      44.691  34.708  33.835  1.00  0.00     0.029 A 
ATOM     63  N   UNL A   1      42.966  35.508  32.715  1.00  0.00    -0.354 N 
ATOM     64  N   UNL A   1      38.648  34.827  32.497  1.00  0.00    -0.248 NA
ATOM     65  C   UNL A   1      39.446  33.958  29.579  1.00  0.00     0.031 C 
ATOM     66  C   UNL A   1      43.491  34.483  34.590  1.00  0.00     0.029 A 
ATOM     67  C   UNL A   1      42.436  34.769  33.733  1.00  0.00     0.049 A 
ATOM     68  H   UNL A   1      42.535  36.233  32.208  1.00  0.00     0.167 HD
ATOM     69  C   UNL A   1      40.358  34.285  32.457  1.00  0.00     0.074 A 
ATOM     70  C   UNL A   1      40.789  33.783  30.638  1.00  0.00     0.031 C 
ATOM     71  C   UNL A   1      41.045  34.515  33.712  1.00  0.00     0.037 A 
BRANCH  58  72
ATOM     72  C   UNL A   1      44.456  35.389  30.038  1.00  0.00     0.064 A 
ATOM     73  C   UNL A   1      45.361  36.487  30.049  1.00  0.00     0.173 A 
ATOM     74  C   UNL A   1      43.484  35.452  29.021  1.00  0.00     0.173 A 
ATOM     75  F   UNL A   1      46.328  36.576  30.974  1.00  0.00    -0.203 F 
ATOM     76  C   UNL A   1      45.254  37.575  29.175  1.00  0.00     0.198 A 
ATOM     77  C   UNL A   1      43.404  36.525  28.120  1.00  0.00     0.198 A 
ATOM     78  F   UNL A   1      42.521  34.534  28.901  1.00  0.00    -0.203 F 
ATOM     79  F   UNL A   1      46.071  38.628  29.320  1.00  0.00    -0.200 F 
ATOM     80  C   UNL A   1      44.275  37.593  28.207  1.00  0.00     0.200 A 
ATOM     81  F   UNL A   1      42.428  36.545  27.201  1.00  0.00    -0.200 F 
ATOM     82  F   UNL A   1      44.150  38.643  27.386  1.00  0.00    -0.200 F 
ENDBRANCH  58  72
BRANCH  59  83
ATOM     83  C   UNL A   1      35.214  33.738  31.260  1.00  0.00     0.064 A 
ATOM     84  C   UNL A   1      34.236  34.661  31.722  1.00  0.00     0.173 A 
ATOM     85  C   UNL A   1      35.055  33.402  29.893  1.00  0.00     0.173 A 
ATOM     86  F   UNL A   1      34.208  35.014  33.014  1.00  0.00    -0.203 F 
ATOM     87  C   UNL A   1      33.309  35.307  30.858  1.00  0.00     0.198 A 
ATOM     88  C   UNL A   1      34.200  34.115  29.018  1.00  0.00     0.198 A 
ATOM     89  F   UNL A   1      35.852  32.493  29.326  1.00  0.00    -0.203 F 
ATOM     90  F   UNL A   1      32.448  36.219  31.338  1.00  0.00    -0.200 F 
ATOM     91  C   UNL A   1      33.350  35.091  29.494  1.00  0.00     0.200 A 
ATOM     92  F   UNL A   1      34.323  33.955  27.689  1.00  0.00    -0.200 F 
ATOM     93  F   UNL A   1      32.644  35.860  28.648  1.00  0.00    -0.200 F 
ENDBRANCH  59  83
BRANCH  71  94
ATOM     94  C   UNL A   1      40.438  34.543  35.223  1.00  0.00     0.064 A 
ATOM     95  C   UNL A   1      40.552  33.496  36.179  1.00  0.00     0.173 A 
ATOM     96  C   UNL A   1      40.096  35.733  35.877  1.00  0.00     0.173 A 
ATOM     97  F   UNL A   1      41.568  32.624  36.105  1.00  0.00    -0.203 F 
ATOM     98  C   UNL A   1      39.900  33.445  37.420  1.00  0.00     0.198 A 
ATOM     99  C   UNL A   1      39.700  35.776  37.242  1.00  0.00     0.198 A 
ATOM    100  F   UNL A   1      40.273  36.905  35.251  1.00  0.00    -0.203 F 
ATOM    101  F   UNL A   1      39.833  32.301  38.120  1.00  0.00    -0.200 F 
ATOM    102  C   UNL A   1      39.501  34.620  37.979  1.00  0.00     0.200 A 
ATOM    103  F   UNL A   1      39.581  36.955  37.867  1.00  0.00    -0.200 F 
ATOM    104  F   UNL A   1      39.083  34.651  39.252  1.00  0.00    -0.200 F 
ENDBRANCH  71  94
ENDBRANCH  45  46
ENDBRANCH  38  40
ENDBRANCH  37  38
ENDBRANCH  36  37
ENDBRANCH  35  36
ENDBRANCH  34  35
ENDBRANCH  33  34
ENDBRANCH   1  33
TORSDOF 21
ENDMDL
MODEL 2
REMARK VINA RESULT:      -9.2      6.903     12.532
REMARK SMILES O=C(Cn1c(-c2nc(-c3ccc(C(F)(F)F)cc3)no2)cc2ccccc21)OCCOCCOCCOC(=O)c1ccc(-c2c3nc(c(-c4c(F)c(F)c(F)c(F)c4F)c4ccc([nH]4)c(-c4c(F)c(F)c(F)c(F)c4F)c4nc(c(-c5c(F)c(F)c(F)c(F)c5F)c5ccc2[nH]5)C=C4)C=C3)cc1
REMARK SMILES IDX 32 1 31 2 30 3 29 4 28 5 2 6 1 7 3 8 4 9 5 10 27 11 21 12
REMARK SMILES IDX 22 13 26 14 23 15 25 16 24 17 6 18 7 19 20 20 8 21 19 22
REMARK SMILES IDX 9 23 10 24 18 25 11 26 17 27 12 28 13 29 14 30 15 31 16 32
REMARK SMILES IDX 33 33 34 34 35 35 36 36 37 37 38 38 39 39 40 40 41 41 102 42
REMARK SMILES IDX 42 43 101 44 43 45 44 46 45 47 95 48 46 49 100 50 94 51
REMARK SMILES IDX 96 52 47 53 99 54 93 55 92 56 48 58 80 59 60 60 79 61 61 62
REMARK SMILES IDX 64 63 78 64 97 65 62 66 63 67 77 69 98 70 65 71 49 72 50 73
REMARK SMILES IDX 58 74 51 75 52 76 56 77 59 78 53 79 54 80 57 81 55 82 81 83
REMARK SMILES IDX 82 84 90 85 83 86 84 87 88 88 91 89 85 90 86 91 89 92 87 93
REMARK SMILES IDX 66 94 67 95 75 96 68 97 69 98 73 99 76 100 70 101 71 102
REMARK SMILES IDX 74 103 72 104
REMARK H PARENT 96 57 64 68
REMARK Flexibility Score: inf
ROOT
ATOM      1  C   UNL A   1      37.616  30.537  28.439  1.00  0.00     0.188 C 
ENDROOT
BRANCH   1   2
ATOM      2  O   UNL A   1      36.465  30.499  27.586  1.00  0.00    -0.376 OA
BRANCH   2   3
ATOM      3  C   UNL A   1      35.247  29.882  28.028  1.00  0.00     0.202 C 
BRANCH   3   4
ATOM      4  C   UNL A   1      33.896  30.010  27.286  1.00  0.00     0.261 C 
BRANCH   4   5
ATOM      5  O   UNL A   1      33.689  29.368  26.034  1.00  0.00    -0.462 OA
BRANCH   5   6
ATOM      6  C   UNL A   1      33.366  28.073  25.971  1.00  0.00     0.326 C 
ATOM      7  O   UNL A   1      34.187  27.247  25.564  1.00  0.00    -0.250 OA
BRANCH   6   8
ATOM      8  C   UNL A   1      31.957  27.667  26.333  1.00  0.00     0.245 C 
BRANCH   8   9
ATOM      9  N   UNL A   1      31.353  27.016  25.250  1.00  0.00    -0.325 N 
ATOM     10  C   UNL A   1      30.900  25.754  25.602  1.00  0.00     0.109 A 
ATOM     11  C   UNL A   1      30.705  27.755  24.274  1.00  0.00     0.049 A 
ATOM     12  C   UNL A   1      29.640  25.856  24.882  1.00  0.00     0.042 A 
ATOM     13  C   UNL A   1      29.571  27.034  23.980  1.00  0.00     0.000 A 
ATOM     14  C   UNL A   1      30.922  29.074  23.781  1.00  0.00     0.027 A 
ATOM     15  C   UNL A   1      28.656  27.621  23.043  1.00  0.00     0.010 A 
ATOM     16  C   UNL A   1      29.944  29.685  22.989  1.00  0.00     0.002 A 
ATOM     17  C   UNL A   1      28.836  28.955  22.593  1.00  0.00     0.001 A 
BRANCH  10  18
ATOM     18  C   UNL A   1      31.857  24.730  26.678  1.00  0.00     0.274 A 
ATOM     19  N   UNL A   1      33.174  24.380  26.498  1.00  0.00    -0.185 NA
ATOM     20  O   UNL A   1      31.430  23.790  27.626  1.00  0.00    -0.332 OA
ATOM     21  C   UNL A   1      33.402  22.954  26.738  1.00  0.00     0.202 A 
ATOM     22  N   UNL A   1      32.503  22.769  27.782  1.00  0.00    -0.057 NA
BRANCH  21  23
ATOM     23  C   UNL A   1      34.187  21.478  25.868  1.00  0.00     0.023 A 
ATOM     24  C   UNL A   1      32.577  20.716  25.690  1.00  0.00     0.013 A 
ATOM     25  C   UNL A   1      35.558  20.142  25.000  1.00  0.00     0.013 A 
ATOM     26  C   UNL A   1      32.430  19.303  24.845  1.00  0.00     0.014 A 
ATOM     27  C   UNL A   1      35.116  18.769  24.236  1.00  0.00     0.014 A 
ATOM     28  C   UNL A   1      33.630  18.443  24.144  1.00  0.00     0.056 A 
BRANCH  28  29
ATOM     29  C   UNL A   1      33.338  17.289  23.196  1.00  0.00     0.416 C 
ATOM     30  F   UNL A   1      32.991  16.140  23.822  1.00  0.00    -0.166 F 
ATOM     31  F   UNL A   1      32.310  17.597  22.356  1.00  0.00    -0.166 F 
ATOM     32  F   UNL A   1      34.397  17.001  22.392  1.00  0.00    -0.166 F 
ENDBRANCH  28  29
ENDBRANCH  21  23
ENDBRANCH  10  18
ENDBRANCH   8   9
ENDBRANCH   6   8
ENDBRANCH   5   6
ENDBRANCH   4   5
ENDBRANCH   3   4
ENDBRANCH   2   3
ENDBRANCH   1   2
BRANCH   1  33
ATOM     33  C   UNL A   1      38.126  31.631  29.351  1.00  0.00     0.188 C 
BRANCH  33  34
ATOM     34  O   UNL A   1      37.247  32.718  29.339  1.00  0.00    -0.376 OA
BRANCH  34  35
ATOM     35  C   UNL A   1      36.783  32.944  30.670  1.00  0.00     0.202 C 
BRANCH  35  36
ATOM     36  C   UNL A   1      37.819  32.574  31.836  1.00  0.00     0.261 C 
BRANCH  36  37
ATOM     37  O   UNL A   1      37.438  31.577  32.942  1.00  0.00    -0.460 OA
BRANCH  37  38
ATOM     38  C   UNL A   1      38.256  31.082  33.944  1.00  0.00     0.338 C 
ATOM     39  O   UNL A   1      37.999  31.194  35.134  1.00  0.00    -0.246 OA
BRANCH  38  40
ATOM     40  C   UNL A   1      39.355  30.087  33.401  1.00  0.00     0.060 A 
ATOM     41  C   UNL A   1      40.610  29.814  33.982  1.00  0.00     0.016 A 
ATOM     42  C   UNL A   1      39.154  29.410  32.191  1.00  0.00     0.016 A 
ATOM     43  C   UNL A   1      41.722  29.122  33.272  1.00  0.00     0.010 A 
ATOM     44  C   UNL A   1      40.259  28.760  31.479  1.00  0.00     0.010 A 
ATOM     45  C   UNL A   1      41.675  28.732  31.904  1.00  0.00    -0.014 A 
BRANCH  45  46
ATOM     46  C   UNL A   1      42.982  27.883  31.011  1.00  0.00     0.031 A 
ATOM     47  C   UNL A   1      43.169  29.409  30.265  1.00  0.00     0.074 A 
ATOM     48  C   UNL A   1      43.886  26.483  31.094  1.00  0.00     0.049 A 
ATOM     49  N   UNL A   1      42.675  29.719  29.093  1.00  0.00    -0.248 NA
ATOM     50  C   UNL A   1      43.410  30.756  30.973  1.00  0.00     0.031 C 
ATOM     51  C   UNL A   1      44.114  24.940  31.740  1.00  0.00     0.029 A 
ATOM     52  N   UNL A   1      45.287  26.240  30.961  1.00  0.00    -0.354 N 
ATOM     53  C   UNL A   1      43.098  31.021  28.768  1.00  0.00     0.074 A 
ATOM     54  C   UNL A   1      43.197  31.683  30.023  1.00  0.00     0.031 C 
ATOM     55  C   UNL A   1      45.358  24.538  32.217  1.00  0.00     0.029 A 
ATOM     56  C   UNL A   1      46.285  25.520  31.809  1.00  0.00     0.049 A 
ATOM     57  H   UNL A   1      45.674  26.626  30.142  1.00  0.00     0.167 HD
ATOM     58  C   UNL A   1      43.750  31.245  27.574  1.00  0.00     0.037 A 
ATOM     59  C   UNL A   1      47.641  25.940  31.970  1.00  0.00     0.037 A 
ATOM     60  C   UNL A   1      43.602  30.058  26.762  1.00  0.00     0.049 A 
ATOM     61  C   UNL A   1      47.892  27.395  30.978  1.00  0.00     0.074 A 
ATOM     62  C   UNL A   1      42.519  29.326  26.295  1.00  0.00     0.029 A 
ATOM     63  N   UNL A   1      44.614  29.146  26.967  1.00  0.00    -0.354 N 
ATOM     64  N   UNL A   1      46.915  26.710  29.783  1.00  0.00    -0.248 NA
ATOM     65  C   UNL A   1      47.300  29.533  31.122  1.00  0.00     0.031 C 
ATOM     66  C   UNL A   1      42.741  28.003  26.807  1.00  0.00     0.029 A 
ATOM     67  C   UNL A   1      43.978  28.034  27.439  1.00  0.00     0.049 A 
ATOM     68  H   UNL A   1      45.578  29.268  26.810  1.00  0.00     0.167 HD
ATOM     69  C   UNL A   1      45.555  27.795  29.345  1.00  0.00     0.074 A 
ATOM     70  C   UNL A   1      45.860  29.514  30.183  1.00  0.00     0.031 C 
ATOM     71  C   UNL A   1      44.673  27.212  28.355  1.00  0.00     0.037 A 
BRANCH  58  72
ATOM     72  C   UNL A   1      44.933  32.179  27.281  1.00  0.00     0.064 A 
ATOM     73  C   UNL A   1      44.671  33.393  26.585  1.00  0.00     0.173 A 
ATOM     74  C   UNL A   1      46.301  31.864  27.397  1.00  0.00     0.173 A 
ATOM     75  F   UNL A   1      43.413  33.813  26.378  1.00  0.00    -0.203 F 
ATOM     76  C   UNL A   1      45.675  34.171  26.000  1.00  0.00     0.198 A 
ATOM     77  C   UNL A   1      47.308  32.667  26.842  1.00  0.00     0.198 A 
ATOM     78  F   UNL A   1      46.723  30.733  27.968  1.00  0.00    -0.203 F 
ATOM     79  F   UNL A   1      45.344  35.238  25.260  1.00  0.00    -0.200 F 
ATOM     80  C   UNL A   1      46.997  33.808  26.130  1.00  0.00     0.200 A 
ATOM     81  F   UNL A   1      48.591  32.288  26.950  1.00  0.00    -0.200 F 
ATOM     82  F   UNL A   1      47.961  34.533  25.548  1.00  0.00    -0.200 F 
ENDBRANCH  58  72
BRANCH  59  83
ATOM     83  C   UNL A   1      48.917  25.631  32.839  1.00  0.00     0.064 A 
ATOM     84  C   UNL A   1      50.151  25.246  32.248  1.00  0.00     0.173 A 
ATOM     85  C   UNL A   1      49.078  26.231  34.112  1.00  0.00     0.173 A 
ATOM     86  F   UNL A   1      50.156  24.594  31.078  1.00  0.00    -0.203 F 
ATOM     87  C   UNL A   1      51.417  25.586  32.800  1.00  0.00     0.198 A 
ATOM     88  C   UNL A   1      50.333  26.655  34.613  1.00  0.00     0.198 A 
ATOM     89  F   UNL A   1      48.008  26.586  34.830  1.00  0.00    -0.203 F 
ATOM     90  F   UNL A   1      52.552  25.252  32.166  1.00  0.00    -0.200 F 
ATOM     91  C   UNL A   1      51.501  26.362  33.940  1.00  0.00     0.200 A 
ATOM     92  F   UNL A   1      50.384  27.485  35.669  1.00  0.00    -0.200 F 
ATOM     93  F   UNL A   1      52.674  26.882  34.341  1.00  0.00    -0.200 F 
ENDBRANCH  59  83
BRANCH  71  94
ATOM     94  C   UNL A   1      44.326  25.642  28.089  1.00  0.00     0.064 A 
ATOM     95  C   UNL A   1      43.129  24.982  28.482  1.00  0.00     0.173 A 
ATOM     96  C   UNL A   1      44.974  24.883  27.106  1.00  0.00     0.173 A 
ATOM     97  F   UNL A   1      41.998  25.683  28.654  1.00  0.00    -0.203 F 
ATOM     98  C   UNL A   1      42.890  23.603  28.399  1.00  0.00     0.198 A 
ATOM     99  C   UNL A   1      44.580  23.558  26.773  1.00  0.00     0.198 A 
ATOM    100  F   UNL A   1      45.916  25.454  26.344  1.00  0.00    -0.203 F 
ATOM    101  F   UNL A   1      41.863  23.039  29.057  1.00  0.00    -0.200 F 
ATOM    102  C   UNL A   1      43.608  22.884  27.494  1.00  0.00     0.200 A 
ATOM    103  F   UNL A   1      45.100  22.957  25.695  1.00  0.00    -0.200 F 
ATOM    104  F   UNL A   1      43.265  21.619  27.216  1.00  0.00    -0.200 F 
ENDBRANCH  71  94
ENDBRANCH  45  46
ENDBRANCH  38  40
ENDBRANCH  37  38
ENDBRANCH  36  37
ENDBRANCH  35  36
ENDBRANCH  34  35
ENDBRANCH  33  34
ENDBRANCH   1  33
TORSDOF 21
ENDMDL
MODEL 3
REMARK VINA RESULT:      -9.0      7.107     13.107
REMARK SMILES O=C(Cn1c(-c2nc(-c3ccc(C(F)(F)F)cc3)no2)cc2ccccc21)OCCOCCOCCOC(=O)c1ccc(-c2c3nc(c(-c4c(F)c(F)c(F)c(F)c4F)c4ccc([nH]4)c(-c4c(F)c(F)c(F)c(F)c4F)c4nc(c(-c5c(F)c(F)c(F)c(F)c5F)c5ccc2[nH]5)C=C4)C=C3)cc1
REMARK SMILES IDX 32 1 31 2 30 3 29 4 28 5 2 6 1 7 3 8 4 9 5 10 27 11 21 12
REMARK SMILES IDX 22 13 26 14 23 15 25 16 24 17 6 18 7 19 20 20 8 21 19 22
REMARK SMILES IDX 9 23 10 24 18 25 11 26 17 27 12 28 13 29 14 30 15 31 16 32
REMARK SMILES IDX 33 33 34 34 35 35 36 36 37 37 38 38 39 39 40 40 41 41 102 42
REMARK SMILES IDX 42 43 101 44 43 45 44 46 45 47 95 48 46 49 100 50 94 51
REMARK SMILES IDX 96 52 47 53 99 54 93 55 92 56 48 58 80 59 60 60 79 61 61 62
REMARK SMILES IDX 64 63 78 64 97 65 62 66 63 67 77 69 98 70 65 71 49 72 50 73
REMARK SMILES IDX 58 74 51 75 52 76 56 77 59 78 53 79 54 80 57 81 55 82 81 83
REMARK SMILES IDX 82 84 90 85 83 86 84 87 88 88 91 89 85 90 86 91 89 92 87 93
REMARK SMILES IDX 66 94 67 95 75 96 68 97 69 98 73 99 76 100 70 101 71 102
REMARK SMILES IDX 74 103 72 104
REMARK H PARENT 96 57 64 68
REMARK Flexibility Score: inf
ROOT
ATOM      1  C   UNL A   1      42.646  41.188  25.719  1.00  0.00     0.188 C 
ENDROOT
BRANCH   1   2
ATOM      2  O   UNL A   1      43.009  41.682  24.424  1.00  0.00    -0.376 OA
BRANCH   2   3
ATOM      3  C   UNL A   1      42.010  42.192  23.529  1.00  0.00     0.202 C 
BRANCH   3   4
ATOM      4  C   UNL A   1      42.246  42.434  22.020  1.00  0.00     0.261 C 
BRANCH   4   5
ATOM      5  O   UNL A   1      43.564  42.493  21.488  1.00  0.00    -0.462 OA
BRANCH   5   6
ATOM      6  C   UNL A   1      44.131  43.665  21.189  1.00  0.00     0.326 C 
ATOM      7  O   UNL A   1      44.110  44.592  22.003  1.00  0.00    -0.250 OA
BRANCH   6   8
ATOM      8  C   UNL A   1      44.720  43.845  19.809  1.00  0.00     0.245 C 
BRANCH   8   9
ATOM      9  N   UNL A   1      44.344  45.089  19.287  1.00  0.00    -0.325 N 
ATOM     10  C   UNL A   1      45.445  45.902  19.063  1.00  0.00     0.109 A 
ATOM     11  C   UNL A   1      43.214  45.191  18.492  1.00  0.00     0.049 A 
ATOM     12  C   UNL A   1      44.982  46.408  17.780  1.00  0.00     0.042 A 
ATOM     13  C   UNL A   1      43.568  46.060  17.485  1.00  0.00     0.000 A 
ATOM     14  C   UNL A   1      41.999  44.449  18.470  1.00  0.00     0.027 A 
ATOM     15  C   UNL A   1      42.595  46.286  16.455  1.00  0.00     0.010 A 
ATOM     16  C   UNL A   1      41.133  44.573  17.378  1.00  0.00     0.002 A 
ATOM     17  C   UNL A   1      41.409  45.508  16.394  1.00  0.00     0.001 A 
BRANCH  10  18
ATOM     18  C   UNL A   1      46.787  45.924  20.212  1.00  0.00     0.274 A 
ATOM     19  N   UNL A   1      47.429  44.821  20.722  1.00  0.00    -0.185 NA
ATOM     20  O   UNL A   1      47.180  46.931  21.103  1.00  0.00    -0.332 OA
ATOM     21  C   UNL A   1      47.633  44.922  22.169  1.00  0.00     0.202 A 
ATOM     22  N   UNL A   1      47.874  46.288  22.253  1.00  0.00    -0.057 NA
BRANCH  21  23
ATOM     23  C   UNL A   1      47.308  43.902  23.720  1.00  0.00     0.023 A 
ATOM     24  C   UNL A   1      47.128  42.426  22.721  1.00  0.00     0.013 A 
ATOM     25  C   UNL A   1      47.010  43.294  25.709  1.00  0.00     0.013 A 
ATOM     26  C   UNL A   1      46.915  40.962  23.459  1.00  0.00     0.014 A 
ATOM     27  C   UNL A   1      46.788  41.739  26.151  1.00  0.00     0.014 A 
ATOM     28  C   UNL A   1      46.801  40.672  25.063  1.00  0.00     0.056 A 
BRANCH  28  29
ATOM     29  C   UNL A   1      46.845  39.258  25.624  1.00  0.00     0.416 C 
ATOM     30  F   UNL A   1      47.653  39.121  26.702  1.00  0.00    -0.166 F 
ATOM     31  F   UNL A   1      45.605  38.851  26.016  1.00  0.00    -0.166 F 
ATOM     32  F   UNL A   1      47.257  38.349  24.699  1.00  0.00    -0.166 F 
ENDBRANCH  28  29
ENDBRANCH  21  23
ENDBRANCH  10  18
ENDBRANCH   8   9
ENDBRANCH   6   8
ENDBRANCH   5   6
ENDBRANCH   4   5
ENDBRANCH   3   4
ENDBRANCH   2   3
ENDBRANCH   1   2
BRANCH   1  33
ATOM     33  C   UNL A   1      41.380  40.508  26.192  1.00  0.00     0.188 C 
BRANCH  33  34
ATOM     34  O   UNL A   1      41.404  40.358  27.582  1.00  0.00    -0.376 OA
BRANCH  34  35
ATOM     35  C   UNL A   1      42.552  39.588  27.938  1.00  0.00     0.202 C 
BRANCH  35  36
ATOM     36  C   UNL A   1      42.992  39.674  29.477  1.00  0.00     0.261 C 
BRANCH  36  37
ATOM     37  O   UNL A   1      43.793  38.538  30.132  1.00  0.00    -0.460 OA
BRANCH  37  38
ATOM     38  C   UNL A   1      44.696  37.685  29.518  1.00  0.00     0.338 C 
ATOM     39  O   UNL A   1      45.752  38.064  29.034  1.00  0.00    -0.246 OA
BRANCH  38  40
ATOM     40  C   UNL A   1      44.388  36.162  29.800  1.00  0.00     0.060 A 
ATOM     41  C   UNL A   1      44.283  35.130  28.846  1.00  0.00     0.016 A 
ATOM     42  C   UNL A   1      44.125  35.727  31.106  1.00  0.00     0.016 A 
ATOM     43  C   UNL A   1      43.683  33.795  29.127  1.00  0.00     0.010 A 
ATOM     44  C   UNL A   1      43.503  34.427  31.375  1.00  0.00     0.010 A 
ATOM     45  C   UNL A   1      43.074  33.438  30.363  1.00  0.00    -0.014 A 
BRANCH  45  46
ATOM     46  C   UNL A   1      42.354  31.839  30.753  1.00  0.00     0.031 A 
ATOM     47  C   UNL A   1      40.898  32.734  30.742  1.00  0.00     0.074 A 
ATOM     48  C   UNL A   1      42.753  30.219  30.736  1.00  0.00     0.049 A 
ATOM     49  N   UNL A   1      40.301  33.179  31.819  1.00  0.00    -0.248 NA
ATOM     50  C   UNL A   1      40.363  33.608  29.591  1.00  0.00     0.031 C 
ATOM     51  C   UNL A   1      43.934  29.017  30.636  1.00  0.00     0.029 A 
ATOM     52  N   UNL A   1      42.056  29.068  30.259  1.00  0.00    -0.354 N 
ATOM     53  C   UNL A   1      39.095  33.792  31.432  1.00  0.00     0.074 A 
ATOM     54  C   UNL A   1      39.369  34.325  30.142  1.00  0.00     0.031 C 
ATOM     55  C   UNL A   1      43.773  27.921  29.795  1.00  0.00     0.029 A 
ATOM     56  C   UNL A   1      42.436  27.948  29.345  1.00  0.00     0.049 A 
ATOM     57  H   UNL A   1      41.136  28.997  30.603  1.00  0.00     0.167 HD
ATOM     58  C   UNL A   1      37.911  33.386  32.009  1.00  0.00     0.037 A 
ATOM     59  C   UNL A   1      41.535  27.334  28.423  1.00  0.00     0.037 A 
ATOM     60  C   UNL A   1      38.238  32.553  33.144  1.00  0.00     0.049 A 
ATOM     61  C   UNL A   1      39.944  28.109  28.604  1.00  0.00     0.074 A 
ATOM     62  C   UNL A   1      39.002  32.724  34.290  1.00  0.00     0.029 A 
ATOM     63  N   UNL A   1      38.354  31.222  32.809  1.00  0.00    -0.354 N 
ATOM     64  N   UNL A   1      40.198  28.169  30.272  1.00  0.00    -0.248 NA
ATOM     65  C   UNL A   1      39.060  30.068  28.035  1.00  0.00     0.031 C 
ATOM     66  C   UNL A   1      39.976  31.672  34.226  1.00  0.00     0.029 A 
ATOM     67  C   UNL A   1      39.647  30.906  33.114  1.00  0.00     0.049 A 
ATOM     68  H   UNL A   1      37.661  30.630  32.434  1.00  0.00     0.167 HD
ATOM     69  C   UNL A   1      40.034  29.841  30.902  1.00  0.00     0.074 A 
ATOM     70  C   UNL A   1      39.315  30.951  29.488  1.00  0.00     0.031 C 
ATOM     71  C   UNL A   1      40.294  29.928  32.324  1.00  0.00     0.037 A 
BRANCH  58  72
ATOM     72  C   UNL A   1      36.530  33.214  31.359  1.00  0.00     0.064 A 
ATOM     73  C   UNL A   1      36.354  32.147  30.434  1.00  0.00     0.173 A 
ATOM     74  C   UNL A   1      35.474  34.145  31.375  1.00  0.00     0.173 A 
ATOM     75  F   UNL A   1      37.289  31.195  30.291  1.00  0.00    -0.203 F 
ATOM     76  C   UNL A   1      35.264  32.064  29.562  1.00  0.00     0.198 A 
ATOM     77  C   UNL A   1      34.362  34.037  30.525  1.00  0.00     0.198 A 
ATOM     78  F   UNL A   1      35.502  35.239  32.141  1.00  0.00    -0.203 F 
ATOM     79  F   UNL A   1      35.223  31.093  28.638  1.00  0.00    -0.200 F 
ATOM     80  C   UNL A   1      34.264  33.010  29.609  1.00  0.00     0.200 A 
ATOM     81  F   UNL A   1      33.409  34.981  30.561  1.00  0.00    -0.200 F 
ATOM     82  F   UNL A   1      33.232  32.951  28.757  1.00  0.00    -0.200 F 
ENDBRANCH  58  72
BRANCH  59  83
ATOM     83  C   UNL A   1      41.527  26.322  27.217  1.00  0.00     0.064 A 
ATOM     84  C   UNL A   1      42.523  26.355  26.204  1.00  0.00     0.173 A 
ATOM     85  C   UNL A   1      40.923  25.048  27.356  1.00  0.00     0.173 A 
ATOM     86  F   UNL A   1      43.129  27.511  25.900  1.00  0.00    -0.203 F 
ATOM     87  C   UNL A   1      42.983  25.191  25.527  1.00  0.00     0.198 A 
ATOM     88  C   UNL A   1      41.445  23.877  26.756  1.00  0.00     0.198 A 
ATOM     89  F   UNL A   1      39.919  24.869  28.218  1.00  0.00    -0.203 F 
ATOM     90  F   UNL A   1      43.973  25.272  24.623  1.00  0.00    -0.200 F 
ATOM     91  C   UNL A   1      42.497  23.944  25.866  1.00  0.00     0.200 A 
ATOM     92  F   UNL A   1      41.022  22.670  27.169  1.00  0.00    -0.200 F 
ATOM     93  F   UNL A   1      43.081  22.824  25.406  1.00  0.00    -0.200 F 
ENDBRANCH  59  83
BRANCH  71  94
ATOM     94  C   UNL A   1      41.277  29.012  33.246  1.00  0.00     0.064 A 
ATOM     95  C   UNL A   1      42.435  29.473  33.930  1.00  0.00     0.173 A 
ATOM     96  C   UNL A   1      40.874  27.785  33.787  1.00  0.00     0.173 A 
ATOM     97  F   UNL A   1      42.540  30.763  34.283  1.00  0.00    -0.203 F 
ATOM     98  C   UNL A   1      43.371  28.665  34.591  1.00  0.00     0.198 A 
ATOM     99  C   UNL A   1      41.674  27.049  34.705  1.00  0.00     0.198 A 
ATOM    100  F   UNL A   1      39.635  27.333  33.553  1.00  0.00    -0.203 F 
ATOM    101  F   UNL A   1      44.571  29.149  34.951  1.00  0.00    -0.200 F 
ATOM    102  C   UNL A   1      42.965  27.439  35.021  1.00  0.00     0.200 A 
ATOM    103  F   UNL A   1      41.158  25.990  35.343  1.00  0.00    -0.200 F 
ATOM    104  F   UNL A   1      43.741  26.725  35.849  1.00  0.00    -0.200 F 
ENDBRANCH  71  94
ENDBRANCH  45  46
ENDBRANCH  38  40
ENDBRANCH  37  38
ENDBRANCH  36  37
ENDBRANCH  35  36
ENDBRANCH  34  35
ENDBRANCH  33  34
ENDBRANCH   1  33
TORSDOF 21
ENDMDL
