MODEL 1
REMARK VINA RESULT:     -11.8      0.000      0.000
REMARK SMILES CC[C@H](C)[C@H](NS(=O)(=O)c1ccc(C)cc1)C(=O)OCCOCCOCCOC(=O)c1ccc(-c2c3nc(c(-c4c(F)c(F)c(F)c(F)c4F)c4ccc([nH]4)c(-c4c(F)c(F)c(F)c(F)c4F)c4nc(c(-c5c(F)c(F)c(F)c(F)c5F)c5ccc2[nH]5)C=C4)C=C3)cc1
REMARK SMILES IDX 23 1 22 2 21 3 20 4 19 5 17 6 18 7 5 8 3 9 4 10 2 11 1 12
REMARK SMILES IDX 6 13 7 15 8 16 9 17 10 18 11 19 16 20 12 21 15 22 13 23
REMARK SMILES IDX 14 24 24 25 25 26 26 27 27 28 28 29 29 30 30 31 31 32 32 33
REMARK SMILES IDX 93 34 33 35 92 36 34 37 35 38 36 39 86 40 37 41 91 42 85 43
REMARK SMILES IDX 87 44 38 45 90 46 84 47 83 48 39 50 71 51 51 52 70 53 52 54
REMARK SMILES IDX 55 55 69 56 88 57 53 58 54 59 68 61 89 62 56 63 40 64 41 65
REMARK SMILES IDX 49 66 42 67 43 68 47 69 50 70 44 71 45 72 48 73 46 74 72 75
REMARK SMILES IDX 73 76 81 77 74 78 75 79 79 80 82 81 76 82 77 83 80 84 78 85
REMARK SMILES IDX 57 86 58 87 66 88 59 89 60 90 64 91 67 92 61 93 62 94 65 95
REMARK SMILES IDX 63 96
REMARK H PARENT 6 14 87 49 55 60
REMARK Flexibility Score: inf
ROOT
ATOM      1  C   UNL A   1      30.582  28.779  22.992  1.00  0.00     0.188 C 
ENDROOT
BRANCH   1   2
ATOM      2  O   UNL A   1      30.107  27.439  22.737  1.00  0.00    -0.376 OA
BRANCH   2   3
ATOM      3  C   UNL A   1      29.478  26.570  23.699  1.00  0.00     0.202 C 
BRANCH   3   4
ATOM      4  C   UNL A   1      29.835  26.529  25.353  1.00  0.00     0.261 C 
BRANCH   4   5
ATOM      5  O   UNL A   1      30.296  25.267  26.453  1.00  0.00    -0.462 OA
BRANCH   5   6
ATOM      6  C   UNL A   1      31.085  24.049  26.529  1.00  0.00     0.324 C 
ATOM      7  O   UNL A   1      31.243  23.297  27.491  1.00  0.00    -0.250 OA
BRANCH   6   8
ATOM      8  C   UNL A   1      32.143  23.688  25.492  1.00  0.00     0.182 C 
BRANCH   8   9
ATOM      9  C   UNL A   1      33.198  24.956  25.117  1.00  0.00     0.015 C 
ATOM     10  C   UNL A   1      32.991  25.490  23.692  1.00  0.00     0.010 C 
BRANCH   9  11
ATOM     11  C   UNL A   1      33.517  26.133  26.149  1.00  0.00     0.002 C 
ATOM     12  C   UNL A   1      34.005  27.494  25.616  1.00  0.00     0.004 C 
ENDBRANCH   9  11
ENDBRANCH   8   9
BRANCH   8  13
ATOM     13  N   UNL A   1      31.769  22.953  24.279  1.00  0.00    -0.197 NA
ATOM     14  H   UNL A   1      32.050  23.524  23.483  1.00  0.00     0.142 HD
BRANCH  13  15
ATOM     15  S   UNL A   1      32.412  21.407  24.035  1.00  0.00     0.241 S 
ATOM     16  O   UNL A   1      31.886  20.598  25.084  1.00  0.00    -0.207 OA
ATOM     17  O   UNL A   1      32.226  21.070  22.625  1.00  0.00    -0.207 OA
BRANCH  15  18
ATOM     18  C   UNL A   1      34.137  21.656  24.360  1.00  0.00     0.082 A 
ATOM     19  C   UNL A   1      34.662  21.162  25.556  1.00  0.00     0.022 A 
ATOM     20  C   UNL A   1      34.909  22.463  23.520  1.00  0.00     0.022 A 
ATOM     21  C   UNL A   1      35.930  21.565  25.969  1.00  0.00     0.005 A 
ATOM     22  C   UNL A   1      36.198  22.834  23.924  1.00  0.00     0.005 A 
ATOM     23  C   UNL A   1      36.681  22.451  25.187  1.00  0.00    -0.051 A 
ATOM     24  C   UNL A   1      37.870  23.146  25.794  1.00  0.00     0.044 C 
ENDBRANCH  15  18
ENDBRANCH  13  15
ENDBRANCH   8  13
ENDBRANCH   6   8
ENDBRANCH   5   6
ENDBRANCH   4   5
ENDBRANCH   3   4
ENDBRANCH   2   3
ENDBRANCH   1   2
BRANCH   1  25
ATOM     25  C   UNL A   1      29.795  29.858  23.753  1.00  0.00     0.188 C 
BRANCH  25  26
ATOM     26  O   UNL A   1      30.631  30.589  24.629  1.00  0.00    -0.376 OA
BRANCH  26  27
ATOM     27  C   UNL A   1      31.541  29.832  25.415  1.00  0.00     0.202 C 
BRANCH  27  28
ATOM     28  C   UNL A   1      31.958  30.487  26.756  1.00  0.00     0.261 C 
BRANCH  28  29
ATOM     29  O   UNL A   1      33.397  30.601  26.894  1.00  0.00    -0.460 OA
BRANCH  29  30
ATOM     30  C   UNL A   1      33.886  31.612  27.691  1.00  0.00     0.338 C 
ATOM     31  O   UNL A   1      33.464  32.754  27.691  1.00  0.00    -0.246 OA
BRANCH  30  32
ATOM     32  C   UNL A   1      35.111  31.150  28.420  1.00  0.00     0.060 A 
ATOM     33  C   UNL A   1      36.176  31.910  28.926  1.00  0.00     0.016 A 
ATOM     34  C   UNL A   1      35.322  29.820  28.384  1.00  0.00     0.016 A 
ATOM     35  C   UNL A   1      37.488  31.318  29.187  1.00  0.00     0.010 A 
ATOM     36  C   UNL A   1      36.632  29.370  28.407  1.00  0.00     0.010 A 
ATOM     37  C   UNL A   1      37.821  29.997  28.838  1.00  0.00    -0.014 A 
BRANCH  37  38
ATOM     38  C   UNL A   1      39.305  29.242  28.995  1.00  0.00     0.031 A 
ATOM     39  C   UNL A   1      39.937  27.668  28.707  1.00  0.00     0.074 A 
ATOM     40  C   UNL A   1      40.275  30.136  29.291  1.00  0.00     0.049 A 
ATOM     41  N   UNL A   1      41.216  27.347  28.834  1.00  0.00    -0.248 NA
ATOM     42  C   UNL A   1      39.324  26.415  28.157  1.00  0.00     0.031 C 
ATOM     43  C   UNL A   1      41.732  30.011  29.222  1.00  0.00     0.029 A 
ATOM     44  N   UNL A   1      40.092  31.371  29.927  1.00  0.00    -0.354 N 
ATOM     45  C   UNL A   1      41.482  26.083  28.275  1.00  0.00     0.074 A 
ATOM     46  C   UNL A   1      40.255  25.501  27.980  1.00  0.00     0.031 C 
ATOM     47  C   UNL A   1      42.270  30.859  30.113  1.00  0.00     0.029 A 
ATOM     48  C   UNL A   1      41.158  31.444  30.837  1.00  0.00     0.049 A 
ATOM     49  H   UNL A   1      39.381  32.033  29.772  1.00  0.00     0.167 HD
ATOM     50  C   UNL A   1      42.704  25.517  28.099  1.00  0.00     0.037 A 
ATOM     51  C   UNL A   1      40.902  31.285  32.164  1.00  0.00     0.037 A 
ATOM     52  C   UNL A   1      43.589  26.159  29.023  1.00  0.00     0.049 A 
ATOM     53  C   UNL A   1      41.671  30.122  32.751  1.00  0.00     0.074 A 
ATOM     54  C   UNL A   1      44.473  27.210  28.944  1.00  0.00     0.029 A 
ATOM     55  N   UNL A   1      43.256  26.002  30.361  1.00  0.00    -0.354 N 
ATOM     56  N   UNL A   1      42.093  29.071  32.093  1.00  0.00    -0.248 NA
ATOM     57  C   UNL A   1      42.104  30.132  34.138  1.00  0.00     0.031 C 
ATOM     58  C   UNL A   1      44.540  27.781  30.252  1.00  0.00     0.029 A 
ATOM     59  C   UNL A   1      43.763  27.026  31.122  1.00  0.00     0.049 A 
ATOM     60  H   UNL A   1      42.725  25.254  30.718  1.00  0.00     0.167 HD
ATOM     61  C   UNL A   1      42.848  28.282  32.932  1.00  0.00     0.074 A 
ATOM     62  C   UNL A   1      42.845  29.015  34.184  1.00  0.00     0.031 C 
ATOM     63  C   UNL A   1      43.443  27.107  32.547  1.00  0.00     0.037 A 
BRANCH  50  64
ATOM     64  C   UNL A   1      43.016  24.313  27.204  1.00  0.00     0.064 A 
ATOM     65  C   UNL A   1      42.713  22.998  27.612  1.00  0.00     0.173 A 
ATOM     66  C   UNL A   1      43.712  24.373  25.967  1.00  0.00     0.173 A 
ATOM     67  F   UNL A   1      42.134  22.771  28.798  1.00  0.00    -0.203 F 
ATOM     68  C   UNL A   1      43.025  21.868  26.830  1.00  0.00     0.198 A 
ATOM     69  C   UNL A   1      43.954  23.258  25.151  1.00  0.00     0.198 A 
ATOM     70  F   UNL A   1      44.261  25.509  25.523  1.00  0.00    -0.203 F 
ATOM     71  F   UNL A   1      42.763  20.639  27.299  1.00  0.00    -0.200 F 
ATOM     72  C   UNL A   1      43.617  21.999  25.588  1.00  0.00     0.200 A 
ATOM     73  F   UNL A   1      44.548  23.421  23.958  1.00  0.00    -0.200 F 
ATOM     74  F   UNL A   1      43.899  20.924  24.837  1.00  0.00    -0.200 F 
ENDBRANCH  50  64
BRANCH  51  75
ATOM     75  C   UNL A   1      39.571  31.827  32.598  1.00  0.00     0.064 A 
ATOM     76  C   UNL A   1      39.423  33.236  32.695  1.00  0.00     0.173 A 
ATOM     77  C   UNL A   1      38.391  31.075  32.638  1.00  0.00     0.173 A 
ATOM     78  F   UNL A   1      40.509  34.027  32.686  1.00  0.00    -0.203 F 
ATOM     79  C   UNL A   1      38.175  33.857  32.689  1.00  0.00     0.198 A 
ATOM     80  C   UNL A   1      37.133  31.704  32.682  1.00  0.00     0.198 A 
ATOM     81  F   UNL A   1      38.431  29.741  32.514  1.00  0.00    -0.203 F 
ATOM     82  F   UNL A   1      38.094  35.194  32.622  1.00  0.00    -0.200 F 
ATOM     83  C   UNL A   1      37.028  33.089  32.671  1.00  0.00     0.200 A 
ATOM     84  F   UNL A   1      36.015  30.968  32.597  1.00  0.00    -0.200 F 
ATOM     85  F   UNL A   1      35.828  33.680  32.568  1.00  0.00    -0.200 F 
ENDBRANCH  51  75
BRANCH  63  86
ATOM     86  C   UNL A   1      43.867  25.968  33.485  1.00  0.00     0.064 A 
ATOM     87  C   UNL A   1      43.065  25.439  34.514  1.00  0.00     0.173 A 
ATOM     88  C   UNL A   1      45.093  25.268  33.309  1.00  0.00     0.173 A 
ATOM     89  F   UNL A   1      41.792  25.806  34.686  1.00  0.00    -0.203 F 
ATOM     90  C   UNL A   1      43.504  24.432  35.380  1.00  0.00     0.198 A 
ATOM     91  C   UNL A   1      45.494  24.203  34.122  1.00  0.00     0.198 A 
ATOM     92  F   UNL A   1      45.942  25.540  32.310  1.00  0.00    -0.203 F 
ATOM     93  F   UNL A   1      42.714  24.045  36.391  1.00  0.00    -0.200 F 
ATOM     94  C   UNL A   1      44.717  23.812  35.186  1.00  0.00     0.200 A 
ATOM     95  F   UNL A   1      46.631  23.548  33.844  1.00  0.00    -0.200 F 
ATOM     96  F   UNL A   1      45.115  22.818  35.990  1.00  0.00    -0.200 F 
ENDBRANCH  63  86
ENDBRANCH  37  38
ENDBRANCH  30  32
ENDBRANCH  29  30
ENDBRANCH  28  29
ENDBRANCH  27  28
ENDBRANCH  26  27
ENDBRANCH  25  26
ENDBRANCH   1  25
TORSDOF 22
ENDMDL
MODEL 2
REMARK VINA RESULT:     -11.8      3.786      9.811
REMARK SMILES CC[C@H](C)[C@H](NS(=O)(=O)c1ccc(C)cc1)C(=O)OCCOCCOCCOC(=O)c1ccc(-c2c3nc(c(-c4c(F)c(F)c(F)c(F)c4F)c4ccc([nH]4)c(-c4c(F)c(F)c(F)c(F)c4F)c4nc(c(-c5c(F)c(F)c(F)c(F)c5F)c5ccc2[nH]5)C=C4)C=C3)cc1
REMARK SMILES IDX 23 1 22 2 21 3 20 4 19 5 17 6 18 7 5 8 3 9 4 10 2 11 1 12
REMARK SMILES IDX 6 13 7 15 8 16 9 17 10 18 11 19 16 20 12 21 15 22 13 23
REMARK SMILES IDX 14 24 24 25 25 26 26 27 27 28 28 29 29 30 30 31 31 32 32 33
REMARK SMILES IDX 93 34 33 35 92 36 34 37 35 38 36 39 86 40 37 41 91 42 85 43
REMARK SMILES IDX 87 44 38 45 90 46 84 47 83 48 39 50 71 51 51 52 70 53 52 54
REMARK SMILES IDX 55 55 69 56 88 57 53 58 54 59 68 61 89 62 56 63 40 64 41 65
REMARK SMILES IDX 49 66 42 67 43 68 47 69 50 70 44 71 45 72 48 73 46 74 72 75
REMARK SMILES IDX 73 76 81 77 74 78 75 79 79 80 82 81 76 82 77 83 80 84 78 85
REMARK SMILES IDX 57 86 58 87 66 88 59 89 60 90 64 91 67 92 61 93 62 94 65 95
REMARK SMILES IDX 63 96
REMARK H PARENT 6 14 87 49 55 60
REMARK Flexibility Score: inf
ROOT
ATOM      1  C   UNL A   1      40.863  20.882  26.684  1.00  0.00     0.188 C 
ENDROOT
BRANCH   1   2
ATOM      2  O   UNL A   1      39.541  21.387  26.391  1.00  0.00    -0.376 OA
BRANCH   2   3
ATOM      3  C   UNL A   1      39.127  22.765  26.481  1.00  0.00     0.202 C 
BRANCH   3   4
ATOM      4  C   UNL A   1      37.591  23.347  26.072  1.00  0.00     0.261 C 
BRANCH   4   5
ATOM      5  O   UNL A   1      36.002  22.648  26.069  1.00  0.00    -0.462 OA
BRANCH   5   6
ATOM      6  C   UNL A   1      34.710  22.743  26.727  1.00  0.00     0.324 C 
ATOM      7  O   UNL A   1      34.220  21.988  27.566  1.00  0.00    -0.250 OA
BRANCH   6   8
ATOM      8  C   UNL A   1      33.588  23.638  26.211  1.00  0.00     0.182 C 
BRANCH   8   9
ATOM      9  C   UNL A   1      34.123  25.106  25.563  1.00  0.00     0.015 C 
ATOM     10  C   UNL A   1      34.300  25.045  24.039  1.00  0.00     0.010 C 
BRANCH   9  11
ATOM     11  C   UNL A   1      33.530  26.512  26.034  1.00  0.00     0.002 C 
ATOM     12  C   UNL A   1      33.513  27.695  25.046  1.00  0.00     0.004 C 
ENDBRANCH   9  11
ENDBRANCH   8   9
BRANCH   8  13
ATOM     13  N   UNL A   1      32.376  23.840  27.011  1.00  0.00    -0.197 NA
ATOM     14  H   UNL A   1      32.274  24.844  27.155  1.00  0.00     0.142 HD
BRANCH  13  15
ATOM     15  S   UNL A   1      30.900  23.272  26.408  1.00  0.00     0.241 S 
ATOM     16  O   UNL A   1      31.202  22.058  25.723  1.00  0.00    -0.207 OA
ATOM     17  O   UNL A   1      29.928  23.329  27.497  1.00  0.00    -0.207 OA
BRANCH  15  18
ATOM     18  C   UNL A   1      30.492  24.492  25.187  1.00  0.00     0.082 A 
ATOM     19  C   UNL A   1      30.826  24.232  23.856  1.00  0.00     0.022 A 
ATOM     20  C   UNL A   1      30.000  25.742  25.569  1.00  0.00     0.022 A 
ATOM     21  C   UNL A   1      30.771  25.261  22.920  1.00  0.00     0.005 A 
ATOM     22  C   UNL A   1      29.911  26.762  24.614  1.00  0.00     0.005 A 
ATOM     23  C   UNL A   1      30.372  26.547  23.303  1.00  0.00    -0.051 A 
ATOM     24  C   UNL A   1      30.649  27.710  22.389  1.00  0.00     0.044 C 
ENDBRANCH  15  18
ENDBRANCH  13  15
ENDBRANCH   8  13
ENDBRANCH   6   8
ENDBRANCH   5   6
ENDBRANCH   4   5
ENDBRANCH   3   4
ENDBRANCH   2   3
ENDBRANCH   1   2
BRANCH   1  25
ATOM     25  C   UNL A   1      41.426  19.548  26.169  1.00  0.00     0.188 C 
BRANCH  25  26
ATOM     26  O   UNL A   1      42.831  19.485  26.318  1.00  0.00    -0.376 OA
BRANCH  26  27
ATOM     27  C   UNL A   1      43.525  18.629  25.420  1.00  0.00     0.202 C 
BRANCH  27  28
ATOM     28  C   UNL A   1      44.535  19.336  24.482  1.00  0.00     0.261 C 
BRANCH  28  29
ATOM     29  O   UNL A   1      44.270  20.756  24.350  1.00  0.00    -0.460 OA
BRANCH  29  30
ATOM     30  C   UNL A   1      45.249  21.632  24.762  1.00  0.00     0.338 C 
ATOM     31  O   UNL A   1      46.406  21.320  24.977  1.00  0.00    -0.246 OA
BRANCH  30  32
ATOM     32  C   UNL A   1      44.650  22.971  25.071  1.00  0.00     0.060 A 
ATOM     33  C   UNL A   1      45.246  24.238  25.012  1.00  0.00     0.016 A 
ATOM     34  C   UNL A   1      43.459  22.925  25.700  1.00  0.00     0.016 A 
ATOM     35  C   UNL A   1      44.714  25.374  25.766  1.00  0.00     0.010 A 
ATOM     36  C   UNL A   1      43.149  23.951  26.577  1.00  0.00     0.010 A 
ATOM     37  C   UNL A   1      43.662  25.261  26.692  1.00  0.00    -0.014 A 
BRANCH  37  38
ATOM     38  C   UNL A   1      43.035  26.457  27.679  1.00  0.00     0.031 A 
ATOM     39  C   UNL A   1      41.826  27.673  27.546  1.00  0.00     0.074 A 
ATOM     40  C   UNL A   1      43.506  26.340  28.941  1.00  0.00     0.049 A 
ATOM     41  N   UNL A   1      41.451  28.459  28.544  1.00  0.00    -0.248 NA
ATOM     42  C   UNL A   1      40.873  28.039  26.447  1.00  0.00     0.031 C 
ATOM     43  C   UNL A   1      43.030  26.938  30.189  1.00  0.00     0.029 A 
ATOM     44  N   UNL A   1      44.714  25.739  29.318  1.00  0.00    -0.354 N 
ATOM     45  C   UNL A   1      40.271  29.157  28.226  1.00  0.00     0.074 A 
ATOM     46  C   UNL A   1      40.025  28.950  26.873  1.00  0.00     0.031 C 
ATOM     47  C   UNL A   1      44.069  27.035  31.034  1.00  0.00     0.029 A 
ATOM     48  C   UNL A   1      45.237  26.608  30.288  1.00  0.00     0.049 A 
ATOM     49  H   UNL A   1      45.106  24.901  28.981  1.00  0.00     0.167 HD
ATOM     50  C   UNL A   1      39.534  29.926  29.070  1.00  0.00     0.037 A 
ATOM     51  C   UNL A   1      46.302  27.390  29.964  1.00  0.00     0.037 A 
ATOM     52  C   UNL A   1      40.408  30.323  30.131  1.00  0.00     0.049 A 
ATOM     53  C   UNL A   1      45.989  28.862  30.121  1.00  0.00     0.074 A 
ATOM     54  C   UNL A   1      40.675  29.844  31.393  1.00  0.00     0.029 A 
ATOM     55  N   UNL A   1      41.503  31.080  29.739  1.00  0.00    -0.354 N 
ATOM     56  N   UNL A   1      44.801  29.407  30.040  1.00  0.00    -0.248 NA
ATOM     57  C   UNL A   1      47.024  29.814  30.488  1.00  0.00     0.031 C 
ATOM     58  C   UNL A   1      42.026  30.205  31.685  1.00  0.00     0.029 A 
ATOM     59  C   UNL A   1      42.535  30.962  30.637  1.00  0.00     0.049 A 
ATOM     60  H   UNL A   1      41.535  31.630  28.924  1.00  0.00     0.167 HD
ATOM     61  C   UNL A   1      44.893  30.746  30.348  1.00  0.00     0.074 A 
ATOM     62  C   UNL A   1      46.299  30.931  30.651  1.00  0.00     0.031 C 
ATOM     63  C   UNL A   1      43.821  31.603  30.361  1.00  0.00     0.037 A 
BRANCH  50  64
ATOM     64  C   UNL A   1      38.098  30.404  28.825  1.00  0.00     0.064 A 
ATOM     65  C   UNL A   1      37.722  31.742  29.060  1.00  0.00     0.173 A 
ATOM     66  C   UNL A   1      37.011  29.568  28.457  1.00  0.00     0.173 A 
ATOM     67  F   UNL A   1      38.619  32.635  29.499  1.00  0.00    -0.203 F 
ATOM     68  C   UNL A   1      36.401  32.202  28.886  1.00  0.00     0.198 A 
ATOM     69  C   UNL A   1      35.713  30.039  28.207  1.00  0.00     0.198 A 
ATOM     70  F   UNL A   1      37.135  28.238  28.395  1.00  0.00    -0.203 F 
ATOM     71  F   UNL A   1      36.092  33.473  29.181  1.00  0.00    -0.200 F 
ATOM     72  C   UNL A   1      35.404  31.359  28.431  1.00  0.00     0.200 A 
ATOM     73  F   UNL A   1      34.765  29.187  27.783  1.00  0.00    -0.200 F 
ATOM     74  F   UNL A   1      34.151  31.801  28.250  1.00  0.00    -0.200 F 
ENDBRANCH  50  64
BRANCH  51  75
ATOM     75  C   UNL A   1      47.264  26.746  29.008  1.00  0.00     0.064 A 
ATOM     76  C   UNL A   1      47.254  27.182  27.657  1.00  0.00     0.173 A 
ATOM     77  C   UNL A   1      48.354  25.960  29.399  1.00  0.00     0.173 A 
ATOM     78  F   UNL A   1      46.232  27.922  27.196  1.00  0.00    -0.203 F 
ATOM     79  C   UNL A   1      48.330  26.968  26.796  1.00  0.00     0.198 A 
ATOM     80  C   UNL A   1      49.417  25.704  28.513  1.00  0.00     0.198 A 
ATOM     81  F   UNL A   1      48.466  25.537  30.665  1.00  0.00    -0.203 F 
ATOM     82  F   UNL A   1      48.340  27.536  25.581  1.00  0.00    -0.200 F 
ATOM     83  C   UNL A   1      49.418  26.236  27.229  1.00  0.00     0.200 A 
ATOM     84  F   UNL A   1      50.505  25.053  28.946  1.00  0.00    -0.200 F 
ATOM     85  F   UNL A   1      50.496  26.108  26.441  1.00  0.00    -0.200 F 
ENDBRANCH  51  75
BRANCH  63  86
ATOM     86  C   UNL A   1      43.892  33.130  30.214  1.00  0.00     0.064 A 
ATOM     87  C   UNL A   1      44.094  34.027  31.279  1.00  0.00     0.173 A 
ATOM     88  C   UNL A   1      43.869  33.762  28.940  1.00  0.00     0.173 A 
ATOM     89  F   UNL A   1      44.371  33.612  32.518  1.00  0.00    -0.203 F 
ATOM     90  C   UNL A   1      44.106  35.417  31.112  1.00  0.00     0.198 A 
ATOM     91  C   UNL A   1      43.968  35.146  28.766  1.00  0.00     0.198 A 
ATOM     92  F   UNL A   1      43.805  33.073  27.794  1.00  0.00    -0.203 F 
ATOM     93  F   UNL A   1      44.214  36.206  32.190  1.00  0.00    -0.200 F 
ATOM     94  C   UNL A   1      44.044  35.978  29.857  1.00  0.00     0.200 A 
ATOM     95  F   UNL A   1      44.012  35.658  27.528  1.00  0.00    -0.200 F 
ATOM     96  F   UNL A   1      44.100  37.306  29.698  1.00  0.00    -0.200 F 
ENDBRANCH  63  86
ENDBRANCH  37  38
ENDBRANCH  30  32
ENDBRANCH  29  30
ENDBRANCH  28  29
ENDBRANCH  27  28
ENDBRANCH  26  27
ENDBRANCH  25  26
ENDBRANCH   1  25
TORSDOF 22
ENDMDL
MODEL 3
REMARK VINA RESULT:     -11.5      0.775      2.093
REMARK SMILES CC[C@H](C)[C@H](NS(=O)(=O)c1ccc(C)cc1)C(=O)OCCOCCOCCOC(=O)c1ccc(-c2c3nc(c(-c4c(F)c(F)c(F)c(F)c4F)c4ccc([nH]4)c(-c4c(F)c(F)c(F)c(F)c4F)c4nc(c(-c5c(F)c(F)c(F)c(F)c5F)c5ccc2[nH]5)C=C4)C=C3)cc1
REMARK SMILES IDX 23 1 22 2 21 3 20 4 19 5 17 6 18 7 5 8 3 9 4 10 2 11 1 12
REMARK SMILES IDX 6 13 7 15 8 16 9 17 10 18 11 19 16 20 12 21 15 22 13 23
REMARK SMILES IDX 14 24 24 25 25 26 26 27 27 28 28 29 29 30 30 31 31 32 32 33
REMARK SMILES IDX 93 34 33 35 92 36 34 37 35 38 36 39 86 40 37 41 91 42 85 43
REMARK SMILES IDX 87 44 38 45 90 46 84 47 83 48 39 50 71 51 51 52 70 53 52 54
REMARK SMILES IDX 55 55 69 56 88 57 53 58 54 59 68 61 89 62 56 63 40 64 41 65
REMARK SMILES IDX 49 66 42 67 43 68 47 69 50 70 44 71 45 72 48 73 46 74 72 75
REMARK SMILES IDX 73 76 81 77 74 78 75 79 79 80 82 81 76 82 77 83 80 84 78 85
REMARK SMILES IDX 57 86 58 87 66 88 59 89 60 90 64 91 67 92 61 93 62 94 65 95
REMARK SMILES IDX 63 96
REMARK H PARENT 6 14 87 49 55 60
REMARK Flexibility Score: inf
ROOT
ATOM      1  C   UNL A   1      30.653  29.372  22.951  1.00  0.00     0.188 C 
ENDROOT
BRANCH   1   2
ATOM      2  O   UNL A   1      30.125  28.150  22.388  1.00  0.00    -0.376 OA
BRANCH   2   3
ATOM      3  C   UNL A   1      29.204  27.252  23.039  1.00  0.00     0.202 C 
BRANCH   3   4
ATOM      4  C   UNL A   1      29.268  26.806  24.670  1.00  0.00     0.261 C 
BRANCH   4   5
ATOM      5  O   UNL A   1      29.693  25.341  25.500  1.00  0.00    -0.462 OA
BRANCH   5   6
ATOM      6  C   UNL A   1      30.840  24.603  26.002  1.00  0.00     0.324 C 
ATOM      7  O   UNL A   1      31.156  24.381  27.171  1.00  0.00    -0.250 OA
BRANCH   6   8
ATOM      8  C   UNL A   1      32.047  24.268  25.134  1.00  0.00     0.182 C 
BRANCH   8   9
ATOM      9  C   UNL A   1      33.020  25.601  24.765  1.00  0.00     0.015 C 
ATOM     10  C   UNL A   1      34.301  25.645  25.611  1.00  0.00     0.010 C 
BRANCH   9  11
ATOM     11  C   UNL A   1      33.287  26.072  23.262  1.00  0.00     0.002 C 
ATOM     12  C   UNL A   1      33.791  27.503  22.995  1.00  0.00     0.004 C 
ENDBRANCH   9  11
ENDBRANCH   8   9
BRANCH   8  13
ATOM     13  N   UNL A   1      31.896  23.400  23.961  1.00  0.00    -0.197 NA
ATOM     14  H   UNL A   1      32.377  23.856  23.186  1.00  0.00     0.142 HD
BRANCH  13  15
ATOM     15  S   UNL A   1      32.479  21.813  24.043  1.00  0.00     0.241 S 
ATOM     16  O   UNL A   1      31.901  21.249  25.218  1.00  0.00    -0.207 OA
ATOM     17  O   UNL A   1      32.303  21.211  22.724  1.00  0.00    -0.207 OA
BRANCH  15  18
ATOM     18  C   UNL A   1      34.207  22.057  24.356  1.00  0.00     0.082 A 
ATOM     19  C   UNL A   1      34.710  21.694  25.607  1.00  0.00     0.022 A 
ATOM     20  C   UNL A   1      35.005  22.742  23.436  1.00  0.00     0.022 A 
ATOM     21  C   UNL A   1      35.983  22.113  25.984  1.00  0.00     0.005 A 
ATOM     22  C   UNL A   1      36.300  23.127  23.808  1.00  0.00     0.005 A 
ATOM     23  C   UNL A   1      36.763  22.883  25.113  1.00  0.00    -0.051 A 
ATOM     24  C   UNL A   1      37.964  23.615  25.648  1.00  0.00     0.044 C 
ENDBRANCH  15  18
ENDBRANCH  13  15
ENDBRANCH   8  13
ENDBRANCH   6   8
ENDBRANCH   5   6
ENDBRANCH   4   5
ENDBRANCH   3   4
ENDBRANCH   2   3
ENDBRANCH   1   2
BRANCH   1  25
ATOM     25  C   UNL A   1      29.888  30.301  23.905  1.00  0.00     0.188 C 
BRANCH  25  26
ATOM     26  O   UNL A   1      30.738  30.841  24.898  1.00  0.00    -0.376 OA
BRANCH  26  27
ATOM     27  C   UNL A   1      31.707  29.959  25.449  1.00  0.00     0.202 C 
BRANCH  27  28
ATOM     28  C   UNL A   1      32.184  30.315  26.879  1.00  0.00     0.261 C 
BRANCH  28  29
ATOM     29  O   UNL A   1      33.628  30.423  26.973  1.00  0.00    -0.460 OA
BRANCH  29  30
ATOM     30  C   UNL A   1      34.147  31.445  27.736  1.00  0.00     0.338 C 
ATOM     31  O   UNL A   1      33.714  32.582  27.749  1.00  0.00    -0.246 OA
BRANCH  30  32
ATOM     32  C   UNL A   1      35.411  31.000  28.406  1.00  0.00     0.060 A 
ATOM     33  C   UNL A   1      36.540  31.758  28.751  1.00  0.00     0.016 A 
ATOM     34  C   UNL A   1      35.572  29.664  28.479  1.00  0.00     0.016 A 
ATOM     35  C   UNL A   1      37.847  31.136  28.962  1.00  0.00     0.010 A 
ATOM     36  C   UNL A   1      36.863  29.164  28.441  1.00  0.00     0.010 A 
ATOM     37  C   UNL A   1      38.104  29.776  28.715  1.00  0.00    -0.014 A 
BRANCH  37  38
ATOM     38  C   UNL A   1      39.569  28.976  28.825  1.00  0.00     0.031 A 
ATOM     39  C   UNL A   1      40.117  27.354  28.657  1.00  0.00     0.074 A 
ATOM     40  C   UNL A   1      40.593  29.853  28.934  1.00  0.00     0.049 A 
ATOM     41  N   UNL A   1      41.390  26.992  28.707  1.00  0.00    -0.248 NA
ATOM     42  C   UNL A   1      39.413  26.078  28.305  1.00  0.00     0.031 C 
ATOM     43  C   UNL A   1      42.032  29.656  28.753  1.00  0.00     0.029 A 
ATOM     44  N   UNL A   1      40.512  31.156  29.444  1.00  0.00    -0.354 N 
ATOM     45  C   UNL A   1      41.559  25.665  28.270  1.00  0.00     0.074 A 
ATOM     46  C   UNL A   1      40.291  25.110  28.149  1.00  0.00     0.031 C 
ATOM     47  C   UNL A   1      42.679  30.570  29.495  1.00  0.00     0.029 A 
ATOM     48  C   UNL A   1      41.659  31.278  30.244  1.00  0.00     0.049 A 
ATOM     49  H   UNL A   1      39.814  31.829  29.280  1.00  0.00     0.167 HD
ATOM     50  C   UNL A   1      42.740  25.030  28.052  1.00  0.00     0.037 A 
ATOM     51  C   UNL A   1      41.519  31.272  31.598  1.00  0.00     0.037 A 
ATOM     52  C   UNL A   1      43.728  25.726  28.819  1.00  0.00     0.049 A 
ATOM     53  C   UNL A   1      42.298  30.145  32.240  1.00  0.00     0.074 A 
ATOM     54  C   UNL A   1      44.637  26.722  28.547  1.00  0.00     0.029 A 
ATOM     55  N   UNL A   1      43.513  25.728  30.190  1.00  0.00    -0.354 N 
ATOM     56  N   UNL A   1      42.620  29.012  31.668  1.00  0.00    -0.248 NA
ATOM     57  C   UNL A   1      42.855  30.284  33.574  1.00  0.00     0.031 C 
ATOM     58  C   UNL A   1      44.843  27.426  29.774  1.00  0.00     0.029 A 
ATOM     59  C   UNL A   1      44.122  26.803  30.786  1.00  0.00     0.049 A 
ATOM     60  H   UNL A   1      42.991  25.046  30.672  1.00  0.00     0.167 HD
ATOM     61  C   UNL A   1      43.421  28.285  32.520  1.00  0.00     0.074 A 
ATOM     62  C   UNL A   1      43.558  29.147  33.678  1.00  0.00     0.031 C 
ATOM     63  C   UNL A   1      43.937  27.049  32.216  1.00  0.00     0.037 A 
BRANCH  50  64
ATOM     64  C   UNL A   1      42.926  23.724  27.271  1.00  0.00     0.064 A 
ATOM     65  C   UNL A   1      43.465  23.719  25.968  1.00  0.00     0.173 A 
ATOM     66  C   UNL A   1      42.494  22.443  27.708  1.00  0.00     0.173 A 
ATOM     67  F   UNL A   1      43.837  24.864  25.382  1.00  0.00    -0.203 F 
ATOM     68  C   UNL A   1      43.608  22.540  25.209  1.00  0.00     0.198 A 
ATOM     69  C   UNL A   1      42.708  21.258  26.986  1.00  0.00     0.198 A 
ATOM     70  F   UNL A   1      41.775  22.285  28.824  1.00  0.00    -0.203 F 
ATOM     71  F   UNL A   1      44.075  22.608  23.954  1.00  0.00    -0.200 F 
ATOM     72  C   UNL A   1      43.259  21.308  25.728  1.00  0.00     0.200 A 
ATOM     73  F   UNL A   1      42.339  20.080  27.515  1.00  0.00    -0.200 F 
ATOM     74  F   UNL A   1      43.411  20.185  25.012  1.00  0.00    -0.200 F 
ENDBRANCH  50  64
BRANCH  51  75
ATOM     75  C   UNL A   1      40.253  31.916  32.083  1.00  0.00     0.064 A 
ATOM     76  C   UNL A   1      39.182  31.071  32.474  1.00  0.00     0.173 A 
ATOM     77  C   UNL A   1      40.146  33.264  32.448  1.00  0.00     0.173 A 
ATOM     78  F   UNL A   1      39.199  29.768  32.144  1.00  0.00    -0.203 F 
ATOM     79  C   UNL A   1      38.145  31.511  33.296  1.00  0.00     0.198 A 
ATOM     80  C   UNL A   1      39.072  33.716  33.237  1.00  0.00     0.198 A 
ATOM     81  F   UNL A   1      41.128  34.126  32.155  1.00  0.00    -0.203 F 
ATOM     82  F   UNL A   1      37.245  30.635  33.766  1.00  0.00    -0.200 F 
ATOM     83  C   UNL A   1      38.097  32.835  33.687  1.00  0.00     0.200 A 
ATOM     84  F   UNL A   1      39.054  34.983  33.675  1.00  0.00    -0.200 F 
ATOM     85  F   UNL A   1      37.158  33.243  34.554  1.00  0.00    -0.200 F 
ENDBRANCH  51  75
BRANCH  63  86
ATOM     86  C   UNL A   1      44.405  25.999  33.234  1.00  0.00     0.064 A 
ATOM     87  C   UNL A   1      45.706  25.466  33.292  1.00  0.00     0.173 A 
ATOM     88  C   UNL A   1      43.564  25.555  34.293  1.00  0.00     0.173 A 
ATOM     89  F   UNL A   1      46.701  25.929  32.531  1.00  0.00    -0.203 F 
ATOM     90  C   UNL A   1      46.082  24.474  34.205  1.00  0.00     0.198 A 
ATOM     91  C   UNL A   1      43.969  24.627  35.257  1.00  0.00     0.198 A 
ATOM     92  F   UNL A   1      42.329  26.034  34.483  1.00  0.00    -0.203 F 
ATOM     93  F   UNL A   1      47.316  23.954  34.138  1.00  0.00    -0.200 F 
ATOM     94  C   UNL A   1      45.216  24.054  35.189  1.00  0.00     0.200 A 
ATOM     95  F   UNL A   1      43.142  24.316  36.267  1.00  0.00    -0.200 F 
ATOM     96  F   UNL A   1      45.595  23.137  36.087  1.00  0.00    -0.200 F 
ENDBRANCH  63  86
ENDBRANCH  37  38
ENDBRANCH  30  32
ENDBRANCH  29  30
ENDBRANCH  28  29
ENDBRANCH  27  28
ENDBRANCH  26  27
ENDBRANCH  25  26
ENDBRANCH   1  25
TORSDOF 22
ENDMDL
