MODEL 1
REMARK VINA RESULT:      -8.5      0.000      0.000
REMARK SMILES O=C(OCCOCCOCCOC(=O)c1[nH]ncc1C[N@H+]1CCC[C@@H](C(=O)c2ccc(Oc3ccccc3)cc2)C1)c1ccc(-c2c3nc(c(-c4c(F)c(F)c(F)c(F)c4F)c4ccc([nH]4)c(-c4c(F)c(F)c(F)c(F)c4F)c4nc(c(-c5c(F)c(F)c(F)c(F)c5F)c5ccc2[nH]5)C=C4)C=C3)cc1
REMARK SMILES IDX 10 1 9 2 8 3 7 4 6 5 5 6 4 7 3 8 2 9 1 10 42 11 43 12 104 13
REMARK SMILES IDX 44 14 103 15 45 16 46 17 47 18 97 19 48 20 102 21 96 22
REMARK SMILES IDX 98 23 49 24 101 25 95 26 94 27 50 29 82 30 62 31 81 32 63 33
REMARK SMILES IDX 66 34 80 35 99 36 64 37 65 38 79 40 100 41 67 42 51 43 52 44
REMARK SMILES IDX 60 45 53 46 54 47 58 48 61 49 55 50 56 51 59 52 57 53 83 54
REMARK SMILES IDX 84 55 92 56 85 57 86 58 90 59 93 60 87 61 88 62 91 63 89 64
REMARK SMILES IDX 68 65 69 66 77 67 70 68 71 69 75 70 78 71 72 72 73 73 76 74
REMARK SMILES IDX 74 75 11 76 12 77 13 78 14 79 15 80 16 81 19 82 17 83 18 85
REMARK SMILES IDX 20 86 21 87 22 88 41 89 23 91 25 92 24 93 26 94 27 95 28 96
REMARK SMILES IDX 29 97 40 98 30 99 39 100 31 101 32 102 33 103 34 104 38 105
REMARK SMILES IDX 35 106 37 107 36 108
REMARK H PARENT 98 28 66 39 16 84 21 90
REMARK Flexibility Score: inf
ROOT
ATOM      1  C   UNL A   1      37.894  33.929  30.286  1.00  0.00     0.202 C 
ENDROOT
BRANCH   1   2
ATOM      2  O   UNL A   1      36.934  34.733  29.602  1.00  0.00    -0.376 OA
BRANCH   2   3
ATOM      3  C   UNL A   1      35.890  34.003  28.952  1.00  0.00     0.188 C 
BRANCH   3   4
ATOM      4  C   UNL A   1      34.607  34.827  28.862  1.00  0.00     0.188 C 
BRANCH   4   5
ATOM      5  O   UNL A   1      33.462  33.997  29.129  1.00  0.00    -0.376 OA
BRANCH   5   6
ATOM      6  C   UNL A   1      33.223  33.075  28.059  1.00  0.00     0.202 C 
BRANCH   6   7
ATOM      7  C   UNL A   1      34.454  32.203  27.791  1.00  0.00     0.261 C 
BRANCH   7   8
ATOM      8  O   UNL A   1      34.211  30.843  28.210  1.00  0.00    -0.460 OA
BRANCH   8   9
ATOM      9  C   UNL A   1      34.857  29.781  27.663  1.00  0.00     0.338 C 
ATOM     10  O   UNL A   1      34.368  29.109  26.763  1.00  0.00    -0.246 OA
BRANCH   9  11
ATOM     11  C   UNL A   1      36.275  29.585  28.031  1.00  0.00     0.060 A 
ATOM     12  C   UNL A   1      36.638  29.000  29.245  1.00  0.00     0.016 A 
ATOM     13  C   UNL A   1      37.253  29.901  27.081  1.00  0.00     0.016 A 
ATOM     14  C   UNL A   1      37.990  28.819  29.548  1.00  0.00     0.010 A 
ATOM     15  C   UNL A   1      38.602  29.665  27.363  1.00  0.00     0.010 A 
ATOM     16  C   UNL A   1      38.985  29.141  28.607  1.00  0.00    -0.014 A 
BRANCH  16  17
ATOM     17  C   UNL A   1      40.416  28.886  28.916  1.00  0.00     0.031 A 
ATOM     18  C   UNL A   1      41.088  27.618  28.478  1.00  0.00     0.074 A 
ATOM     19  C   UNL A   1      41.124  29.807  29.598  1.00  0.00     0.049 A 
ATOM     20  N   UNL A   1      42.323  27.226  28.679  1.00  0.00    -0.248 NA
ATOM     21  C   UNL A   1      40.270  26.662  27.717  1.00  0.00     0.031 C 
ATOM     22  C   UNL A   1      40.588  31.067  30.103  1.00  0.00     0.029 A 
ATOM     23  N   UNL A   1      42.442  29.827  29.980  1.00  0.00    -0.354 N 
ATOM     24  C   UNL A   1      42.426  25.978  28.087  1.00  0.00     0.074 A 
ATOM     25  C   UNL A   1      41.127  25.668  27.525  1.00  0.00     0.031 C 
ATOM     26  C   UNL A   1      41.570  31.752  30.711  1.00  0.00     0.029 A 
ATOM     27  C   UNL A   1      42.798  30.966  30.655  1.00  0.00     0.049 A 
ATOM     28  H   UNL A   1      43.070  29.093  29.788  1.00  0.00     0.167 HD
ATOM     29  C   UNL A   1      43.505  25.164  28.011  1.00  0.00     0.037 A 
ATOM     30  C   UNL A   1      43.982  31.341  31.175  1.00  0.00     0.037 A 
ATOM     31  C   UNL A   1      44.805  25.464  28.550  1.00  0.00     0.049 A 
ATOM     32  C   UNL A   1      45.169  30.436  31.052  1.00  0.00     0.074 A 
ATOM     33  C   UNL A   1      45.956  24.692  28.517  1.00  0.00     0.029 A 
ATOM     34  N   UNL A   1      45.131  26.636  29.213  1.00  0.00    -0.354 N 
ATOM     35  N   UNL A   1      45.247  29.255  30.496  1.00  0.00    -0.248 NA
ATOM     36  C   UNL A   1      46.431  30.920  31.629  1.00  0.00     0.031 C 
ATOM     37  C   UNL A   1      46.978  25.399  29.163  1.00  0.00     0.029 A 
ATOM     38  C   UNL A   1      46.465  26.613  29.589  1.00  0.00     0.049 A 
ATOM     39  H   UNL A   1      44.506  27.377  29.391  1.00  0.00     0.167 HD
ATOM     40  C   UNL A   1      46.560  28.843  30.666  1.00  0.00     0.074 A 
ATOM     41  C   UNL A   1      47.251  29.912  31.358  1.00  0.00     0.031 C 
ATOM     42  C   UNL A   1      47.135  27.678  30.285  1.00  0.00     0.037 A 
BRANCH  29  43
ATOM     43  C   UNL A   1      43.319  23.858  27.309  1.00  0.00     0.064 A 
ATOM     44  C   UNL A   1      43.684  23.704  25.964  1.00  0.00     0.173 A 
ATOM     45  C   UNL A   1      42.788  22.752  27.984  1.00  0.00     0.173 A 
ATOM     46  F   UNL A   1      44.182  24.743  25.276  1.00  0.00    -0.203 F 
ATOM     47  C   UNL A   1      43.513  22.484  25.316  1.00  0.00     0.198 A 
ATOM     48  C   UNL A   1      42.626  21.531  27.335  1.00  0.00     0.198 A 
ATOM     49  F   UNL A   1      42.421  22.857  29.271  1.00  0.00    -0.203 F 
ATOM     50  F   UNL A   1      43.844  22.362  24.023  1.00  0.00    -0.200 F 
ATOM     51  C   UNL A   1      42.987  21.400  26.001  1.00  0.00     0.200 A 
ATOM     52  F   UNL A   1      42.115  20.483  27.996  1.00  0.00    -0.200 F 
ATOM     53  F   UNL A   1      42.816  20.228  25.373  1.00  0.00    -0.200 F 
ENDBRANCH  29  43
BRANCH  30  54
ATOM     54  C   UNL A   1      44.090  32.652  31.853  1.00  0.00     0.064 A 
ATOM     55  C   UNL A   1      44.052  32.738  33.250  1.00  0.00     0.173 A 
ATOM     56  C   UNL A   1      44.270  33.833  31.121  1.00  0.00     0.173 A 
ATOM     57  F   UNL A   1      43.864  31.632  33.984  1.00  0.00    -0.203 F 
ATOM     58  C   UNL A   1      44.198  33.965  33.895  1.00  0.00     0.198 A 
ATOM     59  C   UNL A   1      44.419  35.058  31.767  1.00  0.00     0.198 A 
ATOM     60  F   UNL A   1      44.301  33.790  29.782  1.00  0.00    -0.203 F 
ATOM     61  F   UNL A   1      44.151  34.025  35.232  1.00  0.00    -0.200 F 
ATOM     62  C   UNL A   1      44.388  35.122  33.153  1.00  0.00     0.200 A 
ATOM     63  F   UNL A   1      44.582  36.178  31.051  1.00  0.00    -0.200 F 
ATOM     64  F   UNL A   1      44.536  36.299  33.776  1.00  0.00    -0.200 F 
ENDBRANCH  30  54
BRANCH  42  65
ATOM     65  C   UNL A   1      48.580  27.496  30.623  1.00  0.00     0.064 A 
ATOM     66  C   UNL A   1      49.584  27.941  29.752  1.00  0.00     0.173 A 
ATOM     67  C   UNL A   1      48.963  26.899  31.831  1.00  0.00     0.173 A 
ATOM     68  F   UNL A   1      49.258  28.506  28.580  1.00  0.00    -0.203 F 
ATOM     69  C   UNL A   1      50.928  27.785  30.077  1.00  0.00     0.198 A 
ATOM     70  C   UNL A   1      50.309  26.751  32.156  1.00  0.00     0.198 A 
ATOM     71  F   UNL A   1      48.034  26.453  32.690  1.00  0.00    -0.203 F 
ATOM     72  F   UNL A   1      51.875  28.199  29.224  1.00  0.00    -0.200 F 
ATOM     73  C   UNL A   1      51.289  27.193  31.279  1.00  0.00     0.200 A 
ATOM     74  F   UNL A   1      50.658  26.173  33.314  1.00  0.00    -0.200 F 
ATOM     75  F   UNL A   1      52.585  27.039  31.588  1.00  0.00    -0.200 F 
ENDBRANCH  42  65
ENDBRANCH  16  17
ENDBRANCH   9  11
ENDBRANCH   8   9
ENDBRANCH   7   8
ENDBRANCH   6   7
ENDBRANCH   5   6
ENDBRANCH   4   5
ENDBRANCH   3   4
ENDBRANCH   2   3
ENDBRANCH   1   2
BRANCH   1  76
ATOM     76  C   UNL A   1      37.453  32.461  30.320  1.00  0.00     0.261 C 
BRANCH  76  77
ATOM     77  O   UNL A   1      37.541  31.917  31.650  1.00  0.00    -0.459 OA
BRANCH  77  78
ATOM     78  C   UNL A   1      36.420  31.336  32.141  1.00  0.00     0.356 C 
ATOM     79  O   UNL A   1      36.233  30.132  32.276  1.00  0.00    -0.244 OA
BRANCH  78  80
ATOM     80  C   UNL A   1      35.508  32.345  32.583  1.00  0.00     0.152 A 
ATOM     81  N   UNL A   1      34.379  32.653  31.875  1.00  0.00    -0.271 N 
ATOM     82  C   UNL A   1      35.532  33.219  33.663  1.00  0.00     0.059 A 
ATOM     83  N   UNL A   1      33.626  33.604  32.448  1.00  0.00    -0.183 NA
ATOM     84  H   UNL A   1      34.141  32.219  31.024  1.00  0.00     0.190 HD
ATOM     85  C   UNL A   1      34.342  33.971  33.509  1.00  0.00     0.145 A 
BRANCH  82  86
ATOM     86  C   UNL A   1      36.576  33.378  34.724  1.00  0.00     0.303 C 
BRANCH  86  87
ATOM     87  N   UNL A   1      37.935  33.002  34.287  1.00  0.00    -0.330 N 
ATOM     88  C   UNL A   1      38.874  34.131  34.291  1.00  0.00     0.262 C 
ATOM     89  C   UNL A   1      38.462  31.835  35.009  1.00  0.00     0.274 C 
ATOM     90  H   UNL A   1      37.837  32.719  33.312  1.00  0.00     0.348 HD
ATOM     91  C   UNL A   1      40.247  33.730  33.751  1.00  0.00     0.062 C 
ATOM     92  C   UNL A   1      39.822  31.369  34.451  1.00  0.00     0.116 C 
ATOM     93  C   UNL A   1      40.811  32.537  34.519  1.00  0.00     0.023 C 
BRANCH  92  94
ATOM     94  C   UNL A   1      40.298  30.162  35.255  1.00  0.00     0.171 C 
ATOM     95  O   UNL A   1      39.668  29.756  36.232  1.00  0.00    -0.294 OA
BRANCH  94  96
ATOM     96  C   UNL A   1      41.535  29.421  34.849  1.00  0.00     0.018 A 
ATOM     97  C   UNL A   1      41.631  28.984  33.518  1.00  0.00     0.015 A 
ATOM     98  C   UNL A   1      42.593  29.157  35.727  1.00  0.00     0.015 A 
ATOM     99  C   UNL A   1      42.752  28.276  33.079  1.00  0.00     0.048 A 
ATOM    100  C   UNL A   1      43.708  28.433  35.292  1.00  0.00     0.048 A 
ATOM    101  C   UNL A   1      43.777  27.978  33.973  1.00  0.00     0.127 A 
BRANCH 101 102
ATOM    102  O   UNL A   1      44.867  27.300  33.476  1.00  0.00    -0.457 OA
BRANCH 102 103
ATOM    103  C   UNL A   1      44.793  25.927  33.492  1.00  0.00     0.127 A 
ATOM    104  C   UNL A   1      44.500  25.279  32.291  1.00  0.00     0.047 A 
ATOM    105  C   UNL A   1      44.931  25.197  34.674  1.00  0.00     0.047 A 
ATOM    106  C   UNL A   1      44.388  23.889  32.265  1.00  0.00     0.004 A 
ATOM    107  C   UNL A   1      44.812  23.806  34.645  1.00  0.00     0.004 A 
ATOM    108  C   UNL A   1      44.547  23.154  33.441  1.00  0.00     0.000 A 
ENDBRANCH 102 103
ENDBRANCH 101 102
ENDBRANCH  94  96
ENDBRANCH  92  94
ENDBRANCH  86  87
ENDBRANCH  82  86
ENDBRANCH  78  80
ENDBRANCH  77  78
ENDBRANCH  76  77
ENDBRANCH   1  76
TORSDOF 23
ENDMDL
MODEL 2
REMARK VINA RESULT:      -7.9      5.187      8.496
REMARK SMILES O=C(OCCOCCOCCOC(=O)c1[nH]ncc1C[N@H+]1CCC[C@@H](C(=O)c2ccc(Oc3ccccc3)cc2)C1)c1ccc(-c2c3nc(c(-c4c(F)c(F)c(F)c(F)c4F)c4ccc([nH]4)c(-c4c(F)c(F)c(F)c(F)c4F)c4nc(c(-c5c(F)c(F)c(F)c(F)c5F)c5ccc2[nH]5)C=C4)C=C3)cc1
REMARK SMILES IDX 10 1 9 2 8 3 7 4 6 5 5 6 4 7 3 8 2 9 1 10 42 11 43 12 104 13
REMARK SMILES IDX 44 14 103 15 45 16 46 17 47 18 97 19 48 20 102 21 96 22
REMARK SMILES IDX 98 23 49 24 101 25 95 26 94 27 50 29 82 30 62 31 81 32 63 33
REMARK SMILES IDX 66 34 80 35 99 36 64 37 65 38 79 40 100 41 67 42 51 43 52 44
REMARK SMILES IDX 60 45 53 46 54 47 58 48 61 49 55 50 56 51 59 52 57 53 83 54
REMARK SMILES IDX 84 55 92 56 85 57 86 58 90 59 93 60 87 61 88 62 91 63 89 64
REMARK SMILES IDX 68 65 69 66 77 67 70 68 71 69 75 70 78 71 72 72 73 73 76 74
REMARK SMILES IDX 74 75 11 76 12 77 13 78 14 79 15 80 16 81 19 82 17 83 18 85
REMARK SMILES IDX 20 86 21 87 22 88 41 89 23 91 25 92 24 93 26 94 27 95 28 96
REMARK SMILES IDX 29 97 40 98 30 99 39 100 31 101 32 102 33 103 34 104 38 105
REMARK SMILES IDX 35 106 37 107 36 108
REMARK H PARENT 98 28 66 39 16 84 21 90
REMARK Flexibility Score: inf
ROOT
ATOM      1  C   UNL A   1      34.599  29.828  27.848  1.00  0.00     0.202 C 
ENDROOT
BRANCH   1   2
ATOM      2  O   UNL A   1      35.268  30.748  28.710  1.00  0.00    -0.376 OA
BRANCH   2   3
ATOM      3  C   UNL A   1      34.570  31.973  28.942  1.00  0.00     0.188 C 
BRANCH   3   4
ATOM      4  C   UNL A   1      35.497  33.179  28.803  1.00  0.00     0.188 C 
BRANCH   4   5
ATOM      5  O   UNL A   1      35.408  34.015  29.971  1.00  0.00    -0.376 OA
BRANCH   5   6
ATOM      6  C   UNL A   1      34.398  33.548  30.873  1.00  0.00     0.202 C 
BRANCH   6   7
ATOM      7  C   UNL A   1      34.945  33.408  32.297  1.00  0.00     0.261 C 
BRANCH   7   8
ATOM      8  O   UNL A   1      35.563  32.116  32.477  1.00  0.00    -0.460 OA
BRANCH   8   9
ATOM      9  C   UNL A   1      36.738  31.950  33.137  1.00  0.00     0.338 C 
ATOM     10  O   UNL A   1      36.806  31.952  34.361  1.00  0.00    -0.246 OA
BRANCH   9  11
ATOM     11  C   UNL A   1      37.914  31.542  32.342  1.00  0.00     0.060 A 
ATOM     12  C   UNL A   1      38.940  30.777  32.899  1.00  0.00     0.016 A 
ATOM     13  C   UNL A   1      37.926  31.848  30.976  1.00  0.00     0.016 A 
ATOM     14  C   UNL A   1      40.027  30.398  32.109  1.00  0.00     0.010 A 
ATOM     15  C   UNL A   1      38.988  31.419  30.174  1.00  0.00     0.010 A 
ATOM     16  C   UNL A   1      40.058  30.707  30.737  1.00  0.00    -0.014 A 
BRANCH  16  17
ATOM     17  C   UNL A   1      41.191  30.246  29.892  1.00  0.00     0.031 A 
ATOM     18  C   UNL A   1      41.181  28.885  29.261  1.00  0.00     0.074 A 
ATOM     19  C   UNL A   1      42.244  31.061  29.687  1.00  0.00     0.049 A 
ATOM     20  N   UNL A   1      42.094  28.316  28.511  1.00  0.00    -0.248 NA
ATOM     21  C   UNL A   1      39.995  28.051  29.501  1.00  0.00     0.031 C 
ATOM     22  C   UNL A   1      42.392  32.395  30.261  1.00  0.00     0.029 A 
ATOM     23  N   UNL A   1      43.382  30.889  28.941  1.00  0.00    -0.354 N 
ATOM     24  C   UNL A   1      41.603  27.057  28.205  1.00  0.00     0.074 A 
ATOM     25  C   UNL A   1      40.314  26.937  28.856  1.00  0.00     0.031 C 
ATOM     26  C   UNL A   1      43.544  32.934  29.832  1.00  0.00     0.029 A 
ATOM     27  C   UNL A   1      44.223  31.973  28.969  1.00  0.00     0.049 A 
ATOM     28  H   UNL A   1      43.578  30.067  28.436  1.00  0.00     0.167 HD
ATOM     29  C   UNL A   1      42.169  26.090  27.445  1.00  0.00     0.037 A 
ATOM     30  C   UNL A   1      45.411  32.175  28.370  1.00  0.00     0.037 A 
ATOM     31  C   UNL A   1      43.439  26.200  26.779  1.00  0.00     0.049 A 
ATOM     32  C   UNL A   1      46.002  31.101  27.510  1.00  0.00     0.074 A 
ATOM     33  C   UNL A   1      44.087  25.265  25.989  1.00  0.00     0.029 A 
ATOM     34  N   UNL A   1      44.254  27.321  26.818  1.00  0.00    -0.354 N 
ATOM     35  N   UNL A   1      45.529  29.912  27.237  1.00  0.00    -0.248 NA
ATOM     36  C   UNL A   1      47.294  31.399  26.874  1.00  0.00     0.031 C 
ATOM     37  C   UNL A   1      45.296  25.821  25.551  1.00  0.00     0.029 A 
ATOM     38  C   UNL A   1      45.394  27.104  26.062  1.00  0.00     0.049 A 
ATOM     39  H   UNL A   1      44.051  28.149  27.311  1.00  0.00     0.167 HD
ATOM     40  C   UNL A   1      46.466  29.312  26.411  1.00  0.00     0.074 A 
ATOM     41  C   UNL A   1      47.528  30.276  26.207  1.00  0.00     0.031 C 
ATOM     42  C   UNL A   1      46.445  28.068  25.877  1.00  0.00     0.037 A 
BRANCH  29  43
ATOM     43  C   UNL A   1      41.403  24.816  27.292  1.00  0.00     0.064 A 
ATOM     44  C   UNL A   1      41.813  23.645  27.946  1.00  0.00     0.173 A 
ATOM     45  C   UNL A   1      40.247  24.766  26.502  1.00  0.00     0.173 A 
ATOM     46  F   UNL A   1      42.922  23.646  28.699  1.00  0.00    -0.203 F 
ATOM     47  C   UNL A   1      41.094  22.462  27.804  1.00  0.00     0.198 A 
ATOM     48  C   UNL A   1      39.526  23.583  26.369  1.00  0.00     0.198 A 
ATOM     49  F   UNL A   1      39.823  25.862  25.855  1.00  0.00    -0.203 F 
ATOM     50  F   UNL A   1      41.515  21.347  28.416  1.00  0.00    -0.200 F 
ATOM     51  C   UNL A   1      39.952  22.432  27.018  1.00  0.00     0.200 A 
ATOM     52  F   UNL A   1      38.424  23.552  25.607  1.00  0.00    -0.200 F 
ATOM     53  F   UNL A   1      39.264  21.289  26.876  1.00  0.00    -0.200 F 
ENDBRANCH  29  43
BRANCH  30  54
ATOM     54  C   UNL A   1      46.109  33.465  28.565  1.00  0.00     0.064 A 
ATOM     55  C   UNL A   1      47.084  33.605  29.559  1.00  0.00     0.173 A 
ATOM     56  C   UNL A   1      45.841  34.565  27.739  1.00  0.00     0.173 A 
ATOM     57  F   UNL A   1      47.356  32.581  30.380  1.00  0.00    -0.203 F 
ATOM     58  C   UNL A   1      47.775  34.805  29.718  1.00  0.00     0.198 A 
ATOM     59  C   UNL A   1      46.535  35.762  27.897  1.00  0.00     0.198 A 
ATOM     60  F   UNL A   1      44.907  34.470  26.783  1.00  0.00    -0.203 F 
ATOM     61  F   UNL A   1      48.699  34.920  30.681  1.00  0.00    -0.200 F 
ATOM     62  C   UNL A   1      47.504  35.880  28.883  1.00  0.00     0.200 A 
ATOM     63  F   UNL A   1      46.260  36.807  27.104  1.00  0.00    -0.200 F 
ATOM     64  F   UNL A   1      48.176  37.030  29.033  1.00  0.00    -0.200 F 
ENDBRANCH  30  54
BRANCH  42  65
ATOM     65  C   UNL A   1      47.615  27.677  25.032  1.00  0.00     0.064 A 
ATOM     66  C   UNL A   1      48.768  27.129  25.610  1.00  0.00     0.173 A 
ATOM     67  C   UNL A   1      47.577  27.828  23.639  1.00  0.00     0.173 A 
ATOM     68  F   UNL A   1      48.850  26.981  26.941  1.00  0.00    -0.203 F 
ATOM     69  C   UNL A   1      49.850  26.752  24.820  1.00  0.00     0.198 A 
ATOM     70  C   UNL A   1      48.658  27.443  22.852  1.00  0.00     0.198 A 
ATOM     71  F   UNL A   1      46.495  28.355  23.046  1.00  0.00    -0.203 F 
ATOM     72  F   UNL A   1      50.953  26.247  25.391  1.00  0.00    -0.200 F 
ATOM     73  C   UNL A   1      49.793  26.907  23.442  1.00  0.00     0.200 A 
ATOM     74  F   UNL A   1      48.605  27.599  21.522  1.00  0.00    -0.200 F 
ATOM     75  F   UNL A   1      50.838  26.548  22.683  1.00  0.00    -0.200 F 
ENDBRANCH  42  65
ENDBRANCH  16  17
ENDBRANCH   9  11
ENDBRANCH   8   9
ENDBRANCH   7   8
ENDBRANCH   6   7
ENDBRANCH   5   6
ENDBRANCH   4   5
ENDBRANCH   3   4
ENDBRANCH   2   3
ENDBRANCH   1   2
BRANCH   1  76
ATOM     76  C   UNL A   1      33.986  30.553  26.646  1.00  0.00     0.261 C 
BRANCH  76  77
ATOM     77  O   UNL A   1      32.840  29.846  26.135  1.00  0.00    -0.459 OA
BRANCH  77  78
ATOM     78  C   UNL A   1      31.742  30.591  25.860  1.00  0.00     0.356 C 
ATOM     79  O   UNL A   1      31.348  31.557  26.503  1.00  0.00    -0.244 OA
BRANCH  78  80
ATOM     80  C   UNL A   1      31.152  30.146  24.636  1.00  0.00     0.152 A 
ATOM     81  N   UNL A   1      29.905  30.554  24.249  1.00  0.00    -0.271 N 
ATOM     82  C   UNL A   1      31.581  29.253  23.661  1.00  0.00     0.059 A 
ATOM     83  N   UNL A   1      29.520  30.060  23.063  1.00  0.00    -0.183 NA
ATOM     84  H   UNL A   1      29.342  31.154  24.790  1.00  0.00     0.190 HD
ATOM     85  C   UNL A   1      30.518  29.245  22.726  1.00  0.00     0.145 A 
BRANCH  82  86
ATOM     86  C   UNL A   1      32.841  28.447  23.610  1.00  0.00     0.303 C 
BRANCH  86  87
ATOM     87  N   UNL A   1      32.628  27.028  23.262  1.00  0.00    -0.330 N 
ATOM     88  C   UNL A   1      33.274  26.641  22.001  1.00  0.00     0.262 C 
ATOM     89  C   UNL A   1      32.963  26.114  24.364  1.00  0.00     0.274 C 
ATOM     90  H   UNL A   1      31.624  26.935  23.105  1.00  0.00     0.348 HD
ATOM     91  C   UNL A   1      32.963  25.193  21.624  1.00  0.00     0.062 C 
ATOM     92  C   UNL A   1      32.609  24.649  24.037  1.00  0.00     0.116 C 
ATOM     93  C   UNL A   1      33.339  24.239  22.754  1.00  0.00     0.023 C 
BRANCH  92  94
ATOM     94  C   UNL A   1      32.992  23.772  25.226  1.00  0.00     0.171 C 
ATOM     95  O   UNL A   1      32.910  24.190  26.381  1.00  0.00    -0.294 OA
BRANCH  94  96
ATOM     96  C   UNL A   1      33.448  22.362  25.010  1.00  0.00     0.018 A 
ATOM     97  C   UNL A   1      34.716  22.001  25.492  1.00  0.00     0.015 A 
ATOM     98  C   UNL A   1      32.669  21.396  24.363  1.00  0.00     0.015 A 
ATOM     99  C   UNL A   1      35.207  20.705  25.311  1.00  0.00     0.048 A 
ATOM    100  C   UNL A   1      33.166  20.103  24.166  1.00  0.00     0.048 A 
ATOM    101  C   UNL A   1      34.442  19.766  24.625  1.00  0.00     0.127 A 
BRANCH 101 102
ATOM    102  O   UNL A   1      34.967  18.500  24.499  1.00  0.00    -0.457 OA
BRANCH 102 103
ATOM    103  C   UNL A   1      34.176  17.463  24.937  1.00  0.00     0.127 A 
ATOM    104  C   UNL A   1      34.657  16.164  24.766  1.00  0.00     0.047 A 
ATOM    105  C   UNL A   1      32.903  17.682  25.467  1.00  0.00     0.047 A 
ATOM    106  C   UNL A   1      33.877  15.080  25.168  1.00  0.00     0.004 A 
ATOM    107  C   UNL A   1      32.123  16.594  25.863  1.00  0.00     0.004 A 
ATOM    108  C   UNL A   1      32.612  15.296  25.719  1.00  0.00     0.000 A 
ENDBRANCH 102 103
ENDBRANCH 101 102
ENDBRANCH  94  96
ENDBRANCH  92  94
ENDBRANCH  86  87
ENDBRANCH  82  86
ENDBRANCH  78  80
ENDBRANCH  77  78
ENDBRANCH  76  77
ENDBRANCH   1  76
TORSDOF 23
ENDMDL
MODEL 3
REMARK VINA RESULT:      -7.9      3.891     10.430
REMARK SMILES O=C(OCCOCCOCCOC(=O)c1[nH]ncc1C[N@H+]1CCC[C@@H](C(=O)c2ccc(Oc3ccccc3)cc2)C1)c1ccc(-c2c3nc(c(-c4c(F)c(F)c(F)c(F)c4F)c4ccc([nH]4)c(-c4c(F)c(F)c(F)c(F)c4F)c4nc(c(-c5c(F)c(F)c(F)c(F)c5F)c5ccc2[nH]5)C=C4)C=C3)cc1
REMARK SMILES IDX 10 1 9 2 8 3 7 4 6 5 5 6 4 7 3 8 2 9 1 10 42 11 43 12 104 13
REMARK SMILES IDX 44 14 103 15 45 16 46 17 47 18 97 19 48 20 102 21 96 22
REMARK SMILES IDX 98 23 49 24 101 25 95 26 94 27 50 29 82 30 62 31 81 32 63 33
REMARK SMILES IDX 66 34 80 35 99 36 64 37 65 38 79 40 100 41 67 42 51 43 52 44
REMARK SMILES IDX 60 45 53 46 54 47 58 48 61 49 55 50 56 51 59 52 57 53 83 54
REMARK SMILES IDX 84 55 92 56 85 57 86 58 90 59 93 60 87 61 88 62 91 63 89 64
REMARK SMILES IDX 68 65 69 66 77 67 70 68 71 69 75 70 78 71 72 72 73 73 76 74
REMARK SMILES IDX 74 75 11 76 12 77 13 78 14 79 15 80 16 81 19 82 17 83 18 85
REMARK SMILES IDX 20 86 21 87 22 88 41 89 23 91 25 92 24 93 26 94 27 95 28 96
REMARK SMILES IDX 29 97 40 98 30 99 39 100 31 101 32 102 33 103 34 104 38 105
REMARK SMILES IDX 35 106 37 107 36 108
REMARK H PARENT 98 28 66 39 16 84 21 90
REMARK Flexibility Score: inf
ROOT
ATOM      1  C   UNL A   1      44.465  19.011  24.968  1.00  0.00     0.202 C 
ENDROOT
BRANCH   1   2
ATOM      2  O   UNL A   1      45.553  19.698  25.584  1.00  0.00    -0.376 OA
BRANCH   2   3
ATOM      3  C   UNL A   1      46.459  20.329  24.675  1.00  0.00     0.188 C 
BRANCH   3   4
ATOM      4  C   UNL A   1      46.037  21.767  24.376  1.00  0.00     0.188 C 
BRANCH   4   5
ATOM      5  O   UNL A   1      46.516  22.652  25.404  1.00  0.00    -0.376 OA
BRANCH   5   6
ATOM      6  C   UNL A   1      46.241  24.021  25.086  1.00  0.00     0.202 C 
BRANCH   6   7
ATOM      7  C   UNL A   1      47.482  24.722  24.523  1.00  0.00     0.261 C 
BRANCH   7   8
ATOM      8  O   UNL A   1      47.703  25.978  25.200  1.00  0.00    -0.460 OA
BRANCH   8   9
ATOM      9  C   UNL A   1      47.010  27.106  24.896  1.00  0.00     0.338 C 
ATOM     10  O   UNL A   1      46.722  27.407  23.744  1.00  0.00    -0.246 OA
BRANCH   9  11
ATOM     11  C   UNL A   1      46.412  27.859  26.018  1.00  0.00     0.060 A 
ATOM     12  C   UNL A   1      45.037  27.831  26.262  1.00  0.00     0.016 A 
ATOM     13  C   UNL A   1      47.271  28.518  26.905  1.00  0.00     0.016 A 
ATOM     14  C   UNL A   1      44.513  28.544  27.343  1.00  0.00     0.010 A 
ATOM     15  C   UNL A   1      46.749  29.183  28.018  1.00  0.00     0.010 A 
ATOM     16  C   UNL A   1      45.363  29.220  28.236  1.00  0.00    -0.014 A 
BRANCH  16  17
ATOM     17  C   UNL A   1      44.799  29.924  29.418  1.00  0.00     0.031 A 
ATOM     18  C   UNL A   1      44.532  29.191  30.700  1.00  0.00     0.074 A 
ATOM     19  C   UNL A   1      44.523  31.239  29.340  1.00  0.00     0.049 A 
ATOM     20  N   UNL A   1      44.025  29.646  31.820  1.00  0.00    -0.248 NA
ATOM     21  C   UNL A   1      44.875  27.763  30.732  1.00  0.00     0.031 C 
ATOM     22  C   UNL A   1      44.710  32.063  28.149  1.00  0.00     0.029 A 
ATOM     23  N   UNL A   1      44.032  32.113  30.277  1.00  0.00    -0.354 N 
ATOM     24  C   UNL A   1      43.974  28.562  32.681  1.00  0.00     0.074 A 
ATOM     25  C   UNL A   1      44.492  27.420  31.954  1.00  0.00     0.031 C 
ATOM     26  C   UNL A   1      44.359  33.329  28.428  1.00  0.00     0.029 A 
ATOM     27  C   UNL A   1      43.904  33.398  29.813  1.00  0.00     0.049 A 
ATOM     28  H   UNL A   1      43.794  31.843  31.193  1.00  0.00     0.167 HD
ATOM     29  C   UNL A   1      43.542  28.520  33.963  1.00  0.00     0.037 A 
ATOM     30  C   UNL A   1      43.467  34.511  30.429  1.00  0.00     0.037 A 
ATOM     31  C   UNL A   1      43.040  29.647  34.704  1.00  0.00     0.049 A 
ATOM     32  C   UNL A   1      43.022  34.445  31.858  1.00  0.00     0.074 A 
ATOM     33  C   UNL A   1      42.580  29.690  36.010  1.00  0.00     0.029 A 
ATOM     34  N   UNL A   1      42.942  30.936  34.204  1.00  0.00    -0.354 N 
ATOM     35  N   UNL A   1      42.972  33.409  32.656  1.00  0.00    -0.248 NA
ATOM     36  C   UNL A   1      42.574  35.704  32.470  1.00  0.00     0.031 C 
ATOM     37  C   UNL A   1      42.201  31.007  36.299  1.00  0.00     0.029 A 
ATOM     38  C   UNL A   1      42.434  31.783  35.176  1.00  0.00     0.049 A 
ATOM     39  H   UNL A   1      43.195  31.209  33.292  1.00  0.00     0.167 HD
ATOM     40  C   UNL A   1      42.475  33.883  33.860  1.00  0.00     0.074 A 
ATOM     41  C   UNL A   1      42.259  35.307  33.697  1.00  0.00     0.031 C 
ATOM     42  C   UNL A   1      42.216  33.193  34.996  1.00  0.00     0.037 A 
BRANCH  29  43
ATOM     43  C   UNL A   1      43.598  27.195  34.652  1.00  0.00     0.064 A 
ATOM     44  C   UNL A   1      44.784  26.739  35.244  1.00  0.00     0.173 A 
ATOM     45  C   UNL A   1      42.459  26.382  34.734  1.00  0.00     0.173 A 
ATOM     46  F   UNL A   1      45.901  27.479  35.175  1.00  0.00    -0.203 F 
ATOM     47  C   UNL A   1      44.830  25.506  35.889  1.00  0.00     0.198 A 
ATOM     48  C   UNL A   1      42.507  25.154  35.387  1.00  0.00     0.198 A 
ATOM     49  F   UNL A   1      41.305  26.778  34.177  1.00  0.00    -0.203 F 
ATOM     50  F   UNL A   1      45.979  25.076  36.428  1.00  0.00    -0.200 F 
ATOM     51  C   UNL A   1      43.692  24.716  35.961  1.00  0.00     0.200 A 
ATOM     52  F   UNL A   1      41.409  24.388  35.455  1.00  0.00    -0.200 F 
ATOM     53  F   UNL A   1      43.740  23.526  36.576  1.00  0.00    -0.200 F 
ENDBRANCH  29  43
BRANCH  30  54
ATOM     54  C   UNL A   1      43.444  35.789  29.683  1.00  0.00     0.064 A 
ATOM     55  C   UNL A   1      42.322  36.156  28.932  1.00  0.00     0.173 A 
ATOM     56  C   UNL A   1      44.525  36.679  29.739  1.00  0.00     0.173 A 
ATOM     57  F   UNL A   1      41.275  35.323  28.841  1.00  0.00    -0.203 F 
ATOM     58  C   UNL A   1      42.278  37.378  28.263  1.00  0.00     0.198 A 
ATOM     59  C   UNL A   1      44.478  37.901  29.073  1.00  0.00     0.198 A 
ATOM     60  F   UNL A   1      45.620  36.356  30.440  1.00  0.00    -0.203 F 
ATOM     61  F   UNL A   1      41.197  37.706  27.543  1.00  0.00    -0.200 F 
ATOM     62  C   UNL A   1      43.354  38.252  28.340  1.00  0.00     0.200 A 
ATOM     63  F   UNL A   1      45.525  38.736  29.129  1.00  0.00    -0.200 F 
ATOM     64  F   UNL A   1      43.306  39.429  27.702  1.00  0.00    -0.200 F 
ENDBRANCH  30  54
BRANCH  42  65
ATOM     65  C   UNL A   1      41.657  33.970  36.144  1.00  0.00     0.064 A 
ATOM     66  C   UNL A   1      42.494  34.723  36.979  1.00  0.00     0.173 A 
ATOM     67  C   UNL A   1      40.279  33.982  36.398  1.00  0.00     0.173 A 
ATOM     68  F   UNL A   1      43.820  34.726  36.777  1.00  0.00    -0.203 F 
ATOM     69  C   UNL A   1      41.969  35.458  38.038  1.00  0.00     0.198 A 
ATOM     70  C   UNL A   1      39.757  34.724  37.454  1.00  0.00     0.198 A 
ATOM     71  F   UNL A   1      39.443  33.269  35.628  1.00  0.00    -0.203 F 
ATOM     72  F   UNL A   1      42.786  36.157  38.837  1.00  0.00    -0.200 F 
ATOM     73  C   UNL A   1      40.602  35.459  38.273  1.00  0.00     0.200 A 
ATOM     74  F   UNL A   1      38.436  34.721  37.685  1.00  0.00    -0.200 F 
ATOM     75  F   UNL A   1      40.098  36.164  39.296  1.00  0.00    -0.200 F 
ENDBRANCH  42  65
ENDBRANCH  16  17
ENDBRANCH   9  11
ENDBRANCH   8   9
ENDBRANCH   7   8
ENDBRANCH   6   7
ENDBRANCH   5   6
ENDBRANCH   4   5
ENDBRANCH   3   4
ENDBRANCH   2   3
ENDBRANCH   1   2
BRANCH   1  76
ATOM     76  C   UNL A   1      43.122  19.553  25.470  1.00  0.00     0.261 C 
BRANCH  76  77
ATOM     77  O   UNL A   1      43.309  20.611  26.429  1.00  0.00    -0.459 OA
BRANCH  77  78
ATOM     78  C   UNL A   1      42.955  21.857  26.031  1.00  0.00     0.356 C 
ATOM     79  O   UNL A   1      42.325  22.139  25.018  1.00  0.00    -0.244 OA
BRANCH  78  80
ATOM     80  C   UNL A   1      43.338  22.808  27.028  1.00  0.00     0.152 A 
ATOM     81  N   UNL A   1      44.487  22.662  27.757  1.00  0.00    -0.271 N 
ATOM     82  C   UNL A   1      42.717  23.951  27.518  1.00  0.00     0.059 A 
ATOM     83  N   UNL A   1      44.702  23.659  28.628  1.00  0.00    -0.183 NA
ATOM     84  H   UNL A   1      45.097  21.897  27.653  1.00  0.00     0.190 HD
ATOM     85  C   UNL A   1      43.614  24.418  28.510  1.00  0.00     0.145 A 
BRANCH  82  86
ATOM     86  C   UNL A   1      41.396  24.543  27.139  1.00  0.00     0.303 C 
BRANCH  86  87
ATOM     87  N   UNL A   1      41.306  25.998  27.369  1.00  0.00    -0.330 N 
ATOM     88  C   UNL A   1      41.160  26.770  26.128  1.00  0.00     0.262 C 
ATOM     89  C   UNL A   1      40.290  26.354  28.371  1.00  0.00     0.274 C 
ATOM     90  H   UNL A   1      42.207  26.267  27.764  1.00  0.00     0.348 HD
ATOM     91  C   UNL A   1      41.157  28.276  26.393  1.00  0.00     0.062 C 
ATOM     92  C   UNL A   1      40.299  27.861  28.702  1.00  0.00     0.116 C 
ATOM     93  C   UNL A   1      40.083  28.652  27.409  1.00  0.00     0.023 C 
BRANCH  92  94
ATOM     94  C   UNL A   1      39.216  28.143  29.741  1.00  0.00     0.171 C 
ATOM     95  O   UNL A   1      38.604  27.228  30.292  1.00  0.00    -0.294 OA
BRANCH  94  96
ATOM     96  C   UNL A   1      38.897  29.553  30.136  1.00  0.00     0.018 A 
ATOM     97  C   UNL A   1      39.836  30.244  30.919  1.00  0.00     0.015 A 
ATOM     98  C   UNL A   1      37.719  30.206  29.756  1.00  0.00     0.015 A 
ATOM     99  C   UNL A   1      39.593  31.556  31.333  1.00  0.00     0.048 A 
ATOM    100  C   UNL A   1      37.467  31.513  30.185  1.00  0.00     0.048 A 
ATOM    101  C   UNL A   1      38.397  32.179  30.988  1.00  0.00     0.127 A 
BRANCH 101 102
ATOM    102  O   UNL A   1      38.224  33.480  31.404  1.00  0.00    -0.457 OA
BRANCH 102 103
ATOM    103  C   UNL A   1      37.176  33.715  32.262  1.00  0.00     0.127 A 
ATOM    104  C   UNL A   1      36.143  34.539  31.814  1.00  0.00     0.047 A 
ATOM    105  C   UNL A   1      37.168  33.215  33.566  1.00  0.00     0.047 A 
ATOM    106  C   UNL A   1      35.073  34.829  32.662  1.00  0.00     0.004 A 
ATOM    107  C   UNL A   1      36.099  33.511  34.413  1.00  0.00     0.004 A 
ATOM    108  C   UNL A   1      35.050  34.312  33.959  1.00  0.00     0.000 A 
ENDBRANCH 102 103
ENDBRANCH 101 102
ENDBRANCH  94  96
ENDBRANCH  92  94
ENDBRANCH  86  87
ENDBRANCH  82  86
ENDBRANCH  78  80
ENDBRANCH  77  78
ENDBRANCH  76  77
ENDBRANCH   1  76
TORSDOF 23
ENDMDL
