MODEL 1
REMARK VINA RESULT:     -10.7      0.000      0.000
REMARK SMILES O=C(C[C@H](c1ccc(C2CC2)cc1)[NH+]1CCOCC1)OCCOCCOCCOC(=O)c1ccc(-c2c3nc(c(-c4c(F)c(F)c(F)c(F)c4F)c4ccc([nH]4)c(-c4c(F)c(F)c(F)c(F)c4F)c4nc(c(-c5c(F)c(F)c(F)c(F)c5F)c5ccc2[nH]5)C=C4)C=C3)cc1
REMARK SMILES IDX 24 1 23 2 22 3 21 4 20 5 2 6 1 7 3 8 4 9 14 10 15 11 19 12
REMARK SMILES IDX 16 14 18 15 17 16 5 17 6 18 13 19 7 20 12 21 8 22 9 23 10 24
REMARK SMILES IDX 11 25 25 26 26 27 27 28 28 29 29 30 30 31 31 32 32 33 33 34
REMARK SMILES IDX 94 35 34 36 93 37 35 38 36 39 37 40 87 41 38 42 92 43 86 44
REMARK SMILES IDX 88 45 39 46 91 47 85 48 84 49 40 51 72 52 52 53 71 54 53 55
REMARK SMILES IDX 56 56 70 57 89 58 54 59 55 60 69 62 90 63 57 64 41 65 42 66
REMARK SMILES IDX 50 67 43 68 44 69 48 70 51 71 45 72 46 73 49 74 47 75 73 76
REMARK SMILES IDX 74 77 82 78 75 79 76 80 80 81 83 82 77 83 78 84 81 85 79 86
REMARK SMILES IDX 58 87 59 88 67 89 60 90 61 91 65 92 68 93 62 94 63 95 66 96
REMARK SMILES IDX 64 97
REMARK H PARENT 14 13 88 50 56 61
REMARK Flexibility Score: inf
ROOT
ATOM      1  C   UNL A   1      34.603  31.652  28.390  1.00  0.00     0.188 C 
ENDROOT
BRANCH   1   2
ATOM      2  O   UNL A   1      34.295  30.844  27.261  1.00  0.00    -0.376 OA
BRANCH   2   3
ATOM      3  C   UNL A   1      34.404  29.443  27.457  1.00  0.00     0.202 C 
BRANCH   3   4
ATOM      4  C   UNL A   1      33.736  28.727  26.285  1.00  0.00     0.261 C 
BRANCH   4   5
ATOM      5  O   UNL A   1      33.107  27.502  26.712  1.00  0.00    -0.463 OA
BRANCH   5   6
ATOM      6  C   UNL A   1      31.785  27.396  26.997  1.00  0.00     0.312 C 
ATOM      7  O   UNL A   1      31.343  27.917  28.016  1.00  0.00    -0.252 OA
BRANCH   6   8
ATOM      8  C   UNL A   1      30.926  26.521  26.113  1.00  0.00     0.192 C 
BRANCH   8   9
ATOM      9  C   UNL A   1      31.282  26.602  24.612  1.00  0.00     0.226 C 
BRANCH   9  10
ATOM     10  N   UNL A   1      31.109  25.270  23.947  1.00  0.00    -0.324 N 
ATOM     11  C   UNL A   1      31.625  24.128  24.748  1.00  0.00     0.291 C 
ATOM     12  C   UNL A   1      31.743  25.148  22.607  1.00  0.00     0.291 C 
ATOM     13  H   UNL A   1      30.093  25.226  23.854  1.00  0.00     0.348 HD
ATOM     14  C   UNL A   1      33.158  23.994  24.752  1.00  0.00     0.221 C 
ATOM     15  C   UNL A   1      33.270  24.989  22.624  1.00  0.00     0.221 C 
ATOM     16  O   UNL A   1      33.669  23.870  23.423  1.00  0.00    -0.370 OA
ENDBRANCH   9  10
BRANCH   9  17
ATOM     17  C   UNL A   1      30.384  27.685  24.003  1.00  0.00     0.010 A 
ATOM     18  C   UNL A   1      30.823  29.011  23.876  1.00  0.00     0.010 A 
ATOM     19  C   UNL A   1      29.107  27.366  23.529  1.00  0.00     0.010 A 
ATOM     20  C   UNL A   1      29.981  29.996  23.356  1.00  0.00     0.004 A 
ATOM     21  C   UNL A   1      28.280  28.357  22.985  1.00  0.00     0.004 A 
ATOM     22  C   UNL A   1      28.686  29.700  22.902  1.00  0.00    -0.045 A 
BRANCH  22  23
ATOM     23  C   UNL A   1      27.808  30.818  22.379  1.00  0.00     0.019 C 
ATOM     24  C   UNL A   1      28.300  32.209  22.075  1.00  0.00     0.009 C 
ATOM     25  C   UNL A   1      27.986  31.268  20.949  1.00  0.00     0.009 C 
ENDBRANCH  22  23
ENDBRANCH   9  17
ENDBRANCH   8   9
ENDBRANCH   6   8
ENDBRANCH   5   6
ENDBRANCH   4   5
ENDBRANCH   3   4
ENDBRANCH   2   3
ENDBRANCH   1   2
BRANCH   1  26
ATOM     26  C   UNL A   1      35.518  32.839  28.081  1.00  0.00     0.188 C 
BRANCH  26  27
ATOM     27  O   UNL A   1      35.080  34.152  28.418  1.00  0.00    -0.376 OA
BRANCH  27  28
ATOM     28  C   UNL A   1      33.702  34.493  28.345  1.00  0.00     0.202 C 
BRANCH  28  29
ATOM     29  C   UNL A   1      33.183  35.508  29.362  1.00  0.00     0.261 C 
BRANCH  29  30
ATOM     30  O   UNL A   1      32.573  34.899  30.513  1.00  0.00    -0.460 OA
BRANCH  30  31
ATOM     31  C   UNL A   1      32.772  35.547  31.678  1.00  0.00     0.338 C 
ATOM     32  O   UNL A   1      32.115  36.476  32.140  1.00  0.00    -0.246 OA
BRANCH  31  33
ATOM     33  C   UNL A   1      33.901  34.959  32.408  1.00  0.00     0.060 A 
ATOM     34  C   UNL A   1      35.150  35.582  32.320  1.00  0.00     0.016 A 
ATOM     35  C   UNL A   1      33.766  33.715  33.032  1.00  0.00     0.016 A 
ATOM     36  C   UNL A   1      36.285  34.935  32.810  1.00  0.00     0.010 A 
ATOM     37  C   UNL A   1      34.904  33.065  33.514  1.00  0.00     0.010 A 
ATOM     38  C   UNL A   1      36.173  33.653  33.369  1.00  0.00    -0.014 A 
BRANCH  38  39
ATOM     39  C   UNL A   1      37.392  32.865  33.672  1.00  0.00     0.031 A 
ATOM     40  C   UNL A   1      38.147  33.143  34.944  1.00  0.00     0.074 A 
ATOM     41  C   UNL A   1      37.820  31.914  32.826  1.00  0.00     0.049 A 
ATOM     42  N   UNL A   1      39.268  32.623  35.377  1.00  0.00    -0.248 NA
ATOM     43  C   UNL A   1      37.560  34.143  35.851  1.00  0.00     0.031 C 
ATOM     44  C   UNL A   1      37.157  31.529  31.582  1.00  0.00     0.029 A 
ATOM     45  N   UNL A   1      38.928  31.106  32.883  1.00  0.00    -0.354 N 
ATOM     46  C   UNL A   1      39.523  33.233  36.598  1.00  0.00     0.074 A 
ATOM     47  C   UNL A   1      38.453  34.181  36.829  1.00  0.00     0.031 C 
ATOM     48  C   UNL A   1      37.882  30.570  30.982  1.00  0.00     0.029 A 
ATOM     49  C   UNL A   1      39.075  30.299  31.783  1.00  0.00     0.049 A 
ATOM     50  H   UNL A   1      39.558  31.106  33.640  1.00  0.00     0.167 HD
ATOM     51  C   UNL A   1      40.551  33.016  37.453  1.00  0.00     0.037 A 
ATOM     52  C   UNL A   1      40.073  29.459  31.449  1.00  0.00     0.037 A 
ATOM     53  C   UNL A   1      41.611  32.070  37.224  1.00  0.00     0.049 A 
ATOM     54  C   UNL A   1      41.240  29.286  32.387  1.00  0.00     0.074 A 
ATOM     55  C   UNL A   1      42.682  31.758  38.045  1.00  0.00     0.029 A 
ATOM     56  N   UNL A   1      41.737  31.287  36.088  1.00  0.00    -0.354 N 
ATOM     57  N   UNL A   1      41.457  29.844  33.553  1.00  0.00    -0.248 NA
ATOM     58  C   UNL A   1      42.302  28.362  31.960  1.00  0.00     0.031 C 
ATOM     59  C   UNL A   1      43.480  30.818  37.384  1.00  0.00     0.029 A 
ATOM     60  C   UNL A   1      42.881  30.512  36.173  1.00  0.00     0.049 A 
ATOM     61  H   UNL A   1      41.107  31.283  35.332  1.00  0.00     0.167 HD
ATOM     62  C   UNL A   1      42.660  29.321  34.010  1.00  0.00     0.074 A 
ATOM     63  C   UNL A   1      43.122  28.392  33.001  1.00  0.00     0.031 C 
ATOM     64  C   UNL A   1      43.323  29.585  35.163  1.00  0.00     0.037 A 
BRANCH  51  65
ATOM     65  C   UNL A   1      40.595  33.829  38.713  1.00  0.00     0.064 A 
ATOM     66  C   UNL A   1      41.335  35.017  38.795  1.00  0.00     0.173 A 
ATOM     67  C   UNL A   1      39.841  33.444  39.832  1.00  0.00     0.173 A 
ATOM     68  F   UNL A   1      42.081  35.421  37.754  1.00  0.00    -0.203 F 
ATOM     69  C   UNL A   1      41.330  35.785  39.957  1.00  0.00     0.198 A 
ATOM     70  C   UNL A   1      39.820  34.227  40.984  1.00  0.00     0.198 A 
ATOM     71  F   UNL A   1      39.112  32.319  39.802  1.00  0.00    -0.203 F 
ATOM     72  F   UNL A   1      42.068  36.901  40.024  1.00  0.00    -0.200 F 
ATOM     73  C   UNL A   1      40.567  35.393  41.046  1.00  0.00     0.200 A 
ATOM     74  F   UNL A   1      39.073  33.853  42.031  1.00  0.00    -0.200 F 
ATOM     75  F   UNL A   1      40.553  36.139  42.160  1.00  0.00    -0.200 F 
ENDBRANCH  51  65
BRANCH  52  76
ATOM     76  C   UNL A   1      40.030  28.730  30.156  1.00  0.00     0.064 A 
ATOM     77  C   UNL A   1      39.409  27.478  30.050  1.00  0.00     0.173 A 
ATOM     78  C   UNL A   1      40.636  29.259  29.007  1.00  0.00     0.173 A 
ATOM     79  F   UNL A   1      38.843  26.919  31.129  1.00  0.00    -0.203 F 
ATOM     80  C   UNL A   1      39.415  26.773  28.848  1.00  0.00     0.198 A 
ATOM     81  C   UNL A   1      40.619  28.565  27.801  1.00  0.00     0.198 A 
ATOM     82  F   UNL A   1      41.242  30.455  29.057  1.00  0.00    -0.203 F 
ATOM     83  F   UNL A   1      38.857  25.557  28.785  1.00  0.00    -0.200 F 
ATOM     84  C   UNL A   1      40.016  27.319  27.723  1.00  0.00     0.200 A 
ATOM     85  F   UNL A   1      41.184  29.104  26.712  1.00  0.00    -0.200 F 
ATOM     86  F   UNL A   1      40.015  26.644  26.566  1.00  0.00    -0.200 F 
ENDBRANCH  52  76
BRANCH  64  87
ATOM     87  C   UNL A   1      44.600  28.838  35.411  1.00  0.00     0.064 A 
ATOM     88  C   UNL A   1      44.608  27.592  36.056  1.00  0.00     0.173 A 
ATOM     89  C   UNL A   1      45.825  29.355  34.964  1.00  0.00     0.173 A 
ATOM     90  F   UNL A   1      43.464  27.064  36.516  1.00  0.00    -0.203 F 
ATOM     91  C   UNL A   1      45.800  26.903  36.264  1.00  0.00     0.198 A 
ATOM     92  C   UNL A   1      47.011  28.650  35.150  1.00  0.00     0.198 A 
ATOM     93  F   UNL A   1      45.870  30.539  34.336  1.00  0.00    -0.203 F 
ATOM     94  F   UNL A   1      45.790  25.734  36.921  1.00  0.00    -0.200 F 
ATOM     95  C   UNL A   1      46.999  27.429  35.805  1.00  0.00     0.200 A 
ATOM     96  F   UNL A   1      48.166  29.154  34.695  1.00  0.00    -0.200 F 
ATOM     97  F   UNL A   1      48.143  26.761  36.001  1.00  0.00    -0.200 F 
ENDBRANCH  64  87
ENDBRANCH  38  39
ENDBRANCH  31  33
ENDBRANCH  30  31
ENDBRANCH  29  30
ENDBRANCH  28  29
ENDBRANCH  27  28
ENDBRANCH  26  27
ENDBRANCH   1  26
TORSDOF 21
ENDMDL
MODEL 2
REMARK VINA RESULT:     -10.5      1.205      3.127
REMARK SMILES O=C(C[C@H](c1ccc(C2CC2)cc1)[NH+]1CCOCC1)OCCOCCOCCOC(=O)c1ccc(-c2c3nc(c(-c4c(F)c(F)c(F)c(F)c4F)c4ccc([nH]4)c(-c4c(F)c(F)c(F)c(F)c4F)c4nc(c(-c5c(F)c(F)c(F)c(F)c5F)c5ccc2[nH]5)C=C4)C=C3)cc1
REMARK SMILES IDX 24 1 23 2 22 3 21 4 20 5 2 6 1 7 3 8 4 9 14 10 15 11 19 12
REMARK SMILES IDX 16 14 18 15 17 16 5 17 6 18 13 19 7 20 12 21 8 22 9 23 10 24
REMARK SMILES IDX 11 25 25 26 26 27 27 28 28 29 29 30 30 31 31 32 32 33 33 34
REMARK SMILES IDX 94 35 34 36 93 37 35 38 36 39 37 40 87 41 38 42 92 43 86 44
REMARK SMILES IDX 88 45 39 46 91 47 85 48 84 49 40 51 72 52 52 53 71 54 53 55
REMARK SMILES IDX 56 56 70 57 89 58 54 59 55 60 69 62 90 63 57 64 41 65 42 66
REMARK SMILES IDX 50 67 43 68 44 69 48 70 51 71 45 72 46 73 49 74 47 75 73 76
REMARK SMILES IDX 74 77 82 78 75 79 76 80 80 81 83 82 77 83 78 84 81 85 79 86
REMARK SMILES IDX 58 87 59 88 67 89 60 90 61 91 65 92 68 93 62 94 63 95 66 96
REMARK SMILES IDX 64 97
REMARK H PARENT 14 13 88 50 56 61
REMARK Flexibility Score: inf
ROOT
ATOM      1  C   UNL A   1      36.085  32.172  28.002  1.00  0.00     0.188 C 
ENDROOT
BRANCH   1   2
ATOM      2  O   UNL A   1      35.123  31.158  28.267  1.00  0.00    -0.376 OA
BRANCH   2   3
ATOM      3  C   UNL A   1      35.556  29.824  28.053  1.00  0.00     0.202 C 
BRANCH   3   4
ATOM      4  C   UNL A   1      34.638  29.166  27.026  1.00  0.00     0.261 C 
BRANCH   4   5
ATOM      5  O   UNL A   1      33.661  30.100  26.525  1.00  0.00    -0.463 OA
BRANCH   5   6
ATOM      6  C   UNL A   1      32.323  29.950  26.693  1.00  0.00     0.312 C 
ATOM      7  O   UNL A   1      31.607  30.945  26.748  1.00  0.00    -0.252 OA
BRANCH   6   8
ATOM      8  C   UNL A   1      31.780  28.562  26.944  1.00  0.00     0.192 C 
BRANCH   8   9
ATOM      9  C   UNL A   1      31.362  27.810  25.662  1.00  0.00     0.226 C 
BRANCH   9  10
ATOM     10  N   UNL A   1      31.813  28.546  24.436  1.00  0.00    -0.324 N 
ATOM     11  C   UNL A   1      30.759  29.398  23.826  1.00  0.00     0.291 C 
ATOM     12  C   UNL A   1      32.327  27.684  23.338  1.00  0.00     0.291 C 
ATOM     13  H   UNL A   1      32.572  29.112  24.815  1.00  0.00     0.348 HD
ATOM     14  C   UNL A   1      29.688  28.622  23.039  1.00  0.00     0.221 C 
ATOM     15  C   UNL A   1      31.248  26.935  22.543  1.00  0.00     0.221 C 
ATOM     16  O   UNL A   1      30.277  27.837  22.001  1.00  0.00    -0.370 OA
ENDBRANCH   9  10
BRANCH   9  17
ATOM     17  C   UNL A   1      31.963  26.403  25.759  1.00  0.00     0.010 A 
ATOM     18  C   UNL A   1      33.351  26.201  25.751  1.00  0.00     0.010 A 
ATOM     19  C   UNL A   1      31.135  25.284  25.890  1.00  0.00     0.010 A 
ATOM     20  C   UNL A   1      33.885  24.912  25.800  1.00  0.00     0.004 A 
ATOM     21  C   UNL A   1      31.683  23.996  25.964  1.00  0.00     0.004 A 
ATOM     22  C   UNL A   1      33.068  23.774  25.902  1.00  0.00    -0.045 A 
BRANCH  22  23
ATOM     23  C   UNL A   1      33.706  22.400  25.917  1.00  0.00     0.019 C 
ATOM     24  C   UNL A   1      35.141  22.137  26.295  1.00  0.00     0.009 C 
ATOM     25  C   UNL A   1      34.042  21.774  27.250  1.00  0.00     0.009 C 
ENDBRANCH  22  23
ENDBRANCH   9  17
ENDBRANCH   8   9
ENDBRANCH   6   8
ENDBRANCH   5   6
ENDBRANCH   4   5
ENDBRANCH   3   4
ENDBRANCH   2   3
ENDBRANCH   1   2
BRANCH   1  26
ATOM     26  C   UNL A   1      35.709  33.551  28.548  1.00  0.00     0.188 C 
BRANCH  26  27
ATOM     27  O   UNL A   1      34.371  34.013  28.389  1.00  0.00    -0.376 OA
BRANCH  27  28
ATOM     28  C   UNL A   1      34.086  35.406  28.376  1.00  0.00     0.202 C 
BRANCH  28  29
ATOM     29  C   UNL A   1      32.907  35.882  29.222  1.00  0.00     0.261 C 
BRANCH  29  30
ATOM     30  O   UNL A   1      32.606  35.007  30.322  1.00  0.00    -0.460 OA
BRANCH  30  31
ATOM     31  C   UNL A   1      32.703  35.567  31.544  1.00  0.00     0.338 C 
ATOM     32  O   UNL A   1      31.967  36.418  32.038  1.00  0.00    -0.246 OA
BRANCH  31  33
ATOM     33  C   UNL A   1      33.822  34.984  32.292  1.00  0.00     0.060 A 
ATOM     34  C   UNL A   1      35.076  35.599  32.205  1.00  0.00     0.016 A 
ATOM     35  C   UNL A   1      33.675  33.750  32.933  1.00  0.00     0.016 A 
ATOM     36  C   UNL A   1      36.203  34.952  32.713  1.00  0.00     0.010 A 
ATOM     37  C   UNL A   1      34.806  33.101  33.434  1.00  0.00     0.010 A 
ATOM     38  C   UNL A   1      36.080  33.679  33.289  1.00  0.00    -0.014 A 
BRANCH  38  39
ATOM     39  C   UNL A   1      37.292  32.890  33.614  1.00  0.00     0.031 A 
ATOM     40  C   UNL A   1      38.027  33.168  34.898  1.00  0.00     0.074 A 
ATOM     41  C   UNL A   1      37.731  31.936  32.775  1.00  0.00     0.049 A 
ATOM     42  N   UNL A   1      39.140  32.646  35.349  1.00  0.00    -0.248 NA
ATOM     43  C   UNL A   1      37.427  34.171  35.793  1.00  0.00     0.031 C 
ATOM     44  C   UNL A   1      37.088  31.551  31.522  1.00  0.00     0.029 A 
ATOM     45  N   UNL A   1      38.837  31.126  32.852  1.00  0.00    -0.354 N 
ATOM     46  C   UNL A   1      39.375  33.258  36.573  1.00  0.00     0.074 A 
ATOM     47  C   UNL A   1      38.304  34.208  36.786  1.00  0.00     0.031 C 
ATOM     48  C   UNL A   1      37.821  30.590  30.935  1.00  0.00     0.029 A 
ATOM     49  C   UNL A   1      39.000  30.318  31.756  1.00  0.00     0.049 A 
ATOM     50  H   UNL A   1      39.454  31.126  33.619  1.00  0.00     0.167 HD
ATOM     51  C   UNL A   1      40.388  33.040  37.445  1.00  0.00     0.037 A 
ATOM     52  C   UNL A   1      40.002  29.475  31.440  1.00  0.00     0.037 A 
ATOM     53  C   UNL A   1      41.451  32.091  37.236  1.00  0.00     0.049 A 
ATOM     54  C   UNL A   1      41.153  29.301  32.396  1.00  0.00     0.074 A 
ATOM     55  C   UNL A   1      42.507  31.778  38.074  1.00  0.00     0.029 A 
ATOM     56  N   UNL A   1      41.593  31.306  36.102  1.00  0.00    -0.354 N 
ATOM     57  N   UNL A   1      41.352  29.861  33.565  1.00  0.00    -0.248 NA
ATOM     58  C   UNL A   1      42.220  28.374  31.989  1.00  0.00     0.031 C 
ATOM     59  C   UNL A   1      43.314  30.836  37.428  1.00  0.00     0.029 A 
ATOM     60  C   UNL A   1      42.735  30.529  36.207  1.00  0.00     0.049 A 
ATOM     61  H   UNL A   1      40.975  31.303  35.336  1.00  0.00     0.167 HD
ATOM     62  C   UNL A   1      42.547  29.336  34.043  1.00  0.00     0.074 A 
ATOM     63  C   UNL A   1      43.023  28.404  33.043  1.00  0.00     0.031 C 
ATOM     64  C   UNL A   1      43.191  29.600  35.206  1.00  0.00     0.037 A 
BRANCH  51  65
ATOM     65  C   UNL A   1      40.414  33.854  38.705  1.00  0.00     0.064 A 
ATOM     66  C   UNL A   1      41.137  35.052  38.790  1.00  0.00     0.173 A 
ATOM     67  C   UNL A   1      39.657  33.461  39.819  1.00  0.00     0.173 A 
ATOM     68  F   UNL A   1      41.884  35.465  37.754  1.00  0.00    -0.203 F 
ATOM     69  C   UNL A   1      41.114  35.821  39.951  1.00  0.00     0.198 A 
ATOM     70  C   UNL A   1      39.619  34.245  40.970  1.00  0.00     0.198 A 
ATOM     71  F   UNL A   1      38.944  32.326  39.786  1.00  0.00    -0.203 F 
ATOM     72  F   UNL A   1      41.837  36.947  40.022  1.00  0.00    -0.200 F 
ATOM     73  C   UNL A   1      40.349  35.420  41.037  1.00  0.00     0.200 A 
ATOM     74  F   UNL A   1      38.870  33.861  42.013  1.00  0.00    -0.200 F 
ATOM     75  F   UNL A   1      40.319  36.167  42.149  1.00  0.00    -0.200 F 
ENDBRANCH  51  65
BRANCH  52  76
ATOM     76  C   UNL A   1      39.979  28.744  30.147  1.00  0.00     0.064 A 
ATOM     77  C   UNL A   1      39.399  27.473  30.044  1.00  0.00     0.173 A 
ATOM     78  C   UNL A   1      40.563  29.292  28.996  1.00  0.00     0.173 A 
ATOM     79  F   UNL A   1      38.854  26.896  31.125  1.00  0.00    -0.203 F 
ATOM     80  C   UNL A   1      39.424  26.768  28.842  1.00  0.00     0.198 A 
ATOM     81  C   UNL A   1      40.565  28.597  27.790  1.00  0.00     0.198 A 
ATOM     82  F   UNL A   1      41.130  30.507  29.043  1.00  0.00    -0.203 F 
ATOM     83  F   UNL A   1      38.905  25.534  28.781  1.00  0.00    -0.200 F 
ATOM     84  C   UNL A   1      40.003  27.332  27.715  1.00  0.00     0.200 A 
ATOM     85  F   UNL A   1      41.109  29.153  26.699  1.00  0.00    -0.200 F 
ATOM     86  F   UNL A   1      40.021  26.657  26.558  1.00  0.00    -0.200 F 
ENDBRANCH  52  76
BRANCH  64  87
ATOM     87  C   UNL A   1      44.462  28.850  35.476  1.00  0.00     0.064 A 
ATOM     88  C   UNL A   1      45.708  29.345  35.064  1.00  0.00     0.173 A 
ATOM     89  C   UNL A   1      44.437  27.643  36.189  1.00  0.00     0.173 A 
ATOM     90  F   UNL A   1      45.783  30.488  34.366  1.00  0.00    -0.203 F 
ATOM     91  C   UNL A   1      46.881  28.646  35.338  1.00  0.00     0.198 A 
ATOM     92  C   UNL A   1      45.613  26.960  36.484  1.00  0.00     0.198 A 
ATOM     93  F   UNL A   1      43.271  27.131  36.611  1.00  0.00    -0.203 F 
ATOM     94  F   UNL A   1      48.057  29.115  34.898  1.00  0.00    -0.200 F 
ATOM     95  C   UNL A   1      46.833  27.458  36.053  1.00  0.00     0.200 A 
ATOM     96  F   UNL A   1      45.566  25.819  37.186  1.00  0.00    -0.200 F 
ATOM     97  F   UNL A   1      47.963  26.790  36.321  1.00  0.00    -0.200 F 
ENDBRANCH  64  87
ENDBRANCH  38  39
ENDBRANCH  31  33
ENDBRANCH  30  31
ENDBRANCH  29  30
ENDBRANCH  28  29
ENDBRANCH  27  28
ENDBRANCH  26  27
ENDBRANCH   1  26
TORSDOF 21
ENDMDL
MODEL 3
REMARK VINA RESULT:     -10.4      6.736     12.530
REMARK SMILES O=C(C[C@H](c1ccc(C2CC2)cc1)[NH+]1CCOCC1)OCCOCCOCCOC(=O)c1ccc(-c2c3nc(c(-c4c(F)c(F)c(F)c(F)c4F)c4ccc([nH]4)c(-c4c(F)c(F)c(F)c(F)c4F)c4nc(c(-c5c(F)c(F)c(F)c(F)c5F)c5ccc2[nH]5)C=C4)C=C3)cc1
REMARK SMILES IDX 24 1 23 2 22 3 21 4 20 5 2 6 1 7 3 8 4 9 14 10 15 11 19 12
REMARK SMILES IDX 16 14 18 15 17 16 5 17 6 18 13 19 7 20 12 21 8 22 9 23 10 24
REMARK SMILES IDX 11 25 25 26 26 27 27 28 28 29 29 30 30 31 31 32 32 33 33 34
REMARK SMILES IDX 94 35 34 36 93 37 35 38 36 39 37 40 87 41 38 42 92 43 86 44
REMARK SMILES IDX 88 45 39 46 91 47 85 48 84 49 40 51 72 52 52 53 71 54 53 55
REMARK SMILES IDX 56 56 70 57 89 58 54 59 55 60 69 62 90 63 57 64 41 65 42 66
REMARK SMILES IDX 50 67 43 68 44 69 48 70 51 71 45 72 46 73 49 74 47 75 73 76
REMARK SMILES IDX 74 77 82 78 75 79 76 80 80 81 83 82 77 83 78 84 81 85 79 86
REMARK SMILES IDX 58 87 59 88 67 89 60 90 61 91 65 92 68 93 62 94 63 95 66 96
REMARK SMILES IDX 64 97
REMARK H PARENT 14 13 88 50 56 61
REMARK Flexibility Score: inf
ROOT
ATOM      1  C   UNL A   1      39.728  22.260  26.360  1.00  0.00     0.188 C 
ENDROOT
BRANCH   1   2
ATOM      2  O   UNL A   1      38.839  21.313  25.783  1.00  0.00    -0.376 OA
BRANCH   2   3
ATOM      3  C   UNL A   1      37.489  21.732  25.652  1.00  0.00     0.202 C 
BRANCH   3   4
ATOM      4  C   UNL A   1      37.467  23.213  25.280  1.00  0.00     0.261 C 
BRANCH   4   5
ATOM      5  O   UNL A   1      36.160  23.617  24.825  1.00  0.00    -0.463 OA
BRANCH   5   6
ATOM      6  C   UNL A   1      35.687  23.365  23.580  1.00  0.00     0.312 C 
ATOM      7  O   UNL A   1      36.456  22.967  22.710  1.00  0.00    -0.252 OA
BRANCH   6   8
ATOM      8  C   UNL A   1      34.248  23.713  23.272  1.00  0.00     0.192 C 
BRANCH   8   9
ATOM      9  C   UNL A   1      33.234  23.161  24.298  1.00  0.00     0.226 C 
BRANCH   9  10
ATOM     10  N   UNL A   1      31.910  23.852  24.168  1.00  0.00    -0.324 N 
ATOM     11  C   UNL A   1      32.016  25.283  23.777  1.00  0.00     0.291 C 
ATOM     12  C   UNL A   1      31.063  23.825  25.390  1.00  0.00     0.291 C 
ATOM     13  H   UNL A   1      31.471  23.300  23.431  1.00  0.00     0.348 HD
ATOM     14  C   UNL A   1      32.462  26.222  24.912  1.00  0.00     0.221 C 
ATOM     15  C   UNL A   1      31.502  24.784  26.505  1.00  0.00     0.221 C 
ATOM     16  O   UNL A   1      31.580  26.133  26.032  1.00  0.00    -0.370 OA
ENDBRANCH   9  10
BRANCH   9  17
ATOM     17  C   UNL A   1      33.137  21.651  24.055  1.00  0.00     0.010 A 
ATOM     18  C   UNL A   1      33.840  20.737  24.855  1.00  0.00     0.010 A 
ATOM     19  C   UNL A   1      32.315  21.145  23.043  1.00  0.00     0.010 A 
ATOM     20  C   UNL A   1      33.773  19.366  24.599  1.00  0.00     0.004 A 
ATOM     21  C   UNL A   1      32.236  19.766  22.812  1.00  0.00     0.004 A 
ATOM     22  C   UNL A   1      32.976  18.842  23.568  1.00  0.00    -0.045 A 
BRANCH  22  23
ATOM     23  C   UNL A   1      32.972  17.348  23.318  1.00  0.00     0.019 C 
ATOM     24  C   UNL A   1      34.186  16.465  23.446  1.00  0.00     0.009 C 
ATOM     25  C   UNL A   1      33.118  16.417  24.499  1.00  0.00     0.009 C 
ENDBRANCH  22  23
ENDBRANCH   9  17
ENDBRANCH   8   9
ENDBRANCH   6   8
ENDBRANCH   5   6
ENDBRANCH   4   5
ENDBRANCH   3   4
ENDBRANCH   2   3
ENDBRANCH   1   2
BRANCH   1  26
ATOM     26  C   UNL A   1      40.897  21.636  27.126  1.00  0.00     0.188 C 
BRANCH  26  27
ATOM     27  O   UNL A   1      40.902  20.230  27.349  1.00  0.00    -0.376 OA
BRANCH  27  28
ATOM     28  C   UNL A   1      42.126  19.506  27.363  1.00  0.00     0.202 C 
BRANCH  28  29
ATOM     29  C   UNL A   1      42.478  18.711  26.107  1.00  0.00     0.261 C 
BRANCH  29  30
ATOM     30  O   UNL A   1      42.802  19.542  24.980  1.00  0.00    -0.460 OA
BRANCH  30  31
ATOM     31  C   UNL A   1      44.110  19.588  24.658  1.00  0.00     0.338 C 
ATOM     32  O   UNL A   1      44.801  18.680  24.203  1.00  0.00    -0.246 OA
BRANCH  31  33
ATOM     33  C   UNL A   1      44.648  20.935  24.876  1.00  0.00     0.060 A 
ATOM     34  C   UNL A   1      45.256  21.221  26.103  1.00  0.00     0.016 A 
ATOM     35  C   UNL A   1      44.404  21.951  23.947  1.00  0.00     0.016 A 
ATOM     36  C   UNL A   1      45.573  22.539  26.431  1.00  0.00     0.010 A 
ATOM     37  C   UNL A   1      44.715  23.271  24.280  1.00  0.00     0.010 A 
ATOM     38  C   UNL A   1      45.263  23.576  25.539  1.00  0.00    -0.014 A 
BRANCH  38  39
ATOM     39  C   UNL A   1      45.378  24.989  25.973  1.00  0.00     0.031 A 
ATOM     40  C   UNL A   1      46.716  25.674  25.896  1.00  0.00     0.074 A 
ATOM     41  C   UNL A   1      44.302  25.654  26.428  1.00  0.00     0.049 A 
ATOM     42  N   UNL A   1      47.058  26.878  26.282  1.00  0.00    -0.248 NA
ATOM     43  C   UNL A   1      47.818  24.896  25.308  1.00  0.00     0.031 C 
ATOM     44  C   UNL A   1      42.949  25.113  26.516  1.00  0.00     0.029 A 
ATOM     45  N   UNL A   1      44.189  26.933  26.915  1.00  0.00    -0.354 N 
ATOM     46  C   UNL A   1      48.410  27.000  25.988  1.00  0.00     0.074 A 
ATOM     47  C   UNL A   1      48.834  25.740  25.414  1.00  0.00     0.031 C 
ATOM     48  C   UNL A   1      42.141  26.047  27.045  1.00  0.00     0.029 A 
ATOM     49  C   UNL A   1      42.928  27.238  27.362  1.00  0.00     0.049 A 
ATOM     50  H   UNL A   1      44.939  27.569  26.942  1.00  0.00     0.167 HD
ATOM     51  C   UNL A   1      49.221  28.068  26.172  1.00  0.00     0.037 A 
ATOM     52  C   UNL A   1      42.470  28.342  27.981  1.00  0.00     0.037 A 
ATOM     53  C   UNL A   1      48.797  29.323  26.738  1.00  0.00     0.049 A 
ATOM     54  C   UNL A   1      43.410  29.493  28.236  1.00  0.00     0.074 A 
ATOM     55  C   UNL A   1      49.538  30.475  26.938  1.00  0.00     0.029 A 
ATOM     56  N   UNL A   1      47.516  29.585  27.199  1.00  0.00    -0.354 N 
ATOM     57  N   UNL A   1      44.679  29.611  27.927  1.00  0.00    -0.248 NA
ATOM     58  C   UNL A   1      42.851  30.666  28.924  1.00  0.00     0.031 C 
ATOM     59  C   UNL A   1      48.717  31.420  27.563  1.00  0.00     0.029 A 
ATOM     60  C   UNL A   1      47.453  30.871  27.709  1.00  0.00     0.049 A 
ATOM     61  H   UNL A   1      46.764  28.952  27.170  1.00  0.00     0.167 HD
ATOM     62  C   UNL A   1      45.061  30.875  28.357  1.00  0.00     0.074 A 
ATOM     63  C   UNL A   1      43.887  31.491  28.938  1.00  0.00     0.031 C 
ATOM     64  C   UNL A   1      46.275  31.473  28.277  1.00  0.00     0.037 A 
BRANCH  51  65
ATOM     65  C   UNL A   1      50.661  27.929  25.775  1.00  0.00     0.064 A 
ATOM     66  C   UNL A   1      51.073  28.081  24.444  1.00  0.00     0.173 A 
ATOM     67  C   UNL A   1      51.645  27.701  26.748  1.00  0.00     0.173 A 
ATOM     68  F   UNL A   1      50.168  28.291  23.476  1.00  0.00    -0.203 F 
ATOM     69  C   UNL A   1      52.420  27.995  24.097  1.00  0.00     0.198 A 
ATOM     70  C   UNL A   1      52.993  27.638  26.401  1.00  0.00     0.198 A 
ATOM     71  F   UNL A   1      51.303  27.553  28.036  1.00  0.00    -0.203 F 
ATOM     72  F   UNL A   1      52.789  28.113  22.815  1.00  0.00    -0.200 F 
ATOM     73  C   UNL A   1      53.378  27.781  25.077  1.00  0.00     0.200 A 
ATOM     74  F   UNL A   1      53.918  27.443  27.350  1.00  0.00    -0.200 F 
ATOM     75  F   UNL A   1      54.675  27.710  24.744  1.00  0.00    -0.200 F 
ENDBRANCH  51  65
BRANCH  52  76
ATOM     76  C   UNL A   1      41.055  28.411  28.429  1.00  0.00     0.064 A 
ATOM     77  C   UNL A   1      40.058  28.943  27.599  1.00  0.00     0.173 A 
ATOM     78  C   UNL A   1      40.679  27.974  29.706  1.00  0.00     0.173 A 
ATOM     79  F   UNL A   1      40.376  29.401  26.380  1.00  0.00    -0.203 F 
ATOM     80  C   UNL A   1      38.741  29.053  28.041  1.00  0.00     0.198 A 
ATOM     81  C   UNL A   1      39.358  28.062  30.137  1.00  0.00     0.198 A 
ATOM     82  F   UNL A   1      41.596  27.456  30.538  1.00  0.00    -0.203 F 
ATOM     83  F   UNL A   1      37.816  29.609  27.247  1.00  0.00    -0.200 F 
ATOM     84  C   UNL A   1      38.391  28.609  29.307  1.00  0.00     0.200 A 
ATOM     85  F   UNL A   1      39.020  27.615  31.353  1.00  0.00    -0.200 F 
ATOM     86  F   UNL A   1      37.124  28.709  29.728  1.00  0.00    -0.200 F 
ENDBRANCH  52  76
BRANCH  64  87
ATOM     87  C   UNL A   1      46.389  32.875  28.800  1.00  0.00     0.064 A 
ATOM     88  C   UNL A   1      46.128  33.986  27.984  1.00  0.00     0.173 A 
ATOM     89  C   UNL A   1      46.725  33.108  30.141  1.00  0.00     0.173 A 
ATOM     90  F   UNL A   1      45.819  33.815  26.690  1.00  0.00    -0.203 F 
ATOM     91  C   UNL A   1      46.222  35.280  28.488  1.00  0.00     0.198 A 
ATOM     92  C   UNL A   1      46.791  34.402  30.649  1.00  0.00     0.198 A 
ATOM     93  F   UNL A   1      46.977  32.079  30.963  1.00  0.00    -0.203 F 
ATOM     94  F   UNL A   1      46.011  36.330  27.681  1.00  0.00    -0.200 F 
ATOM     95  C   UNL A   1      46.547  35.487  29.821  1.00  0.00     0.200 A 
ATOM     96  F   UNL A   1      47.093  34.599  31.940  1.00  0.00    -0.200 F 
ATOM     97  F   UNL A   1      46.630  36.733  30.306  1.00  0.00    -0.200 F 
ENDBRANCH  64  87
ENDBRANCH  38  39
ENDBRANCH  31  33
ENDBRANCH  30  31
ENDBRANCH  29  30
ENDBRANCH  28  29
ENDBRANCH  27  28
ENDBRANCH  26  27
ENDBRANCH   1  26
TORSDOF 21
ENDMDL
