MODEL 1
REMARK VINA RESULT:     -12.0      0.000      0.000
REMARK SMILES Cc1cc(S(=O)(=O)Nc2ccc(Cl)cc2F)ccc1OCC(=O)OCCOCCOCCOC(=O)c1ccc(-c2c3nc(c(-c4c(F)c(F)c(F)c(F)c4F)c4ccc([nH]4)c(-c4c(F)c(F)c(F)c(F)c4F)c4nc(c(-c5c(F)c(F)c(F)c(F)c5F)c5ccc2[nH]5)C=C4)C=C3)cc1
REMARK SMILES IDX 27 1 26 2 25 3 24 4 22 5 23 6 21 7 20 8 19 9 1 10 2 11 3 12
REMARK SMILES IDX 4 13 18 14 17 15 5 16 6 17 7 18 8 19 9 21 10 22 15 23 11 24
REMARK SMILES IDX 14 25 16 26 12 27 13 28 28 29 29 30 30 31 31 32 32 33 33 34
REMARK SMILES IDX 34 35 35 36 36 37 37 38 98 39 38 40 97 41 39 42 40 43 41 44
REMARK SMILES IDX 91 45 42 46 96 47 90 48 92 49 43 50 95 51 89 52 88 53 44 55
REMARK SMILES IDX 76 56 56 57 75 58 57 59 60 60 74 61 93 62 58 63 59 64 73 66
REMARK SMILES IDX 94 67 61 68 45 69 46 70 54 71 47 72 48 73 52 74 55 75 49 76
REMARK SMILES IDX 50 77 53 78 51 79 77 80 78 81 86 82 79 83 80 84 84 85 87 86
REMARK SMILES IDX 81 87 82 88 85 89 83 90 62 91 63 92 71 93 64 94 65 95 69 96
REMARK SMILES IDX 72 97 66 98 67 99 70 100 68 101
REMARK H PARENT 8 20 92 54 60 65
REMARK Flexibility Score: inf
ROOT
ATOM      1  O   UNL A   1      46.170  23.491  25.451  1.00  0.00    -0.376 OA
ENDROOT
BRANCH   1   2
ATOM      2  C   UNL A   1      44.943  23.047  26.095  1.00  0.00     0.202 C 
BRANCH   2   3
ATOM      3  C   UNL A   1      43.403  22.760  25.405  1.00  0.00     0.261 C 
BRANCH   3   4
ATOM      4  O   UNL A   1      42.019  21.990  26.024  1.00  0.00    -0.461 OA
BRANCH   4   5
ATOM      5  C   UNL A   1      40.617  22.131  26.682  1.00  0.00     0.344 C 
ATOM      6  O   UNL A   1      40.142  22.838  27.588  1.00  0.00    -0.248 OA
BRANCH   5   7
ATOM      7  C   UNL A   1      39.618  21.283  26.086  1.00  0.00     0.351 C 
BRANCH   7   8
ATOM      8  O   UNL A   1      38.671  22.309  26.248  1.00  0.00    -0.482 OA
BRANCH   8   9
ATOM      9  C   UNL A   1      37.603  21.993  25.380  1.00  0.00     0.123 A 
ATOM     10  C   UNL A   1      35.846  19.159  24.722  1.00  0.00     0.048 C 
ATOM     11  C   UNL A   1      36.112  20.618  25.183  1.00  0.00    -0.008 A 
ATOM     12  C   UNL A   1      34.458  21.349  24.806  1.00  0.00     0.029 A 
ATOM     13  C   UNL A   1      34.274  23.110  24.814  1.00  0.00     0.088 A 
ATOM     14  C   UNL A   1      37.193  23.723  25.202  1.00  0.00     0.048 A 
ATOM     15  C   UNL A   1      35.611  24.167  24.960  1.00  0.00     0.026 A 
BRANCH  13  16
ATOM     16  S   UNL A   1      32.675  23.771  25.467  1.00  0.00     0.262 S 
ATOM     17  O   UNL A   1      31.736  23.703  24.371  1.00  0.00    -0.201 OA
ATOM     18  O   UNL A   1      32.393  23.104  26.722  1.00  0.00    -0.201 OA
BRANCH  16  19
ATOM     19  N   UNL A   1      32.693  25.404  25.982  1.00  0.00    -0.277 N 
ATOM     20  H   UNL A   1      32.971  25.600  26.906  1.00  0.00     0.180 HD
BRANCH  19  21
ATOM     21  C   UNL A   1      32.320  26.507  25.130  1.00  0.00     0.085 A 
ATOM     22  C   UNL A   1      33.179  27.099  24.195  1.00  0.00     0.031 A 
ATOM     23  C   UNL A   1      30.989  26.945  25.204  1.00  0.00     0.148 A 
ATOM     24  C   UNL A   1      32.670  28.047  23.289  1.00  0.00     0.023 A 
ATOM     25  C   UNL A   1      30.469  27.845  24.277  1.00  0.00     0.062 A 
ATOM     26  F   UNL A   1      30.138  26.320  26.031  1.00  0.00    -0.205 F 
ATOM     27  C   UNL A   1      31.311  28.382  23.308  1.00  0.00     0.044 A 
ATOM     28  Cl  UNL A   1      30.652  29.392  22.081  1.00  0.00    -0.084 Cl
ENDBRANCH  19  21
ENDBRANCH  16  19
ENDBRANCH  13  16
ENDBRANCH   8   9
ENDBRANCH   7   8
ENDBRANCH   5   7
ENDBRANCH   4   5
ENDBRANCH   3   4
ENDBRANCH   2   3
ENDBRANCH   1   2
BRANCH   1  29
ATOM     29  C   UNL A   1      46.368  24.719  24.716  1.00  0.00     0.188 C 
BRANCH  29  30
ATOM     30  C   UNL A   1      46.746  26.070  25.345  1.00  0.00     0.188 C 
BRANCH  30  31
ATOM     31  O   UNL A   1      46.822  25.946  26.745  1.00  0.00    -0.376 OA
BRANCH  31  32
ATOM     32  C   UNL A   1      45.745  26.405  27.549  1.00  0.00     0.202 C 
BRANCH  32  33
ATOM     33  C   UNL A   1      44.373  26.705  26.880  1.00  0.00     0.261 C 
BRANCH  33  34
ATOM     34  O   UNL A   1      43.336  27.223  27.787  1.00  0.00    -0.460 OA
BRANCH  34  35
ATOM     35  C   UNL A   1      42.389  26.291  28.198  1.00  0.00     0.338 C 
ATOM     36  O   UNL A   1      42.560  25.098  27.971  1.00  0.00    -0.246 OA
BRANCH  35  37
ATOM     37  C   UNL A   1      40.886  27.050  28.447  1.00  0.00     0.060 A 
ATOM     38  C   UNL A   1      39.649  28.478  27.663  1.00  0.00     0.016 A 
ATOM     39  C   UNL A   1      41.609  27.452  30.002  1.00  0.00     0.016 A 
ATOM     40  C   UNL A   1      39.424  30.021  28.716  1.00  0.00     0.010 A 
ATOM     41  C   UNL A   1      41.373  28.967  30.679  1.00  0.00     0.010 A 
ATOM     42  C   UNL A   1      40.300  30.227  30.276  1.00  0.00    -0.014 A 
BRANCH  42  43
ATOM     43  C   UNL A   1      40.262  31.251  31.769  1.00  0.00     0.031 A 
ATOM     44  C   UNL A   1      41.444  31.392  33.179  1.00  0.00     0.074 A 
ATOM     45  C   UNL A   1      39.543  32.404  31.611  1.00  0.00     0.049 A 
ATOM     46  N   UNL A   1      41.177  31.675  34.445  1.00  0.00    -0.248 NA
ATOM     47  C   UNL A   1      43.045  31.073  33.282  1.00  0.00     0.031 C 
ATOM     48  C   UNL A   1      39.764  33.717  32.246  1.00  0.00     0.029 A 
ATOM     49  N   UNL A   1      38.452  32.679  30.761  1.00  0.00    -0.354 N 
ATOM     50  C   UNL A   1      42.460  31.694  35.104  1.00  0.00     0.074 A 
ATOM     51  C   UNL A   1      43.217  30.673  34.530  1.00  0.00     0.031 C 
ATOM     52  C   UNL A   1      38.729  34.541  31.986  1.00  0.00     0.029 A 
ATOM     53  C   UNL A   1      37.710  33.721  31.370  1.00  0.00     0.049 A 
ATOM     54  H   UNL A   1      38.246  32.233  29.909  1.00  0.00     0.167 HD
ATOM     55  C   UNL A   1      43.084  32.847  35.552  1.00  0.00     0.037 A 
ATOM     56  C   UNL A   1      36.497  33.435  31.923  1.00  0.00     0.037 A 
ATOM     57  C   UNL A   1      42.085  33.880  35.570  1.00  0.00     0.049 A 
ATOM     58  C   UNL A   1      36.593  33.531  33.435  1.00  0.00     0.074 A 
ATOM     59  C   UNL A   1      41.862  35.086  34.945  1.00  0.00     0.029 A 
ATOM     60  N   UNL A   1      40.892  33.498  36.132  1.00  0.00    -0.354 N 
ATOM     61  N   UNL A   1      37.727  33.467  34.088  1.00  0.00    -0.248 NA
ATOM     62  C   UNL A   1      35.479  33.856  34.317  1.00  0.00     0.031 C 
ATOM     63  C   UNL A   1      40.454  35.354  35.073  1.00  0.00     0.029 A 
ATOM     64  C   UNL A   1      39.863  34.318  35.785  1.00  0.00     0.049 A 
ATOM     65  H   UNL A   1      40.791  32.716  36.721  1.00  0.00     0.167 HD
ATOM     66  C   UNL A   1      37.538  33.807  35.392  1.00  0.00     0.074 A 
ATOM     67  C   UNL A   1      36.109  34.006  35.497  1.00  0.00     0.031 C 
ATOM     68  C   UNL A   1      38.554  33.939  36.294  1.00  0.00     0.037 A 
BRANCH  55  69
ATOM     69  C   UNL A   1      44.608  33.111  35.811  1.00  0.00     0.064 A 
ATOM     70  C   UNL A   1      45.341  33.814  34.827  1.00  0.00     0.173 A 
ATOM     71  C   UNL A   1      45.422  32.710  36.914  1.00  0.00     0.173 A 
ATOM     72  F   UNL A   1      44.744  34.235  33.704  1.00  0.00    -0.203 F 
ATOM     73  C   UNL A   1      46.714  34.114  34.941  1.00  0.00     0.198 A 
ATOM     74  C   UNL A   1      46.784  33.054  37.049  1.00  0.00     0.198 A 
ATOM     75  F   UNL A   1      44.994  31.909  37.894  1.00  0.00    -0.203 F 
ATOM     76  F   UNL A   1      47.337  34.757  33.944  1.00  0.00    -0.200 F 
ATOM     77  C   UNL A   1      47.431  33.755  36.062  1.00  0.00     0.200 A 
ATOM     78  F   UNL A   1      47.464  32.669  38.142  1.00  0.00    -0.200 F 
ATOM     79  F   UNL A   1      48.731  34.059  36.178  1.00  0.00    -0.200 F 
ENDBRANCH  55  69
BRANCH  56  80
ATOM     80  C   UNL A   1      35.751  32.488  31.037  1.00  0.00     0.064 A 
ATOM     81  C   UNL A   1      35.176  33.049  29.868  1.00  0.00     0.173 A 
ATOM     82  C   UNL A   1      36.051  31.118  30.997  1.00  0.00     0.173 A 
ATOM     83  F   UNL A   1      34.901  34.364  29.825  1.00  0.00    -0.203 F 
ATOM     84  C   UNL A   1      35.042  32.319  28.687  1.00  0.00     0.198 A 
ATOM     85  C   UNL A   1      35.900  30.384  29.812  1.00  0.00     0.198 A 
ATOM     86  F   UNL A   1      36.625  30.523  32.052  1.00  0.00    -0.203 F 
ATOM     87  F   UNL A   1      34.659  32.932  27.556  1.00  0.00    -0.200 F 
ATOM     88  C   UNL A   1      35.420  30.990  28.656  1.00  0.00     0.200 A 
ATOM     89  F   UNL A   1      36.322  29.112  29.752  1.00  0.00    -0.200 F 
ATOM     90  F   UNL A   1      35.398  30.316  27.496  1.00  0.00    -0.200 F 
ENDBRANCH  56  80
BRANCH  68  91
ATOM     91  C   UNL A   1      38.410  33.601  37.774  1.00  0.00     0.064 A 
ATOM     92  C   UNL A   1      38.599  34.544  38.796  1.00  0.00     0.173 A 
ATOM     93  C   UNL A   1      37.883  32.353  38.213  1.00  0.00     0.173 A 
ATOM     94  F   UNL A   1      38.902  35.821  38.535  1.00  0.00    -0.203 F 
ATOM     95  C   UNL A   1      38.424  34.223  40.142  1.00  0.00     0.198 A 
ATOM     96  C   UNL A   1      37.587  32.084  39.545  1.00  0.00     0.198 A 
ATOM     97  F   UNL A   1      37.598  31.351  37.368  1.00  0.00    -0.203 F 
ATOM     98  F   UNL A   1      38.742  35.128  41.077  1.00  0.00    -0.200 F 
ATOM     99  C   UNL A   1      37.909  33.000  40.517  1.00  0.00     0.200 A 
ATOM    100  F   UNL A   1      36.981  30.933  39.873  1.00  0.00    -0.200 F 
ATOM    101  F   UNL A   1      37.712  32.710  41.809  1.00  0.00    -0.200 F 
ENDBRANCH  68  91
ENDBRANCH  42  43
ENDBRANCH  35  37
ENDBRANCH  34  35
ENDBRANCH  33  34
ENDBRANCH  32  33
ENDBRANCH  31  32
ENDBRANCH  30  31
ENDBRANCH  29  30
ENDBRANCH   1  29
TORSDOF 22
ENDMDL
MODEL 2
REMARK VINA RESULT:     -11.4      9.074     13.514
REMARK SMILES Cc1cc(S(=O)(=O)Nc2ccc(Cl)cc2F)ccc1OCC(=O)OCCOCCOCCOC(=O)c1ccc(-c2c3nc(c(-c4c(F)c(F)c(F)c(F)c4F)c4ccc([nH]4)c(-c4c(F)c(F)c(F)c(F)c4F)c4nc(c(-c5c(F)c(F)c(F)c(F)c5F)c5ccc2[nH]5)C=C4)C=C3)cc1
REMARK SMILES IDX 27 1 26 2 25 3 24 4 22 5 23 6 21 7 20 8 19 9 1 10 2 11 3 12
REMARK SMILES IDX 4 13 18 14 17 15 5 16 6 17 7 18 8 19 9 21 10 22 15 23 11 24
REMARK SMILES IDX 14 25 16 26 12 27 13 28 28 29 29 30 30 31 31 32 32 33 33 34
REMARK SMILES IDX 34 35 35 36 36 37 37 38 98 39 38 40 97 41 39 42 40 43 41 44
REMARK SMILES IDX 91 45 42 46 96 47 90 48 92 49 43 50 95 51 89 52 88 53 44 55
REMARK SMILES IDX 76 56 56 57 75 58 57 59 60 60 74 61 93 62 58 63 59 64 73 66
REMARK SMILES IDX 94 67 61 68 45 69 46 70 54 71 47 72 48 73 52 74 55 75 49 76
REMARK SMILES IDX 50 77 53 78 51 79 77 80 78 81 86 82 79 83 80 84 84 85 87 86
REMARK SMILES IDX 81 87 82 88 85 89 83 90 62 91 63 92 71 93 64 94 65 95 69 96
REMARK SMILES IDX 72 97 66 98 67 99 70 100 68 101
REMARK H PARENT 8 20 92 54 60 65
REMARK Flexibility Score: inf
ROOT
ATOM      1  O   UNL A   1      43.912  36.382  28.680  1.00  0.00    -0.376 OA
ENDROOT
BRANCH   1   2
ATOM      2  C   UNL A   1      42.622  36.814  28.165  1.00  0.00     0.202 C 
BRANCH   2   3
ATOM      3  C   UNL A   1      42.263  38.080  27.070  1.00  0.00     0.261 C 
BRANCH   3   4
ATOM      4  O   UNL A   1      43.225  39.339  26.452  1.00  0.00    -0.461 OA
BRANCH   4   5
ATOM      5  C   UNL A   1      44.009  40.654  26.726  1.00  0.00     0.344 C 
ATOM      6  O   UNL A   1      44.197  41.368  27.726  1.00  0.00    -0.248 OA
BRANCH   5   7
ATOM      7  C   UNL A   1      44.719  41.147  25.575  1.00  0.00     0.351 C 
BRANCH   7   8
ATOM      8  O   UNL A   1      43.495  41.295  24.901  1.00  0.00    -0.482 OA
BRANCH   8   9
ATOM      9  C   UNL A   1      43.565  42.538  24.235  1.00  0.00     0.123 A 
ATOM     10  C   UNL A   1      46.115  44.588  23.313  1.00  0.00     0.048 C 
ATOM     11  C   UNL A   1      44.886  43.652  23.155  1.00  0.00    -0.008 A 
ATOM     12  C   UNL A   1      44.181  44.358  21.600  1.00  0.00     0.029 A 
ATOM     13  C   UNL A   1      42.544  43.893  21.109  1.00  0.00     0.088 A 
ATOM     14  C   UNL A   1      41.909  42.328  23.598  1.00  0.00     0.048 A 
ATOM     15  C   UNL A   1      41.515  42.974  22.120  1.00  0.00     0.026 A 
BRANCH  13  16
ATOM     16  S   UNL A   1      42.252  43.688  19.295  1.00  0.00     0.262 S 
ATOM     17  O   UNL A   1      42.411  42.278  19.020  1.00  0.00    -0.201 OA
ATOM     18  O   UNL A   1      41.020  44.370  18.958  1.00  0.00    -0.201 OA
BRANCH  16  19
ATOM     19  N   UNL A   1      43.349  44.503  18.262  1.00  0.00    -0.277 N 
ATOM     20  H   UNL A   1      43.991  43.966  17.743  1.00  0.00     0.180 HD
BRANCH  19  21
ATOM     21  C   UNL A   1      43.380  45.938  18.115  1.00  0.00     0.085 A 
ATOM     22  C   UNL A   1      42.349  46.688  17.536  1.00  0.00     0.031 A 
ATOM     23  C   UNL A   1      44.484  46.609  18.664  1.00  0.00     0.148 A 
ATOM     24  C   UNL A   1      42.393  48.093  17.599  1.00  0.00     0.023 A 
ATOM     25  C   UNL A   1      44.508  47.997  18.774  1.00  0.00     0.062 A 
ATOM     26  F   UNL A   1      45.429  45.903  19.302  1.00  0.00    -0.205 F 
ATOM     27  C   UNL A   1      43.449  48.736  18.255  1.00  0.00     0.044 A 
ATOM     28  Cl  UNL A   1      43.406  50.438  18.500  1.00  0.00    -0.084 Cl
ENDBRANCH  19  21
ENDBRANCH  16  19
ENDBRANCH  13  16
ENDBRANCH   8   9
ENDBRANCH   7   8
ENDBRANCH   5   7
ENDBRANCH   4   5
ENDBRANCH   3   4
ENDBRANCH   2   3
ENDBRANCH   1   2
BRANCH   1  29
ATOM     29  C   UNL A   1      44.816  35.435  28.070  1.00  0.00     0.188 C 
BRANCH  29  30
ATOM     30  C   UNL A   1      45.788  35.758  26.924  1.00  0.00     0.188 C 
BRANCH  30  31
ATOM     31  O   UNL A   1      45.360  35.135  25.737  1.00  0.00    -0.376 OA
BRANCH  31  32
ATOM     32  C   UNL A   1      44.045  34.603  25.659  1.00  0.00     0.202 C 
BRANCH  32  33
ATOM     33  C   UNL A   1      43.857  33.080  25.401  1.00  0.00     0.261 C 
BRANCH  33  34
ATOM     34  O   UNL A   1      45.087  32.351  25.050  1.00  0.00    -0.460 OA
BRANCH  34  35
ATOM     35  C   UNL A   1      45.819  31.871  26.131  1.00  0.00     0.338 C 
ATOM     36  O   UNL A   1      47.011  32.141  26.235  1.00  0.00    -0.246 OA
BRANCH  35  37
ATOM     37  C   UNL A   1      45.042  30.522  26.817  1.00  0.00     0.060 A 
ATOM     38  C   UNL A   1      43.518  29.197  26.487  1.00  0.00     0.016 A 
ATOM     39  C   UNL A   1      44.792  31.638  28.156  1.00  0.00     0.016 A 
ATOM     40  C   UNL A   1      42.063  29.325  27.674  1.00  0.00     0.010 A 
ATOM     41  C   UNL A   1      43.333  31.658  28.981  1.00  0.00     0.010 A 
ATOM     42  C   UNL A   1      42.013  30.581  28.964  1.00  0.00    -0.014 A 
BRANCH  42  43
ATOM     43  C   UNL A   1      41.118  30.978  30.487  1.00  0.00     0.031 A 
ATOM     44  C   UNL A   1      39.876  32.290  30.863  1.00  0.00     0.074 A 
ATOM     45  C   UNL A   1      40.961  29.899  31.313  1.00  0.00     0.049 A 
ATOM     46  N   UNL A   1      39.662  32.909  32.014  1.00  0.00    -0.248 NA
ATOM     47  C   UNL A   1      38.852  33.118  29.892  1.00  0.00     0.031 C 
ATOM     48  C   UNL A   1      39.848  29.604  32.236  1.00  0.00     0.029 A 
ATOM     49  N   UNL A   1      41.768  28.753  31.465  1.00  0.00    -0.354 N 
ATOM     50  C   UNL A   1      38.561  33.805  31.760  1.00  0.00     0.074 A 
ATOM     51  C   UNL A   1      38.743  34.301  30.469  1.00  0.00     0.031 C 
ATOM     52  C   UNL A   1      40.156  28.549  33.016  1.00  0.00     0.029 A 
ATOM     53  C   UNL A   1      41.556  28.273  32.781  1.00  0.00     0.049 A 
ATOM     54  H   UNL A   1      42.363  28.361  30.787  1.00  0.00     0.167 HD
ATOM     55  C   UNL A   1      37.280  33.618  32.254  1.00  0.00     0.037 A 
ATOM     56  C   UNL A   1      42.546  28.417  33.706  1.00  0.00     0.037 A 
ATOM     57  C   UNL A   1      37.378  32.641  33.302  1.00  0.00     0.049 A 
ATOM     58  C   UNL A   1      42.132  29.450  34.738  1.00  0.00     0.074 A 
ATOM     59  C   UNL A   1      36.901  31.374  33.555  1.00  0.00     0.029 A 
ATOM     60  N   UNL A   1      38.412  32.858  34.178  1.00  0.00    -0.354 N 
ATOM     61  N   UNL A   1      41.197  30.342  34.525  1.00  0.00    -0.248 NA
ATOM     62  C   UNL A   1      42.602  29.479  36.117  1.00  0.00     0.031 C 
ATOM     63  C   UNL A   1      37.769  30.807  34.554  1.00  0.00     0.029 A 
ATOM     64  C   UNL A   1      38.734  31.746  34.894  1.00  0.00     0.049 A 
ATOM     65  H   UNL A   1      38.872  33.722  34.278  1.00  0.00     0.167 HD
ATOM     66  C   UNL A   1      40.881  30.979  35.685  1.00  0.00     0.074 A 
ATOM     67  C   UNL A   1      41.813  30.432  36.647  1.00  0.00     0.031 C 
ATOM     68  C   UNL A   1      39.865  31.883  35.799  1.00  0.00     0.037 A 
BRANCH  55  69
ATOM     69  C   UNL A   1      35.918  34.166  31.703  1.00  0.00     0.064 A 
ATOM     70  C   UNL A   1      35.192  35.078  32.505  1.00  0.00     0.173 A 
ATOM     71  C   UNL A   1      35.241  33.855  30.485  1.00  0.00     0.173 A 
ATOM     72  F   UNL A   1      35.661  35.455  33.702  1.00  0.00    -0.203 F 
ATOM     73  C   UNL A   1      33.958  35.643  32.125  1.00  0.00     0.198 A 
ATOM     74  C   UNL A   1      34.031  34.458  30.084  1.00  0.00     0.198 A 
ATOM     75  F   UNL A   1      35.652  32.910  29.634  1.00  0.00    -0.203 F 
ATOM     76  F   UNL A   1      33.323  36.475  32.961  1.00  0.00    -0.200 F 
ATOM     77  C   UNL A   1      33.387  35.351  30.904  1.00  0.00     0.200 A 
ATOM     78  F   UNL A   1      33.485  34.136  28.899  1.00  0.00    -0.200 F 
ATOM     79  F   UNL A   1      32.223  35.904  30.535  1.00  0.00    -0.200 F 
ENDBRANCH  55  69
BRANCH  56  80
ATOM     80  C   UNL A   1      43.871  28.126  33.075  1.00  0.00     0.064 A 
ATOM     81  C   UNL A   1      44.156  26.758  32.827  1.00  0.00     0.173 A 
ATOM     82  C   UNL A   1      44.529  29.064  32.266  1.00  0.00     0.173 A 
ATOM     83  F   UNL A   1      43.530  25.805  33.538  1.00  0.00    -0.203 F 
ATOM     84  C   UNL A   1      44.939  26.352  31.745  1.00  0.00     0.198 A 
ATOM     85  C   UNL A   1      45.327  28.651  31.191  1.00  0.00     0.198 A 
ATOM     86  F   UNL A   1      44.286  30.373  32.420  1.00  0.00    -0.203 F 
ATOM     87  F   UNL A   1      45.041  25.049  31.440  1.00  0.00    -0.200 F 
ATOM     88  C   UNL A   1      45.511  27.300  30.918  1.00  0.00     0.200 A 
ATOM     89  F   UNL A   1      45.835  29.559  30.344  1.00  0.00    -0.200 F 
ATOM     90  F   UNL A   1      46.170  26.913  29.815  1.00  0.00    -0.200 F 
ENDBRANCH  56  80
BRANCH  68  91
ATOM     91  C   UNL A   1      39.910  33.082  36.742  1.00  0.00     0.064 A 
ATOM     92  C   UNL A   1      39.020  33.247  37.814  1.00  0.00     0.173 A 
ATOM     93  C   UNL A   1      40.984  34.017  36.717  1.00  0.00     0.173 A 
ATOM     94  F   UNL A   1      38.073  32.343  38.094  1.00  0.00    -0.203 F 
ATOM     95  C   UNL A   1      39.103  34.330  38.687  1.00  0.00     0.198 A 
ATOM     96  C   UNL A   1      41.135  35.019  37.671  1.00  0.00     0.198 A 
ATOM     97  F   UNL A   1      41.953  33.981  35.791  1.00  0.00    -0.203 F 
ATOM     98  F   UNL A   1      38.150  34.501  39.612  1.00  0.00    -0.200 F 
ATOM     99  C   UNL A   1      40.164  35.210  38.624  1.00  0.00     0.200 A 
ATOM    100  F   UNL A   1      42.233  35.789  37.658  1.00  0.00    -0.200 F 
ATOM    101  F   UNL A   1      40.257  36.228  39.487  1.00  0.00    -0.200 F 
ENDBRANCH  68  91
ENDBRANCH  42  43
ENDBRANCH  35  37
ENDBRANCH  34  35
ENDBRANCH  33  34
ENDBRANCH  32  33
ENDBRANCH  31  32
ENDBRANCH  30  31
ENDBRANCH  29  30
ENDBRANCH   1  29
TORSDOF 22
ENDMDL
MODEL 3
REMARK VINA RESULT:     -10.9      7.004     10.136
REMARK SMILES Cc1cc(S(=O)(=O)Nc2ccc(Cl)cc2F)ccc1OCC(=O)OCCOCCOCCOC(=O)c1ccc(-c2c3nc(c(-c4c(F)c(F)c(F)c(F)c4F)c4ccc([nH]4)c(-c4c(F)c(F)c(F)c(F)c4F)c4nc(c(-c5c(F)c(F)c(F)c(F)c5F)c5ccc2[nH]5)C=C4)C=C3)cc1
REMARK SMILES IDX 27 1 26 2 25 3 24 4 22 5 23 6 21 7 20 8 19 9 1 10 2 11 3 12
REMARK SMILES IDX 4 13 18 14 17 15 5 16 6 17 7 18 8 19 9 21 10 22 15 23 11 24
REMARK SMILES IDX 14 25 16 26 12 27 13 28 28 29 29 30 30 31 31 32 32 33 33 34
REMARK SMILES IDX 34 35 35 36 36 37 37 38 98 39 38 40 97 41 39 42 40 43 41 44
REMARK SMILES IDX 91 45 42 46 96 47 90 48 92 49 43 50 95 51 89 52 88 53 44 55
REMARK SMILES IDX 76 56 56 57 75 58 57 59 60 60 74 61 93 62 58 63 59 64 73 66
REMARK SMILES IDX 94 67 61 68 45 69 46 70 54 71 47 72 48 73 52 74 55 75 49 76
REMARK SMILES IDX 50 77 53 78 51 79 77 80 78 81 86 82 79 83 80 84 84 85 87 86
REMARK SMILES IDX 81 87 82 88 85 89 83 90 62 91 63 92 71 93 64 94 65 95 69 96
REMARK SMILES IDX 72 97 66 98 67 99 70 100 68 101
REMARK H PARENT 8 20 92 54 60 65
REMARK Flexibility Score: inf
ROOT
ATOM      1  O   UNL A   1      45.814  31.089  27.694  1.00  0.00    -0.376 OA
ENDROOT
BRANCH   1   2
ATOM      2  C   UNL A   1      45.148  32.204  27.038  1.00  0.00     0.202 C 
BRANCH   2   3
ATOM      3  C   UNL A   1      44.207  33.458  27.726  1.00  0.00     0.261 C 
BRANCH   3   4
ATOM      4  O   UNL A   1      44.078  35.109  27.339  1.00  0.00    -0.461 OA
BRANCH   4   5
ATOM      5  C   UNL A   1      44.792  36.479  27.157  1.00  0.00     0.344 C 
ATOM      6  O   UNL A   1      45.760  36.879  26.488  1.00  0.00    -0.248 OA
BRANCH   5   7
ATOM      7  C   UNL A   1      44.173  37.549  27.895  1.00  0.00     0.351 C 
BRANCH   7   8
ATOM      8  O   UNL A   1      43.608  38.026  26.699  1.00  0.00    -0.482 OA
BRANCH   8   9
ATOM      9  C   UNL A   1      43.898  39.407  26.656  1.00  0.00     0.123 A 
ATOM     10  C   UNL A   1      46.732  41.216  26.159  1.00  0.00     0.048 C 
ATOM     11  C   UNL A   1      45.298  40.680  25.900  1.00  0.00    -0.008 A 
ATOM     12  C   UNL A   1      44.590  42.151  25.034  1.00  0.00     0.029 A 
ATOM     13  C   UNL A   1      42.838  42.246  24.793  1.00  0.00     0.088 A 
ATOM     14  C   UNL A   1      42.172  39.795  26.404  1.00  0.00     0.048 A 
ATOM     15  C   UNL A   1      41.757  41.128  25.506  1.00  0.00     0.026 A 
BRANCH  13  16
ATOM     16  S   UNL A   1      42.262  42.992  23.202  1.00  0.00     0.262 S 
ATOM     17  O   UNL A   1      40.835  42.776  23.151  1.00  0.00    -0.201 OA
ATOM     18  O   UNL A   1      42.810  44.330  23.110  1.00  0.00    -0.201 OA
BRANCH  16  19
ATOM     19  N   UNL A   1      42.903  42.297  21.773  1.00  0.00    -0.277 N 
ATOM     20  H   UNL A   1      43.272  41.385  21.821  1.00  0.00     0.180 HD
BRANCH  19  21
ATOM     21  C   UNL A   1      42.929  42.980  20.503  1.00  0.00     0.085 A 
ATOM     22  C   UNL A   1      41.794  43.218  19.719  1.00  0.00     0.031 A 
ATOM     23  C   UNL A   1      44.165  43.499  20.087  1.00  0.00     0.148 A 
ATOM     24  C   UNL A   1      41.895  44.047  18.586  1.00  0.00     0.023 A 
ATOM     25  C   UNL A   1      44.260  44.361  18.996  1.00  0.00     0.062 A 
ATOM     26  F   UNL A   1      45.238  43.355  20.880  1.00  0.00    -0.205 F 
ATOM     27  C   UNL A   1      43.117  44.646  18.257  1.00  0.00     0.044 A 
ATOM     28  Cl  UNL A   1      43.197  45.808  16.991  1.00  0.00    -0.084 Cl
ENDBRANCH  19  21
ENDBRANCH  16  19
ENDBRANCH  13  16
ENDBRANCH   8   9
ENDBRANCH   7   8
ENDBRANCH   5   7
ENDBRANCH   4   5
ENDBRANCH   3   4
ENDBRANCH   2   3
ENDBRANCH   1   2
BRANCH   1  29
ATOM     29  C   UNL A   1      45.628  29.684  27.417  1.00  0.00     0.188 C 
BRANCH  29  30
ATOM     30  C   UNL A   1      46.000  28.991  26.096  1.00  0.00     0.188 C 
BRANCH  30  31
ATOM     31  O   UNL A   1      44.871  28.352  25.551  1.00  0.00    -0.376 OA
BRANCH  31  32
ATOM     32  C   UNL A   1      44.816  26.934  25.515  1.00  0.00     0.202 C 
BRANCH  32  33
ATOM     33  C   UNL A   1      43.763  26.193  26.389  1.00  0.00     0.261 C 
BRANCH  33  34
ATOM     34  O   UNL A   1      43.207  26.984  27.499  1.00  0.00    -0.460 OA
BRANCH  34  35
ATOM     35  C   UNL A   1      42.396  26.278  28.381  1.00  0.00     0.338 C 
ATOM     36  O   UNL A   1      42.616  25.092  28.604  1.00  0.00    -0.246 OA
BRANCH  35  37
ATOM     37  C   UNL A   1      40.896  27.061  28.559  1.00  0.00     0.060 A 
ATOM     38  C   UNL A   1      39.717  28.501  27.709  1.00  0.00     0.016 A 
ATOM     39  C   UNL A   1      41.559  27.469  30.140  1.00  0.00     0.016 A 
ATOM     40  C   UNL A   1      39.471  30.057  28.737  1.00  0.00     0.010 A 
ATOM     41  C   UNL A   1      41.318  28.994  30.791  1.00  0.00     0.010 A 
ATOM     42  C   UNL A   1      40.283  30.267  30.331  1.00  0.00    -0.014 A 
BRANCH  42  43
ATOM     43  C   UNL A   1      40.198  31.306  31.811  1.00  0.00     0.031 A 
ATOM     44  C   UNL A   1      41.348  31.481  33.244  1.00  0.00     0.074 A 
ATOM     45  C   UNL A   1      39.466  32.446  31.624  1.00  0.00     0.049 A 
ATOM     46  N   UNL A   1      41.051  31.774  34.501  1.00  0.00    -0.248 NA
ATOM     47  C   UNL A   1      42.951  31.187  33.384  1.00  0.00     0.031 C 
ATOM     48  C   UNL A   1      39.654  33.769  32.249  1.00  0.00     0.029 A 
ATOM     49  N   UNL A   1      38.389  32.695  30.749  1.00  0.00    -0.354 N 
ATOM     50  C   UNL A   1      42.319  31.819  35.186  1.00  0.00     0.074 A 
ATOM     51  C   UNL A   1      43.103  30.804  34.639  1.00  0.00     0.031 C 
ATOM     52  C   UNL A   1      38.612  34.575  31.958  1.00  0.00     0.029 A 
ATOM     53  C   UNL A   1      37.619  33.732  31.330  1.00  0.00     0.049 A 
ATOM     54  H   UNL A   1      38.208  32.237  29.898  1.00  0.00     0.167 HD
ATOM     55  C   UNL A   1      42.915  32.987  35.633  1.00  0.00     0.037 A 
ATOM     56  C   UNL A   1      36.399  33.434  31.861  1.00  0.00     0.037 A 
ATOM     57  C   UNL A   1      41.901  34.004  35.619  1.00  0.00     0.049 A 
ATOM     58  C   UNL A   1      36.461  33.548  33.373  1.00  0.00     0.074 A 
ATOM     59  C   UNL A   1      41.673  35.200  34.975  1.00  0.00     0.029 A 
ATOM     60  N   UNL A   1      40.702  33.611  36.160  1.00  0.00    -0.354 N 
ATOM     61  N   UNL A   1      37.582  33.509  34.050  1.00  0.00    -0.248 NA
ATOM     62  C   UNL A   1      35.324  33.866  34.228  1.00  0.00     0.031 C 
ATOM     63  C   UNL A   1      40.259  35.448  35.071  1.00  0.00     0.029 A 
ATOM     64  C   UNL A   1      39.669  34.411  35.783  1.00  0.00     0.049 A 
ATOM     65  H   UNL A   1      40.601  32.834  36.756  1.00  0.00     0.167 HD
ATOM     66  C   UNL A   1      37.361  33.861  35.346  1.00  0.00     0.074 A 
ATOM     67  C   UNL A   1      35.927  34.039  35.419  1.00  0.00     0.031 C 
ATOM     68  C   UNL A   1      38.356  34.018  36.268  1.00  0.00     0.037 A 
BRANCH  55  69
ATOM     69  C   UNL A   1      44.430  33.277  35.922  1.00  0.00     0.064 A 
ATOM     70  C   UNL A   1      45.217  33.815  34.877  1.00  0.00     0.173 A 
ATOM     71  C   UNL A   1      45.187  33.044  37.110  1.00  0.00     0.173 A 
ATOM     72  F   UNL A   1      44.679  34.064  33.677  1.00  0.00    -0.203 F 
ATOM     73  C   UNL A   1      46.587  34.120  35.009  1.00  0.00     0.198 A 
ATOM     74  C   UNL A   1      46.545  33.395  37.256  1.00  0.00     0.198 A 
ATOM     75  F   UNL A   1      44.702  32.406  38.180  1.00  0.00    -0.203 F 
ATOM     76  F   UNL A   1      47.265  34.598  33.957  1.00  0.00    -0.200 F 
ATOM     77  C   UNL A   1      47.247  33.932  36.206  1.00  0.00     0.200 A 
ATOM     78  F   UNL A   1      47.169  33.178  38.426  1.00  0.00    -0.200 F 
ATOM     79  F   UNL A   1      48.545  34.241  36.336  1.00  0.00    -0.200 F 
ENDBRANCH  55  69
BRANCH  56  80
ATOM     80  C   UNL A   1      35.686  32.466  30.971  1.00  0.00     0.064 A 
ATOM     81  C   UNL A   1      35.141  33.002  29.775  1.00  0.00     0.173 A 
ATOM     82  C   UNL A   1      35.997  31.098  30.963  1.00  0.00     0.173 A 
ATOM     83  F   UNL A   1      34.858  34.314  29.701  1.00  0.00    -0.203 F 
ATOM     84  C   UNL A   1      35.047  32.250  28.604  1.00  0.00     0.198 A 
ATOM     85  C   UNL A   1      35.886  30.343  29.788  1.00  0.00     0.198 A 
ATOM     86  F   UNL A   1      36.545  30.526  32.044  1.00  0.00    -0.203 F 
ATOM     87  F   UNL A   1      34.693  32.840  27.451  1.00  0.00    -0.200 F 
ATOM     88  C   UNL A   1      35.436  30.924  28.607  1.00  0.00     0.200 A 
ATOM     89  F   UNL A   1      36.319  29.073  29.762  1.00  0.00    -0.200 F 
ATOM     90  F   UNL A   1      35.452  30.230  27.459  1.00  0.00    -0.200 F 
ENDBRANCH  56  80
BRANCH  68  91
ATOM     91  C   UNL A   1      38.185  33.694  37.749  1.00  0.00     0.064 A 
ATOM     92  C   UNL A   1      37.826  32.422  38.218  1.00  0.00     0.173 A 
ATOM     93  C   UNL A   1      38.570  34.612  38.767  1.00  0.00     0.173 A 
ATOM     94  F   UNL A   1      37.625  31.391  37.388  1.00  0.00    -0.203 F 
ATOM     95  C   UNL A   1      37.713  32.137  39.578  1.00  0.00     0.198 A 
ATOM     96  C   UNL A   1      38.581  34.279  40.118  1.00  0.00     0.198 A 
ATOM     97  F   UNL A   1      38.987  35.858  38.499  1.00  0.00    -0.203 F 
ATOM     98  F   UNL A   1      37.243  30.943  39.961  1.00  0.00    -0.200 F 
ATOM     99  C   UNL A   1      38.099  33.060  40.528  1.00  0.00     0.200 A 
ATOM    100  F   UNL A   1      39.068  35.151  41.014  1.00  0.00    -0.200 F 
ATOM    101  F   UNL A   1      38.021  32.769  41.832  1.00  0.00    -0.200 F 
ENDBRANCH  68  91
ENDBRANCH  42  43
ENDBRANCH  35  37
ENDBRANCH  34  35
ENDBRANCH  33  34
ENDBRANCH  32  33
ENDBRANCH  31  32
ENDBRANCH  30  31
ENDBRANCH  29  30
ENDBRANCH   1  29
TORSDOF 22
ENDMDL
