MODEL 1
REMARK VINA RESULT:     -11.7      0.000      0.000
REMARK SMILES CCc1cc(C)c2c(c1)C=C(C(=O)OCCOCCOCCOC(=O)c1ccc(-c3c4nc(c(-c5c(F)c(F)c(F)c(F)c5F)c5ccc([nH]5)c(-c5c(F)c(F)c(F)c(F)c5F)c5nc(c(-c6c(F)c(F)c(F)c(F)c6F)c6ccc3[nH]6)C=C5)C=C4)cc1)[C@@H](C(F)(F)F)O2
REMARK SMILES IDX 19 1 18 2 17 3 16 4 15 5 14 6 12 7 13 8 11 9 3 10 4 11 9 12
REMARK SMILES IDX 5 13 8 14 6 15 7 16 10 17 94 18 89 19 2 20 1 21 90 22 91 23
REMARK SMILES IDX 92 24 93 25 20 26 21 27 22 28 23 29 24 30 25 31 26 32 27 33
REMARK SMILES IDX 88 34 28 35 87 36 29 37 30 38 31 39 81 40 32 41 86 42 80 43
REMARK SMILES IDX 82 44 33 45 85 46 79 47 78 48 34 50 66 51 46 52 65 53 47 54
REMARK SMILES IDX 50 55 64 56 83 57 48 58 49 59 63 61 84 62 51 63 35 64 36 65
REMARK SMILES IDX 44 66 37 67 38 68 42 69 45 70 39 71 40 72 43 73 41 74 67 75
REMARK SMILES IDX 68 76 76 77 69 78 70 79 74 80 77 81 71 82 72 83 75 84 73 85
REMARK SMILES IDX 52 86 53 87 61 88 54 89 55 90 59 91 62 92 56 93 57 94 60 95
REMARK SMILES IDX 58 96
REMARK H PARENT 82 49 50 60
REMARK Flexibility Score: inf
ROOT
ATOM      1  C   UNL A   1      40.897  19.987  26.282  1.00  0.00     0.188 C 
ENDROOT
BRANCH   1   2
ATOM      2  C   UNL A   1      40.131  21.316  26.118  1.00  0.00     0.188 C 
BRANCH   2   3
ATOM      3  O   UNL A   1      38.722  21.371  26.215  1.00  0.00    -0.376 OA
BRANCH   3   4
ATOM      4  C   UNL A   1      37.905  20.974  25.126  1.00  0.00     0.202 C 
BRANCH   4   5
ATOM      5  C   UNL A   1      36.380  21.059  25.210  1.00  0.00     0.261 C 
BRANCH   5   6
ATOM      6  O   UNL A   1      35.904  22.141  26.022  1.00  0.00    -0.460 OA
BRANCH   6   7
ATOM      7  C   UNL A   1      34.564  22.336  25.987  1.00  0.00     0.338 C 
ATOM      8  O   UNL A   1      33.739  21.883  26.762  1.00  0.00    -0.246 OA
BRANCH   7   9
ATOM      9  C   UNL A   1      34.233  23.316  24.935  1.00  0.00     0.087 C 
ATOM     10  C   UNL A   1      33.163  27.887  23.805  1.00  0.00    -0.047 A 
ATOM     11  C   UNL A   1      32.819  27.466  22.514  1.00  0.00     0.011 A 
ATOM     12  C   UNL A   1      33.656  26.932  24.707  1.00  0.00     0.015 A 
ATOM     13  C   UNL A   1      32.947  26.121  22.127  1.00  0.00    -0.008 A 
ATOM     14  C   UNL A   1      33.779  25.586  24.338  1.00  0.00     0.018 A 
ATOM     15  C   UNL A   1      32.528  25.696  20.746  1.00  0.00     0.048 C 
ATOM     16  C   UNL A   1      33.450  25.185  23.043  1.00  0.00     0.130 A 
ATOM     17  C   UNL A   1      34.182  24.597  25.322  1.00  0.00     0.027 C 
ATOM     18  O   UNL A   1      33.588  23.899  22.599  1.00  0.00    -0.475 OA
ATOM     19  C   UNL A   1      33.973  22.853  23.529  1.00  0.00     0.316 C 
BRANCH  10  20
ATOM     20  C   UNL A   1      33.050  29.324  24.265  1.00  0.00     0.032 C 
ATOM     21  C   UNL A   1      31.905  29.637  25.221  1.00  0.00     0.009 C 
ENDBRANCH  10  20
BRANCH  19  22
ATOM     22  C   UNL A   1      32.912  21.743  23.462  1.00  0.00     0.430 C 
ATOM     23  F   UNL A   1      33.416  20.556  23.876  1.00  0.00    -0.167 F 
ATOM     24  F   UNL A   1      31.853  22.011  24.261  1.00  0.00    -0.167 F 
ATOM     25  F   UNL A   1      32.439  21.570  22.209  1.00  0.00    -0.167 F 
ENDBRANCH  19  22
ENDBRANCH   7   9
ENDBRANCH   6   7
ENDBRANCH   5   6
ENDBRANCH   4   5
ENDBRANCH   3   4
ENDBRANCH   2   3
ENDBRANCH   1   2
BRANCH   1  26
ATOM     26  O   UNL A   1      41.963  19.643  25.426  1.00  0.00    -0.376 OA
BRANCH  26  27
ATOM     27  C   UNL A   1      43.284  20.079  25.711  1.00  0.00     0.202 C 
BRANCH  27  28
ATOM     28  C   UNL A   1      43.810  21.461  25.307  1.00  0.00     0.261 C 
BRANCH  28  29
ATOM     29  O   UNL A   1      43.258  22.568  26.026  1.00  0.00    -0.460 OA
BRANCH  29  30
ATOM     30  C   UNL A   1      43.581  23.788  25.531  1.00  0.00     0.338 C 
ATOM     31  O   UNL A   1      44.216  24.042  24.525  1.00  0.00    -0.246 OA
BRANCH  30  32
ATOM     32  C   UNL A   1      42.907  24.823  26.328  1.00  0.00     0.060 A 
ATOM     33  C   UNL A   1      43.404  26.134  26.292  1.00  0.00     0.016 A 
ATOM     34  C   UNL A   1      41.843  24.483  27.164  1.00  0.00     0.016 A 
ATOM     35  C   UNL A   1      42.844  27.113  27.109  1.00  0.00     0.010 A 
ATOM     36  C   UNL A   1      41.310  25.455  28.010  1.00  0.00     0.010 A 
ATOM     37  C   UNL A   1      41.830  26.762  28.007  1.00  0.00    -0.014 A 
BRANCH  37  38
ATOM     38  C   UNL A   1      41.453  27.690  29.096  1.00  0.00     0.031 A 
ATOM     39  C   UNL A   1      42.220  27.618  30.385  1.00  0.00     0.074 A 
ATOM     40  C   UNL A   1      40.435  28.555  28.953  1.00  0.00     0.049 A 
ATOM     41  N   UNL A   1      42.000  28.231  31.518  1.00  0.00    -0.248 NA
ATOM     42  C   UNL A   1      43.398  26.733  30.396  1.00  0.00     0.031 C 
ATOM     43  C   UNL A   1      39.657  28.753  27.733  1.00  0.00     0.029 A 
ATOM     44  N   UNL A   1      39.870  29.415  29.861  1.00  0.00    -0.354 N 
ATOM     45  C   UNL A   1      43.005  27.805  32.375  1.00  0.00     0.074 A 
ATOM     46  C   UNL A   1      43.830  26.872  31.641  1.00  0.00     0.031 C 
ATOM     47  C   UNL A   1      38.691  29.655  27.977  1.00  0.00     0.029 A 
ATOM     48  C   UNL A   1      38.762  30.068  29.379  1.00  0.00     0.049 A 
ATOM     49  H   UNL A   1      40.224  29.551  30.770  1.00  0.00     0.167 HD
ATOM     50  C   UNL A   1      43.218  28.162  33.662  1.00  0.00     0.037 A 
ATOM     51  C   UNL A   1      37.889  30.875  30.013  1.00  0.00     0.037 A 
ATOM     52  C   UNL A   1      42.382  29.073  34.396  1.00  0.00     0.049 A 
ATOM     53  C   UNL A   1      38.094  31.184  31.475  1.00  0.00     0.074 A 
ATOM     54  C   UNL A   1      42.512  29.495  35.706  1.00  0.00     0.029 A 
ATOM     55  N   UNL A   1      41.252  29.693  33.884  1.00  0.00    -0.354 N 
ATOM     56  N   UNL A   1      39.050  30.786  32.280  1.00  0.00    -0.248 NA
ATOM     57  C   UNL A   1      37.097  32.053  32.117  1.00  0.00     0.031 C 
ATOM     58  C   UNL A   1      41.433  30.332  36.003  1.00  0.00     0.029 A 
ATOM     59  C   UNL A   1      40.663  30.477  34.860  1.00  0.00     0.049 A 
ATOM     60  H   UNL A   1      40.919  29.590  32.962  1.00  0.00     0.167 HD
ATOM     61  C   UNL A   1      38.785  31.376  33.511  1.00  0.00     0.074 A 
ATOM     62  C   UNL A   1      37.586  32.168  33.344  1.00  0.00     0.031 C 
ATOM     63  C   UNL A   1      39.474  31.269  34.674  1.00  0.00     0.037 A 
BRANCH  50  64
ATOM     64  C   UNL A   1      44.385  27.549  34.373  1.00  0.00     0.064 A 
ATOM     65  C   UNL A   1      45.633  28.187  34.417  1.00  0.00     0.173 A 
ATOM     66  C   UNL A   1      44.234  26.344  35.077  1.00  0.00     0.173 A 
ATOM     67  F   UNL A   1      45.830  29.330  33.745  1.00  0.00    -0.203 F 
ATOM     68  C   UNL A   1      46.690  27.638  35.139  1.00  0.00     0.198 A 
ATOM     69  C   UNL A   1      45.286  25.813  35.817  1.00  0.00     0.198 A 
ATOM     70  F   UNL A   1      43.061  25.695  35.062  1.00  0.00    -0.203 F 
ATOM     71  F   UNL A   1      47.882  28.251  35.148  1.00  0.00    -0.200 F 
ATOM     72  C   UNL A   1      46.513  26.459  35.847  1.00  0.00     0.200 A 
ATOM     73  F   UNL A   1      45.108  24.679  36.510  1.00  0.00    -0.200 F 
ATOM     74  F   UNL A   1      47.524  25.944  36.559  1.00  0.00    -0.200 F 
ENDBRANCH  50  64
BRANCH  51  75
ATOM     75  C   UNL A   1      36.727  31.435  29.275  1.00  0.00     0.064 A 
ATOM     76  C   UNL A   1      36.677  32.792  28.930  1.00  0.00     0.173 A 
ATOM     77  C   UNL A   1      35.637  30.630  28.913  1.00  0.00     0.173 A 
ATOM     78  F   UNL A   1      37.681  33.610  29.281  1.00  0.00    -0.203 F 
ATOM     79  C   UNL A   1      35.576  33.325  28.262  1.00  0.00     0.198 A 
ATOM     80  C   UNL A   1      34.550  31.157  28.220  1.00  0.00     0.198 A 
ATOM     81  F   UNL A   1      35.632  29.325  29.225  1.00  0.00    -0.203 F 
ATOM     82  F   UNL A   1      35.534  34.636  27.984  1.00  0.00    -0.200 F 
ATOM     83  C   UNL A   1      34.517  32.506  27.901  1.00  0.00     0.200 A 
ATOM     84  F   UNL A   1      33.532  30.361  27.865  1.00  0.00    -0.200 F 
ATOM     85  F   UNL A   1      33.461  33.019  27.254  1.00  0.00    -0.200 F 
ENDBRANCH  51  75
BRANCH  63  86
ATOM     86  C   UNL A   1      38.978  32.055  35.855  1.00  0.00     0.064 A 
ATOM     87  C   UNL A   1      38.182  31.468  36.848  1.00  0.00     0.173 A 
ATOM     88  C   UNL A   1      39.365  33.393  36.028  1.00  0.00     0.173 A 
ATOM     89  F   UNL A   1      37.777  30.195  36.724  1.00  0.00    -0.203 F 
ATOM     90  C   UNL A   1      37.776  32.198  37.963  1.00  0.00     0.198 A 
ATOM     91  C   UNL A   1      38.985  34.110  37.158  1.00  0.00     0.198 A 
ATOM     92  F   UNL A   1      40.137  33.999  35.111  1.00  0.00    -0.203 F 
ATOM     93  F   UNL A   1      36.983  31.628  38.881  1.00  0.00    -0.200 F 
ATOM     94  C   UNL A   1      38.185  33.514  38.122  1.00  0.00     0.200 A 
ATOM     95  F   UNL A   1      39.397  35.375  37.319  1.00  0.00    -0.200 F 
ATOM     96  F   UNL A   1      37.807  34.209  39.203  1.00  0.00    -0.200 F 
ENDBRANCH  63  86
ENDBRANCH  37  38
ENDBRANCH  30  32
ENDBRANCH  29  30
ENDBRANCH  28  29
ENDBRANCH  27  28
ENDBRANCH  26  27
ENDBRANCH   1  26
TORSDOF 19
ENDMDL
MODEL 2
REMARK VINA RESULT:     -11.2      4.685      7.062
REMARK SMILES CCc1cc(C)c2c(c1)C=C(C(=O)OCCOCCOCCOC(=O)c1ccc(-c3c4nc(c(-c5c(F)c(F)c(F)c(F)c5F)c5ccc([nH]5)c(-c5c(F)c(F)c(F)c(F)c5F)c5nc(c(-c6c(F)c(F)c(F)c(F)c6F)c6ccc3[nH]6)C=C5)C=C4)cc1)[C@@H](C(F)(F)F)O2
REMARK SMILES IDX 19 1 18 2 17 3 16 4 15 5 14 6 12 7 13 8 11 9 3 10 4 11 9 12
REMARK SMILES IDX 5 13 8 14 6 15 7 16 10 17 94 18 89 19 2 20 1 21 90 22 91 23
REMARK SMILES IDX 92 24 93 25 20 26 21 27 22 28 23 29 24 30 25 31 26 32 27 33
REMARK SMILES IDX 88 34 28 35 87 36 29 37 30 38 31 39 81 40 32 41 86 42 80 43
REMARK SMILES IDX 82 44 33 45 85 46 79 47 78 48 34 50 66 51 46 52 65 53 47 54
REMARK SMILES IDX 50 55 64 56 83 57 48 58 49 59 63 61 84 62 51 63 35 64 36 65
REMARK SMILES IDX 44 66 37 67 38 68 42 69 45 70 39 71 40 72 43 73 41 74 67 75
REMARK SMILES IDX 68 76 76 77 69 78 70 79 74 80 77 81 71 82 72 83 75 84 73 85
REMARK SMILES IDX 52 86 53 87 61 88 54 89 55 90 59 91 62 92 56 93 57 94 60 95
REMARK SMILES IDX 58 96
REMARK H PARENT 82 49 50 60
REMARK Flexibility Score: inf
ROOT
ATOM      1  C   UNL A   1      36.659  22.043  25.681  1.00  0.00     0.188 C 
ENDROOT
BRANCH   1   2
ATOM      2  C   UNL A   1      35.267  22.424  25.134  1.00  0.00     0.188 C 
BRANCH   2   3
ATOM      3  O   UNL A   1      34.524  23.490  25.691  1.00  0.00    -0.376 OA
BRANCH   3   4
ATOM      4  C   UNL A   1      34.835  24.835  25.366  1.00  0.00     0.202 C 
BRANCH   4   5
ATOM      5  C   UNL A   1      33.829  25.960  25.619  1.00  0.00     0.261 C 
BRANCH   5   6
ATOM      6  O   UNL A   1      33.393  26.627  24.427  1.00  0.00    -0.460 OA
BRANCH   6   7
ATOM      7  C   UNL A   1      32.627  25.877  23.599  1.00  0.00     0.338 C 
ATOM      8  O   UNL A   1      32.905  24.783  23.138  1.00  0.00    -0.246 OA
BRANCH   7   9
ATOM      9  C   UNL A   1      31.306  26.513  23.434  1.00  0.00     0.087 C 
ATOM     10  C   UNL A   1      28.791  30.410  22.092  1.00  0.00    -0.047 A 
ATOM     11  C   UNL A   1      27.644  29.839  22.659  1.00  0.00     0.011 A 
ATOM     12  C   UNL A   1      29.982  29.668  22.112  1.00  0.00     0.015 A 
ATOM     13  C   UNL A   1      27.677  28.562  23.245  1.00  0.00    -0.008 A 
ATOM     14  C   UNL A   1      30.032  28.399  22.703  1.00  0.00     0.018 A 
ATOM     15  C   UNL A   1      26.437  27.998  23.881  1.00  0.00     0.048 C 
ATOM     16  C   UNL A   1      28.877  27.836  23.246  1.00  0.00     0.130 A 
ATOM     17  C   UNL A   1      31.299  27.699  22.813  1.00  0.00     0.027 C 
ATOM     18  O   UNL A   1      28.841  26.585  23.797  1.00  0.00    -0.475 OA
ATOM     19  C   UNL A   1      30.072  25.831  23.955  1.00  0.00     0.316 C 
BRANCH  10  20
ATOM     20  C   UNL A   1      28.802  31.776  21.443  1.00  0.00     0.032 C 
ATOM     21  C   UNL A   1      28.680  32.970  22.382  1.00  0.00     0.009 C 
ENDBRANCH  10  20
BRANCH  19  22
ATOM     22  C   UNL A   1      30.198  25.431  25.432  1.00  0.00     0.430 C 
ATOM     23  F   UNL A   1      30.951  24.313  25.576  1.00  0.00    -0.167 F 
ATOM     24  F   UNL A   1      30.800  26.396  26.165  1.00  0.00    -0.167 F 
ATOM     25  F   UNL A   1      28.995  25.187  25.996  1.00  0.00    -0.167 F 
ENDBRANCH  19  22
ENDBRANCH   7   9
ENDBRANCH   6   7
ENDBRANCH   5   6
ENDBRANCH   4   5
ENDBRANCH   3   4
ENDBRANCH   2   3
ENDBRANCH   1   2
BRANCH   1  26
ATOM     26  O   UNL A   1      37.622  21.416  24.863  1.00  0.00    -0.376 OA
BRANCH  26  27
ATOM     27  C   UNL A   1      37.886  20.028  24.997  1.00  0.00     0.202 C 
BRANCH  27  28
ATOM     28  C   UNL A   1      39.151  19.483  25.673  1.00  0.00     0.261 C 
BRANCH  28  29
ATOM     29  O   UNL A   1      40.215  20.424  25.845  1.00  0.00    -0.460 OA
BRANCH  29  30
ATOM     30  C   UNL A   1      40.709  20.500  27.105  1.00  0.00     0.338 C 
ATOM     31  O   UNL A   1      41.098  19.590  27.813  1.00  0.00    -0.246 OA
BRANCH  30  32
ATOM     32  C   UNL A   1      40.861  21.915  27.477  1.00  0.00     0.060 A 
ATOM     33  C   UNL A   1      40.080  22.874  26.817  1.00  0.00     0.016 A 
ATOM     34  C   UNL A   1      41.824  22.295  28.411  1.00  0.00     0.016 A 
ATOM     35  C   UNL A   1      40.271  24.228  27.080  1.00  0.00     0.010 A 
ATOM     36  C   UNL A   1      42.042  23.652  28.645  1.00  0.00     0.010 A 
ATOM     37  C   UNL A   1      41.289  24.621  27.957  1.00  0.00    -0.014 A 
BRANCH  37  38
ATOM     38  C   UNL A   1      41.721  26.036  28.001  1.00  0.00     0.031 A 
ATOM     39  C   UNL A   1      43.059  26.385  27.417  1.00  0.00     0.074 A 
ATOM     40  C   UNL A   1      40.956  26.980  28.573  1.00  0.00     0.049 A 
ATOM     41  N   UNL A   1      43.709  27.519  27.449  1.00  0.00    -0.248 NA
ATOM     42  C   UNL A   1      43.761  25.307  26.699  1.00  0.00     0.031 C 
ATOM     43  C   UNL A   1      39.619  26.770  29.121  1.00  0.00     0.029 A 
ATOM     44  N   UNL A   1      41.214  28.308  28.804  1.00  0.00    -0.354 N 
ATOM     45  C   UNL A   1      44.892  27.291  26.760  1.00  0.00     0.074 A 
ATOM     46  C   UNL A   1      44.882  25.910  26.333  1.00  0.00     0.031 C 
ATOM     47  C   UNL A   1      39.183  27.924  29.657  1.00  0.00     0.029 A 
ATOM     48  C   UNL A   1      40.226  28.940  29.520  1.00  0.00     0.049 A 
ATOM     49  H   UNL A   1      42.027  28.764  28.488  1.00  0.00     0.167 HD
ATOM     50  C   UNL A   1      45.898  28.160  26.510  1.00  0.00     0.037 A 
ATOM     51  C   UNL A   1      40.193  30.184  30.035  1.00  0.00     0.037 A 
ATOM     52  C   UNL A   1      45.914  29.527  26.956  1.00  0.00     0.049 A 
ATOM     53  C   UNL A   1      41.369  31.106  29.824  1.00  0.00     0.074 A 
ATOM     54  C   UNL A   1      46.890  30.486  26.756  1.00  0.00     0.029 A 
ATOM     55  N   UNL A   1      44.910  30.124  27.703  1.00  0.00    -0.354 N 
ATOM     56  N   UNL A   1      42.483  30.890  29.165  1.00  0.00    -0.248 NA
ATOM     57  C   UNL A   1      41.282  32.443  30.427  1.00  0.00     0.031 C 
ATOM     58  C   UNL A   1      46.500  31.649  27.424  1.00  0.00     0.029 A 
ATOM     59  C   UNL A   1      45.254  31.433  27.991  1.00  0.00     0.049 A 
ATOM     60  H   UNL A   1      44.076  29.682  27.986  1.00  0.00     0.167 HD
ATOM     61  C   UNL A   1      43.215  32.068  29.253  1.00  0.00     0.074 A 
ATOM     62  C   UNL A   1      42.414  33.000  30.017  1.00  0.00     0.031 C 
ATOM     63  C   UNL A   1      44.440  32.352  28.746  1.00  0.00     0.037 A 
BRANCH  50  64
ATOM     64  C   UNL A   1      47.079  27.657  25.739  1.00  0.00     0.064 A 
ATOM     65  C   UNL A   1      47.138  27.754  24.341  1.00  0.00     0.173 A 
ATOM     66  C   UNL A   1      48.196  27.136  26.411  1.00  0.00     0.173 A 
ATOM     67  F   UNL A   1      46.087  28.228  23.653  1.00  0.00    -0.203 F 
ATOM     68  C   UNL A   1      48.271  27.344  23.643  1.00  0.00     0.198 A 
ATOM     69  C   UNL A   1      49.335  26.752  25.712  1.00  0.00     0.198 A 
ATOM     70  F   UNL A   1      48.187  27.021  27.747  1.00  0.00    -0.203 F 
ATOM     71  F   UNL A   1      48.297  27.423  22.305  1.00  0.00    -0.200 F 
ATOM     72  C   UNL A   1      49.372  26.855  24.329  1.00  0.00     0.200 A 
ATOM     73  F   UNL A   1      50.403  26.289  26.378  1.00  0.00    -0.200 F 
ATOM     74  F   UNL A   1      50.470  26.482  23.658  1.00  0.00    -0.200 F 
ENDBRANCH  50  64
BRANCH  51  75
ATOM     75  C   UNL A   1      39.013  30.630  30.821  1.00  0.00     0.064 A 
ATOM     76  C   UNL A   1      37.912  31.228  30.194  1.00  0.00     0.173 A 
ATOM     77  C   UNL A   1      38.967  30.480  32.215  1.00  0.00     0.173 A 
ATOM     78  F   UNL A   1      37.921  31.421  28.867  1.00  0.00    -0.203 F 
ATOM     79  C   UNL A   1      36.816  31.670  30.932  1.00  0.00     0.198 A 
ATOM     80  C   UNL A   1      37.859  30.897  32.949  1.00  0.00     0.198 A 
ATOM     81  F   UNL A   1      39.998  29.920  32.866  1.00  0.00    -0.203 F 
ATOM     82  F   UNL A   1      35.795  32.280  30.312  1.00  0.00    -0.200 F 
ATOM     83  C   UNL A   1      36.786  31.499  32.308  1.00  0.00     0.200 A 
ATOM     84  F   UNL A   1      37.831  30.721  34.277  1.00  0.00    -0.200 F 
ATOM     85  F   UNL A   1      35.729  31.920  33.016  1.00  0.00    -0.200 F 
ENDBRANCH  51  75
BRANCH  63  86
ATOM     86  C   UNL A   1      44.983  33.736  28.962  1.00  0.00     0.064 A 
ATOM     87  C   UNL A   1      45.867  34.024  30.011  1.00  0.00     0.173 A 
ATOM     88  C   UNL A   1      44.669  34.768  28.064  1.00  0.00     0.173 A 
ATOM     89  F   UNL A   1      46.191  33.074  30.902  1.00  0.00    -0.203 F 
ATOM     90  C   UNL A   1      46.402  35.301  30.164  1.00  0.00     0.198 A 
ATOM     91  C   UNL A   1      45.230  36.034  28.201  1.00  0.00     0.198 A 
ATOM     92  F   UNL A   1      43.836  34.541  27.036  1.00  0.00    -0.203 F 
ATOM     93  F   UNL A   1      47.215  35.564  31.197  1.00  0.00    -0.200 F 
ATOM     94  C   UNL A   1      46.091  36.301  29.255  1.00  0.00     0.200 A 
ATOM     95  F   UNL A   1      44.943  36.993  27.311  1.00  0.00    -0.200 F 
ATOM     96  F   UNL A   1      46.620  37.524  29.395  1.00  0.00    -0.200 F 
ENDBRANCH  63  86
ENDBRANCH  37  38
ENDBRANCH  30  32
ENDBRANCH  29  30
ENDBRANCH  28  29
ENDBRANCH  27  28
ENDBRANCH  26  27
ENDBRANCH   1  26
TORSDOF 19
ENDMDL
MODEL 3
REMARK VINA RESULT:     -11.1      4.791      9.296
REMARK SMILES CCc1cc(C)c2c(c1)C=C(C(=O)OCCOCCOCCOC(=O)c1ccc(-c3c4nc(c(-c5c(F)c(F)c(F)c(F)c5F)c5ccc([nH]5)c(-c5c(F)c(F)c(F)c(F)c5F)c5nc(c(-c6c(F)c(F)c(F)c(F)c6F)c6ccc3[nH]6)C=C5)C=C4)cc1)[C@@H](C(F)(F)F)O2
REMARK SMILES IDX 19 1 18 2 17 3 16 4 15 5 14 6 12 7 13 8 11 9 3 10 4 11 9 12
REMARK SMILES IDX 5 13 8 14 6 15 7 16 10 17 94 18 89 19 2 20 1 21 90 22 91 23
REMARK SMILES IDX 92 24 93 25 20 26 21 27 22 28 23 29 24 30 25 31 26 32 27 33
REMARK SMILES IDX 88 34 28 35 87 36 29 37 30 38 31 39 81 40 32 41 86 42 80 43
REMARK SMILES IDX 82 44 33 45 85 46 79 47 78 48 34 50 66 51 46 52 65 53 47 54
REMARK SMILES IDX 50 55 64 56 83 57 48 58 49 59 63 61 84 62 51 63 35 64 36 65
REMARK SMILES IDX 44 66 37 67 38 68 42 69 45 70 39 71 40 72 43 73 41 74 67 75
REMARK SMILES IDX 68 76 76 77 69 78 70 79 74 80 77 81 71 82 72 83 75 84 73 85
REMARK SMILES IDX 52 86 53 87 61 88 54 89 55 90 59 91 62 92 56 93 57 94 60 95
REMARK SMILES IDX 58 96
REMARK H PARENT 82 49 50 60
REMARK Flexibility Score: inf
ROOT
ATOM      1  C   UNL A   1      36.096  21.576  24.665  1.00  0.00     0.188 C 
ENDROOT
BRANCH   1   2
ATOM      2  C   UNL A   1      34.684  20.977  24.830  1.00  0.00     0.188 C 
BRANCH   2   3
ATOM      3  O   UNL A   1      33.805  21.433  25.839  1.00  0.00    -0.376 OA
BRANCH   3   4
ATOM      4  C   UNL A   1      32.399  21.360  25.661  1.00  0.00     0.202 C 
BRANCH   4   5
ATOM      5  C   UNL A   1      31.519  22.602  25.813  1.00  0.00     0.261 C 
BRANCH   5   6
ATOM      6  O   UNL A   1      31.007  23.106  24.572  1.00  0.00    -0.460 OA
BRANCH   6   7
ATOM      7  C   UNL A   1      31.859  23.901  23.881  1.00  0.00     0.338 C 
ATOM      8  O   UNL A   1      32.671  23.548  23.044  1.00  0.00    -0.246 OA
BRANCH   7   9
ATOM      9  C   UNL A   1      31.571  25.316  24.184  1.00  0.00     0.087 C 
ATOM     10  C   UNL A   1      29.420  29.423  22.834  1.00  0.00    -0.047 A 
ATOM     11  C   UNL A   1      30.113  30.095  23.850  1.00  0.00     0.011 A 
ATOM     12  C   UNL A   1      29.591  28.035  22.719  1.00  0.00     0.015 A 
ATOM     13  C   UNL A   1      30.970  29.408  24.727  1.00  0.00    -0.008 A 
ATOM     14  C   UNL A   1      30.450  27.339  23.579  1.00  0.00     0.018 A 
ATOM     15  C   UNL A   1      31.730  30.169  25.778  1.00  0.00     0.048 C 
ATOM     16  C   UNL A   1      31.119  28.020  24.598  1.00  0.00     0.130 A 
ATOM     17  C   UNL A   1      30.700  25.925  23.369  1.00  0.00     0.027 C 
ATOM     18  O   UNL A   1      31.937  27.400  25.502  1.00  0.00    -0.475 OA
ATOM     19  C   UNL A   1      32.245  25.989  25.346  1.00  0.00     0.316 C 
BRANCH  10  20
ATOM     20  C   UNL A   1      28.481  30.117  21.873  1.00  0.00     0.032 C 
ATOM     21  C   UNL A   1      28.125  31.562  22.203  1.00  0.00     0.009 C 
ENDBRANCH  10  20
BRANCH  19  22
ATOM     22  C   UNL A   1      33.773  25.838  25.310  1.00  0.00     0.430 C 
ATOM     23  F   UNL A   1      34.158  24.627  25.779  1.00  0.00    -0.167 F 
ATOM     24  F   UNL A   1      34.258  25.934  24.050  1.00  0.00    -0.167 F 
ATOM     25  F   UNL A   1      34.394  26.779  26.055  1.00  0.00    -0.167 F 
ENDBRANCH  19  22
ENDBRANCH   7   9
ENDBRANCH   6   7
ENDBRANCH   5   6
ENDBRANCH   4   5
ENDBRANCH   3   4
ENDBRANCH   2   3
ENDBRANCH   1   2
BRANCH   1  26
ATOM     26  O   UNL A   1      36.837  22.026  25.777  1.00  0.00    -0.376 OA
BRANCH  26  27
ATOM     27  C   UNL A   1      38.254  21.938  25.781  1.00  0.00     0.202 C 
BRANCH  27  28
ATOM     28  C   UNL A   1      39.007  20.628  25.520  1.00  0.00     0.261 C 
BRANCH  28  29
ATOM     29  O   UNL A   1      39.819  20.155  26.600  1.00  0.00    -0.460 OA
BRANCH  29  30
ATOM     30  C   UNL A   1      41.098  19.857  26.262  1.00  0.00     0.338 C 
ATOM     31  O   UNL A   1      41.505  18.879  25.662  1.00  0.00    -0.246 OA
BRANCH  30  32
ATOM     32  C   UNL A   1      41.962  20.997  26.602  1.00  0.00     0.060 A 
ATOM     33  C   UNL A   1      42.176  21.303  27.954  1.00  0.00     0.016 A 
ATOM     34  C   UNL A   1      42.490  21.802  25.593  1.00  0.00     0.016 A 
ATOM     35  C   UNL A   1      42.911  22.433  28.303  1.00  0.00     0.010 A 
ATOM     36  C   UNL A   1      43.192  22.954  25.944  1.00  0.00     0.010 A 
ATOM     37  C   UNL A   1      43.377  23.288  27.298  1.00  0.00    -0.014 A 
BRANCH  37  38
ATOM     38  C   UNL A   1      43.867  24.640  27.647  1.00  0.00     0.031 A 
ATOM     39  C   UNL A   1      42.861  25.668  28.079  1.00  0.00     0.074 A 
ATOM     40  C   UNL A   1      45.169  24.955  27.553  1.00  0.00     0.049 A 
ATOM     41  N   UNL A   1      43.024  26.944  28.311  1.00  0.00    -0.248 NA
ATOM     42  C   UNL A   1      41.481  25.190  28.275  1.00  0.00     0.031 C 
ATOM     43  C   UNL A   1      46.241  24.028  27.200  1.00  0.00     0.029 A 
ATOM     44  N   UNL A   1      45.804  26.159  27.729  1.00  0.00    -0.354 N 
ATOM     45  C   UNL A   1      41.773  27.420  28.676  1.00  0.00     0.074 A 
ATOM     46  C   UNL A   1      40.855  26.304  28.624  1.00  0.00     0.031 C 
ATOM     47  C   UNL A   1      47.402  24.705  27.153  1.00  0.00     0.029 A 
ATOM     48  C   UNL A   1      47.146  26.117  27.436  1.00  0.00     0.049 A 
ATOM     49  H   UNL A   1      45.344  26.974  28.035  1.00  0.00     0.167 HD
ATOM     50  C   UNL A   1      41.423  28.680  29.024  1.00  0.00     0.037 A 
ATOM     51  C   UNL A   1      48.048  27.115  27.370  1.00  0.00     0.037 A 
ATOM     52  C   UNL A   1      42.334  29.792  29.054  1.00  0.00     0.049 A 
ATOM     53  C   UNL A   1      47.613  28.529  27.670  1.00  0.00     0.074 A 
ATOM     54  C   UNL A   1      42.075  31.108  29.389  1.00  0.00     0.029 A 
ATOM     55  N   UNL A   1      43.679  29.718  28.724  1.00  0.00    -0.354 N 
ATOM     56  N   UNL A   1      46.431  28.974  28.024  1.00  0.00    -0.248 NA
ATOM     57  C   UNL A   1      48.637  29.577  27.561  1.00  0.00     0.031 C 
ATOM     58  C   UNL A   1      43.251  31.841  29.214  1.00  0.00     0.029 A 
ATOM     59  C   UNL A   1      44.257  30.971  28.826  1.00  0.00     0.049 A 
ATOM     60  H   UNL A   1      44.152  28.895  28.456  1.00  0.00     0.167 HD
ATOM     61  C   UNL A   1      46.576  30.345  28.204  1.00  0.00     0.074 A 
ATOM     62  C   UNL A   1      47.963  30.656  27.934  1.00  0.00     0.031 C 
ATOM     63  C   UNL A   1      45.643  31.262  28.562  1.00  0.00     0.037 A 
BRANCH  50  64
ATOM     64  C   UNL A   1      39.990  28.934  29.377  1.00  0.00     0.064 A 
ATOM     65  C   UNL A   1      39.040  29.256  28.397  1.00  0.00     0.173 A 
ATOM     66  C   UNL A   1      39.547  28.786  30.701  1.00  0.00     0.173 A 
ATOM     67  F   UNL A   1      39.418  29.428  27.122  1.00  0.00    -0.203 F 
ATOM     68  C   UNL A   1      37.698  29.424  28.730  1.00  0.00     0.198 A 
ATOM     69  C   UNL A   1      38.202  28.928  31.025  1.00  0.00     0.198 A 
ATOM     70  F   UNL A   1      40.418  28.481  31.674  1.00  0.00    -0.203 F 
ATOM     71  F   UNL A   1      36.810  29.756  27.783  1.00  0.00    -0.200 F 
ATOM     72  C   UNL A   1      37.279  29.248  30.040  1.00  0.00     0.200 A 
ATOM     73  F   UNL A   1      37.797  28.748  32.290  1.00  0.00    -0.200 F 
ATOM     74  F   UNL A   1      35.985  29.387  30.356  1.00  0.00    -0.200 F 
ENDBRANCH  50  64
BRANCH  51  75
ATOM     75  C   UNL A   1      49.453  26.821  26.984  1.00  0.00     0.064 A 
ATOM     76  C   UNL A   1      49.849  26.830  25.640  1.00  0.00     0.173 A 
ATOM     77  C   UNL A   1      50.424  26.511  27.948  1.00  0.00     0.173 A 
ATOM     78  F   UNL A   1      48.950  27.091  24.680  1.00  0.00    -0.203 F 
ATOM     79  C   UNL A   1      51.159  26.528  25.274  1.00  0.00     0.198 A 
ATOM     80  C   UNL A   1      51.740  26.237  27.583  1.00  0.00     0.198 A 
ATOM     81  F   UNL A   1      50.095  26.482  29.248  1.00  0.00    -0.203 F 
ATOM     82  F   UNL A   1      51.500  26.500  23.978  1.00  0.00    -0.200 F 
ATOM     83  C   UNL A   1      52.105  26.239  26.246  1.00  0.00     0.200 A 
ATOM     84  F   UNL A   1      52.653  25.967  28.526  1.00  0.00    -0.200 F 
ATOM     85  F   UNL A   1      53.366  25.954  25.892  1.00  0.00    -0.200 F 
ENDBRANCH  51  75
BRANCH  63  86
ATOM     86  C   UNL A   1      46.091  32.688  28.722  1.00  0.00     0.064 A 
ATOM     87  C   UNL A   1      46.049  33.596  27.656  1.00  0.00     0.173 A 
ATOM     88  C   UNL A   1      46.497  33.166  29.977  1.00  0.00     0.173 A 
ATOM     89  F   UNL A   1      45.677  33.186  26.433  1.00  0.00    -0.203 F 
ATOM     90  C   UNL A   1      46.417  34.927  27.836  1.00  0.00     0.198 A 
ATOM     91  C   UNL A   1      46.832  34.503  30.162  1.00  0.00     0.198 A 
ATOM     92  F   UNL A   1      46.543  32.339  31.034  1.00  0.00    -0.203 F 
ATOM     93  F   UNL A   1      46.407  35.770  26.793  1.00  0.00    -0.200 F 
ATOM     94  C   UNL A   1      46.799  35.382  29.089  1.00  0.00     0.200 A 
ATOM     95  F   UNL A   1      47.183  34.944  31.377  1.00  0.00    -0.200 F 
ATOM     96  F   UNL A   1      47.136  36.667  29.263  1.00  0.00    -0.200 F 
ENDBRANCH  63  86
ENDBRANCH  37  38
ENDBRANCH  30  32
ENDBRANCH  29  30
ENDBRANCH  28  29
ENDBRANCH  27  28
ENDBRANCH  26  27
ENDBRANCH   1  26
TORSDOF 19
ENDMDL
