MODEL 1
REMARK VINA RESULT:     -11.3      0.000      0.000
REMARK SMILES Cc1cc(C)c2c(c1)C=C(C(=O)OCCOCCOCCOC(=O)c1ccc(-c3c4nc(c(-c5c(F)c(F)c(F)c(F)c5F)c5ccc([nH]5)c(-c5c(F)c(F)c(F)c(F)c5F)c5nc(c(-c6c(F)c(F)c(F)c(F)c6F)c6ccc3[nH]6)C=C5)C=C4)cc1)[C@@H](C(F)(F)F)O2
REMARK SMILES IDX 18 1 17 2 16 3 15 4 14 5 13 6 11 7 12 8 10 9 1 10 2 11 3 12
REMARK SMILES IDX 8 13 4 14 7 15 5 16 6 17 9 18 93 19 88 20 89 21 90 22 91 23
REMARK SMILES IDX 92 24 19 25 20 26 21 27 22 28 23 29 24 30 25 31 26 32 87 33
REMARK SMILES IDX 27 34 86 35 28 36 29 37 30 38 80 39 31 40 85 41 79 42 81 43
REMARK SMILES IDX 32 44 84 45 78 46 77 47 33 49 65 50 45 51 64 52 46 53 49 54
REMARK SMILES IDX 63 55 82 56 47 57 48 58 62 60 83 61 50 62 34 63 35 64 43 65
REMARK SMILES IDX 36 66 37 67 41 68 44 69 38 70 39 71 42 72 40 73 66 74 67 75
REMARK SMILES IDX 75 76 68 77 69 78 73 79 76 80 70 81 71 82 74 83 72 84 51 85
REMARK SMILES IDX 52 86 60 87 53 88 54 89 58 90 61 91 55 92 56 93 59 94 57 95
REMARK H PARENT 81 48 49 59
REMARK Flexibility Score: inf
ROOT
ATOM      1  C   UNL A   1      42.087  19.550  26.275  1.00  0.00     0.188 C 
ENDROOT
BRANCH   1   2
ATOM      2  C   UNL A   1      40.633  20.046  26.425  1.00  0.00     0.188 C 
BRANCH   2   3
ATOM      3  O   UNL A   1      40.365  21.258  27.092  1.00  0.00    -0.376 OA
BRANCH   3   4
ATOM      4  C   UNL A   1      39.565  22.264  26.496  1.00  0.00     0.202 C 
BRANCH   4   5
ATOM      5  C   UNL A   1      38.273  21.992  25.710  1.00  0.00     0.261 C 
BRANCH   5   6
ATOM      6  O   UNL A   1      37.466  23.132  25.395  1.00  0.00    -0.460 OA
BRANCH   6   7
ATOM      7  C   UNL A   1      36.672  22.992  24.305  1.00  0.00     0.338 C 
ATOM      8  O   UNL A   1      37.000  22.555  23.215  1.00  0.00    -0.246 OA
BRANCH   7   9
ATOM      9  C   UNL A   1      35.275  23.300  24.668  1.00  0.00     0.087 C 
ATOM     10  C   UNL A   1      31.817  27.842  26.976  1.00  0.00     0.044 C 
ATOM     11  C   UNL A   1      32.110  26.478  26.424  1.00  0.00    -0.050 A 
ATOM     12  C   UNL A   1      31.171  25.449  26.555  1.00  0.00     0.010 A 
ATOM     13  C   UNL A   1      33.360  26.190  25.866  1.00  0.00     0.015 A 
ATOM     14  C   UNL A   1      31.453  24.151  26.103  1.00  0.00    -0.008 A 
ATOM     15  C   UNL A   1      33.664  24.893  25.434  1.00  0.00     0.018 A 
ATOM     16  C   UNL A   1      30.439  23.057  26.284  1.00  0.00     0.048 C 
ATOM     17  C   UNL A   1      32.703  23.884  25.524  1.00  0.00     0.130 A 
ATOM     18  C   UNL A   1      35.006  24.575  24.977  1.00  0.00     0.027 C 
ATOM     19  O   UNL A   1      32.914  22.609  25.077  1.00  0.00    -0.475 OA
ATOM     20  C   UNL A   1      34.248  22.201  24.675  1.00  0.00     0.316 C 
BRANCH  20  21
ATOM     21  C   UNL A   1      34.672  21.013  25.548  1.00  0.00     0.430 C 
ATOM     22  F   UNL A   1      35.604  20.252  24.927  1.00  0.00    -0.167 F 
ATOM     23  F   UNL A   1      35.222  21.422  26.716  1.00  0.00    -0.167 F 
ATOM     24  F   UNL A   1      33.627  20.212  25.854  1.00  0.00    -0.167 F 
ENDBRANCH  20  21
ENDBRANCH   7   9
ENDBRANCH   6   7
ENDBRANCH   5   6
ENDBRANCH   4   5
ENDBRANCH   3   4
ENDBRANCH   2   3
ENDBRANCH   1   2
BRANCH   1  25
ATOM     25  O   UNL A   1      42.960  20.176  25.363  1.00  0.00    -0.376 OA
BRANCH  25  26
ATOM     26  C   UNL A   1      43.454  21.476  25.648  1.00  0.00     0.202 C 
BRANCH  26  27
ATOM     27  C   UNL A   1      43.646  22.570  24.581  1.00  0.00     0.261 C 
BRANCH  27  28
ATOM     28  O   UNL A   1      43.211  23.890  24.929  1.00  0.00    -0.460 OA
BRANCH  28  29
ATOM     29  C   UNL A   1      44.201  24.769  25.249  1.00  0.00     0.338 C 
ATOM     30  O   UNL A   1      45.179  25.056  24.593  1.00  0.00    -0.246 OA
BRANCH  29  31
ATOM     31  C   UNL A   1      43.802  25.504  26.467  1.00  0.00     0.060 A 
ATOM     32  C   UNL A   1      42.912  24.891  27.361  1.00  0.00     0.016 A 
ATOM     33  C   UNL A   1      44.293  26.784  26.722  1.00  0.00     0.016 A 
ATOM     34  C   UNL A   1      42.518  25.554  28.521  1.00  0.00     0.010 A 
ATOM     35  C   UNL A   1      43.869  27.464  27.869  1.00  0.00     0.010 A 
ATOM     36  C   UNL A   1      42.964  26.860  28.763  1.00  0.00    -0.014 A 
BRANCH  36  37
ATOM     37  C   UNL A   1      42.318  27.654  29.836  1.00  0.00     0.031 A 
ATOM     38  C   UNL A   1      42.979  27.687  31.187  1.00  0.00     0.074 A 
ATOM     39  C   UNL A   1      41.209  28.380  29.609  1.00  0.00     0.049 A 
ATOM     40  N   UNL A   1      42.629  28.334  32.268  1.00  0.00    -0.248 NA
ATOM     41  C   UNL A   1      44.205  26.885  31.335  1.00  0.00     0.031 C 
ATOM     42  C   UNL A   1      40.500  28.464  28.334  1.00  0.00     0.029 A 
ATOM     43  N   UNL A   1      40.487  29.191  30.451  1.00  0.00    -0.354 N 
ATOM     44  C   UNL A   1      43.597  28.030  33.215  1.00  0.00     0.074 A 
ATOM     45  C   UNL A   1      44.521  27.103  32.603  1.00  0.00     0.031 C 
ATOM     46  C   UNL A   1      39.446  29.287  28.477  1.00  0.00     0.029 A 
ATOM     47  C   UNL A   1      39.392  29.769  29.858  1.00  0.00     0.049 A 
ATOM     48  H   UNL A   1      40.734  29.345  31.392  1.00  0.00     0.167 HD
ATOM     49  C   UNL A   1      43.719  28.504  34.476  1.00  0.00     0.037 A 
ATOM     50  C   UNL A   1      38.451  30.587  30.376  1.00  0.00     0.037 A 
ATOM     51  C   UNL A   1      42.800  29.422  35.090  1.00  0.00     0.049 A 
ATOM     52  C   UNL A   1      38.549  31.009  31.823  1.00  0.00     0.074 A 
ATOM     53  C   UNL A   1      42.846  29.961  36.362  1.00  0.00     0.029 A 
ATOM     54  N   UNL A   1      41.663  29.928  34.479  1.00  0.00    -0.354 N 
ATOM     55  N   UNL A   1      39.491  30.754  32.698  1.00  0.00    -0.248 NA
ATOM     56  C   UNL A   1      37.452  31.834  32.354  1.00  0.00     0.031 C 
ATOM     57  C   UNL A   1      41.708  30.752  36.541  1.00  0.00     0.029 A 
ATOM     58  C   UNL A   1      40.982  30.749  35.361  1.00  0.00     0.049 A 
ATOM     59  H   UNL A   1      41.383  29.733  33.555  1.00  0.00     0.167 HD
ATOM     60  C   UNL A   1      39.115  31.403  33.868  1.00  0.00     0.074 A 
ATOM     61  C   UNL A   1      37.867  32.080  33.590  1.00  0.00     0.031 C 
ATOM     62  C   UNL A   1      39.747  31.431  35.067  1.00  0.00     0.037 A 
BRANCH  49  63
ATOM     63  C   UNL A   1      44.895  28.041  35.283  1.00  0.00     0.064 A 
ATOM     64  C   UNL A   1      46.095  28.768  35.303  1.00  0.00     0.173 A 
ATOM     65  C   UNL A   1      44.800  26.903  36.098  1.00  0.00     0.173 A 
ATOM     66  F   UNL A   1      46.240  29.855  34.531  1.00  0.00    -0.203 F 
ATOM     67  C   UNL A   1      47.161  28.364  36.100  1.00  0.00     0.198 A 
ATOM     68  C   UNL A   1      45.858  26.520  36.917  1.00  0.00     0.198 A 
ATOM     69  F   UNL A   1      43.672  26.178  36.116  1.00  0.00    -0.203 F 
ATOM     70  F   UNL A   1      48.311  29.054  36.079  1.00  0.00    -0.200 F 
ATOM     71  C   UNL A   1      47.039  27.248  36.914  1.00  0.00     0.200 A 
ATOM     72  F   UNL A   1      45.733  25.451  37.713  1.00  0.00    -0.200 F 
ATOM     73  F   UNL A   1      48.059  26.873  37.697  1.00  0.00    -0.200 F 
ENDBRANCH  49  63
BRANCH  50  74
ATOM     74  C   UNL A   1      37.333  31.074  29.523  1.00  0.00     0.064 A 
ATOM     75  C   UNL A   1      37.291  32.404  29.081  1.00  0.00     0.173 A 
ATOM     76  C   UNL A   1      36.275  30.232  29.150  1.00  0.00     0.173 A 
ATOM     77  F   UNL A   1      38.264  33.258  29.435  1.00  0.00    -0.203 F 
ATOM     78  C   UNL A   1      36.230  32.876  28.309  1.00  0.00     0.198 A 
ATOM     79  C   UNL A   1      35.229  30.697  28.354  1.00  0.00     0.198 A 
ATOM     80  F   UNL A   1      36.259  28.953  29.554  1.00  0.00    -0.203 F 
ATOM     81  F   UNL A   1      36.194  34.163  27.940  1.00  0.00    -0.200 F 
ATOM     82  C   UNL A   1      35.204  32.021  27.940  1.00  0.00     0.200 A 
ATOM     83  F   UNL A   1      34.242  29.864  27.994  1.00  0.00    -0.200 F 
ATOM     84  F   UNL A   1      34.186  32.472  27.196  1.00  0.00    -0.200 F 
ENDBRANCH  50  74
BRANCH  62  85
ATOM     85  C   UNL A   1      39.125  32.221  36.183  1.00  0.00     0.064 A 
ATOM     86  C   UNL A   1      38.226  31.630  37.081  1.00  0.00     0.173 A 
ATOM     87  C   UNL A   1      39.531  33.542  36.434  1.00  0.00     0.173 A 
ATOM     88  F   UNL A   1      37.798  30.374  36.879  1.00  0.00    -0.203 F 
ATOM     89  C   UNL A   1      37.757  32.329  38.190  1.00  0.00     0.198 A 
ATOM     90  C   UNL A   1      39.085  34.227  37.560  1.00  0.00     0.198 A 
ATOM     91  F   UNL A   1      40.400  34.150  35.612  1.00  0.00    -0.203 F 
ATOM     92  F   UNL A   1      36.885  31.749  39.026  1.00  0.00    -0.200 F 
ATOM     93  C   UNL A   1      38.199  33.621  38.437  1.00  0.00     0.200 A 
ATOM     94  F   UNL A   1      39.530  35.467  37.809  1.00  0.00    -0.200 F 
ATOM     95  F   UNL A   1      37.773  34.280  39.524  1.00  0.00    -0.200 F 
ENDBRANCH  62  85
ENDBRANCH  36  37
ENDBRANCH  29  31
ENDBRANCH  28  29
ENDBRANCH  27  28
ENDBRANCH  26  27
ENDBRANCH  25  26
ENDBRANCH   1  25
TORSDOF 18
ENDMDL
MODEL 2
REMARK VINA RESULT:     -11.3      0.718      7.201
REMARK SMILES Cc1cc(C)c2c(c1)C=C(C(=O)OCCOCCOCCOC(=O)c1ccc(-c3c4nc(c(-c5c(F)c(F)c(F)c(F)c5F)c5ccc([nH]5)c(-c5c(F)c(F)c(F)c(F)c5F)c5nc(c(-c6c(F)c(F)c(F)c(F)c6F)c6ccc3[nH]6)C=C5)C=C4)cc1)[C@@H](C(F)(F)F)O2
REMARK SMILES IDX 18 1 17 2 16 3 15 4 14 5 13 6 11 7 12 8 10 9 1 10 2 11 3 12
REMARK SMILES IDX 8 13 4 14 7 15 5 16 6 17 9 18 93 19 88 20 89 21 90 22 91 23
REMARK SMILES IDX 92 24 19 25 20 26 21 27 22 28 23 29 24 30 25 31 26 32 87 33
REMARK SMILES IDX 27 34 86 35 28 36 29 37 30 38 80 39 31 40 85 41 79 42 81 43
REMARK SMILES IDX 32 44 84 45 78 46 77 47 33 49 65 50 45 51 64 52 46 53 49 54
REMARK SMILES IDX 63 55 82 56 47 57 48 58 62 60 83 61 50 62 34 63 35 64 43 65
REMARK SMILES IDX 36 66 37 67 41 68 44 69 38 70 39 71 42 72 40 73 66 74 67 75
REMARK SMILES IDX 75 76 68 77 69 78 73 79 76 80 70 81 71 82 74 83 72 84 51 85
REMARK SMILES IDX 52 86 60 87 53 88 54 89 58 90 61 91 55 92 56 93 59 94 57 95
REMARK H PARENT 81 48 49 59
REMARK Flexibility Score: inf
ROOT
ATOM      1  C   UNL A   1      42.035  19.920  26.205  1.00  0.00     0.188 C 
ENDROOT
BRANCH   1   2
ATOM      2  C   UNL A   1      40.576  20.275  26.564  1.00  0.00     0.188 C 
BRANCH   2   3
ATOM      3  O   UNL A   1      40.303  21.373  27.404  1.00  0.00    -0.376 OA
BRANCH   3   4
ATOM      4  C   UNL A   1      39.577  22.495  26.934  1.00  0.00     0.202 C 
BRANCH   4   5
ATOM      5  C   UNL A   1      38.759  22.516  25.634  1.00  0.00     0.261 C 
BRANCH   5   6
ATOM      6  O   UNL A   1      37.350  22.735  25.770  1.00  0.00    -0.460 OA
BRANCH   6   7
ATOM      7  C   UNL A   1      36.651  22.725  24.610  1.00  0.00     0.338 C 
ATOM      8  O   UNL A   1      37.047  22.339  23.522  1.00  0.00    -0.246 OA
BRANCH   7   9
ATOM      9  C   UNL A   1      35.250  23.107  24.873  1.00  0.00     0.087 C 
ATOM     10  C   UNL A   1      31.887  27.811  26.989  1.00  0.00     0.044 C 
ATOM     11  C   UNL A   1      32.144  26.438  26.439  1.00  0.00    -0.050 A 
ATOM     12  C   UNL A   1      31.141  25.463  26.485  1.00  0.00     0.010 A 
ATOM     13  C   UNL A   1      33.414  26.087  25.970  1.00  0.00     0.015 A 
ATOM     14  C   UNL A   1      31.385  24.156  26.035  1.00  0.00    -0.008 A 
ATOM     15  C   UNL A   1      33.677  24.779  25.542  1.00  0.00     0.018 A 
ATOM     16  C   UNL A   1      30.300  23.119  26.123  1.00  0.00     0.048 C 
ATOM     17  C   UNL A   1      32.657  23.825  25.546  1.00  0.00     0.130 A 
ATOM     18  C   UNL A   1      35.030  24.391  25.180  1.00  0.00     0.027 C 
ATOM     19  O   UNL A   1      32.830  22.546  25.095  1.00  0.00    -0.475 OA
ATOM     20  C   UNL A   1      34.166  22.068  24.787  1.00  0.00     0.316 C 
BRANCH  20  21
ATOM     21  C   UNL A   1      34.458  20.848  25.670  1.00  0.00     0.430 C 
ATOM     22  F   UNL A   1      33.314  20.256  26.088  1.00  0.00    -0.167 F 
ATOM     23  F   UNL A   1      35.162  19.904  25.003  1.00  0.00    -0.167 F 
ATOM     24  F   UNL A   1      35.171  21.179  26.771  1.00  0.00    -0.167 F 
ENDBRANCH  20  21
ENDBRANCH   7   9
ENDBRANCH   6   7
ENDBRANCH   5   6
ENDBRANCH   4   5
ENDBRANCH   3   4
ENDBRANCH   2   3
ENDBRANCH   1   2
BRANCH   1  25
ATOM     25  O   UNL A   1      42.745  20.700  25.271  1.00  0.00    -0.376 OA
BRANCH  25  26
ATOM     26  C   UNL A   1      43.031  22.058  25.567  1.00  0.00     0.202 C 
BRANCH  26  27
ATOM     27  C   UNL A   1      43.687  23.032  24.569  1.00  0.00     0.261 C 
BRANCH  27  28
ATOM     28  O   UNL A   1      43.218  24.386  24.591  1.00  0.00    -0.460 OA
BRANCH  28  29
ATOM     29  C   UNL A   1      44.080  25.296  25.122  1.00  0.00     0.338 C 
ATOM     30  O   UNL A   1      45.175  25.609  24.710  1.00  0.00    -0.246 OA
BRANCH  29  31
ATOM     31  C   UNL A   1      43.384  26.027  26.203  1.00  0.00     0.060 A 
ATOM     32  C   UNL A   1      43.739  27.361  26.448  1.00  0.00     0.016 A 
ATOM     33  C   UNL A   1      42.400  25.403  26.968  1.00  0.00     0.016 A 
ATOM     34  C   UNL A   1      43.100  28.080  27.456  1.00  0.00     0.010 A 
ATOM     35  C   UNL A   1      41.785  26.114  28.004  1.00  0.00     0.010 A 
ATOM     36  C   UNL A   1      42.146  27.449  28.265  1.00  0.00    -0.014 A 
BRANCH  36  37
ATOM     37  C   UNL A   1      41.690  28.128  29.503  1.00  0.00     0.031 A 
ATOM     38  C   UNL A   1      40.462  28.992  29.425  1.00  0.00     0.074 A 
ATOM     39  C   UNL A   1      42.308  27.937  30.682  1.00  0.00     0.049 A 
ATOM     40  N   UNL A   1      39.851  29.655  30.371  1.00  0.00    -0.248 NA
ATOM     41  C   UNL A   1      39.836  29.121  28.098  1.00  0.00     0.031 C 
ATOM     42  C   UNL A   1      43.479  27.090  30.896  1.00  0.00     0.029 A 
ATOM     43  N   UNL A   1      42.026  28.443  31.928  1.00  0.00    -0.354 N 
ATOM     44  C   UNL A   1      38.764  30.264  29.759  1.00  0.00     0.074 A 
ATOM     45  C   UNL A   1      38.824  29.936  28.353  1.00  0.00     0.031 C 
ATOM     46  C   UNL A   1      43.814  27.131  32.198  1.00  0.00     0.029 A 
ATOM     47  C   UNL A   1      42.896  28.025  32.905  1.00  0.00     0.049 A 
ATOM     48  H   UNL A   1      41.269  29.048  32.103  1.00  0.00     0.167 HD
ATOM     49  C   UNL A   1      37.787  31.009  30.325  1.00  0.00     0.037 A 
ATOM     50  C   UNL A   1      42.946  28.337  34.217  1.00  0.00     0.037 A 
ATOM     51  C   UNL A   1      37.727  31.341  31.722  1.00  0.00     0.049 A 
ATOM     52  C   UNL A   1      41.906  29.265  34.801  1.00  0.00     0.074 A 
ATOM     53  C   UNL A   1      36.770  32.086  32.386  1.00  0.00     0.029 A 
ATOM     54  N   UNL A   1      38.667  30.957  32.666  1.00  0.00    -0.354 N 
ATOM     55  N   UNL A   1      40.856  29.799  34.225  1.00  0.00    -0.248 NA
ATOM     56  C   UNL A   1      42.059  29.633  36.218  1.00  0.00     0.031 C 
ATOM     57  C   UNL A   1      37.160  32.200  33.723  1.00  0.00     0.029 A 
ATOM     58  C   UNL A   1      38.329  31.479  33.903  1.00  0.00     0.049 A 
ATOM     59  H   UNL A   1      39.456  30.397  32.483  1.00  0.00     0.167 HD
ATOM     60  C   UNL A   1      40.215  30.541  35.210  1.00  0.00     0.074 A 
ATOM     61  C   UNL A   1      40.981  30.377  36.426  1.00  0.00     0.031 C 
ATOM     62  C   UNL A   1      39.092  31.295  35.111  1.00  0.00     0.037 A 
BRANCH  49  63
ATOM     63  C   UNL A   1      36.693  31.516  29.434  1.00  0.00     0.064 A 
ATOM     64  C   UNL A   1      35.674  30.668  28.977  1.00  0.00     0.173 A 
ATOM     65  C   UNL A   1      36.622  32.875  29.092  1.00  0.00     0.173 A 
ATOM     66  F   UNL A   1      35.705  29.358  29.265  1.00  0.00    -0.203 F 
ATOM     67  C   UNL A   1      34.631  31.160  28.198  1.00  0.00     0.198 A 
ATOM     68  C   UNL A   1      35.561  33.368  28.339  1.00  0.00     0.198 A 
ATOM     69  F   UNL A   1      37.571  33.727  29.509  1.00  0.00    -0.203 F 
ATOM     70  F   UNL A   1      33.685  30.325  27.744  1.00  0.00    -0.200 F 
ATOM     71  C   UNL A   1      34.568  32.510  27.889  1.00  0.00     0.200 A 
ATOM     72  F   UNL A   1      35.495  34.676  28.054  1.00  0.00    -0.200 F 
ATOM     73  F   UNL A   1      33.552  32.985  27.158  1.00  0.00    -0.200 F 
ENDBRANCH  49  63
BRANCH  50  74
ATOM     74  C   UNL A   1      44.012  27.761  35.082  1.00  0.00     0.064 A 
ATOM     75  C   UNL A   1      45.221  28.441  35.285  1.00  0.00     0.173 A 
ATOM     76  C   UNL A   1      43.857  26.513  35.702  1.00  0.00     0.173 A 
ATOM     77  F   UNL A   1      45.430  29.625  34.689  1.00  0.00    -0.203 F 
ATOM     78  C   UNL A   1      46.236  27.892  36.066  1.00  0.00     0.198 A 
ATOM     79  C   UNL A   1      44.862  25.977  36.507  1.00  0.00     0.198 A 
ATOM     80  F   UNL A   1      42.725  25.813  35.533  1.00  0.00    -0.203 F 
ATOM     81  F   UNL A   1      47.398  28.544  36.204  1.00  0.00    -0.200 F 
ATOM     82  C   UNL A   1      46.053  26.664  36.682  1.00  0.00     0.200 A 
ATOM     83  F   UNL A   1      44.677  24.792  37.106  1.00  0.00    -0.200 F 
ATOM     84  F   UNL A   1      47.028  26.137  37.435  1.00  0.00    -0.200 F 
ENDBRANCH  50  74
BRANCH  62  85
ATOM     85  C   UNL A   1      38.598  32.002  36.341  1.00  0.00     0.064 A 
ATOM     86  C   UNL A   1      37.830  31.335  37.306  1.00  0.00     0.173 A 
ATOM     87  C   UNL A   1      39.003  33.317  36.619  1.00  0.00     0.173 A 
ATOM     88  F   UNL A   1      37.408  30.081  37.083  1.00  0.00    -0.203 F 
ATOM     89  C   UNL A   1      37.489  31.956  38.504  1.00  0.00     0.198 A 
ATOM     90  C   UNL A   1      38.687  33.924  37.831  1.00  0.00     0.198 A 
ATOM     91  F   UNL A   1      39.750  33.996  35.734  1.00  0.00    -0.203 F 
ATOM     92  F   UNL A   1      36.741  31.305  39.405  1.00  0.00    -0.200 F 
ATOM     93  C   UNL A   1      37.930  33.244  38.772  1.00  0.00     0.200 A 
ATOM     94  F   UNL A   1      39.133  35.160  38.097  1.00  0.00    -0.200 F 
ATOM     95  F   UNL A   1      37.629  33.827  39.940  1.00  0.00    -0.200 F 
ENDBRANCH  62  85
ENDBRANCH  36  37
ENDBRANCH  29  31
ENDBRANCH  28  29
ENDBRANCH  27  28
ENDBRANCH  26  27
ENDBRANCH  25  26
ENDBRANCH   1  25
TORSDOF 18
ENDMDL
MODEL 3
REMARK VINA RESULT:     -11.1      3.282      8.444
REMARK SMILES Cc1cc(C)c2c(c1)C=C(C(=O)OCCOCCOCCOC(=O)c1ccc(-c3c4nc(c(-c5c(F)c(F)c(F)c(F)c5F)c5ccc([nH]5)c(-c5c(F)c(F)c(F)c(F)c5F)c5nc(c(-c6c(F)c(F)c(F)c(F)c6F)c6ccc3[nH]6)C=C5)C=C4)cc1)[C@@H](C(F)(F)F)O2
REMARK SMILES IDX 18 1 17 2 16 3 15 4 14 5 13 6 11 7 12 8 10 9 1 10 2 11 3 12
REMARK SMILES IDX 8 13 4 14 7 15 5 16 6 17 9 18 93 19 88 20 89 21 90 22 91 23
REMARK SMILES IDX 92 24 19 25 20 26 21 27 22 28 23 29 24 30 25 31 26 32 87 33
REMARK SMILES IDX 27 34 86 35 28 36 29 37 30 38 80 39 31 40 85 41 79 42 81 43
REMARK SMILES IDX 32 44 84 45 78 46 77 47 33 49 65 50 45 51 64 52 46 53 49 54
REMARK SMILES IDX 63 55 82 56 47 57 48 58 62 60 83 61 50 62 34 63 35 64 43 65
REMARK SMILES IDX 36 66 37 67 41 68 44 69 38 70 39 71 42 72 40 73 66 74 67 75
REMARK SMILES IDX 75 76 68 77 69 78 73 79 76 80 70 81 71 82 74 83 72 84 51 85
REMARK SMILES IDX 52 86 60 87 53 88 54 89 58 90 61 91 55 92 56 93 59 94 57 95
REMARK H PARENT 81 48 49 59
REMARK Flexibility Score: inf
ROOT
ATOM      1  C   UNL A   1      34.339  29.901  26.941  1.00  0.00     0.188 C 
ENDROOT
BRANCH   1   2
ATOM      2  C   UNL A   1      33.859  28.436  27.017  1.00  0.00     0.188 C 
BRANCH   2   3
ATOM      3  O   UNL A   1      32.624  28.128  27.621  1.00  0.00    -0.376 OA
BRANCH   3   4
ATOM      4  C   UNL A   1      31.433  28.042  26.858  1.00  0.00     0.202 C 
BRANCH   4   5
ATOM      5  C   UNL A   1      31.391  27.800  25.342  1.00  0.00     0.261 C 
BRANCH   5   6
ATOM      6  O   UNL A   1      31.599  26.453  24.904  1.00  0.00    -0.460 OA
BRANCH   6   7
ATOM      7  C   UNL A   1      32.753  26.238  24.228  1.00  0.00     0.338 C 
ATOM      8  O   UNL A   1      33.359  27.046  23.544  1.00  0.00    -0.246 OA
BRANCH   7   9
ATOM      9  C   UNL A   1      33.284  24.903  24.566  1.00  0.00     0.087 C 
ATOM     10  C   UNL A   1      38.595  22.022  25.751  1.00  0.00     0.044 C 
ATOM     11  C   UNL A   1      37.113  22.154  25.552  1.00  0.00    -0.050 A 
ATOM     12  C   UNL A   1      36.323  21.012  25.374  1.00  0.00     0.010 A 
ATOM     13  C   UNL A   1      36.520  23.416  25.441  1.00  0.00     0.015 A 
ATOM     14  C   UNL A   1      34.946  21.120  25.122  1.00  0.00    -0.008 A 
ATOM     15  C   UNL A   1      35.153  23.537  25.165  1.00  0.00     0.018 A 
ATOM     16  C   UNL A   1      34.126  19.879  24.903  1.00  0.00     0.048 C 
ATOM     17  C   UNL A   1      34.362  22.392  25.036  1.00  0.00     0.130 A 
ATOM     18  C   UNL A   1      34.573  24.847  24.923  1.00  0.00     0.027 C 
ATOM     19  O   UNL A   1      33.013  22.436  24.817  1.00  0.00    -0.475 OA
ATOM     20  C   UNL A   1      32.381  23.703  24.495  1.00  0.00     0.316 C 
BRANCH  20  21
ATOM     21  C   UNL A   1      31.699  23.567  23.127  1.00  0.00     0.430 C 
ATOM     22  F   UNL A   1      31.521  22.267  22.791  1.00  0.00    -0.167 F 
ATOM     23  F   UNL A   1      30.473  24.141  23.120  1.00  0.00    -0.167 F 
ATOM     24  F   UNL A   1      32.421  24.148  22.143  1.00  0.00    -0.167 F 
ENDBRANCH  20  21
ENDBRANCH   7   9
ENDBRANCH   6   7
ENDBRANCH   5   6
ENDBRANCH   4   5
ENDBRANCH   3   4
ENDBRANCH   2   3
ENDBRANCH   1   2
BRANCH   1  25
ATOM     25  O   UNL A   1      33.419  30.936  26.677  1.00  0.00    -0.376 OA
BRANCH  25  26
ATOM     26  C   UNL A   1      33.244  31.974  27.628  1.00  0.00     0.202 C 
BRANCH  26  27
ATOM     27  C   UNL A   1      32.787  33.400  27.263  1.00  0.00     0.261 C 
BRANCH  27  28
ATOM     28  O   UNL A   1      32.236  34.189  28.324  1.00  0.00    -0.460 OA
BRANCH  28  29
ATOM     29  C   UNL A   1      33.022  35.209  28.765  1.00  0.00     0.338 C 
ATOM     30  O   UNL A   1      32.776  36.395  28.749  1.00  0.00    -0.246 OA
BRANCH  29  31
ATOM     31  C   UNL A   1      34.181  34.634  29.480  1.00  0.00     0.060 A 
ATOM     32  C   UNL A   1      35.446  34.712  28.880  1.00  0.00     0.016 A 
ATOM     33  C   UNL A   1      34.022  34.022  30.722  1.00  0.00     0.016 A 
ATOM     34  C   UNL A   1      36.560  34.184  29.528  1.00  0.00     0.010 A 
ATOM     35  C   UNL A   1      35.135  33.460  31.356  1.00  0.00     0.010 A 
ATOM     36  C   UNL A   1      36.406  33.521  30.752  1.00  0.00    -0.014 A 
BRANCH  36  37
ATOM     37  C   UNL A   1      37.535  32.721  31.285  1.00  0.00     0.031 A 
ATOM     38  C   UNL A   1      38.061  33.062  32.652  1.00  0.00     0.074 A 
ATOM     39  C   UNL A   1      38.044  31.677  30.607  1.00  0.00     0.049 A 
ATOM     40  N   UNL A   1      39.012  32.488  33.343  1.00  0.00    -0.248 NA
ATOM     41  C   UNL A   1      37.425  34.202  33.333  1.00  0.00     0.031 C 
ATOM     42  C   UNL A   1      37.592  31.220  29.295  1.00  0.00     0.029 A 
ATOM     43  N   UNL A   1      39.055  30.807  30.937  1.00  0.00    -0.354 N 
ATOM     44  C   UNL A   1      39.074  33.186  34.542  1.00  0.00     0.074 A 
ATOM     45  C   UNL A   1      38.105  34.256  34.468  1.00  0.00     0.031 C 
ATOM     46  C   UNL A   1      38.320  30.149  28.932  1.00  0.00     0.029 A 
ATOM     47  C   UNL A   1      39.306  29.859  29.975  1.00  0.00     0.049 A 
ATOM     48  H   UNL A   1      39.552  30.858  31.785  1.00  0.00     0.167 HD
ATOM     49  C   UNL A   1      39.853  32.940  35.621  1.00  0.00     0.037 A 
ATOM     50  C   UNL A   1      40.230  28.876  29.942  1.00  0.00     0.037 A 
ATOM     51  C   UNL A   1      40.821  31.880  35.696  1.00  0.00     0.049 A 
ATOM     52  C   UNL A   1      41.165  28.695  31.114  1.00  0.00     0.074 A 
ATOM     53  C   UNL A   1      41.652  31.551  36.751  1.00  0.00     0.029 A 
ATOM     54  N   UNL A   1      41.094  30.986  34.673  1.00  0.00    -0.354 N 
ATOM     55  N   UNL A   1      41.188  29.330  32.261  1.00  0.00    -0.248 NA
ATOM     56  C   UNL A   1      42.205  27.661  30.986  1.00  0.00     0.031 C 
ATOM     57  C   UNL A   1      42.467  30.491  36.347  1.00  0.00     0.029 A 
ATOM     58  C   UNL A   1      42.106  30.124  35.061  1.00  0.00     0.049 A 
ATOM     59  H   UNL A   1      40.636  30.966  33.801  1.00  0.00     0.167 HD
ATOM     60  C   UNL A   1      42.220  28.759  32.996  1.00  0.00     0.074 A 
ATOM     61  C   UNL A   1      42.791  27.713  32.175  1.00  0.00     0.031 C 
ATOM     62  C   UNL A   1      42.656  29.076  34.240  1.00  0.00     0.037 A 
BRANCH  49  63
ATOM     63  C   UNL A   1      39.689  33.830  36.816  1.00  0.00     0.064 A 
ATOM     64  C   UNL A   1      40.318  35.082  36.883  1.00  0.00     0.173 A 
ATOM     65  C   UNL A   1      38.841  33.462  37.870  1.00  0.00     0.173 A 
ATOM     66  F   UNL A   1      41.150  35.474  35.905  1.00  0.00    -0.203 F 
ATOM     67  C   UNL A   1      40.114  35.927  37.969  1.00  0.00     0.198 A 
ATOM     68  C   UNL A   1      38.616  34.323  38.941  1.00  0.00     0.198 A 
ATOM     69  F   UNL A   1      38.213  32.276  37.850  1.00  0.00    -0.203 F 
ATOM     70  F   UNL A   1      40.752  37.105  38.029  1.00  0.00    -0.200 F 
ATOM     71  C   UNL A   1      39.255  35.552  38.991  1.00  0.00     0.200 A 
ATOM     72  F   UNL A   1      37.774  33.965  39.919  1.00  0.00    -0.200 F 
ATOM     73  F   UNL A   1      39.043  36.376  40.026  1.00  0.00    -0.200 F 
ENDBRANCH  49  63
BRANCH  50  74
ATOM     74  C   UNL A   1      40.317  27.973  28.762  1.00  0.00     0.064 A 
ATOM     75  C   UNL A   1      41.059  28.337  27.630  1.00  0.00     0.173 A 
ATOM     76  C   UNL A   1      39.646  26.742  28.731  1.00  0.00     0.173 A 
ATOM     77  F   UNL A   1      41.695  29.517  27.598  1.00  0.00    -0.203 F 
ATOM     78  C   UNL A   1      41.117  27.510  26.508  1.00  0.00     0.198 A 
ATOM     79  C   UNL A   1      39.728  25.903  27.620  1.00  0.00     0.198 A 
ATOM     80  F   UNL A   1      38.912  26.348  29.783  1.00  0.00    -0.203 F 
ATOM     81  F   UNL A   1      41.796  27.905  25.423  1.00  0.00    -0.200 F 
ATOM     82  C   UNL A   1      40.458  26.291  26.507  1.00  0.00     0.200 A 
ATOM     83  F   UNL A   1      39.094  24.721  27.627  1.00  0.00    -0.200 F 
ATOM     84  F   UNL A   1      40.517  25.495  25.432  1.00  0.00    -0.200 F 
ENDBRANCH  50  74
BRANCH  62  85
ATOM     85  C   UNL A   1      43.801  28.292  34.816  1.00  0.00     0.064 A 
ATOM     86  C   UNL A   1      45.122  28.749  34.714  1.00  0.00     0.173 A 
ATOM     87  C   UNL A   1      43.561  27.144  35.588  1.00  0.00     0.173 A 
ATOM     88  F   UNL A   1      45.405  29.835  33.978  1.00  0.00    -0.203 F 
ATOM     89  C   UNL A   1      46.160  28.088  35.364  1.00  0.00     0.198 A 
ATOM     90  C   UNL A   1      44.597  26.504  36.262  1.00  0.00     0.198 A 
ATOM     91  F   UNL A   1      42.312  26.672  35.729  1.00  0.00    -0.203 F 
ATOM     92  F   UNL A   1      47.418  28.534  35.239  1.00  0.00    -0.200 F 
ATOM     93  C   UNL A   1      45.895  26.976  36.150  1.00  0.00     0.200 A 
ATOM     94  F   UNL A   1      44.335  25.442  37.038  1.00  0.00    -0.200 F 
ATOM     95  F   UNL A   1      46.892  26.362  36.802  1.00  0.00    -0.200 F 
ENDBRANCH  62  85
ENDBRANCH  36  37
ENDBRANCH  29  31
ENDBRANCH  28  29
ENDBRANCH  27  28
ENDBRANCH  26  27
ENDBRANCH  25  26
ENDBRANCH   1  25
TORSDOF 18
ENDMDL
