MODEL 1
REMARK VINA RESULT:     -10.2      0.000      0.000
REMARK SMILES O=C(Cc1ccc(=O)n(C(F)F)c1)OCCOCCOCCOC(=O)c1ccc(-c2c3nc(c(-c4c(F)c(F)c(F)c(F)c4F)c4ccc([nH]4)c(-c4c(F)c(F)c(F)c(F)c4F)c4nc(c(-c5c(F)c(F)c(F)c(F)c5F)c5ccc2[nH]5)C=C4)C=C3)cc1
REMARK SMILES IDX 18 1 17 2 16 3 15 4 14 5 2 6 1 7 3 8 4 9 5 10 13 11 6 12
REMARK SMILES IDX 9 13 7 14 8 15 10 16 11 17 12 18 19 19 20 20 21 21 22 22
REMARK SMILES IDX 23 23 24 24 25 25 26 26 27 27 88 28 28 29 87 30 29 31 30 32
REMARK SMILES IDX 31 33 81 34 32 35 86 36 80 37 82 38 33 39 85 40 79 41 78 42
REMARK SMILES IDX 34 44 66 45 46 46 65 47 47 48 50 49 64 50 83 51 48 52 49 53
REMARK SMILES IDX 63 55 84 56 51 57 35 58 36 59 44 60 37 61 38 62 42 63 45 64
REMARK SMILES IDX 39 65 40 66 43 67 41 68 67 69 68 70 76 71 69 72 70 73 74 74
REMARK SMILES IDX 77 75 71 76 72 77 75 78 73 79 52 80 53 81 61 82 54 83 55 84
REMARK SMILES IDX 59 85 62 86 56 87 57 88 60 89 58 90
REMARK H PARENT 82 43 50 54
REMARK Flexibility Score: inf
ROOT
ATOM      1  C   UNL A   1      33.053  28.296  26.313  1.00  0.00     0.188 C 
ENDROOT
BRANCH   1   2
ATOM      2  O   UNL A   1      32.852  26.910  26.481  1.00  0.00    -0.376 OA
BRANCH   2   3
ATOM      3  C   UNL A   1      33.681  26.028  25.754  1.00  0.00     0.202 C 
BRANCH   3   4
ATOM      4  C   UNL A   1      33.124  24.614  25.625  1.00  0.00     0.261 C 
BRANCH   4   5
ATOM      5  O   UNL A   1      32.359  24.300  24.436  1.00  0.00    -0.463 OA
BRANCH   5   6
ATOM      6  C   UNL A   1      31.042  24.403  24.175  1.00  0.00     0.310 C 
ATOM      7  O   UNL A   1      30.516  23.589  23.415  1.00  0.00    -0.252 OA
BRANCH   6   8
ATOM      8  C   UNL A   1      30.227  25.574  24.695  1.00  0.00     0.159 C 
BRANCH   8   9
ATOM      9  C   UNL A   1      30.009  26.751  23.800  1.00  0.00    -0.020 A 
ATOM     10  C   UNL A   1      31.125  27.321  23.083  1.00  0.00     0.011 A 
ATOM     11  C   UNL A   1      28.799  27.325  23.693  1.00  0.00     0.099 A 
ATOM     12  C   UNL A   1      30.958  28.412  22.327  1.00  0.00     0.072 A 
ATOM     13  N   UNL A   1      28.602  28.464  22.934  1.00  0.00    -0.258 N 
ATOM     14  C   UNL A   1      29.635  29.088  22.251  1.00  0.00     0.254 A 
ATOM     15  O   UNL A   1      29.551  30.130  21.611  1.00  0.00    -0.269 OA
BRANCH  13  16
ATOM     16  C   UNL A   1      27.338  29.157  22.997  1.00  0.00     0.451 C 
ATOM     17  F   UNL A   1      26.402  28.348  23.550  1.00  0.00    -0.185 F 
ATOM     18  F   UNL A   1      27.405  30.295  23.723  1.00  0.00    -0.185 F 
ENDBRANCH  13  16
ENDBRANCH   8   9
ENDBRANCH   6   8
ENDBRANCH   5   6
ENDBRANCH   4   5
ENDBRANCH   3   4
ENDBRANCH   2   3
ENDBRANCH   1   2
BRANCH   1  19
ATOM     19  C   UNL A   1      31.762  29.126  26.255  1.00  0.00     0.188 C 
BRANCH  19  20
ATOM     20  O   UNL A   1      31.671  30.211  25.347  1.00  0.00    -0.376 OA
BRANCH  20  21
ATOM     21  C   UNL A   1      30.893  31.347  25.697  1.00  0.00     0.202 C 
BRANCH  21  22
ATOM     22  C   UNL A   1      31.534  32.442  26.566  1.00  0.00     0.261 C 
BRANCH  22  23
ATOM     23  O   UNL A   1      32.718  32.055  27.296  1.00  0.00    -0.460 OA
BRANCH  23  24
ATOM     24  C   UNL A   1      33.560  33.058  27.666  1.00  0.00     0.338 C 
ATOM     25  O   UNL A   1      33.329  34.249  27.675  1.00  0.00    -0.246 OA
BRANCH  24  26
ATOM     26  C   UNL A   1      34.808  32.475  28.219  1.00  0.00     0.060 A 
ATOM     27  C   UNL A   1      35.971  33.238  28.300  1.00  0.00     0.016 A 
ATOM     28  C   UNL A   1      34.800  31.152  28.689  1.00  0.00     0.016 A 
ATOM     29  C   UNL A   1      37.128  32.676  28.856  1.00  0.00     0.010 A 
ATOM     30  C   UNL A   1      35.965  30.585  29.224  1.00  0.00     0.010 A 
ATOM     31  C   UNL A   1      37.137  31.349  29.326  1.00  0.00    -0.014 A 
BRANCH  31  32
ATOM     32  C   UNL A   1      38.328  30.831  30.050  1.00  0.00     0.031 A 
ATOM     33  C   UNL A   1      38.642  31.223  31.464  1.00  0.00     0.074 A 
ATOM     34  C   UNL A   1      39.131  29.956  29.416  1.00  0.00     0.049 A 
ATOM     35  N   UNL A   1      39.560  30.746  32.268  1.00  0.00    -0.248 NA
ATOM     36  C   UNL A   1      37.822  32.290  32.050  1.00  0.00     0.031 C 
ATOM     37  C   UNL A   1      38.949  29.511  28.036  1.00  0.00     0.029 A 
ATOM     38  N   UNL A   1      40.239  29.271  29.849  1.00  0.00    -0.354 N 
ATOM     39  C   UNL A   1      39.408  31.423  33.470  1.00  0.00     0.074 A 
ATOM     40  C   UNL A   1      38.349  32.395  33.264  1.00  0.00     0.031 C 
ATOM     41  C   UNL A   1      39.881  28.592  27.748  1.00  0.00     0.029 A 
ATOM     42  C   UNL A   1      40.742  28.401  28.914  1.00  0.00     0.049 A 
ATOM     43  H   UNL A   1      40.633  29.390  30.744  1.00  0.00     0.167 HD
ATOM     44  C   UNL A   1      40.070  31.235  34.639  1.00  0.00     0.037 A 
ATOM     45  C   UNL A   1      41.770  27.535  28.986  1.00  0.00     0.037 A 
ATOM     46  C   UNL A   1      41.158  30.303  34.826  1.00  0.00     0.049 A 
ATOM     47  C   UNL A   1      42.544  27.403  30.267  1.00  0.00     0.074 A 
ATOM     48  C   UNL A   1      41.884  30.040  35.976  1.00  0.00     0.029 A 
ATOM     49  N   UNL A   1      41.695  29.495  33.831  1.00  0.00    -0.354 N 
ATOM     50  N   UNL A   1      42.347  27.995  31.418  1.00  0.00    -0.248 NA
ATOM     51  C   UNL A   1      43.682  26.473  30.256  1.00  0.00     0.031 C 
ATOM     52  C   UNL A   1      42.894  29.123  35.664  1.00  0.00     0.029 A 
ATOM     53  C   UNL A   1      42.761  28.760  34.335  1.00  0.00     0.049 A 
ATOM     54  H   UNL A   1      41.368  29.450  32.904  1.00  0.00     0.167 HD
ATOM     55  C   UNL A   1      43.320  27.499  32.276  1.00  0.00     0.074 A 
ATOM     56  C   UNL A   1      44.093  26.538  31.516  1.00  0.00     0.031 C 
ATOM     57  C   UNL A   1      43.546  27.815  33.576  1.00  0.00     0.037 A 
BRANCH  44  58
ATOM     58  C   UNL A   1      39.628  32.052  35.824  1.00  0.00     0.064 A 
ATOM     59  C   UNL A   1      38.578  31.623  36.652  1.00  0.00     0.173 A 
ATOM     60  C   UNL A   1      40.283  33.242  36.171  1.00  0.00     0.173 A 
ATOM     61  F   UNL A   1      37.903  30.499  36.362  1.00  0.00    -0.203 F 
ATOM     62  C   UNL A   1      38.184  32.367  37.763  1.00  0.00     0.198 A 
ATOM     63  C   UNL A   1      39.905  33.971  37.299  1.00  0.00     0.198 A 
ATOM     64  F   UNL A   1      41.302  33.696  35.425  1.00  0.00    -0.203 F 
ATOM     65  F   UNL A   1      37.149  31.951  38.506  1.00  0.00    -0.200 F 
ATOM     66  C   UNL A   1      38.851  33.537  38.088  1.00  0.00     0.200 A 
ATOM     67  F   UNL A   1      40.564  35.093  37.620  1.00  0.00    -0.200 F 
ATOM     68  F   UNL A   1      38.477  34.251  39.159  1.00  0.00    -0.200 F 
ENDBRANCH  44  58
BRANCH  45  69
ATOM     69  C   UNL A   1      42.071  26.675  27.812  1.00  0.00     0.064 A 
ATOM     70  C   UNL A   1      43.059  27.048  26.889  1.00  0.00     0.173 A 
ATOM     71  C   UNL A   1      41.430  25.443  27.626  1.00  0.00     0.173 A 
ATOM     72  F   UNL A   1      43.683  28.228  27.017  1.00  0.00    -0.203 F 
ATOM     73  C   UNL A   1      43.399  26.214  25.827  1.00  0.00     0.198 A 
ATOM     74  C   UNL A   1      41.791  24.598  26.579  1.00  0.00     0.198 A 
ATOM     75  F   UNL A   1      40.482  25.042  28.485  1.00  0.00    -0.203 F 
ATOM     76  F   UNL A   1      44.334  26.601  24.948  1.00  0.00    -0.200 F 
ATOM     77  C   UNL A   1      42.774  24.984  25.680  1.00  0.00     0.200 A 
ATOM     78  F   UNL A   1      41.199  23.402  26.452  1.00  0.00    -0.200 F 
ATOM     79  F   UNL A   1      43.123  24.170  24.674  1.00  0.00    -0.200 F 
ENDBRANCH  45  69
BRANCH  57  80
ATOM     80  C   UNL A   1      44.680  27.111  34.273  1.00  0.00     0.064 A 
ATOM     81  C   UNL A   1      45.969  27.665  34.328  1.00  0.00     0.173 A 
ATOM     82  C   UNL A   1      44.471  25.885  34.925  1.00  0.00     0.173 A 
ATOM     83  F   UNL A   1      46.231  28.827  33.712  1.00  0.00    -0.203 F 
ATOM     84  C   UNL A   1      47.008  27.006  34.984  1.00  0.00     0.198 A 
ATOM     85  C   UNL A   1      45.502  25.247  35.609  1.00  0.00     0.198 A 
ATOM     86  F   UNL A   1      43.259  25.309  34.909  1.00  0.00    -0.203 F 
ATOM     87  F   UNL A   1      48.241  27.531  34.977  1.00  0.00    -0.200 F 
ATOM     88  C   UNL A   1      46.772  25.803  35.631  1.00  0.00     0.200 A 
ATOM     89  F   UNL A   1      45.268  24.091  36.247  1.00  0.00    -0.200 F 
ATOM     90  F   UNL A   1      47.770  25.176  36.269  1.00  0.00    -0.200 F 
ENDBRANCH  57  80
ENDBRANCH  31  32
ENDBRANCH  24  26
ENDBRANCH  23  24
ENDBRANCH  22  23
ENDBRANCH  21  22
ENDBRANCH  20  21
ENDBRANCH  19  20
ENDBRANCH   1  19
TORSDOF 19
ENDMDL
MODEL 2
REMARK VINA RESULT:     -10.1      5.695     11.054
REMARK SMILES O=C(Cc1ccc(=O)n(C(F)F)c1)OCCOCCOCCOC(=O)c1ccc(-c2c3nc(c(-c4c(F)c(F)c(F)c(F)c4F)c4ccc([nH]4)c(-c4c(F)c(F)c(F)c(F)c4F)c4nc(c(-c5c(F)c(F)c(F)c(F)c5F)c5ccc2[nH]5)C=C4)C=C3)cc1
REMARK SMILES IDX 18 1 17 2 16 3 15 4 14 5 2 6 1 7 3 8 4 9 5 10 13 11 6 12
REMARK SMILES IDX 9 13 7 14 8 15 10 16 11 17 12 18 19 19 20 20 21 21 22 22
REMARK SMILES IDX 23 23 24 24 25 25 26 26 27 27 88 28 28 29 87 30 29 31 30 32
REMARK SMILES IDX 31 33 81 34 32 35 86 36 80 37 82 38 33 39 85 40 79 41 78 42
REMARK SMILES IDX 34 44 66 45 46 46 65 47 47 48 50 49 64 50 83 51 48 52 49 53
REMARK SMILES IDX 63 55 84 56 51 57 35 58 36 59 44 60 37 61 38 62 42 63 45 64
REMARK SMILES IDX 39 65 40 66 43 67 41 68 67 69 68 70 76 71 69 72 70 73 74 74
REMARK SMILES IDX 77 75 71 76 72 77 75 78 73 79 52 80 53 81 61 82 54 83 55 84
REMARK SMILES IDX 59 85 62 86 56 87 57 88 60 89 58 90
REMARK H PARENT 82 43 50 54
REMARK Flexibility Score: inf
ROOT
ATOM      1  C   UNL A   1      36.252  23.404  26.296  1.00  0.00     0.188 C 
ENDROOT
BRANCH   1   2
ATOM      2  O   UNL A   1      34.862  23.619  26.184  1.00  0.00    -0.376 OA
BRANCH   2   3
ATOM      3  C   UNL A   1      34.026  23.073  27.182  1.00  0.00     0.202 C 
BRANCH   3   4
ATOM      4  C   UNL A   1      33.521  21.668  26.870  1.00  0.00     0.261 C 
BRANCH   4   5
ATOM      5  O   UNL A   1      32.570  21.522  25.788  1.00  0.00    -0.463 OA
BRANCH   5   6
ATOM      6  C   UNL A   1      32.684  20.941  24.579  1.00  0.00     0.310 C 
ATOM      7  O   UNL A   1      33.107  21.604  23.631  1.00  0.00    -0.252 OA
BRANCH   6   8
ATOM      8  C   UNL A   1      32.182  19.528  24.335  1.00  0.00     0.159 C 
BRANCH   8   9
ATOM      9  C   UNL A   1      33.076  18.380  24.675  1.00  0.00    -0.020 A 
ATOM     10  C   UNL A   1      34.481  18.445  24.350  1.00  0.00     0.011 A 
ATOM     11  C   UNL A   1      32.583  17.259  25.231  1.00  0.00     0.099 A 
ATOM     12  C   UNL A   1      35.282  17.402  24.591  1.00  0.00     0.072 A 
ATOM     13  N   UNL A   1      33.385  16.159  25.473  1.00  0.00    -0.258 N 
ATOM     14  C   UNL A   1      34.733  16.137  25.150  1.00  0.00     0.254 A 
ATOM     15  O   UNL A   1      35.490  15.181  25.278  1.00  0.00    -0.269 OA
BRANCH  13  16
ATOM     16  C   UNL A   1      32.785  14.915  25.892  1.00  0.00     0.451 C 
ATOM     17  F   UNL A   1      31.895  15.151  26.887  1.00  0.00    -0.185 F 
ATOM     18  F   UNL A   1      32.144  14.283  24.884  1.00  0.00    -0.185 F 
ENDBRANCH  13  16
ENDBRANCH   8   9
ENDBRANCH   6   8
ENDBRANCH   5   6
ENDBRANCH   4   5
ENDBRANCH   3   4
ENDBRANCH   2   3
ENDBRANCH   1   2
BRANCH   1  19
ATOM     19  C   UNL A   1      36.835  22.442  25.251  1.00  0.00     0.188 C 
BRANCH  19  20
ATOM     20  O   UNL A   1      36.918  21.058  25.546  1.00  0.00    -0.376 OA
BRANCH  20  21
ATOM     21  C   UNL A   1      37.716  20.218  24.723  1.00  0.00     0.202 C 
BRANCH  21  22
ATOM     22  C   UNL A   1      38.746  19.293  25.392  1.00  0.00     0.261 C 
BRANCH  22  23
ATOM     23  O   UNL A   1      39.452  19.848  26.523  1.00  0.00    -0.460 OA
BRANCH  23  24
ATOM     24  C   UNL A   1      40.792  20.034  26.372  1.00  0.00     0.338 C 
ATOM     25  O   UNL A   1      41.594  19.262  25.889  1.00  0.00    -0.246 OA
BRANCH  24  26
ATOM     26  C   UNL A   1      41.143  21.423  26.759  1.00  0.00     0.060 A 
ATOM     27  C   UNL A   1      41.827  21.676  27.947  1.00  0.00     0.016 A 
ATOM     28  C   UNL A   1      40.804  22.483  25.902  1.00  0.00     0.016 A 
ATOM     29  C   UNL A   1      42.176  22.992  28.275  1.00  0.00     0.010 A 
ATOM     30  C   UNL A   1      41.135  23.801  26.244  1.00  0.00     0.010 A 
ATOM     31  C   UNL A   1      41.838  24.066  27.429  1.00  0.00    -0.014 A 
BRANCH  31  32
ATOM     32  C   UNL A   1      42.355  25.429  27.723  1.00  0.00     0.031 A 
ATOM     33  C   UNL A   1      43.697  25.900  27.247  1.00  0.00     0.074 A 
ATOM     34  C   UNL A   1      41.570  26.273  28.419  1.00  0.00     0.049 A 
ATOM     35  N   UNL A   1      44.219  27.100  27.305  1.00  0.00    -0.248 NA
ATOM     36  C   UNL A   1      44.568  24.892  26.628  1.00  0.00     0.031 C 
ATOM     37  C   UNL A   1      40.255  25.933  28.956  1.00  0.00     0.029 A 
ATOM     38  N   UNL A   1      41.749  27.588  28.770  1.00  0.00    -0.354 N 
ATOM     39  C   UNL A   1      45.463  27.008  26.696  1.00  0.00     0.074 A 
ATOM     40  C   UNL A   1      45.644  25.613  26.337  1.00  0.00     0.031 C 
ATOM     41  C   UNL A   1      39.722  27.022  29.529  1.00  0.00     0.029 A 
ATOM     42  C   UNL A   1      40.669  28.131  29.422  1.00  0.00     0.049 A 
ATOM     43  H   UNL A   1      42.571  28.094  28.573  1.00  0.00     0.167 HD
ATOM     44  C   UNL A   1      46.357  27.997  26.440  1.00  0.00     0.037 A 
ATOM     45  C   UNL A   1      40.453  29.381  29.870  1.00  0.00     0.037 A 
ATOM     46  C   UNL A   1      46.196  29.374  26.845  1.00  0.00     0.049 A 
ATOM     47  C   UNL A   1      41.494  30.442  29.649  1.00  0.00     0.074 A 
ATOM     48  C   UNL A   1      47.047  30.445  26.623  1.00  0.00     0.029 A 
ATOM     49  N   UNL A   1      45.124  29.871  27.575  1.00  0.00    -0.354 N 
ATOM     50  N   UNL A   1      42.635  30.362  29.010  1.00  0.00    -0.248 NA
ATOM     51  C   UNL A   1      41.210  31.771  30.207  1.00  0.00     0.031 C 
ATOM     52  C   UNL A   1      46.521  31.570  27.268  1.00  0.00     0.029 A 
ATOM     53  C   UNL A   1      45.309  31.223  27.839  1.00  0.00     0.049 A 
ATOM     54  H   UNL A   1      44.346  29.341  27.865  1.00  0.00     0.167 HD
ATOM     55  C   UNL A   1      43.198  31.630  29.071  1.00  0.00     0.074 A 
ATOM     56  C   UNL A   1      42.259  32.467  29.791  1.00  0.00     0.031 C 
ATOM     57  C   UNL A   1      44.385  32.056  28.572  1.00  0.00     0.037 A 
BRANCH  44  58
ATOM     58  C   UNL A   1      47.596  27.626  25.670  1.00  0.00     0.064 A 
ATOM     59  C   UNL A   1      48.763  27.205  26.328  1.00  0.00     0.173 A 
ATOM     60  C   UNL A   1      47.611  27.637  24.267  1.00  0.00     0.173 A 
ATOM     61  F   UNL A   1      48.814  27.187  27.669  1.00  0.00    -0.203 F 
ATOM     62  C   UNL A   1      49.902  26.838  25.614  1.00  0.00     0.198 A 
ATOM     63  C   UNL A   1      48.744  27.245  23.555  1.00  0.00     0.198 A 
ATOM     64  F   UNL A   1      46.522  28.018  23.582  1.00  0.00    -0.203 F 
ATOM     65  F   UNL A   1      51.013  26.484  26.276  1.00  0.00    -0.200 F 
ATOM     66  C   UNL A   1      49.891  26.854  24.229  1.00  0.00     0.200 A 
ATOM     67  F   UNL A   1      48.723  27.244  22.214  1.00  0.00    -0.200 F 
ATOM     68  F   UNL A   1      50.984  26.497  23.542  1.00  0.00    -0.200 F 
ENDBRANCH  44  58
BRANCH  45  69
ATOM     69  C   UNL A   1      39.153  29.701  30.515  1.00  0.00     0.064 A 
ATOM     70  C   UNL A   1      39.015  29.644  31.909  1.00  0.00     0.173 A 
ATOM     71  C   UNL A   1      38.050  30.129  29.763  1.00  0.00     0.173 A 
ATOM     72  F   UNL A   1      40.038  29.220  32.666  1.00  0.00    -0.203 F 
ATOM     73  C   UNL A   1      37.823  30.013  32.527  1.00  0.00     0.198 A 
ATOM     74  C   UNL A   1      36.868  30.524  30.385  1.00  0.00     0.198 A 
ATOM     75  F   UNL A   1      38.136  30.203  28.427  1.00  0.00    -0.203 F 
ATOM     76  F   UNL A   1      37.710  29.933  33.860  1.00  0.00    -0.200 F 
ATOM     77  C   UNL A   1      36.755  30.464  31.766  1.00  0.00     0.200 A 
ATOM     78  F   UNL A   1      35.845  30.977  29.647  1.00  0.00    -0.200 F 
ATOM     79  F   UNL A   1      35.618  30.845  32.364  1.00  0.00    -0.200 F 
ENDBRANCH  45  69
BRANCH  57  80
ATOM     80  C   UNL A   1      44.746  33.502  28.782  1.00  0.00     0.064 A 
ATOM     81  C   UNL A   1      45.483  33.924  29.900  1.00  0.00     0.173 A 
ATOM     82  C   UNL A   1      44.383  34.476  27.837  1.00  0.00     0.173 A 
ATOM     83  F   UNL A   1      45.844  33.040  30.842  1.00  0.00    -0.203 F 
ATOM     84  C   UNL A   1      45.818  35.265  30.078  1.00  0.00     0.198 A 
ATOM     85  C   UNL A   1      44.749  35.810  28.000  1.00  0.00     0.198 A 
ATOM     86  F   UNL A   1      43.682  34.132  26.747  1.00  0.00    -0.203 F 
ATOM     87  F   UNL A   1      46.475  35.649  31.180  1.00  0.00    -0.200 F 
ATOM     88  C   UNL A   1      45.458  36.205  29.124  1.00  0.00     0.200 A 
ATOM     89  F   UNL A   1      44.414  36.715  27.070  1.00  0.00    -0.200 F 
ATOM     90  F   UNL A   1      45.789  37.493  29.292  1.00  0.00    -0.200 F 
ENDBRANCH  57  80
ENDBRANCH  31  32
ENDBRANCH  24  26
ENDBRANCH  23  24
ENDBRANCH  22  23
ENDBRANCH  21  22
ENDBRANCH  20  21
ENDBRANCH  19  20
ENDBRANCH   1  19
TORSDOF 19
ENDMDL
MODEL 3
REMARK VINA RESULT:     -10.1      1.826      2.786
REMARK SMILES O=C(Cc1ccc(=O)n(C(F)F)c1)OCCOCCOCCOC(=O)c1ccc(-c2c3nc(c(-c4c(F)c(F)c(F)c(F)c4F)c4ccc([nH]4)c(-c4c(F)c(F)c(F)c(F)c4F)c4nc(c(-c5c(F)c(F)c(F)c(F)c5F)c5ccc2[nH]5)C=C4)C=C3)cc1
REMARK SMILES IDX 18 1 17 2 16 3 15 4 14 5 2 6 1 7 3 8 4 9 5 10 13 11 6 12
REMARK SMILES IDX 9 13 7 14 8 15 10 16 11 17 12 18 19 19 20 20 21 21 22 22
REMARK SMILES IDX 23 23 24 24 25 25 26 26 27 27 88 28 28 29 87 30 29 31 30 32
REMARK SMILES IDX 31 33 81 34 32 35 86 36 80 37 82 38 33 39 85 40 79 41 78 42
REMARK SMILES IDX 34 44 66 45 46 46 65 47 47 48 50 49 64 50 83 51 48 52 49 53
REMARK SMILES IDX 63 55 84 56 51 57 35 58 36 59 44 60 37 61 38 62 42 63 45 64
REMARK SMILES IDX 39 65 40 66 43 67 41 68 67 69 68 70 76 71 69 72 70 73 74 74
REMARK SMILES IDX 77 75 71 76 72 77 75 78 73 79 52 80 53 81 61 82 54 83 55 84
REMARK SMILES IDX 59 85 62 86 56 87 57 88 60 89 58 90
REMARK H PARENT 82 43 50 54
REMARK Flexibility Score: inf
ROOT
ATOM      1  C   UNL A   1      33.220  28.733  27.083  1.00  0.00     0.188 C 
ENDROOT
BRANCH   1   2
ATOM      2  O   UNL A   1      33.032  28.066  25.854  1.00  0.00    -0.376 OA
BRANCH   2   3
ATOM      3  C   UNL A   1      33.888  28.403  24.782  1.00  0.00     0.202 C 
BRANCH   3   4
ATOM      4  C   UNL A   1      33.156  28.802  23.504  1.00  0.00     0.261 C 
BRANCH   4   5
ATOM      5  O   UNL A   1      32.051  27.969  23.076  1.00  0.00    -0.463 OA
BRANCH   5   6
ATOM      6  C   UNL A   1      30.777  27.894  23.506  1.00  0.00     0.310 C 
ATOM      7  O   UNL A   1      30.534  27.309  24.562  1.00  0.00    -0.252 OA
BRANCH   6   8
ATOM      8  C   UNL A   1      29.629  28.403  22.653  1.00  0.00     0.159 C 
BRANCH   8   9
ATOM      9  C   UNL A   1      29.346  29.870  22.631  1.00  0.00    -0.020 A 
ATOM     10  C   UNL A   1      29.393  30.628  23.859  1.00  0.00     0.011 A 
ATOM     11  C   UNL A   1      28.992  30.491  21.492  1.00  0.00     0.099 A 
ATOM     12  C   UNL A   1      29.081  31.929  23.866  1.00  0.00     0.072 A 
ATOM     13  N   UNL A   1      28.647  31.829  21.474  1.00  0.00    -0.258 N 
ATOM     14  C   UNL A   1      28.632  32.608  22.621  1.00  0.00     0.254 A 
ATOM     15  O   UNL A   1      28.279  33.779  22.694  1.00  0.00    -0.269 OA
BRANCH  13  16
ATOM     16  C   UNL A   1      28.092  32.410  20.274  1.00  0.00     0.451 C 
ATOM     17  F   UNL A   1      27.386  31.470  19.598  1.00  0.00    -0.185 F 
ATOM     18  F   UNL A   1      27.277  33.456  20.533  1.00  0.00    -0.185 F 
ENDBRANCH  13  16
ENDBRANCH   8   9
ENDBRANCH   6   8
ENDBRANCH   5   6
ENDBRANCH   4   5
ENDBRANCH   3   4
ENDBRANCH   2   3
ENDBRANCH   1   2
BRANCH   1  19
ATOM     19  C   UNL A   1      34.032  30.032  26.988  1.00  0.00     0.188 C 
BRANCH  19  20
ATOM     20  O   UNL A   1      33.616  31.170  27.723  1.00  0.00    -0.376 OA
BRANCH  20  21
ATOM     21  C   UNL A   1      32.458  31.881  27.309  1.00  0.00     0.202 C 
BRANCH  21  22
ATOM     22  C   UNL A   1      32.517  33.416  27.247  1.00  0.00     0.261 C 
BRANCH  22  23
ATOM     23  O   UNL A   1      32.311  34.108  28.497  1.00  0.00    -0.460 OA
BRANCH  23  24
ATOM     24  C   UNL A   1      33.277  34.990  28.871  1.00  0.00     0.338 C 
ATOM     25  O   UNL A   1      33.191  36.199  28.927  1.00  0.00    -0.246 OA
BRANCH  24  26
ATOM     26  C   UNL A   1      34.461  34.243  29.365  1.00  0.00     0.060 A 
ATOM     27  C   UNL A   1      35.728  34.497  28.840  1.00  0.00     0.016 A 
ATOM     28  C   UNL A   1      34.301  33.296  30.389  1.00  0.00     0.016 A 
ATOM     29  C   UNL A   1      36.835  33.803  29.344  1.00  0.00     0.010 A 
ATOM     30  C   UNL A   1      35.408  32.587  30.876  1.00  0.00     0.010 A 
ATOM     31  C   UNL A   1      36.689  32.846  30.367  1.00  0.00    -0.014 A 
BRANCH  31  32
ATOM     32  C   UNL A   1      37.896  32.239  30.989  1.00  0.00     0.031 A 
ATOM     33  C   UNL A   1      38.365  32.614  32.364  1.00  0.00     0.074 A 
ATOM     34  C   UNL A   1      38.568  31.300  30.297  1.00  0.00     0.049 A 
ATOM     35  N   UNL A   1      39.312  32.071  33.089  1.00  0.00    -0.248 NA
ATOM     36  C   UNL A   1      37.687  33.746  33.007  1.00  0.00     0.031 C 
ATOM     37  C   UNL A   1      38.228  30.863  28.945  1.00  0.00     0.029 A 
ATOM     38  N   UNL A   1      39.653  30.532  30.639  1.00  0.00    -0.354 N 
ATOM     39  C   UNL A   1      39.321  32.765  34.291  1.00  0.00     0.074 A 
ATOM     40  C   UNL A   1      38.327  33.816  34.167  1.00  0.00     0.031 C 
ATOM     41  C   UNL A   1      39.056  29.871  28.587  1.00  0.00     0.029 A 
ATOM     42  C   UNL A   1      40.002  29.620  29.674  1.00  0.00     0.049 A 
ATOM     43  H   UNL A   1      40.134  30.626  31.493  1.00  0.00     0.167 HD
ATOM     44  C   UNL A   1      40.069  32.532  35.399  1.00  0.00     0.037 A 
ATOM     45  C   UNL A   1      40.961  28.676  29.665  1.00  0.00     0.037 A 
ATOM     46  C   UNL A   1      41.094  31.518  35.500  1.00  0.00     0.049 A 
ATOM     47  C   UNL A   1      41.834  28.491  30.874  1.00  0.00     0.074 A 
ATOM     48  C   UNL A   1      41.898  31.206  36.584  1.00  0.00     0.029 A 
ATOM     49  N   UNL A   1      41.475  30.664  34.472  1.00  0.00    -0.354 N 
ATOM     50  N   UNL A   1      41.789  29.104  32.030  1.00  0.00    -0.248 NA
ATOM     51  C   UNL A   1      42.891  27.474  30.774  1.00  0.00     0.031 C 
ATOM     52  C   UNL A   1      42.801  30.210  36.195  1.00  0.00     0.029 A 
ATOM     53  C   UNL A   1      42.521  29.850  34.888  1.00  0.00     0.049 A 
ATOM     54  H   UNL A   1      41.063  30.640  33.578  1.00  0.00     0.167 HD
ATOM     55  C   UNL A   1      42.792  28.537  32.804  1.00  0.00     0.074 A 
ATOM     56  C   UNL A   1      43.417  27.513  31.991  1.00  0.00     0.031 C 
ATOM     57  C   UNL A   1      43.158  28.842  34.075  1.00  0.00     0.037 A 
BRANCH  44  58
ATOM     58  C   UNL A   1      39.800  33.388  36.608  1.00  0.00     0.064 A 
ATOM     59  C   UNL A   1      40.469  34.608  36.799  1.00  0.00     0.173 A 
ATOM     60  C   UNL A   1      38.834  33.022  37.557  1.00  0.00     0.173 A 
ATOM     61  F   UNL A   1      41.415  35.004  35.932  1.00  0.00    -0.203 F 
ATOM     62  C   UNL A   1      40.202  35.412  37.905  1.00  0.00     0.198 A 
ATOM     63  C   UNL A   1      38.550  33.841  38.649  1.00  0.00     0.198 A 
ATOM     64  F   UNL A   1      38.153  31.874  37.421  1.00  0.00    -0.203 F 
ATOM     65  F   UNL A   1      40.891  36.549  38.080  1.00  0.00    -0.200 F 
ATOM     66  C   UNL A   1      39.241  35.031  38.827  1.00  0.00     0.200 A 
ATOM     67  F   UNL A   1      37.606  33.478  39.529  1.00  0.00    -0.200 F 
ATOM     68  F   UNL A   1      38.979  35.806  39.888  1.00  0.00    -0.200 F 
ENDBRANCH  44  58
BRANCH  45  69
ATOM     69  C   UNL A   1      41.087  27.788  28.480  1.00  0.00     0.064 A 
ATOM     70  C   UNL A   1      40.378  26.581  28.413  1.00  0.00     0.173 A 
ATOM     71  C   UNL A   1      41.861  28.157  27.371  1.00  0.00     0.173 A 
ATOM     72  F   UNL A   1      39.642  26.179  29.460  1.00  0.00    -0.203 F 
ATOM     73  C   UNL A   1      40.433  25.779  27.276  1.00  0.00     0.198 A 
ATOM     74  C   UNL A   1      41.893  27.368  26.224  1.00  0.00     0.198 A 
ATOM     75  F   UNL A   1      42.554  29.305  27.387  1.00  0.00    -0.203 F 
ATOM     76  F   UNL A   1      39.759  24.621  27.244  1.00  0.00    -0.200 F 
ATOM     77  C   UNL A   1      41.179  26.179  26.177  1.00  0.00     0.200 A 
ATOM     78  F   UNL A   1      42.600  27.767  25.158  1.00  0.00    -0.200 F 
ATOM     79  F   UNL A   1      41.209  25.421  25.073  1.00  0.00    -0.200 F 
ENDBRANCH  45  69
BRANCH  57  80
ATOM     80  C   UNL A   1      44.292  28.055  34.677  1.00  0.00     0.064 A 
ATOM     81  C   UNL A   1      45.632  28.423  34.479  1.00  0.00     0.173 A 
ATOM     82  C   UNL A   1      44.037  26.940  35.491  1.00  0.00     0.173 A 
ATOM     83  F   UNL A   1      45.936  29.471  33.699  1.00  0.00    -0.203 F 
ATOM     84  C   UNL A   1      46.672  27.691  35.050  1.00  0.00     0.198 A 
ATOM     85  C   UNL A   1      45.077  26.231  36.088  1.00  0.00     0.198 A 
ATOM     86  F   UNL A   1      42.777  26.543  35.719  1.00  0.00    -0.203 F 
ATOM     87  F   UNL A   1      47.944  28.032  34.802  1.00  0.00    -0.200 F 
ATOM     88  C   UNL A   1      46.393  26.601  35.860  1.00  0.00     0.200 A 
ATOM     89  F   UNL A   1      44.805  25.187  36.884  1.00  0.00    -0.200 F 
ATOM     90  F   UNL A   1      47.394  25.903  36.415  1.00  0.00    -0.200 F 
ENDBRANCH  57  80
ENDBRANCH  31  32
ENDBRANCH  24  26
ENDBRANCH  23  24
ENDBRANCH  22  23
ENDBRANCH  21  22
ENDBRANCH  20  21
ENDBRANCH  19  20
ENDBRANCH   1  19
TORSDOF 19
ENDMDL
