MODEL 1
REMARK VINA RESULT:     -10.2      0.000      0.000
REMARK SMILES N#Cc1ccccc1C[C@@H](NC(=O)OCC1c2ccccc2-c2ccccc21)C(=O)OCCOCCOCCOC(=O)c1ccc(-c2c3nc(c(-c4c(F)c(F)c(F)c(F)c4F)c4ccc([nH]4)c(-c4c(F)c(F)c(F)c(F)c4F)c4nc(c(-c5c(F)c(F)c(F)c(F)c5F)c5ccc2[nH]5)C=C4)C=C3)cc1
REMARK SMILES IDX 35 1 34 2 33 3 32 4 31 5 29 6 30 7 10 8 9 9 8 10 3 11 4 12
REMARK SMILES IDX 5 13 7 14 6 15 2 16 1 17 11 18 12 19 13 21 14 22 15 23 16 24
REMARK SMILES IDX 17 25 28 26 18 27 22 28 23 29 27 30 19 31 21 32 24 33 26 34
REMARK SMILES IDX 20 35 25 36 36 37 37 38 38 39 39 40 40 41 41 42 42 43 43 44
REMARK SMILES IDX 44 45 105 46 45 47 104 48 46 49 47 50 48 51 98 52 49 53
REMARK SMILES IDX 103 54 97 55 99 56 50 57 102 58 96 59 95 60 51 62 83 63
REMARK SMILES IDX 63 64 82 65 64 66 67 67 81 68 100 69 65 70 66 71 80 73
REMARK SMILES IDX 101 74 68 75 52 76 53 77 61 78 54 79 55 80 59 81 62 82 56 83
REMARK SMILES IDX 57 84 60 85 58 86 84 87 85 88 93 89 86 90 87 91 91 92 94 93
REMARK SMILES IDX 88 94 89 95 92 96 90 97 69 98 70 99 78 100 71 101 72 102
REMARK SMILES IDX 76 103 79 104 73 105 74 106 77 107 75 108
REMARK H PARENT 11 20 99 61 67 72
REMARK Flexibility Score: inf
ROOT
ATOM      1  C   UNL A   1      40.396  20.609  26.212  1.00  0.00     0.188 C 
ENDROOT
BRANCH   1   2
ATOM      2  O   UNL A   1      40.007  21.713  27.007  1.00  0.00    -0.376 OA
BRANCH   2   3
ATOM      3  C   UNL A   1      39.219  22.732  26.406  1.00  0.00     0.202 C 
BRANCH   3   4
ATOM      4  C   UNL A   1      37.721  22.515  26.126  1.00  0.00     0.261 C 
BRANCH   4   5
ATOM      5  O   UNL A   1      36.827  23.618  26.421  1.00  0.00    -0.462 OA
BRANCH   5   6
ATOM      6  C   UNL A   1      35.484  23.384  26.326  1.00  0.00     0.329 C 
ATOM      7  O   UNL A   1      34.920  22.424  26.847  1.00  0.00    -0.250 OA
BRANCH   6   8
ATOM      8  C   UNL A   1      34.753  24.323  25.321  1.00  0.00     0.199 C 
BRANCH   8   9
ATOM      9  C   UNL A   1      34.396  25.799  25.667  1.00  0.00     0.074 C 
BRANCH   9  10
ATOM     10  C   UNL A   1      33.444  26.438  24.634  1.00  0.00    -0.028 A 
ATOM     11  C   UNL A   1      32.360  27.284  24.963  1.00  0.00     0.055 A 
ATOM     12  C   UNL A   1      31.460  27.722  23.972  1.00  0.00     0.020 A 
ATOM     13  C   UNL A   1      31.635  27.361  22.643  1.00  0.00     0.001 A 
ATOM     14  C   UNL A   1      33.640  26.163  23.268  1.00  0.00     0.005 A 
ATOM     15  C   UNL A   1      32.738  26.597  22.291  1.00  0.00     0.000 A 
BRANCH  11  16
ATOM     16  C   UNL A   1      32.133  27.810  26.275  1.00  0.00     0.099 C 
ATOM     17  N   UNL A   1      31.861  28.225  27.319  1.00  0.00    -0.192 NA
ENDBRANCH  11  16
ENDBRANCH   9  10
ENDBRANCH   8   9
BRANCH   8  18
ATOM     18  N   UNL A   1      35.386  24.232  24.001  1.00  0.00    -0.308 N 
ATOM     19  C   UNL A   1      35.432  23.123  23.205  1.00  0.00     0.407 C 
ATOM     20  H   UNL A   1      35.819  25.046  23.657  1.00  0.00     0.168 HD
ATOM     21  O   UNL A   1      36.311  22.955  22.375  1.00  0.00    -0.225 OA
BRANCH  19  22
ATOM     22  O   UNL A   1      34.315  22.383  23.337  1.00  0.00    -0.449 OA
BRANCH  22  23
ATOM     23  C   UNL A   1      33.247  22.583  22.407  1.00  0.00     0.248 C 
BRANCH  23  24
ATOM     24  C   UNL A   1      31.938  21.888  22.868  1.00  0.00     0.088 C 
ATOM     25  C   UNL A   1      32.246  20.545  23.514  1.00  0.00    -0.029 A 
ATOM     26  C   UNL A   1      31.428  22.677  24.063  1.00  0.00    -0.029 A 
ATOM     27  C   UNL A   1      32.529  19.336  22.897  1.00  0.00     0.005 A 
ATOM     28  C   UNL A   1      32.334  20.707  24.910  1.00  0.00    -0.014 A 
ATOM     29  C   UNL A   1      31.776  22.000  25.255  1.00  0.00    -0.014 A 
ATOM     30  C   UNL A   1      30.801  23.913  24.073  1.00  0.00     0.005 A 
ATOM     31  C   UNL A   1      33.106  18.334  23.672  1.00  0.00     0.000 A 
ATOM     32  C   UNL A   1      32.899  19.708  25.681  1.00  0.00     0.009 A 
ATOM     33  C   UNL A   1      31.519  22.583  26.480  1.00  0.00     0.009 A 
ATOM     34  C   UNL A   1      30.536  24.493  25.312  1.00  0.00     0.000 A 
ATOM     35  C   UNL A   1      33.323  18.533  25.045  1.00  0.00     0.001 A 
ATOM     36  C   UNL A   1      30.901  23.839  26.503  1.00  0.00     0.001 A 
ENDBRANCH  23  24
ENDBRANCH  22  23
ENDBRANCH  19  22
ENDBRANCH   8  18
ENDBRANCH   6   8
ENDBRANCH   5   6
ENDBRANCH   4   5
ENDBRANCH   3   4
ENDBRANCH   2   3
ENDBRANCH   1   2
BRANCH   1  37
ATOM     37  C   UNL A   1      41.819  20.060  26.387  1.00  0.00     0.188 C 
BRANCH  37  38
ATOM     38  O   UNL A   1      42.302  19.213  25.377  1.00  0.00    -0.376 OA
BRANCH  38  39
ATOM     39  C   UNL A   1      43.695  18.945  25.328  1.00  0.00     0.202 C 
BRANCH  39  40
ATOM     40  C   UNL A   1      44.698  19.686  24.409  1.00  0.00     0.261 C 
BRANCH  40  41
ATOM     41  O   UNL A   1      45.239  20.948  24.836  1.00  0.00    -0.460 OA
BRANCH  41  42
ATOM     42  C   UNL A   1      44.699  22.082  24.317  1.00  0.00     0.338 C 
ATOM     43  O   UNL A   1      44.156  22.196  23.235  1.00  0.00    -0.246 OA
BRANCH  42  44
ATOM     44  C   UNL A   1      44.657  23.097  25.407  1.00  0.00     0.060 A 
ATOM     45  C   UNL A   1      45.005  24.430  25.132  1.00  0.00     0.016 A 
ATOM     46  C   UNL A   1      44.216  22.759  26.680  1.00  0.00     0.016 A 
ATOM     47  C   UNL A   1      44.917  25.427  26.103  1.00  0.00     0.010 A 
ATOM     48  C   UNL A   1      44.161  23.748  27.670  1.00  0.00     0.010 A 
ATOM     49  C   UNL A   1      44.524  25.082  27.393  1.00  0.00    -0.014 A 
BRANCH  49  50
ATOM     50  C   UNL A   1      44.653  26.055  28.504  1.00  0.00     0.031 A 
ATOM     51  C   UNL A   1      45.966  26.128  29.228  1.00  0.00     0.074 A 
ATOM     52  C   UNL A   1      43.632  26.842  28.881  1.00  0.00     0.049 A 
ATOM     53  N   UNL A   1      46.273  26.743  30.341  1.00  0.00    -0.248 NA
ATOM     54  C   UNL A   1      47.082  25.393  28.613  1.00  0.00     0.031 C 
ATOM     55  C   UNL A   1      42.340  26.939  28.206  1.00  0.00     0.029 A 
ATOM     56  N   UNL A   1      43.519  27.695  29.953  1.00  0.00    -0.354 N 
ATOM     57  C   UNL A   1      47.610  26.448  30.573  1.00  0.00     0.074 A 
ATOM     58  C   UNL A   1      48.045  25.578  29.502  1.00  0.00     0.031 C 
ATOM     59  C   UNL A   1      41.553  27.782  28.896  1.00  0.00     0.029 A 
ATOM     60  C   UNL A   1      42.267  28.241  30.089  1.00  0.00     0.049 A 
ATOM     61  H   UNL A   1      44.265  27.895  30.564  1.00  0.00     0.167 HD
ATOM     62  C   UNL A   1      48.400  26.867  31.590  1.00  0.00     0.037 A 
ATOM     63  C   UNL A   1      41.747  28.985  31.085  1.00  0.00     0.037 A 
ATOM     64  C   UNL A   1      47.954  27.723  32.658  1.00  0.00     0.049 A 
ATOM     65  C   UNL A   1      42.606  29.329  32.279  1.00  0.00     0.074 A 
ATOM     66  C   UNL A   1      48.674  28.206  33.734  1.00  0.00     0.029 A 
ATOM     67  N   UNL A   1      46.662  28.213  32.789  1.00  0.00    -0.354 N 
ATOM     68  N   UNL A   1      43.868  29.053  32.502  1.00  0.00    -0.248 NA
ATOM     69  C   UNL A   1      41.961  30.080  33.367  1.00  0.00     0.031 C 
ATOM     70  C   UNL A   1      47.802  28.927  34.556  1.00  0.00     0.029 A 
ATOM     71  C   UNL A   1      46.555  28.958  33.952  1.00  0.00     0.049 A 
ATOM     72  H   UNL A   1      45.930  28.053  32.151  1.00  0.00     0.167 HD
ATOM     73  C   UNL A   1      44.176  29.623  33.732  1.00  0.00     0.074 A 
ATOM     74  C   UNL A   1      42.971  30.272  34.203  1.00  0.00     0.031 C 
ATOM     75  C   UNL A   1      45.352  29.610  34.408  1.00  0.00     0.037 A 
BRANCH  62  76
ATOM     76  C   UNL A   1      49.815  26.361  31.615  1.00  0.00     0.064 A 
ATOM     77  C   UNL A   1      50.865  27.059  30.998  1.00  0.00     0.173 A 
ATOM     78  C   UNL A   1      50.125  25.158  32.268  1.00  0.00     0.173 A 
ATOM     79  F   UNL A   1      50.624  28.210  30.352  1.00  0.00    -0.203 F 
ATOM     80  C   UNL A   1      52.160  26.547  30.993  1.00  0.00     0.198 A 
ATOM     81  C   UNL A   1      51.429  24.671  32.297  1.00  0.00     0.198 A 
ATOM     82  F   UNL A   1      49.163  24.452  32.882  1.00  0.00    -0.203 F 
ATOM     83  F   UNL A   1      53.131  27.196  30.336  1.00  0.00    -0.200 F 
ATOM     84  C   UNL A   1      52.442  25.357  31.647  1.00  0.00     0.200 A 
ATOM     85  F   UNL A   1      51.702  23.531  32.946  1.00  0.00    -0.200 F 
ATOM     86  F   UNL A   1      53.689  24.869  31.643  1.00  0.00    -0.200 F 
ENDBRANCH  62  76
BRANCH  63  87
ATOM     87  C   UNL A   1      40.334  29.447  31.015  1.00  0.00     0.064 A 
ATOM     88  C   UNL A   1      39.986  30.578  30.263  1.00  0.00     0.173 A 
ATOM     89  C   UNL A   1      39.309  28.792  31.714  1.00  0.00     0.173 A 
ATOM     90  F   UNL A   1      40.935  31.259  29.602  1.00  0.00    -0.203 F 
ATOM     91  C   UNL A   1      38.674  31.044  30.225  1.00  0.00     0.198 A 
ATOM     92  C   UNL A   1      37.990  29.238  31.647  1.00  0.00     0.198 A 
ATOM     93  F   UNL A   1      39.586  27.711  32.458  1.00  0.00    -0.203 F 
ATOM     94  F   UNL A   1      38.381  32.159  29.540  1.00  0.00    -0.200 F 
ATOM     95  C   UNL A   1      37.675  30.369  30.910  1.00  0.00     0.200 A 
ATOM     96  F   UNL A   1      37.027  28.579  32.303  1.00  0.00    -0.200 F 
ATOM     97  F   UNL A   1      36.413  30.817  30.870  1.00  0.00    -0.200 F 
ENDBRANCH  63  87
BRANCH  75  98
ATOM     98  C   UNL A   1      45.416  30.349  35.716  1.00  0.00     0.064 A 
ATOM     99  C   UNL A   1      45.624  31.736  35.773  1.00  0.00     0.173 A 
ATOM    100  C   UNL A   1      45.195  29.672  36.927  1.00  0.00     0.173 A 
ATOM    101  F   UNL A   1      45.854  32.431  34.650  1.00  0.00    -0.203 F 
ATOM    102  C   UNL A   1      45.625  32.412  36.992  1.00  0.00     0.198 A 
ATOM    103  C   UNL A   1      45.160  30.356  38.138  1.00  0.00     0.198 A 
ATOM    104  F   UNL A   1      44.983  28.347  36.931  1.00  0.00    -0.203 F 
ATOM    105  F   UNL A   1      45.868  33.728  37.025  1.00  0.00    -0.200 F 
ATOM    106  C   UNL A   1      45.382  31.723  38.172  1.00  0.00     0.200 A 
ATOM    107  F   UNL A   1      44.904  29.691  39.274  1.00  0.00    -0.200 F 
ATOM    108  F   UNL A   1      45.362  32.379  39.340  1.00  0.00    -0.200 F 
ENDBRANCH  75  98
ENDBRANCH  49  50
ENDBRANCH  42  44
ENDBRANCH  41  42
ENDBRANCH  40  41
ENDBRANCH  39  40
ENDBRANCH  38  39
ENDBRANCH  37  38
ENDBRANCH   1  37
TORSDOF 24
ENDMDL
MODEL 2
REMARK VINA RESULT:      -9.9      3.279      8.548
REMARK SMILES N#Cc1ccccc1C[C@@H](NC(=O)OCC1c2ccccc2-c2ccccc21)C(=O)OCCOCCOCCOC(=O)c1ccc(-c2c3nc(c(-c4c(F)c(F)c(F)c(F)c4F)c4ccc([nH]4)c(-c4c(F)c(F)c(F)c(F)c4F)c4nc(c(-c5c(F)c(F)c(F)c(F)c5F)c5ccc2[nH]5)C=C4)C=C3)cc1
REMARK SMILES IDX 35 1 34 2 33 3 32 4 31 5 29 6 30 7 10 8 9 9 8 10 3 11 4 12
REMARK SMILES IDX 5 13 7 14 6 15 2 16 1 17 11 18 12 19 13 21 14 22 15 23 16 24
REMARK SMILES IDX 17 25 28 26 18 27 22 28 23 29 27 30 19 31 21 32 24 33 26 34
REMARK SMILES IDX 20 35 25 36 36 37 37 38 38 39 39 40 40 41 41 42 42 43 43 44
REMARK SMILES IDX 44 45 105 46 45 47 104 48 46 49 47 50 48 51 98 52 49 53
REMARK SMILES IDX 103 54 97 55 99 56 50 57 102 58 96 59 95 60 51 62 83 63
REMARK SMILES IDX 63 64 82 65 64 66 67 67 81 68 100 69 65 70 66 71 80 73
REMARK SMILES IDX 101 74 68 75 52 76 53 77 61 78 54 79 55 80 59 81 62 82 56 83
REMARK SMILES IDX 57 84 60 85 58 86 84 87 85 88 93 89 86 90 87 91 91 92 94 93
REMARK SMILES IDX 88 94 89 95 92 96 90 97 69 98 70 99 78 100 71 101 72 102
REMARK SMILES IDX 76 103 79 104 73 105 74 106 77 107 75 108
REMARK H PARENT 11 20 99 61 67 72
REMARK Flexibility Score: inf
ROOT
ATOM      1  C   UNL A   1      40.053  24.691  27.052  1.00  0.00     0.188 C 
ENDROOT
BRANCH   1   2
ATOM      2  O   UNL A   1      38.647  24.626  26.906  1.00  0.00    -0.376 OA
BRANCH   2   3
ATOM      3  C   UNL A   1      38.098  23.560  26.143  1.00  0.00     0.202 C 
BRANCH   3   4
ATOM      4  C   UNL A   1      36.585  23.481  25.866  1.00  0.00     0.261 C 
BRANCH   4   5
ATOM      5  O   UNL A   1      35.720  23.188  26.992  1.00  0.00    -0.462 OA
BRANCH   5   6
ATOM      6  C   UNL A   1      34.696  22.308  26.789  1.00  0.00     0.329 C 
ATOM      7  O   UNL A   1      34.520  21.299  27.468  1.00  0.00    -0.250 OA
BRANCH   6   8
ATOM      8  C   UNL A   1      33.886  22.576  25.485  1.00  0.00     0.199 C 
BRANCH   8   9
ATOM      9  C   UNL A   1      34.123  21.766  24.176  1.00  0.00     0.074 C 
BRANCH   9  10
ATOM     10  C   UNL A   1      33.968  20.244  24.382  1.00  0.00    -0.028 A 
ATOM     11  C   UNL A   1      35.047  19.350  24.566  1.00  0.00     0.055 A 
ATOM     12  C   UNL A   1      34.830  17.959  24.617  1.00  0.00     0.020 A 
ATOM     13  C   UNL A   1      33.548  17.435  24.522  1.00  0.00     0.001 A 
ATOM     14  C   UNL A   1      32.677  19.686  24.375  1.00  0.00     0.005 A 
ATOM     15  C   UNL A   1      32.471  18.303  24.421  1.00  0.00     0.000 A 
BRANCH  11  16
ATOM     16  C   UNL A   1      36.399  19.769  24.782  1.00  0.00     0.099 C 
ATOM     17  N   UNL A   1      37.461  20.193  24.948  1.00  0.00    -0.192 NA
ENDBRANCH  11  16
ENDBRANCH   9  10
ENDBRANCH   8   9
BRANCH   8  18
ATOM     18  N   UNL A   1      32.455  22.665  25.796  1.00  0.00    -0.308 N 
ATOM     19  C   UNL A   1      31.901  23.329  26.853  1.00  0.00     0.407 C 
ATOM     20  H   UNL A   1      31.837  22.204  25.185  1.00  0.00     0.168 HD
ATOM     21  O   UNL A   1      30.818  23.016  27.320  1.00  0.00    -0.225 OA
BRANCH  19  22
ATOM     22  O   UNL A   1      32.605  24.435  27.157  1.00  0.00    -0.449 OA
BRANCH  22  23
ATOM     23  C   UNL A   1      33.003  25.306  26.094  1.00  0.00     0.248 C 
BRANCH  23  24
ATOM     24  C   UNL A   1      31.783  25.956  25.389  1.00  0.00     0.088 C 
ATOM     25  C   UNL A   1      31.775  27.461  25.616  1.00  0.00    -0.029 A 
ATOM     26  C   UNL A   1      32.061  25.887  23.895  1.00  0.00    -0.029 A 
ATOM     27  C   UNL A   1      31.349  28.162  26.734  1.00  0.00     0.005 A 
ATOM     28  C   UNL A   1      32.403  28.101  24.530  1.00  0.00    -0.014 A 
ATOM     29  C   UNL A   1      32.527  27.145  23.447  1.00  0.00    -0.014 A 
ATOM     30  C   UNL A   1      31.986  24.787  23.057  1.00  0.00     0.005 A 
ATOM     31  C   UNL A   1      31.745  29.491  26.853  1.00  0.00     0.000 A 
ATOM     32  C   UNL A   1      32.787  29.424  24.644  1.00  0.00     0.009 A 
ATOM     33  C   UNL A   1      32.956  27.298  22.143  1.00  0.00     0.009 A 
ATOM     34  C   UNL A   1      32.412  24.948  21.740  1.00  0.00     0.000 A 
ATOM     35  C   UNL A   1      32.488  30.105  25.833  1.00  0.00     0.001 A 
ATOM     36  C   UNL A   1      32.901  26.188  21.291  1.00  0.00     0.001 A 
ENDBRANCH  23  24
ENDBRANCH  22  23
ENDBRANCH  19  22
ENDBRANCH   8  18
ENDBRANCH   6   8
ENDBRANCH   5   6
ENDBRANCH   4   5
ENDBRANCH   3   4
ENDBRANCH   2   3
ENDBRANCH   1   2
BRANCH   1  37
ATOM     37  C   UNL A   1      40.922  24.042  25.967  1.00  0.00     0.188 C 
BRANCH  37  38
ATOM     38  O   UNL A   1      41.826  23.051  26.384  1.00  0.00    -0.376 OA
BRANCH  38  39
ATOM     39  C   UNL A   1      42.761  22.550  25.441  1.00  0.00     0.202 C 
BRANCH  39  40
ATOM     40  C   UNL A   1      43.815  23.415  24.705  1.00  0.00     0.261 C 
BRANCH  40  41
ATOM     41  O   UNL A   1      44.234  24.658  25.294  1.00  0.00    -0.460 OA
BRANCH  41  42
ATOM     42  C   UNL A   1      45.008  24.604  26.411  1.00  0.00     0.338 C 
ATOM     43  O   UNL A   1      46.148  24.189  26.483  1.00  0.00    -0.246 OA
BRANCH  42  44
ATOM     44  C   UNL A   1      44.311  25.380  27.475  1.00  0.00     0.060 A 
ATOM     45  C   UNL A   1      44.381  26.784  27.474  1.00  0.00     0.016 A 
ATOM     46  C   UNL A   1      43.538  24.739  28.434  1.00  0.00     0.016 A 
ATOM     47  C   UNL A   1      43.690  27.553  28.409  1.00  0.00     0.010 A 
ATOM     48  C   UNL A   1      42.873  25.505  29.401  1.00  0.00     0.010 A 
ATOM     49  C   UNL A   1      42.955  26.913  29.403  1.00  0.00    -0.014 A 
BRANCH  49  50
ATOM     50  C   UNL A   1      42.415  27.679  30.551  1.00  0.00     0.031 A 
ATOM     51  C   UNL A   1      41.166  28.482  30.338  1.00  0.00     0.074 A 
ATOM     52  C   UNL A   1      43.023  27.684  31.750  1.00  0.00     0.049 A 
ATOM     53  N   UNL A   1      40.606  29.378  31.110  1.00  0.00    -0.248 NA
ATOM     54  C   UNL A   1      40.456  28.246  29.071  1.00  0.00     0.031 C 
ATOM     55  C   UNL A   1      44.183  26.877  32.117  1.00  0.00     0.029 A 
ATOM     56  N   UNL A   1      42.754  28.423  32.877  1.00  0.00    -0.354 N 
ATOM     57  C   UNL A   1      39.496  29.832  30.411  1.00  0.00     0.074 A 
ATOM     58  C   UNL A   1      39.478  29.133  29.144  1.00  0.00     0.031 C 
ATOM     59  C   UNL A   1      44.545  27.186  33.375  1.00  0.00     0.029 A 
ATOM     60  C   UNL A   1      43.675  28.249  33.879  1.00  0.00     0.049 A 
ATOM     61  H   UNL A   1      41.974  29.020  32.957  1.00  0.00     0.167 HD
ATOM     62  C   UNL A   1      38.577  30.750  30.794  1.00  0.00     0.037 A 
ATOM     63  C   UNL A   1      43.824  28.907  35.046  1.00  0.00     0.037 A 
ATOM     64  C   UNL A   1      38.612  31.449  32.052  1.00  0.00     0.049 A 
ATOM     65  C   UNL A   1      42.868  30.023  35.395  1.00  0.00     0.074 A 
ATOM     66  C   UNL A   1      37.729  32.396  32.537  1.00  0.00     0.029 A 
ATOM     67  N   UNL A   1      39.593  31.284  33.020  1.00  0.00    -0.354 N 
ATOM     68  N   UNL A   1      41.818  30.454  34.738  1.00  0.00    -0.248 NA
ATOM     69  C   UNL A   1      43.127  30.752  36.646  1.00  0.00     0.031 C 
ATOM     70  C   UNL A   1      38.215  32.858  33.764  1.00  0.00     0.029 A 
ATOM     71  C   UNL A   1      39.360  32.144  34.081  1.00  0.00     0.049 A 
ATOM     72  H   UNL A   1      40.345  30.651  32.960  1.00  0.00     0.167 HD
ATOM     73  C   UNL A   1      41.275  31.475  35.509  1.00  0.00     0.074 A 
ATOM     74  C   UNL A   1      42.102  31.592  36.689  1.00  0.00     0.031 C 
ATOM     75  C   UNL A   1      40.186  32.245  35.259  1.00  0.00     0.037 A 
BRANCH  62  76
ATOM     76  C   UNL A   1      37.486  31.081  29.815  1.00  0.00     0.064 A 
ATOM     77  C   UNL A   1      37.454  32.303  29.124  1.00  0.00     0.173 A 
ATOM     78  C   UNL A   1      36.457  30.161  29.562  1.00  0.00     0.173 A 
ATOM     79  F   UNL A   1      38.409  33.223  29.334  1.00  0.00    -0.203 F 
ATOM     80  C   UNL A   1      36.409  32.608  28.256  1.00  0.00     0.198 A 
ATOM     81  C   UNL A   1      35.436  30.454  28.662  1.00  0.00     0.198 A 
ATOM     82  F   UNL A   1      36.441  28.974  30.188  1.00  0.00    -0.203 F 
ATOM     83  F   UNL A   1      36.363  33.809  27.664  1.00  0.00    -0.200 F 
ATOM     84  C   UNL A   1      35.405  31.682  28.022  1.00  0.00     0.200 A 
ATOM     85  F   UNL A   1      34.477  29.549  28.422  1.00  0.00    -0.200 F 
ATOM     86  F   UNL A   1      34.401  31.977  27.185  1.00  0.00    -0.200 F 
ENDBRANCH  62  76
BRANCH  63  87
ATOM     87  C   UNL A   1      44.932  28.547  35.971  1.00  0.00     0.064 A 
ATOM     88  C   UNL A   1      44.707  27.697  37.063  1.00  0.00     0.173 A 
ATOM     89  C   UNL A   1      46.228  29.061  35.805  1.00  0.00     0.173 A 
ATOM     90  F   UNL A   1      43.479  27.205  37.284  1.00  0.00    -0.203 F 
ATOM     91  C   UNL A   1      45.728  27.388  37.960  1.00  0.00     0.198 A 
ATOM     92  C   UNL A   1      47.256  28.723  36.683  1.00  0.00     0.198 A 
ATOM     93  F   UNL A   1      46.498  29.888  34.784  1.00  0.00    -0.203 F 
ATOM     94  F   UNL A   1      45.468  26.615  39.024  1.00  0.00    -0.200 F 
ATOM     95  C   UNL A   1      47.003  27.894  37.765  1.00  0.00     0.200 A 
ATOM     96  F   UNL A   1      48.490  29.207  36.486  1.00  0.00    -0.200 F 
ATOM     97  F   UNL A   1      47.984  27.593  38.626  1.00  0.00    -0.200 F 
ENDBRANCH  63  87
BRANCH  75  98
ATOM     98  C   UNL A   1      39.794  33.262  36.295  1.00  0.00     0.064 A 
ATOM     99  C   UNL A   1      38.867  32.968  37.307  1.00  0.00     0.173 A 
ATOM    100  C   UNL A   1      40.408  34.525  36.320  1.00  0.00     0.173 A 
ATOM    101  F   UNL A   1      38.239  31.783  37.325  1.00  0.00    -0.203 F 
ATOM    102  C   UNL A   1      38.559  33.905  38.292  1.00  0.00     0.198 A 
ATOM    103  C   UNL A   1      40.125  35.444  37.326  1.00  0.00     0.198 A 
ATOM    104  F   UNL A   1      41.308  34.857  35.381  1.00  0.00    -0.203 F 
ATOM    105  F   UNL A   1      37.639  33.617  39.222  1.00  0.00    -0.200 F 
ATOM    106  C   UNL A   1      39.196  35.137  38.307  1.00  0.00     0.200 A 
ATOM    107  F   UNL A   1      40.758  36.626  37.349  1.00  0.00    -0.200 F 
ATOM    108  F   UNL A   1      38.913  36.028  39.266  1.00  0.00    -0.200 F 
ENDBRANCH  75  98
ENDBRANCH  49  50
ENDBRANCH  42  44
ENDBRANCH  41  42
ENDBRANCH  40  41
ENDBRANCH  39  40
ENDBRANCH  38  39
ENDBRANCH  37  38
ENDBRANCH   1  37
TORSDOF 24
ENDMDL
MODEL 3
REMARK VINA RESULT:      -9.9      5.809      9.544
REMARK SMILES N#Cc1ccccc1C[C@@H](NC(=O)OCC1c2ccccc2-c2ccccc21)C(=O)OCCOCCOCCOC(=O)c1ccc(-c2c3nc(c(-c4c(F)c(F)c(F)c(F)c4F)c4ccc([nH]4)c(-c4c(F)c(F)c(F)c(F)c4F)c4nc(c(-c5c(F)c(F)c(F)c(F)c5F)c5ccc2[nH]5)C=C4)C=C3)cc1
REMARK SMILES IDX 35 1 34 2 33 3 32 4 31 5 29 6 30 7 10 8 9 9 8 10 3 11 4 12
REMARK SMILES IDX 5 13 7 14 6 15 2 16 1 17 11 18 12 19 13 21 14 22 15 23 16 24
REMARK SMILES IDX 17 25 28 26 18 27 22 28 23 29 27 30 19 31 21 32 24 33 26 34
REMARK SMILES IDX 20 35 25 36 36 37 37 38 38 39 39 40 40 41 41 42 42 43 43 44
REMARK SMILES IDX 44 45 105 46 45 47 104 48 46 49 47 50 48 51 98 52 49 53
REMARK SMILES IDX 103 54 97 55 99 56 50 57 102 58 96 59 95 60 51 62 83 63
REMARK SMILES IDX 63 64 82 65 64 66 67 67 81 68 100 69 65 70 66 71 80 73
REMARK SMILES IDX 101 74 68 75 52 76 53 77 61 78 54 79 55 80 59 81 62 82 56 83
REMARK SMILES IDX 57 84 60 85 58 86 84 87 85 88 93 89 86 90 87 91 91 92 94 93
REMARK SMILES IDX 88 94 89 95 92 96 90 97 69 98 70 99 78 100 71 101 72 102
REMARK SMILES IDX 76 103 79 104 73 105 74 106 77 107 75 108
REMARK H PARENT 11 20 99 61 67 72
REMARK Flexibility Score: inf
ROOT
ATOM      1  C   UNL A   1      41.001  24.779  27.587  1.00  0.00     0.188 C 
ENDROOT
BRANCH   1   2
ATOM      2  O   UNL A   1      40.468  25.831  26.805  1.00  0.00    -0.376 OA
BRANCH   2   3
ATOM      3  C   UNL A   1      40.552  27.156  27.311  1.00  0.00     0.202 C 
BRANCH   3   4
ATOM      4  C   UNL A   1      40.862  27.419  28.796  1.00  0.00     0.261 C 
BRANCH   4   5
ATOM      5  O   UNL A   1      39.740  27.732  29.660  1.00  0.00    -0.462 OA
BRANCH   5   6
ATOM      6  C   UNL A   1      38.706  28.443  29.119  1.00  0.00     0.329 C 
ATOM      7  O   UNL A   1      37.930  27.987  28.282  1.00  0.00    -0.250 OA
BRANCH   6   8
ATOM      8  C   UNL A   1      38.719  29.955  29.494  1.00  0.00     0.199 C 
BRANCH   8   9
ATOM      9  C   UNL A   1      40.039  30.774  29.610  1.00  0.00     0.074 C 
BRANCH   9  10
ATOM     10  C   UNL A   1      39.904  31.987  30.556  1.00  0.00    -0.028 A 
ATOM     11  C   UNL A   1      39.635  31.893  31.940  1.00  0.00     0.055 A 
ATOM     12  C   UNL A   1      39.399  33.049  32.709  1.00  0.00     0.020 A 
ATOM     13  C   UNL A   1      39.458  34.310  32.133  1.00  0.00     0.001 A 
ATOM     14  C   UNL A   1      40.041  33.282  30.024  1.00  0.00     0.005 A 
ATOM     15  C   UNL A   1      39.798  34.424  30.793  1.00  0.00     0.000 A 
BRANCH  11  16
ATOM     16  C   UNL A   1      39.652  30.662  32.671  1.00  0.00     0.099 C 
ATOM     17  N   UNL A   1      39.618  29.710  33.326  1.00  0.00    -0.192 NA
ENDBRANCH  11  16
ENDBRANCH   9  10
ENDBRANCH   8   9
BRANCH   8  18
ATOM     18  N   UNL A   1      37.721  30.675  28.696  1.00  0.00    -0.308 N 
ATOM     19  C   UNL A   1      36.382  30.745  28.953  1.00  0.00     0.407 C 
ATOM     20  H   UNL A   1      38.048  31.153  27.900  1.00  0.00     0.168 HD
ATOM     21  O   UNL A   1      35.562  30.947  28.072  1.00  0.00    -0.225 OA
BRANCH  19  22
ATOM     22  O   UNL A   1      36.140  30.748  30.277  1.00  0.00    -0.449 OA
BRANCH  22  23
ATOM     23  C   UNL A   1      35.291  31.765  30.816  1.00  0.00     0.248 C 
BRANCH  23  24
ATOM     24  C   UNL A   1      35.983  33.153  30.828  1.00  0.00     0.088 C 
ATOM     25  C   UNL A   1      35.224  34.136  29.947  1.00  0.00    -0.029 A 
ATOM     26  C   UNL A   1      35.738  33.747  32.206  1.00  0.00    -0.029 A 
ATOM     27  C   UNL A   1      35.260  34.263  28.567  1.00  0.00     0.005 A 
ATOM     28  C   UNL A   1      34.326  34.877  30.740  1.00  0.00    -0.014 A 
ATOM     29  C   UNL A   1      34.680  34.682  32.133  1.00  0.00    -0.014 A 
ATOM     30  C   UNL A   1      36.344  33.411  33.406  1.00  0.00     0.005 A 
ATOM     31  C   UNL A   1      34.242  34.991  27.958  1.00  0.00     0.000 A 
ATOM     32  C   UNL A   1      33.320  35.607  30.135  1.00  0.00     0.009 A 
ATOM     33  C   UNL A   1      34.197  35.270  33.285  1.00  0.00     0.009 A 
ATOM     34  C   UNL A   1      35.859  34.013  34.565  1.00  0.00     0.000 A 
ATOM     35  C   UNL A   1      33.260  35.626  28.734  1.00  0.00     0.001 A 
ATOM     36  C   UNL A   1      34.790  34.926  34.506  1.00  0.00     0.001 A 
ENDBRANCH  23  24
ENDBRANCH  22  23
ENDBRANCH  19  22
ENDBRANCH   8  18
ENDBRANCH   6   8
ENDBRANCH   5   6
ENDBRANCH   4   5
ENDBRANCH   3   4
ENDBRANCH   2   3
ENDBRANCH   1   2
BRANCH   1  37
ATOM     37  C   UNL A   1      42.315  24.133  27.127  1.00  0.00     0.188 C 
BRANCH  37  38
ATOM     38  O   UNL A   1      42.610  24.196  25.756  1.00  0.00    -0.376 OA
BRANCH  38  39
ATOM     39  C   UNL A   1      43.787  23.555  25.287  1.00  0.00     0.202 C 
BRANCH  39  40
ATOM     40  C   UNL A   1      45.166  24.248  25.145  1.00  0.00     0.261 C 
BRANCH  40  41
ATOM     41  O   UNL A   1      45.228  25.574  24.592  1.00  0.00    -0.460 OA
BRANCH  41  42
ATOM     42  C   UNL A   1      46.238  26.388  25.001  1.00  0.00     0.338 C 
ATOM     43  O   UNL A   1      47.326  26.515  24.475  1.00  0.00    -0.246 OA
BRANCH  42  44
ATOM     44  C   UNL A   1      45.687  27.288  26.054  1.00  0.00     0.060 A 
ATOM     45  C   UNL A   1      46.560  27.940  26.941  1.00  0.00     0.016 A 
ATOM     46  C   UNL A   1      44.324  27.543  26.132  1.00  0.00     0.016 A 
ATOM     47  C   UNL A   1      46.096  28.842  27.897  1.00  0.00     0.010 A 
ATOM     48  C   UNL A   1      43.847  28.419  27.116  1.00  0.00     0.010 A 
ATOM     49  C   UNL A   1      44.726  29.062  28.012  1.00  0.00    -0.014 A 
BRANCH  49  50
ATOM     50  C   UNL A   1      44.178  29.815  29.165  1.00  0.00     0.031 A 
ATOM     51  C   UNL A   1      44.022  31.301  29.027  1.00  0.00     0.074 A 
ATOM     52  C   UNL A   1      43.846  29.207  30.316  1.00  0.00     0.049 A 
ATOM     53  N   UNL A   1      43.755  32.202  29.938  1.00  0.00    -0.248 NA
ATOM     54  C   UNL A   1      44.203  31.845  27.672  1.00  0.00     0.031 C 
ATOM     55  C   UNL A   1      43.859  27.766  30.550  1.00  0.00     0.029 A 
ATOM     56  N   UNL A   1      43.455  29.742  31.520  1.00  0.00    -0.354 N 
ATOM     57  C   UNL A   1      43.763  33.420  29.272  1.00  0.00     0.074 A 
ATOM     58  C   UNL A   1      44.089  33.145  27.889  1.00  0.00     0.031 C 
ATOM     59  C   UNL A   1      43.520  27.531  31.830  1.00  0.00     0.029 A 
ATOM     60  C   UNL A   1      43.319  28.807  32.517  1.00  0.00     0.049 A 
ATOM     61  H   UNL A   1      43.288  30.703  31.655  1.00  0.00     0.167 HD
ATOM     62  C   UNL A   1      43.521  34.655  29.772  1.00  0.00     0.037 A 
ATOM     63  C   UNL A   1      43.105  28.970  33.837  1.00  0.00     0.037 A 
ATOM     64  C   UNL A   1      43.211  34.918  31.153  1.00  0.00     0.049 A 
ATOM     65  C   UNL A   1      42.973  30.366  34.400  1.00  0.00     0.074 A 
ATOM     66  C   UNL A   1      42.948  36.131  31.761  1.00  0.00     0.029 A 
ATOM     67  N   UNL A   1      43.135  33.949  32.144  1.00  0.00    -0.354 N 
ATOM     68  N   UNL A   1      42.980  31.518  33.774  1.00  0.00    -0.248 NA
ATOM     69  C   UNL A   1      42.815  30.482  35.858  1.00  0.00     0.031 C 
ATOM     70  C   UNL A   1      42.786  35.907  33.132  1.00  0.00     0.029 A 
ATOM     71  C   UNL A   1      42.872  34.544  33.367  1.00  0.00     0.049 A 
ATOM     72  H   UNL A   1      43.253  32.983  31.999  1.00  0.00     0.167 HD
ATOM     73  C   UNL A   1      42.793  32.488  34.753  1.00  0.00     0.074 A 
ATOM     74  C   UNL A   1      42.663  31.789  36.013  1.00  0.00     0.031 C 
ATOM     75  C   UNL A   1      42.734  33.837  34.617  1.00  0.00     0.037 A 
BRANCH  62  76
ATOM     76  C   UNL A   1      43.633  35.815  28.824  1.00  0.00     0.064 A 
ATOM     77  C   UNL A   1      42.518  36.329  28.144  1.00  0.00     0.173 A 
ATOM     78  C   UNL A   1      44.877  36.424  28.594  1.00  0.00     0.173 A 
ATOM     79  F   UNL A   1      41.307  35.779  28.320  1.00  0.00    -0.203 F 
ATOM     80  C   UNL A   1      42.653  37.374  27.234  1.00  0.00     0.198 A 
ATOM     81  C   UNL A   1      45.000  37.496  27.715  1.00  0.00     0.198 A 
ATOM     82  F   UNL A   1      45.976  35.980  29.223  1.00  0.00    -0.203 F 
ATOM     83  F   UNL A   1      41.586  37.800  26.543  1.00  0.00    -0.200 F 
ATOM     84  C   UNL A   1      43.892  37.960  27.024  1.00  0.00     0.200 A 
ATOM     85  F   UNL A   1      46.195  38.074  27.529  1.00  0.00    -0.200 F 
ATOM     86  F   UNL A   1      44.019  38.968  26.150  1.00  0.00    -0.200 F 
ENDBRANCH  62  76
BRANCH  63  87
ATOM     87  C   UNL A   1      43.018  27.785  34.733  1.00  0.00     0.064 A 
ATOM     88  C   UNL A   1      44.116  27.395  35.513  1.00  0.00     0.173 A 
ATOM     89  C   UNL A   1      41.854  27.005  34.812  1.00  0.00     0.173 A 
ATOM     90  F   UNL A   1      45.261  28.089  35.449  1.00  0.00    -0.203 F 
ATOM     91  C   UNL A   1      44.058  26.262  36.323  1.00  0.00     0.198 A 
ATOM     92  C   UNL A   1      41.787  25.892  35.649  1.00  0.00     0.198 A 
ATOM     93  F   UNL A   1      40.778  27.326  34.080  1.00  0.00    -0.203 F 
ATOM     94  F   UNL A   1      45.142  25.883  37.016  1.00  0.00    -0.200 F 
ATOM     95  C   UNL A   1      42.892  25.517  36.397  1.00  0.00     0.200 A 
ATOM     96  F   UNL A   1      40.655  25.180  35.725  1.00  0.00    -0.200 F 
ATOM     97  F   UNL A   1      42.838  24.431  37.180  1.00  0.00    -0.200 F 
ENDBRANCH  63  87
BRANCH  75  98
ATOM     98  C   UNL A   1      42.480  34.656  35.853  1.00  0.00     0.064 A 
ATOM     99  C   UNL A   1      43.525  35.257  36.570  1.00  0.00     0.173 A 
ATOM    100  C   UNL A   1      41.166  34.902  36.284  1.00  0.00     0.173 A 
ATOM    101  F   UNL A   1      44.801  35.045  36.211  1.00  0.00    -0.203 F 
ATOM    102  C   UNL A   1      43.266  36.058  37.680  1.00  0.00     0.198 A 
ATOM    103  C   UNL A   1      40.909  35.732  37.371  1.00  0.00     0.198 A 
ATOM    104  F   UNL A   1      40.128  34.359  35.631  1.00  0.00    -0.203 F 
ATOM    105  F   UNL A   1      44.282  36.587  38.374  1.00  0.00    -0.200 F 
ATOM    106  C   UNL A   1      41.958  36.304  38.073  1.00  0.00     0.200 A 
ATOM    107  F   UNL A   1      39.644  35.984  37.735  1.00  0.00    -0.200 F 
ATOM    108  F   UNL A   1      41.710  37.091  39.128  1.00  0.00    -0.200 F 
ENDBRANCH  75  98
ENDBRANCH  49  50
ENDBRANCH  42  44
ENDBRANCH  41  42
ENDBRANCH  40  41
ENDBRANCH  39  40
ENDBRANCH  38  39
ENDBRANCH  37  38
ENDBRANCH   1  37
TORSDOF 24
ENDMDL
