MODEL 1
REMARK VINA RESULT:     -10.6      0.000      0.000
REMARK SMILES O=C(C[NH+]1CC[NH+](Cc2cc(Cl)ccc2[N+](=O)[O-])CC1)OCCOCCOCCOC(=O)c1ccc(-c2c3nc(c(-c4c(F)c(F)c(F)c(F)c4F)c4ccc([nH]4)c(-c4c(F)c(F)c(F)c(F)c4F)c4nc(c(-c5c(F)c(F)c(F)c(F)c5F)c5ccc2[nH]5)C=C4)C=C3)cc1
REMARK SMILES IDX 25 1 24 2 23 3 22 4 21 5 2 6 1 7 3 8 4 9 5 10 20 11 6 13
REMARK SMILES IDX 19 14 7 15 8 17 9 18 10 19 15 20 11 21 14 22 12 23 13 24
REMARK SMILES IDX 16 25 17 26 18 27 26 28 27 29 28 30 29 31 30 32 31 33 32 34
REMARK SMILES IDX 33 35 34 36 95 37 35 38 94 39 36 40 37 41 38 42 88 43 39 44
REMARK SMILES IDX 93 45 87 46 89 47 40 48 92 49 86 50 85 51 41 53 73 54 53 55
REMARK SMILES IDX 72 56 54 57 57 58 71 59 90 60 55 61 56 62 70 64 91 65 58 66
REMARK SMILES IDX 42 67 43 68 51 69 44 70 45 71 49 72 52 73 46 74 47 75 50 76
REMARK SMILES IDX 48 77 74 78 75 79 83 80 76 81 77 82 81 83 84 84 78 85 79 86
REMARK SMILES IDX 82 87 80 88 59 89 60 90 68 91 61 92 62 93 66 94 69 95 63 96
REMARK SMILES IDX 64 97 67 98 65 99
REMARK H PARENT 4 12 7 16 89 52 57 63
REMARK Flexibility Score: inf
ROOT
ATOM      1  C   UNL A   1      28.164  31.285  23.890  1.00  0.00     0.188 C 
ENDROOT
BRANCH   1   2
ATOM      2  O   UNL A   1      27.805  30.692  22.661  1.00  0.00    -0.376 OA
BRANCH   2   3
ATOM      3  C   UNL A   1      28.779  30.642  21.631  1.00  0.00     0.202 C 
BRANCH   3   4
ATOM      4  C   UNL A   1      29.879  29.561  21.588  1.00  0.00     0.261 C 
BRANCH   4   5
ATOM      5  O   UNL A   1      29.905  28.272  22.322  1.00  0.00    -0.459 OA
BRANCH   5   6
ATOM      6  C   UNL A   1      29.768  27.363  23.279  1.00  0.00     0.361 C 
ATOM      7  O   UNL A   1      28.608  27.121  23.641  1.00  0.00    -0.245 OA
BRANCH   6   8
ATOM      8  C   UNL A   1      30.895  26.655  24.028  1.00  0.00     0.386 C 
BRANCH   8   9
ATOM      9  N   UNL A   1      30.845  26.420  25.487  1.00  0.00    -0.316 N 
ATOM     10  C   UNL A   1      30.215  25.170  25.912  1.00  0.00     0.325 C 
ATOM     11  C   UNL A   1      32.150  26.557  26.130  1.00  0.00     0.325 C 
ATOM     12  H   UNL A   1      30.227  27.168  25.804  1.00  0.00     0.348 HD
ATOM     13  C   UNL A   1      31.070  23.890  25.748  1.00  0.00     0.324 C 
ATOM     14  C   UNL A   1      33.062  25.419  25.711  1.00  0.00     0.324 C 
ATOM     15  N   UNL A   1      32.517  24.067  25.830  1.00  0.00    -0.322 N 
ATOM     16  H   UNL A   1      32.753  23.775  24.881  1.00  0.00     0.348 HD
BRANCH  15  17
ATOM     17  C   UNL A   1      33.297  23.048  26.523  1.00  0.00     0.306 C 
BRANCH  17  18
ATOM     18  C   UNL A   1      34.553  22.752  25.730  1.00  0.00     0.085 A 
ATOM     19  C   UNL A   1      35.761  23.183  26.315  1.00  0.00     0.037 A 
ATOM     20  C   UNL A   1      34.536  22.458  24.350  1.00  0.00     0.278 A 
ATOM     21  C   UNL A   1      36.848  23.509  25.513  1.00  0.00     0.042 A 
ATOM     22  C   UNL A   1      35.644  22.773  23.550  1.00  0.00     0.088 A 
ATOM     23  Cl  UNL A   1      38.221  24.259  26.226  1.00  0.00    -0.084 Cl
ATOM     24  C   UNL A   1      36.784  23.336  24.133  1.00  0.00     0.027 A 
BRANCH  20  25
ATOM     25  N   UNL A   1      33.326  21.963  23.683  1.00  0.00     0.063 N 
ATOM     26  O   UNL A   1      32.972  20.803  23.934  1.00  0.00    -0.258 OA
ATOM     27  O   UNL A   1      32.722  22.743  22.935  1.00  0.00    -0.258 OA
ENDBRANCH  20  25
ENDBRANCH  17  18
ENDBRANCH  15  17
ENDBRANCH   8   9
ENDBRANCH   6   8
ENDBRANCH   5   6
ENDBRANCH   4   5
ENDBRANCH   3   4
ENDBRANCH   2   3
ENDBRANCH   1   2
BRANCH   1  28
ATOM     28  C   UNL A   1      29.531  31.963  23.976  1.00  0.00     0.188 C 
BRANCH  28  29
ATOM     29  O   UNL A   1      30.249  31.571  25.128  1.00  0.00    -0.376 OA
BRANCH  29  30
ATOM     30  C   UNL A   1      30.963  30.346  25.060  1.00  0.00     0.202 C 
BRANCH  30  31
ATOM     31  C   UNL A   1      32.389  30.227  25.636  1.00  0.00     0.261 C 
BRANCH  31  32
ATOM     32  O   UNL A   1      32.596  30.497  27.033  1.00  0.00    -0.460 OA
BRANCH  32  33
ATOM     33  C   UNL A   1      33.240  31.630  27.392  1.00  0.00     0.338 C 
ATOM     34  O   UNL A   1      32.769  32.741  27.485  1.00  0.00    -0.246 OA
BRANCH  33  35
ATOM     35  C   UNL A   1      34.607  31.248  27.835  1.00  0.00     0.060 A 
ATOM     36  C   UNL A   1      34.895  29.896  28.073  1.00  0.00     0.016 A 
ATOM     37  C   UNL A   1      35.600  32.215  28.014  1.00  0.00     0.016 A 
ATOM     38  C   UNL A   1      36.155  29.516  28.547  1.00  0.00     0.010 A 
ATOM     39  C   UNL A   1      36.852  31.838  28.514  1.00  0.00     0.010 A 
ATOM     40  C   UNL A   1      37.119  30.492  28.830  1.00  0.00    -0.014 A 
BRANCH  40  41
ATOM     41  C   UNL A   1      38.276  30.152  29.698  1.00  0.00     0.031 A 
ATOM     42  C   UNL A   1      39.272  29.149  29.174  1.00  0.00     0.074 A 
ATOM     43  C   UNL A   1      38.469  30.718  30.903  1.00  0.00     0.049 A 
ATOM     44  N   UNL A   1      40.330  28.636  29.750  1.00  0.00    -0.248 NA
ATOM     45  C   UNL A   1      39.035  28.655  27.807  1.00  0.00     0.031 C 
ATOM     46  C   UNL A   1      37.618  31.738  31.507  1.00  0.00     0.029 A 
ATOM     47  N   UNL A   1      39.451  30.498  31.841  1.00  0.00    -0.354 N 
ATOM     48  C   UNL A   1      40.874  27.757  28.821  1.00  0.00     0.074 A 
ATOM     49  C   UNL A   1      40.015  27.779  27.658  1.00  0.00     0.031 C 
ATOM     50  C   UNL A   1      38.104  32.045  32.723  1.00  0.00     0.029 A 
ATOM     51  C   UNL A   1      39.280  31.219  32.998  1.00  0.00     0.049 A 
ATOM     52  H   UNL A   1      40.204  29.881  31.697  1.00  0.00     0.167 HD
ATOM     53  C   UNL A   1      41.995  27.004  28.923  1.00  0.00     0.037 A 
ATOM     54  C   UNL A   1      39.979  31.192  34.151  1.00  0.00     0.037 A 
ATOM     55  C   UNL A   1      42.847  26.976  30.081  1.00  0.00     0.049 A 
ATOM     56  C   UNL A   1      41.174  30.276  34.275  1.00  0.00     0.074 A 
ATOM     57  C   UNL A   1      44.012  26.256  30.277  1.00  0.00     0.029 A 
ATOM     58  N   UNL A   1      42.619  27.693  31.246  1.00  0.00    -0.354 N 
ATOM     59  N   UNL A   1      41.698  29.466  33.386  1.00  0.00    -0.248 NA
ATOM     60  C   UNL A   1      41.878  30.273  35.568  1.00  0.00     0.031 C 
ATOM     61  C   UNL A   1      44.453  26.486  31.583  1.00  0.00     0.029 A 
ATOM     62  C   UNL A   1      43.604  27.406  32.177  1.00  0.00     0.049 A 
ATOM     63  H   UNL A   1      41.868  28.313  31.390  1.00  0.00     0.167 HD
ATOM     64  C   UNL A   1      42.807  28.890  33.995  1.00  0.00     0.074 A 
ATOM     65  C   UNL A   1      42.889  29.451  35.327  1.00  0.00     0.031 C 
ATOM     66  C   UNL A   1      43.681  27.980  33.496  1.00  0.00     0.037 A 
BRANCH  53  67
ATOM     67  C   UNL A   1      42.343  26.120  27.760  1.00  0.00     0.064 A 
ATOM     68  C   UNL A   1      41.701  24.891  27.546  1.00  0.00     0.173 A 
ATOM     69  C   UNL A   1      43.316  26.521  26.832  1.00  0.00     0.173 A 
ATOM     70  F   UNL A   1      40.776  24.451  28.412  1.00  0.00    -0.203 F 
ATOM     71  C   UNL A   1      42.042  24.083  26.463  1.00  0.00     0.198 A 
ATOM     72  C   UNL A   1      43.629  25.728  25.732  1.00  0.00     0.198 A 
ATOM     73  F   UNL A   1      43.959  27.689  26.988  1.00  0.00    -0.203 F 
ATOM     74  F   UNL A   1      41.455  22.889  26.308  1.00  0.00    -0.200 F 
ATOM     75  C   UNL A   1      42.999  24.506  25.553  1.00  0.00     0.200 A 
ATOM     76  F   UNL A   1      44.544  26.146  24.846  1.00  0.00    -0.200 F 
ATOM     77  F   UNL A   1      43.320  23.733  24.507  1.00  0.00    -0.200 F 
ENDBRANCH  53  67
BRANCH  54  78
ATOM     78  C   UNL A   1      39.562  32.043  35.299  1.00  0.00     0.064 A 
ATOM     79  C   UNL A   1      38.642  31.578  36.251  1.00  0.00     0.173 A 
ATOM     80  C   UNL A   1      40.041  33.353  35.445  1.00  0.00     0.173 A 
ATOM     81  F   UNL A   1      38.129  30.344  36.139  1.00  0.00    -0.203 F 
ATOM     82  C   UNL A   1      38.205  32.397  37.291  1.00  0.00     0.198 A 
ATOM     83  C   UNL A   1      39.628  34.160  36.505  1.00  0.00     0.198 A 
ATOM     84  F   UNL A   1      40.915  33.853  34.559  1.00  0.00    -0.203 F 
ATOM     85  F   UNL A   1      37.283  31.945  38.153  1.00  0.00    -0.200 F 
ATOM     86  C   UNL A   1      38.702  33.684  37.421  1.00  0.00     0.200 A 
ATOM     87  F   UNL A   1      40.120  35.399  36.631  1.00  0.00    -0.200 F 
ATOM     88  F   UNL A   1      38.282  34.471  38.421  1.00  0.00    -0.200 F 
ENDBRANCH  54  78
BRANCH  66  89
ATOM     89  C   UNL A   1      44.834  27.566  34.369  1.00  0.00     0.064 A 
ATOM     90  C   UNL A   1      46.054  28.260  34.367  1.00  0.00     0.173 A 
ATOM     91  C   UNL A   1      44.697  26.487  35.258  1.00  0.00     0.173 A 
ATOM     92  F   UNL A   1      46.243  29.291  33.531  1.00  0.00    -0.203 F 
ATOM     93  C   UNL A   1      47.100  27.871  35.201  1.00  0.00     0.198 A 
ATOM     94  C   UNL A   1      45.732  26.125  36.114  1.00  0.00     0.198 A 
ATOM     95  F   UNL A   1      43.549  25.794  35.309  1.00  0.00    -0.203 F 
ATOM     96  F   UNL A   1      48.273  28.518  35.145  1.00  0.00    -0.200 F 
ATOM     97  C   UNL A   1      46.935  26.811  36.080  1.00  0.00     0.200 A 
ATOM     98  F   UNL A   1      45.563  25.112  36.976  1.00  0.00    -0.200 F 
ATOM     99  F   UNL A   1      47.940  26.447  36.888  1.00  0.00    -0.200 F 
ENDBRANCH  66  89
ENDBRANCH  40  41
ENDBRANCH  33  35
ENDBRANCH  32  33
ENDBRANCH  31  32
ENDBRANCH  30  31
ENDBRANCH  29  30
ENDBRANCH  28  29
ENDBRANCH   1  28
TORSDOF 21
ENDMDL
MODEL 2
REMARK VINA RESULT:     -10.2      4.300      8.707
REMARK SMILES O=C(C[NH+]1CC[NH+](Cc2cc(Cl)ccc2[N+](=O)[O-])CC1)OCCOCCOCCOC(=O)c1ccc(-c2c3nc(c(-c4c(F)c(F)c(F)c(F)c4F)c4ccc([nH]4)c(-c4c(F)c(F)c(F)c(F)c4F)c4nc(c(-c5c(F)c(F)c(F)c(F)c5F)c5ccc2[nH]5)C=C4)C=C3)cc1
REMARK SMILES IDX 25 1 24 2 23 3 22 4 21 5 2 6 1 7 3 8 4 9 5 10 20 11 6 13
REMARK SMILES IDX 19 14 7 15 8 17 9 18 10 19 15 20 11 21 14 22 12 23 13 24
REMARK SMILES IDX 16 25 17 26 18 27 26 28 27 29 28 30 29 31 30 32 31 33 32 34
REMARK SMILES IDX 33 35 34 36 95 37 35 38 94 39 36 40 37 41 38 42 88 43 39 44
REMARK SMILES IDX 93 45 87 46 89 47 40 48 92 49 86 50 85 51 41 53 73 54 53 55
REMARK SMILES IDX 72 56 54 57 57 58 71 59 90 60 55 61 56 62 70 64 91 65 58 66
REMARK SMILES IDX 42 67 43 68 51 69 44 70 45 71 49 72 52 73 46 74 47 75 50 76
REMARK SMILES IDX 48 77 74 78 75 79 83 80 76 81 77 82 81 83 84 84 78 85 79 86
REMARK SMILES IDX 82 87 80 88 59 89 60 90 68 91 61 92 62 93 66 94 69 95 63 96
REMARK SMILES IDX 64 97 67 98 65 99
REMARK H PARENT 4 12 7 16 89 52 57 63
REMARK Flexibility Score: inf
ROOT
ATOM      1  C   UNL A   1      33.246  36.003  28.894  1.00  0.00     0.188 C 
ENDROOT
BRANCH   1   2
ATOM      2  O   UNL A   1      34.470  35.702  28.260  1.00  0.00    -0.376 OA
BRANCH   2   3
ATOM      3  C   UNL A   1      34.927  34.360  28.290  1.00  0.00     0.202 C 
BRANCH   3   4
ATOM      4  C   UNL A   1      34.005  33.182  28.668  1.00  0.00     0.261 C 
BRANCH   4   5
ATOM      5  O   UNL A   1      33.622  32.029  27.818  1.00  0.00    -0.459 OA
BRANCH   5   6
ATOM      6  C   UNL A   1      32.899  31.152  27.134  1.00  0.00     0.361 C 
ATOM      7  O   UNL A   1      31.766  31.523  26.797  1.00  0.00    -0.245 OA
BRANCH   6   8
ATOM      8  C   UNL A   1      33.291  29.715  26.798  1.00  0.00     0.386 C 
BRANCH   8   9
ATOM      9  N   UNL A   1      32.879  29.059  25.539  1.00  0.00    -0.316 N 
ATOM     10  C   UNL A   1      33.762  28.001  25.050  1.00  0.00     0.325 C 
ATOM     11  C   UNL A   1      31.502  28.573  25.575  1.00  0.00     0.325 C 
ATOM     12  H   UNL A   1      32.954  29.822  24.865  1.00  0.00     0.348 HD
ATOM     13  C   UNL A   1      33.656  26.638  25.778  1.00  0.00     0.324 C 
ATOM     14  C   UNL A   1      31.385  27.401  26.532  1.00  0.00     0.324 C 
ATOM     15  N   UNL A   1      32.357  26.322  26.364  1.00  0.00    -0.322 N 
ATOM     16  H   UNL A   1      32.644  26.285  27.342  1.00  0.00     0.348 HD
BRANCH  15  17
ATOM     17  C   UNL A   1      31.879  24.946  26.273  1.00  0.00     0.306 C 
BRANCH  17  18
ATOM     18  C   UNL A   1      32.306  24.355  24.945  1.00  0.00     0.085 A 
ATOM     19  C   UNL A   1      33.430  23.506  24.987  1.00  0.00     0.037 A 
ATOM     20  C   UNL A   1      31.913  24.898  23.703  1.00  0.00     0.278 A 
ATOM     21  C   UNL A   1      34.250  23.377  23.872  1.00  0.00     0.042 A 
ATOM     22  C   UNL A   1      32.737  24.749  22.578  1.00  0.00     0.088 A 
ATOM     23  Cl  UNL A   1      35.741  22.534  24.021  1.00  0.00    -0.084 Cl
ATOM     24  C   UNL A   1      33.926  24.020  22.681  1.00  0.00     0.027 A 
BRANCH  20  25
ATOM     25  N   UNL A   1      30.727  25.753  23.577  1.00  0.00     0.063 N 
ATOM     26  O   UNL A   1      29.771  25.517  24.329  1.00  0.00    -0.258 OA
ATOM     27  O   UNL A   1      30.768  26.672  22.748  1.00  0.00    -0.258 OA
ENDBRANCH  20  25
ENDBRANCH  17  18
ENDBRANCH  15  17
ENDBRANCH   8   9
ENDBRANCH   6   8
ENDBRANCH   5   6
ENDBRANCH   4   5
ENDBRANCH   3   4
ENDBRANCH   2   3
ENDBRANCH   1   2
BRANCH   1  28
ATOM     28  C   UNL A   1      33.290  36.380  30.374  1.00  0.00     0.188 C 
BRANCH  28  29
ATOM     29  O   UNL A   1      32.884  35.313  31.208  1.00  0.00    -0.376 OA
BRANCH  29  30
ATOM     30  C   UNL A   1      33.741  34.973  32.288  1.00  0.00     0.202 C 
BRANCH  30  31
ATOM     31  C   UNL A   1      33.976  33.499  32.679  1.00  0.00     0.261 C 
BRANCH  31  32
ATOM     32  O   UNL A   1      35.118  32.813  32.138  1.00  0.00    -0.460 OA
BRANCH  32  33
ATOM     33  C   UNL A   1      36.111  32.436  32.974  1.00  0.00     0.338 C 
ATOM     34  O   UNL A   1      36.178  32.632  34.166  1.00  0.00    -0.246 OA
BRANCH  33  35
ATOM     35  C   UNL A   1      37.040  31.567  32.204  1.00  0.00     0.060 A 
ATOM     36  C   UNL A   1      37.974  30.784  32.898  1.00  0.00     0.016 A 
ATOM     37  C   UNL A   1      36.991  31.522  30.809  1.00  0.00     0.016 A 
ATOM     38  C   UNL A   1      38.899  30.003  32.197  1.00  0.00     0.010 A 
ATOM     39  C   UNL A   1      37.934  30.762  30.107  1.00  0.00     0.010 A 
ATOM     40  C   UNL A   1      38.924  30.037  30.797  1.00  0.00    -0.014 A 
BRANCH  40  41
ATOM     41  C   UNL A   1      40.127  29.554  30.071  1.00  0.00     0.031 A 
ATOM     42  C   UNL A   1      41.257  30.531  29.863  1.00  0.00     0.074 A 
ATOM     43  C   UNL A   1      40.245  28.292  29.622  1.00  0.00     0.049 A 
ATOM     44  N   UNL A   1      42.385  30.386  29.216  1.00  0.00    -0.248 NA
ATOM     45  C   UNL A   1      41.084  31.861  30.474  1.00  0.00     0.031 C 
ATOM     46  C   UNL A   1      39.257  27.234  29.799  1.00  0.00     0.029 A 
ATOM     47  N   UNL A   1      41.258  27.693  28.909  1.00  0.00    -0.354 N 
ATOM     48  C   UNL A   1      43.046  31.602  29.334  1.00  0.00     0.074 A 
ATOM     49  C   UNL A   1      42.183  32.486  30.085  1.00  0.00     0.031 C 
ATOM     50  C   UNL A   1      39.703  26.117  29.197  1.00  0.00     0.029 A 
ATOM     51  C   UNL A   1      40.992  26.392  28.561  1.00  0.00     0.049 A 
ATOM     52  H   UNL A   1      42.094  28.155  28.671  1.00  0.00     0.167 HD
ATOM     53  C   UNL A   1      44.269  31.951  28.867  1.00  0.00     0.037 A 
ATOM     54  C   UNL A   1      41.698  25.534  27.796  1.00  0.00     0.037 A 
ATOM     55  C   UNL A   1      45.126  31.076  28.115  1.00  0.00     0.049 A 
ATOM     56  C   UNL A   1      43.019  25.976  27.209  1.00  0.00     0.074 A 
ATOM     57  C   UNL A   1      46.388  31.332  27.607  1.00  0.00     0.029 A 
ATOM     58  N   UNL A   1      44.805  29.777  27.751  1.00  0.00    -0.354 N 
ATOM     59  N   UNL A   1      43.649  27.117  27.343  1.00  0.00    -0.248 NA
ATOM     60  C   UNL A   1      43.727  25.003  26.362  1.00  0.00     0.031 C 
ATOM     61  C   UNL A   1      46.802  30.210  26.882  1.00  0.00     0.029 A 
ATOM     62  C   UNL A   1      45.830  29.229  26.998  1.00  0.00     0.049 A 
ATOM     63  H   UNL A   1      43.970  29.312  27.993  1.00  0.00     0.167 HD
ATOM     64  C   UNL A   1      44.838  26.988  26.634  1.00  0.00     0.074 A 
ATOM     65  C   UNL A   1      44.847  25.652  26.079  1.00  0.00     0.031 C 
ATOM     66  C   UNL A   1      45.833  27.893  26.460  1.00  0.00     0.037 A 
BRANCH  53  67
ATOM     67  C   UNL A   1      44.734  33.356  29.126  1.00  0.00     0.064 A 
ATOM     68  C   UNL A   1      44.463  34.403  28.232  1.00  0.00     0.173 A 
ATOM     69  C   UNL A   1      45.439  33.662  30.299  1.00  0.00     0.173 A 
ATOM     70  F   UNL A   1      43.806  34.162  27.087  1.00  0.00    -0.203 F 
ATOM     71  C   UNL A   1      44.907  35.698  28.490  1.00  0.00     0.198 A 
ATOM     72  C   UNL A   1      45.852  34.963  30.570  1.00  0.00     0.198 A 
ATOM     73  F   UNL A   1      45.723  32.698  31.189  1.00  0.00    -0.203 F 
ATOM     74  F   UNL A   1      44.684  36.671  27.597  1.00  0.00    -0.200 F 
ATOM     75  C   UNL A   1      45.593  35.978  29.662  1.00  0.00     0.200 A 
ATOM     76  F   UNL A   1      46.502  35.235  31.710  1.00  0.00    -0.200 F 
ATOM     77  F   UNL A   1      46.013  37.226  29.913  1.00  0.00    -0.200 F 
ENDBRANCH  53  67
BRANCH  54  78
ATOM     78  C   UNL A   1      41.170  24.171  27.517  1.00  0.00     0.064 A 
ATOM     79  C   UNL A   1      41.772  23.031  28.070  1.00  0.00     0.173 A 
ATOM     80  C   UNL A   1      40.076  23.976  26.660  1.00  0.00     0.173 A 
ATOM     81  F   UNL A   1      42.841  23.160  28.871  1.00  0.00    -0.203 F 
ATOM     82  C   UNL A   1      41.314  21.751  27.760  1.00  0.00     0.198 A 
ATOM     83  C   UNL A   1      39.599  22.696  26.377  1.00  0.00     0.198 A 
ATOM     84  F   UNL A   1      39.467  25.029  26.096  1.00  0.00    -0.203 F 
ATOM     85  F   UNL A   1      41.946  20.678  28.258  1.00  0.00    -0.200 F 
ATOM     86  C   UNL A   1      40.225  21.585  26.919  1.00  0.00     0.200 A 
ATOM     87  F   UNL A   1      38.540  22.543  25.572  1.00  0.00    -0.200 F 
ATOM     88  F   UNL A   1      39.785  20.355  26.621  1.00  0.00    -0.200 F 
ENDBRANCH  54  78
BRANCH  66  89
ATOM     89  C   UNL A   1      47.044  27.460  25.679  1.00  0.00     0.064 A 
ATOM     90  C   UNL A   1      47.159  27.688  24.300  1.00  0.00     0.173 A 
ATOM     91  C   UNL A   1      48.129  26.852  26.334  1.00  0.00     0.173 A 
ATOM     92  F   UNL A   1      46.149  28.254  23.623  1.00  0.00    -0.203 F 
ATOM     93  C   UNL A   1      48.300  27.299  23.602  1.00  0.00     0.198 A 
ATOM     94  C   UNL A   1      49.281  26.498  25.639  1.00  0.00     0.198 A 
ATOM     95  F   UNL A   1      48.078  26.620  27.654  1.00  0.00    -0.203 F 
ATOM     96  F   UNL A   1      48.365  27.481  22.275  1.00  0.00    -0.200 F 
ATOM     97  C   UNL A   1      49.363  26.714  24.273  1.00  0.00     0.200 A 
ATOM     98  F   UNL A   1      50.315  25.950  26.294  1.00  0.00    -0.200 F 
ATOM     99  F   UNL A   1      50.464  26.350  23.600  1.00  0.00    -0.200 F 
ENDBRANCH  66  89
ENDBRANCH  40  41
ENDBRANCH  33  35
ENDBRANCH  32  33
ENDBRANCH  31  32
ENDBRANCH  30  31
ENDBRANCH  29  30
ENDBRANCH  28  29
ENDBRANCH   1  28
TORSDOF 21
ENDMDL
MODEL 3
REMARK VINA RESULT:     -10.2      4.476      8.706
REMARK SMILES O=C(C[NH+]1CC[NH+](Cc2cc(Cl)ccc2[N+](=O)[O-])CC1)OCCOCCOCCOC(=O)c1ccc(-c2c3nc(c(-c4c(F)c(F)c(F)c(F)c4F)c4ccc([nH]4)c(-c4c(F)c(F)c(F)c(F)c4F)c4nc(c(-c5c(F)c(F)c(F)c(F)c5F)c5ccc2[nH]5)C=C4)C=C3)cc1
REMARK SMILES IDX 25 1 24 2 23 3 22 4 21 5 2 6 1 7 3 8 4 9 5 10 20 11 6 13
REMARK SMILES IDX 19 14 7 15 8 17 9 18 10 19 15 20 11 21 14 22 12 23 13 24
REMARK SMILES IDX 16 25 17 26 18 27 26 28 27 29 28 30 29 31 30 32 31 33 32 34
REMARK SMILES IDX 33 35 34 36 95 37 35 38 94 39 36 40 37 41 38 42 88 43 39 44
REMARK SMILES IDX 93 45 87 46 89 47 40 48 92 49 86 50 85 51 41 53 73 54 53 55
REMARK SMILES IDX 72 56 54 57 57 58 71 59 90 60 55 61 56 62 70 64 91 65 58 66
REMARK SMILES IDX 42 67 43 68 51 69 44 70 45 71 49 72 52 73 46 74 47 75 50 76
REMARK SMILES IDX 48 77 74 78 75 79 83 80 76 81 77 82 81 83 84 84 78 85 79 86
REMARK SMILES IDX 82 87 80 88 59 89 60 90 68 91 61 92 62 93 66 94 69 95 63 96
REMARK SMILES IDX 64 97 67 98 65 99
REMARK H PARENT 4 12 7 16 89 52 57 63
REMARK Flexibility Score: inf
ROOT
ATOM      1  C   UNL A   1      33.475  36.018  28.823  1.00  0.00     0.188 C 
ENDROOT
BRANCH   1   2
ATOM      2  O   UNL A   1      34.673  35.455  28.332  1.00  0.00    -0.376 OA
BRANCH   2   3
ATOM      3  C   UNL A   1      34.908  34.076  28.561  1.00  0.00     0.202 C 
BRANCH   3   4
ATOM      4  C   UNL A   1      33.776  33.028  28.516  1.00  0.00     0.261 C 
BRANCH   4   5
ATOM      5  O   UNL A   1      33.744  31.770  27.731  1.00  0.00    -0.459 OA
BRANCH   5   6
ATOM      6  C   UNL A   1      34.116  30.638  27.146  1.00  0.00     0.361 C 
ATOM      7  O   UNL A   1      35.212  30.178  27.496  1.00  0.00    -0.245 OA
BRANCH   6   8
ATOM      8  C   UNL A   1      33.373  29.902  26.034  1.00  0.00     0.386 C 
BRANCH   8   9
ATOM      9  N   UNL A   1      32.425  28.803  26.315  1.00  0.00    -0.316 N 
ATOM     10  C   UNL A   1      31.479  28.485  25.245  1.00  0.00     0.325 C 
ATOM     11  C   UNL A   1      33.088  27.580  26.764  1.00  0.00     0.325 C 
ATOM     12  H   UNL A   1      31.867  29.189  27.077  1.00  0.00     0.348 HD
ATOM     13  C   UNL A   1      32.048  27.673  24.056  1.00  0.00     0.324 C 
ATOM     14  C   UNL A   1      33.877  26.963  25.624  1.00  0.00     0.324 C 
ATOM     15  N   UNL A   1      33.165  26.783  24.360  1.00  0.00    -0.322 N 
ATOM     16  H   UNL A   1      33.871  27.232  23.777  1.00  0.00     0.348 HD
BRANCH  15  17
ATOM     17  C   UNL A   1      33.203  25.479  23.706  1.00  0.00     0.306 C 
BRANCH  17  18
ATOM     18  C   UNL A   1      32.457  24.471  24.555  1.00  0.00     0.085 A 
ATOM     19  C   UNL A   1      31.147  24.836  24.927  1.00  0.00     0.037 A 
ATOM     20  C   UNL A   1      33.107  23.449  25.278  1.00  0.00     0.278 A 
ATOM     21  C   UNL A   1      30.593  24.346  26.104  1.00  0.00     0.042 A 
ATOM     22  C   UNL A   1      32.533  22.947  26.456  1.00  0.00     0.088 A 
ATOM     23  Cl  UNL A   1      29.099  24.991  26.659  1.00  0.00    -0.084 Cl
ATOM     24  C   UNL A   1      31.293  23.430  26.885  1.00  0.00     0.027 A 
BRANCH  20  25
ATOM     25  N   UNL A   1      34.452  22.987  24.919  1.00  0.00     0.063 N 
ATOM     26  O   UNL A   1      35.411  23.519  25.495  1.00  0.00    -0.258 OA
ATOM     27  O   UNL A   1      34.542  22.077  24.083  1.00  0.00    -0.258 OA
ENDBRANCH  20  25
ENDBRANCH  17  18
ENDBRANCH  15  17
ENDBRANCH   8   9
ENDBRANCH   6   8
ENDBRANCH   5   6
ENDBRANCH   4   5
ENDBRANCH   3   4
ENDBRANCH   2   3
ENDBRANCH   1   2
BRANCH   1  28
ATOM     28  C   UNL A   1      33.445  36.450  30.288  1.00  0.00     0.188 C 
BRANCH  28  29
ATOM     29  O   UNL A   1      32.812  35.493  31.113  1.00  0.00    -0.376 OA
BRANCH  29  30
ATOM     30  C   UNL A   1      33.558  34.989  32.211  1.00  0.00     0.202 C 
BRANCH  30  31
ATOM     31  C   UNL A   1      33.735  33.470  32.417  1.00  0.00     0.261 C 
BRANCH  31  32
ATOM     32  O   UNL A   1      34.932  32.840  31.929  1.00  0.00    -0.460 OA
BRANCH  32  33
ATOM     33  C   UNL A   1      35.857  32.416  32.818  1.00  0.00     0.338 C 
ATOM     34  O   UNL A   1      35.850  32.580  34.017  1.00  0.00    -0.246 OA
BRANCH  33  35
ATOM     35  C   UNL A   1      36.812  31.540  32.088  1.00  0.00     0.060 A 
ATOM     36  C   UNL A   1      37.760  30.807  32.818  1.00  0.00     0.016 A 
ATOM     37  C   UNL A   1      36.774  31.441  30.695  1.00  0.00     0.016 A 
ATOM     38  C   UNL A   1      38.708  30.022  32.154  1.00  0.00     0.010 A 
ATOM     39  C   UNL A   1      37.740  30.677  30.029  1.00  0.00     0.010 A 
ATOM     40  C   UNL A   1      38.742  30.004  30.753  1.00  0.00    -0.014 A 
BRANCH  40  41
ATOM     41  C   UNL A   1      39.963  29.523  30.054  1.00  0.00     0.031 A 
ATOM     42  C   UNL A   1      41.095  30.501  29.872  1.00  0.00     0.074 A 
ATOM     43  C   UNL A   1      40.092  28.261  29.608  1.00  0.00     0.049 A 
ATOM     44  N   UNL A   1      42.238  30.358  29.249  1.00  0.00    -0.248 NA
ATOM     45  C   UNL A   1      40.906  31.831  30.478  1.00  0.00     0.031 C 
ATOM     46  C   UNL A   1      39.102  27.201  29.763  1.00  0.00     0.029 A 
ATOM     47  N   UNL A   1      41.121  27.663  28.917  1.00  0.00    -0.354 N 
ATOM     48  C   UNL A   1      42.894  31.575  29.382  1.00  0.00     0.074 A 
ATOM     49  C   UNL A   1      42.012  32.458  30.113  1.00  0.00     0.031 C 
ATOM     50  C   UNL A   1      39.562  26.084  29.171  1.00  0.00     0.029 A 
ATOM     51  C   UNL A   1      40.865  26.361  28.564  1.00  0.00     0.049 A 
ATOM     52  H   UNL A   1      41.961  28.126  28.698  1.00  0.00     0.167 HD
ATOM     53  C   UNL A   1      44.126  31.926  28.942  1.00  0.00     0.037 A 
ATOM     54  C   UNL A   1      41.590  25.505  27.815  1.00  0.00     0.037 A 
ATOM     55  C   UNL A   1      45.001  31.052  28.209  1.00  0.00     0.049 A 
ATOM     56  C   UNL A   1      42.922  25.948  27.257  1.00  0.00     0.074 A 
ATOM     57  C   UNL A   1      46.273  31.310  27.729  1.00  0.00     0.029 A 
ATOM     58  N   UNL A   1      44.690  29.752  27.838  1.00  0.00    -0.354 N 
ATOM     59  N   UNL A   1      43.547  27.091  27.405  1.00  0.00    -0.248 NA
ATOM     60  C   UNL A   1      43.651  24.977  26.426  1.00  0.00     0.031 C 
ATOM     61  C   UNL A   1      46.705  30.189  27.014  1.00  0.00     0.029 A 
ATOM     62  C   UNL A   1      45.732  29.206  27.108  1.00  0.00     0.049 A 
ATOM     63  H   UNL A   1      43.851  29.287  28.061  1.00  0.00     0.167 HD
ATOM     64  C   UNL A   1      44.752  26.964  26.722  1.00  0.00     0.074 A 
ATOM     65  C   UNL A   1      44.776  25.627  26.168  1.00  0.00     0.031 C 
ATOM     66  C   UNL A   1      45.749  27.870  26.571  1.00  0.00     0.037 A 
BRANCH  53  67
ATOM     67  C   UNL A   1      44.583  33.331  29.211  1.00  0.00     0.064 A 
ATOM     68  C   UNL A   1      45.130  33.708  30.447  1.00  0.00     0.173 A 
ATOM     69  C   UNL A   1      44.494  34.308  28.208  1.00  0.00     0.173 A 
ATOM     70  F   UNL A   1      45.223  32.818  31.446  1.00  0.00    -0.203 F 
ATOM     71  C   UNL A   1      45.544  35.019  30.677  1.00  0.00     0.198 A 
ATOM     72  C   UNL A   1      44.940  35.608  28.430  1.00  0.00     0.198 A 
ATOM     73  F   UNL A   1      43.980  34.001  27.007  1.00  0.00    -0.203 F 
ATOM     74  F   UNL A   1      46.014  35.369  31.882  1.00  0.00    -0.200 F 
ATOM     75  C   UNL A   1      45.456  35.964  29.667  1.00  0.00     0.200 A 
ATOM     76  F   UNL A   1      44.868  36.516  27.448  1.00  0.00    -0.200 F 
ATOM     77  F   UNL A   1      45.863  37.222  29.887  1.00  0.00    -0.200 F 
ENDBRANCH  53  67
BRANCH  54  78
ATOM     78  C   UNL A   1      41.069  24.141  27.524  1.00  0.00     0.064 A 
ATOM     79  C   UNL A   1      41.648  23.003  28.106  1.00  0.00     0.173 A 
ATOM     80  C   UNL A   1      40.009  23.942  26.627  1.00  0.00     0.173 A 
ATOM     81  F   UNL A   1      42.686  23.135  28.946  1.00  0.00    -0.203 F 
ATOM     82  C   UNL A   1      41.200  21.722  27.787  1.00  0.00     0.198 A 
ATOM     83  C   UNL A   1      39.540  22.662  26.334  1.00  0.00     0.198 A 
ATOM     84  F   UNL A   1      39.423  24.993  26.035  1.00  0.00    -0.203 F 
ATOM     85  F   UNL A   1      41.810  20.651  28.315  1.00  0.00    -0.200 F 
ATOM     86  C   UNL A   1      40.143  21.553  26.906  1.00  0.00     0.200 A 
ATOM     87  F   UNL A   1      38.512  22.505  25.490  1.00  0.00    -0.200 F 
ATOM     88  F   UNL A   1      39.713  20.321  26.600  1.00  0.00    -0.200 F 
ENDBRANCH  54  78
BRANCH  66  89
ATOM     89  C   UNL A   1      46.978  27.439  25.817  1.00  0.00     0.064 A 
ATOM     90  C   UNL A   1      47.139  27.700  24.448  1.00  0.00     0.173 A 
ATOM     91  C   UNL A   1      48.033  26.799  26.489  1.00  0.00     0.173 A 
ATOM     92  F   UNL A   1      46.159  28.298  23.755  1.00  0.00    -0.203 F 
ATOM     93  C   UNL A   1      48.296  27.312  23.776  1.00  0.00     0.198 A 
ATOM     94  C   UNL A   1      49.201  26.445  25.821  1.00  0.00     0.198 A 
ATOM     95  F   UNL A   1      47.937  26.534  27.801  1.00  0.00    -0.203 F 
ATOM     96  F   UNL A   1      48.405  27.526  22.457  1.00  0.00    -0.200 F 
ATOM     97  C   UNL A   1      49.329  26.694  24.464  1.00  0.00     0.200 A 
ATOM     98  F   UNL A   1      50.206  25.865  26.494  1.00  0.00    -0.200 F 
ATOM     99  F   UNL A   1      50.445  26.331  23.817  1.00  0.00    -0.200 F 
ENDBRANCH  66  89
ENDBRANCH  40  41
ENDBRANCH  33  35
ENDBRANCH  32  33
ENDBRANCH  31  32
ENDBRANCH  30  31
ENDBRANCH  29  30
ENDBRANCH  28  29
ENDBRANCH   1  28
TORSDOF 21
ENDMDL
