MODEL 1
REMARK VINA RESULT:     -11.1      0.000      0.000
REMARK SMILES C[C@@H]1CCCN(C(=O)c2ccc(=O)n([C@H](C)C(=O)OCCOCCOCCOC(=O)c3ccc(-c4c5nc(c(-c6c(F)c(F)c(F)c(F)c6F)c6ccc([nH]6)c(-c6c(F)c(F)c(F)c(F)c6F)c6nc(c(-c7c(F)c(F)c(F)c(F)c7F)c7ccc4[nH]7)C=C6)C=C5)cc3)n2)C1
REMARK SMILES IDX 23 1 22 2 21 3 20 4 19 5 17 6 18 7 15 8 16 9 14 10 9 11
REMARK SMILES IDX 10 12 94 13 11 14 12 15 13 16 7 17 8 18 6 19 1 20 2 21 3 22
REMARK SMILES IDX 95 23 4 24 5 25 24 26 25 27 26 28 27 29 28 30 29 31 30 32
REMARK SMILES IDX 31 33 32 34 93 35 33 36 92 37 34 38 35 39 36 40 86 41 37 42
REMARK SMILES IDX 91 43 85 44 87 45 38 46 90 47 84 48 83 49 39 51 71 52 51 53
REMARK SMILES IDX 70 54 52 55 55 56 69 57 88 58 53 59 54 60 68 62 89 63 56 64
REMARK SMILES IDX 40 65 41 66 49 67 42 68 43 69 47 70 50 71 44 72 45 73 48 74
REMARK SMILES IDX 46 75 72 76 73 77 81 78 74 79 75 80 79 81 82 82 76 83 77 84
REMARK SMILES IDX 80 85 78 86 57 87 58 88 66 89 59 90 60 91 64 92 67 93 61 94
REMARK SMILES IDX 62 95 65 96 63 97
REMARK H PARENT 87 50 55 61
REMARK Flexibility Score: inf
ROOT
ATOM      1  C   UNL A   1      40.278  21.024  26.715  1.00  0.00     0.188 C 
ENDROOT
BRANCH   1   2
ATOM      2  O   UNL A   1      39.286  21.792  26.062  1.00  0.00    -0.376 OA
BRANCH   2   3
ATOM      3  C   UNL A   1      38.237  21.115  25.376  1.00  0.00     0.202 C 
BRANCH   3   4
ATOM      4  C   UNL A   1      37.384  21.851  24.326  1.00  0.00     0.261 C 
BRANCH   4   5
ATOM      5  O   UNL A   1      35.957  21.702  24.491  1.00  0.00    -0.462 OA
BRANCH   5   6
ATOM      6  C   UNL A   1      35.421  22.263  25.606  1.00  0.00     0.330 C 
ATOM      7  O   UNL A   1      35.890  23.275  26.124  1.00  0.00    -0.250 OA
BRANCH   6   8
ATOM      8  C   UNL A   1      34.145  21.564  26.141  1.00  0.00     0.218 C 
ATOM      9  C   UNL A   1      33.799  21.609  27.637  1.00  0.00     0.046 C 
BRANCH   8  10
ATOM     10  N   UNL A   1      33.077  22.180  25.357  1.00  0.00    -0.215 N 
ATOM     11  C   UNL A   1      31.869  24.083  25.023  1.00  0.00     0.149 A 
ATOM     12  C   UNL A   1      31.306  23.587  23.757  1.00  0.00     0.042 A 
ATOM     13  N   UNL A   1      32.703  23.435  25.764  1.00  0.00    -0.164 NA
ATOM     14  C   UNL A   1      31.666  22.352  23.392  1.00  0.00     0.076 A 
ATOM     15  C   UNL A   1      32.581  21.542  24.228  1.00  0.00     0.267 A 
ATOM     16  O   UNL A   1      32.853  20.393  23.893  1.00  0.00    -0.268 OA
BRANCH  11  17
ATOM     17  C   UNL A   1      31.412  25.439  25.518  1.00  0.00     0.274 C 
ATOM     18  O   UNL A   1      30.687  25.444  26.508  1.00  0.00    -0.267 OA
BRANCH  17  19
ATOM     19  N   UNL A   1      31.865  26.577  24.852  1.00  0.00    -0.337 N 
ATOM     20  C   UNL A   1      30.081  29.665  23.506  1.00  0.00     0.009 C 
ATOM     21  C   UNL A   1      31.038  28.863  24.384  1.00  0.00     0.005 C 
ATOM     22  C   UNL A   1      32.488  29.323  24.182  1.00  0.00     0.007 C 
ATOM     23  C   UNL A   1      30.903  27.362  24.090  1.00  0.00     0.123 C 
ATOM     24  C   UNL A   1      33.440  28.480  25.030  1.00  0.00     0.022 C 
ATOM     25  C   UNL A   1      33.266  26.992  24.733  1.00  0.00     0.120 C 
ENDBRANCH  17  19
ENDBRANCH  11  17
ENDBRANCH   8  10
ENDBRANCH   6   8
ENDBRANCH   5   6
ENDBRANCH   4   5
ENDBRANCH   3   4
ENDBRANCH   2   3
ENDBRANCH   1   2
BRANCH   1  26
ATOM     26  C   UNL A   1      40.690  19.670  26.126  1.00  0.00     0.188 C 
BRANCH  26  27
ATOM     27  O   UNL A   1      41.922  19.576  25.464  1.00  0.00    -0.376 OA
BRANCH  27  28
ATOM     28  C   UNL A   1      43.068  20.253  25.946  1.00  0.00     0.202 C 
BRANCH  28  29
ATOM     29  C   UNL A   1      43.699  21.518  25.328  1.00  0.00     0.261 C 
BRANCH  29  30
ATOM     30  O   UNL A   1      42.974  22.748  25.397  1.00  0.00    -0.460 OA
BRANCH  30  31
ATOM     31  C   UNL A   1      43.703  23.890  25.276  1.00  0.00     0.338 C 
ATOM     32  O   UNL A   1      44.462  24.188  24.380  1.00  0.00    -0.246 OA
BRANCH  31  33
ATOM     33  C   UNL A   1      43.191  24.830  26.304  1.00  0.00     0.060 A 
ATOM     34  C   UNL A   1      42.209  24.420  27.203  1.00  0.00     0.016 A 
ATOM     35  C   UNL A   1      43.650  26.156  26.308  1.00  0.00     0.016 A 
ATOM     36  C   UNL A   1      41.693  25.338  28.119  1.00  0.00     0.010 A 
ATOM     37  C   UNL A   1      43.117  27.080  27.212  1.00  0.00     0.010 A 
ATOM     38  C   UNL A   1      42.148  26.671  28.137  1.00  0.00    -0.014 A 
BRANCH  38  39
ATOM     39  C   UNL A   1      41.723  27.572  29.236  1.00  0.00     0.031 A 
ATOM     40  C   UNL A   1      40.523  28.461  29.125  1.00  0.00     0.074 A 
ATOM     41  C   UNL A   1      42.449  27.559  30.369  1.00  0.00     0.049 A 
ATOM     42  N   UNL A   1      39.974  29.214  30.047  1.00  0.00    -0.248 NA
ATOM     43  C   UNL A   1      39.856  28.524  27.819  1.00  0.00     0.031 C 
ATOM     44  C   UNL A   1      43.657  26.759  30.576  1.00  0.00     0.029 A 
ATOM     45  N   UNL A   1      42.276  28.219  31.558  1.00  0.00    -0.354 N 
ATOM     46  C   UNL A   1      38.880  29.818  29.445  1.00  0.00     0.074 A 
ATOM     47  C   UNL A   1      38.876  29.387  28.061  1.00  0.00     0.031 C 
ATOM     48  C   UNL A   1      44.095  26.946  31.829  1.00  0.00     0.029 A 
ATOM     49  C   UNL A   1      43.216  27.898  32.504  1.00  0.00     0.049 A 
ATOM     50  H   UNL A   1      41.546  28.861  31.718  1.00  0.00     0.167 HD
ATOM     51  C   UNL A   1      37.956  30.638  30.006  1.00  0.00     0.037 A 
ATOM     52  C   UNL A   1      43.354  28.314  33.776  1.00  0.00     0.037 A 
ATOM     53  C   UNL A   1      37.980  31.080  31.380  1.00  0.00     0.049 A 
ATOM     54  C   UNL A   1      42.344  29.265  34.354  1.00  0.00     0.074 A 
ATOM     55  C   UNL A   1      37.064  31.880  32.044  1.00  0.00     0.029 A 
ATOM     56  N   UNL A   1      38.978  30.779  32.296  1.00  0.00    -0.354 N 
ATOM     57  N   UNL A   1      41.263  29.759  33.802  1.00  0.00    -0.248 NA
ATOM     58  C   UNL A   1      42.571  29.709  35.736  1.00  0.00     0.031 C 
ATOM     59  C   UNL A   1      37.537  32.112  33.340  1.00  0.00     0.029 A 
ATOM     60  C   UNL A   1      38.718  31.407  33.507  1.00  0.00     0.049 A 
ATOM     61  H   UNL A   1      39.757  30.204  32.115  1.00  0.00     0.167 HD
ATOM     62  C   UNL A   1      40.673  30.560  34.771  1.00  0.00     0.074 A 
ATOM     63  C   UNL A   1      41.500  30.459  35.956  1.00  0.00     0.031 C 
ATOM     64  C   UNL A   1      39.552  31.317  34.681  1.00  0.00     0.037 A 
BRANCH  51  65
ATOM     65  C   UNL A   1      36.818  31.109  29.143  1.00  0.00     0.064 A 
ATOM     66  C   UNL A   1      35.739  30.266  28.837  1.00  0.00     0.173 A 
ATOM     67  C   UNL A   1      36.755  32.438  28.698  1.00  0.00     0.173 A 
ATOM     68  F   UNL A   1      35.746  28.986  29.241  1.00  0.00    -0.203 F 
ATOM     69  C   UNL A   1      34.649  30.730  28.105  1.00  0.00     0.198 A 
ATOM     70  C   UNL A   1      35.651  32.909  27.992  1.00  0.00     0.198 A 
ATOM     71  F   UNL A   1      37.752  33.293  28.977  1.00  0.00    -0.203 F 
ATOM     72  F   UNL A   1      33.641  29.899  27.806  1.00  0.00    -0.200 F 
ATOM     73  C   UNL A   1      34.601  32.053  27.693  1.00  0.00     0.200 A 
ATOM     74  F   UNL A   1      35.595  34.193  27.615  1.00  0.00    -0.200 F 
ATOM     75  F   UNL A   1      33.540  32.506  27.010  1.00  0.00    -0.200 F 
ENDBRANCH  51  65
BRANCH  52  76
ATOM     76  C   UNL A   1      44.481  27.799  34.595  1.00  0.00     0.064 A 
ATOM     77  C   UNL A   1      45.714  28.464  34.620  1.00  0.00     0.173 A 
ATOM     78  C   UNL A   1      44.341  26.650  35.386  1.00  0.00     0.173 A 
ATOM     79  F   UNL A   1      45.902  29.557  33.865  1.00  0.00    -0.203 F 
ATOM     80  C   UNL A   1      46.768  27.992  35.398  1.00  0.00     0.198 A 
ATOM     81  C   UNL A   1      45.386  26.197  36.188  1.00  0.00     0.198 A 
ATOM     82  F   UNL A   1      43.178  25.981  35.401  1.00  0.00    -0.203 F 
ATOM     83  F   UNL A   1      47.949  28.625  35.375  1.00  0.00    -0.200 F 
ATOM     84  C   UNL A   1      46.600  26.865  36.189  1.00  0.00     0.200 A 
ATOM     85  F   UNL A   1      45.213  25.119  36.964  1.00  0.00    -0.200 F 
ATOM     86  F   UNL A   1      47.611  26.420  36.947  1.00  0.00    -0.200 F 
ENDBRANCH  52  76
BRANCH  64  87
ATOM     87  C   UNL A   1      39.150  32.106  35.897  1.00  0.00     0.064 A 
ATOM     88  C   UNL A   1      39.563  33.435  36.076  1.00  0.00     0.173 A 
ATOM     89  C   UNL A   1      38.311  31.545  36.872  1.00  0.00     0.173 A 
ATOM     90  F   UNL A   1      40.378  34.016  35.183  1.00  0.00    -0.203 F 
ATOM     91  C   UNL A   1      39.173  34.163  37.198  1.00  0.00     0.198 A 
ATOM     92  C   UNL A   1      37.895  32.288  37.975  1.00  0.00     0.198 A 
ATOM     93  F   UNL A   1      37.881  30.281  36.750  1.00  0.00    -0.203 F 
ATOM     94  F   UNL A   1      39.623  35.414  37.373  1.00  0.00    -0.200 F 
ATOM     95  C   UNL A   1      38.331  33.593  38.141  1.00  0.00     0.200 A 
ATOM     96  F   UNL A   1      37.068  31.740  38.877  1.00  0.00    -0.200 F 
ATOM     97  F   UNL A   1      37.949  34.299  39.213  1.00  0.00    -0.200 F 
ENDBRANCH  64  87
ENDBRANCH  38  39
ENDBRANCH  31  33
ENDBRANCH  30  31
ENDBRANCH  29  30
ENDBRANCH  28  29
ENDBRANCH  27  28
ENDBRANCH  26  27
ENDBRANCH   1  26
TORSDOF 20
ENDMDL
MODEL 2
REMARK VINA RESULT:     -10.6      1.242      2.157
REMARK SMILES C[C@@H]1CCCN(C(=O)c2ccc(=O)n([C@H](C)C(=O)OCCOCCOCCOC(=O)c3ccc(-c4c5nc(c(-c6c(F)c(F)c(F)c(F)c6F)c6ccc([nH]6)c(-c6c(F)c(F)c(F)c(F)c6F)c6nc(c(-c7c(F)c(F)c(F)c(F)c7F)c7ccc4[nH]7)C=C6)C=C5)cc3)n2)C1
REMARK SMILES IDX 23 1 22 2 21 3 20 4 19 5 17 6 18 7 15 8 16 9 14 10 9 11
REMARK SMILES IDX 10 12 94 13 11 14 12 15 13 16 7 17 8 18 6 19 1 20 2 21 3 22
REMARK SMILES IDX 95 23 4 24 5 25 24 26 25 27 26 28 27 29 28 30 29 31 30 32
REMARK SMILES IDX 31 33 32 34 93 35 33 36 92 37 34 38 35 39 36 40 86 41 37 42
REMARK SMILES IDX 91 43 85 44 87 45 38 46 90 47 84 48 83 49 39 51 71 52 51 53
REMARK SMILES IDX 70 54 52 55 55 56 69 57 88 58 53 59 54 60 68 62 89 63 56 64
REMARK SMILES IDX 40 65 41 66 49 67 42 68 43 69 47 70 50 71 44 72 45 73 48 74
REMARK SMILES IDX 46 75 72 76 73 77 81 78 74 79 75 80 79 81 82 82 76 83 77 84
REMARK SMILES IDX 80 85 78 86 57 87 58 88 66 89 59 90 60 91 64 92 67 93 61 94
REMARK SMILES IDX 62 95 65 96 63 97
REMARK H PARENT 87 50 55 61
REMARK Flexibility Score: inf
ROOT
ATOM      1  C   UNL A   1      40.753  21.576  27.327  1.00  0.00     0.188 C 
ENDROOT
BRANCH   1   2
ATOM      2  O   UNL A   1      39.431  21.949  26.987  1.00  0.00    -0.376 OA
BRANCH   2   3
ATOM      3  C   UNL A   1      38.902  21.530  25.733  1.00  0.00     0.202 C 
BRANCH   3   4
ATOM      4  C   UNL A   1      37.582  22.121  25.202  1.00  0.00     0.261 C 
BRANCH   4   5
ATOM      5  O   UNL A   1      36.387  21.504  25.725  1.00  0.00    -0.462 OA
BRANCH   5   6
ATOM      6  C   UNL A   1      35.421  22.350  26.170  1.00  0.00     0.330 C 
ATOM      7  O   UNL A   1      35.553  23.572  26.141  1.00  0.00    -0.250 OA
BRANCH   6   8
ATOM      8  C   UNL A   1      34.123  21.660  26.663  1.00  0.00     0.218 C 
ATOM      9  C   UNL A   1      33.326  22.246  27.837  1.00  0.00     0.046 C 
BRANCH   8  10
ATOM     10  N   UNL A   1      33.294  21.617  25.461  1.00  0.00    -0.215 N 
ATOM     11  C   UNL A   1      32.041  22.854  24.014  1.00  0.00     0.149 A 
ATOM     12  C   UNL A   1      31.970  21.761  23.032  1.00  0.00     0.042 A 
ATOM     13  N   UNL A   1      32.667  22.794  25.141  1.00  0.00    -0.164 NA
ATOM     14  C   UNL A   1      32.567  20.616  23.375  1.00  0.00     0.076 A 
ATOM     15  C   UNL A   1      33.258  20.472  24.676  1.00  0.00     0.267 A 
ATOM     16  O   UNL A   1      33.754  19.392  24.985  1.00  0.00    -0.268 OA
BRANCH  11  17
ATOM     17  C   UNL A   1      31.297  24.135  23.704  1.00  0.00     0.274 C 
ATOM     18  O   UNL A   1      30.192  24.014  23.184  1.00  0.00    -0.267 OA
BRANCH  17  19
ATOM     19  N   UNL A   1      31.888  25.349  24.055  1.00  0.00    -0.337 N 
ATOM     20  C   UNL A   1      31.542  27.599  27.113  1.00  0.00     0.009 C 
ATOM     21  C   UNL A   1      32.237  26.672  26.119  1.00  0.00     0.005 C 
ATOM     22  C   UNL A   1      33.418  27.379  25.439  1.00  0.00     0.007 C 
ATOM     23  C   UNL A   1      31.236  26.167  25.070  1.00  0.00     0.123 C 
ATOM     24  C   UNL A   1      34.074  26.457  24.411  1.00  0.00     0.022 C 
ATOM     25  C   UNL A   1      33.050  25.952  23.396  1.00  0.00     0.120 C 
ENDBRANCH  17  19
ENDBRANCH  11  17
ENDBRANCH   8  10
ENDBRANCH   6   8
ENDBRANCH   5   6
ENDBRANCH   4   5
ENDBRANCH   3   4
ENDBRANCH   2   3
ENDBRANCH   1   2
BRANCH   1  26
ATOM     26  C   UNL A   1      41.517  20.607  26.417  1.00  0.00     0.188 C 
BRANCH  26  27
ATOM     27  O   UNL A   1      42.479  21.129  25.542  1.00  0.00    -0.376 OA
BRANCH  27  28
ATOM     28  C   UNL A   1      42.643  22.525  25.379  1.00  0.00     0.202 C 
BRANCH  28  29
ATOM     29  C   UNL A   1      43.878  23.228  24.778  1.00  0.00     0.261 C 
BRANCH  29  30
ATOM     30  O   UNL A   1      43.871  24.653  24.673  1.00  0.00    -0.460 OA
BRANCH  30  31
ATOM     31  C   UNL A   1      44.924  25.308  25.234  1.00  0.00     0.338 C 
ATOM     32  O   UNL A   1      46.041  25.432  24.782  1.00  0.00    -0.246 OA
BRANCH  31  33
ATOM     33  C   UNL A   1      44.380  26.083  26.376  1.00  0.00     0.060 A 
ATOM     34  C   UNL A   1      44.662  27.442  26.502  1.00  0.00     0.016 A 
ATOM     35  C   UNL A   1      43.644  25.416  27.368  1.00  0.00     0.016 A 
ATOM     36  C   UNL A   1      44.196  28.138  27.618  1.00  0.00     0.010 A 
ATOM     37  C   UNL A   1      43.196  26.109  28.496  1.00  0.00     0.010 A 
ATOM     38  C   UNL A   1      43.454  27.481  28.619  1.00  0.00    -0.014 A 
BRANCH  38  39
ATOM     39  C   UNL A   1      42.814  28.277  29.693  1.00  0.00     0.031 A 
ATOM     40  C   UNL A   1      41.481  28.938  29.516  1.00  0.00     0.074 A 
ATOM     41  C   UNL A   1      43.465  28.382  30.866  1.00  0.00     0.049 A 
ATOM     42  N   UNL A   1      40.755  29.569  30.407  1.00  0.00    -0.248 NA
ATOM     43  C   UNL A   1      40.888  28.896  28.175  1.00  0.00     0.031 C 
ATOM     44  C   UNL A   1      44.784  27.809  31.140  1.00  0.00     0.029 A 
ATOM     45  N   UNL A   1      43.110  28.985  32.044  1.00  0.00    -0.354 N 
ATOM     46  C   UNL A   1      39.605  29.974  29.744  1.00  0.00     0.074 A 
ATOM     47  C   UNL A   1      39.756  29.566  28.362  1.00  0.00     0.031 C 
ATOM     48  C   UNL A   1      45.111  28.056  32.416  1.00  0.00     0.029 A 
ATOM     49  C   UNL A   1      44.039  28.826  33.042  1.00  0.00     0.049 A 
ATOM     50  H   UNL A   1      42.269  29.483  32.164  1.00  0.00     0.167 HD
ATOM     51  C   UNL A   1      38.519  30.608  30.254  1.00  0.00     0.037 A 
ATOM     52  C   UNL A   1      44.029  29.245  34.320  1.00  0.00     0.037 A 
ATOM     53  C   UNL A   1      38.386  31.031  31.628  1.00  0.00     0.049 A 
ATOM     54  C   UNL A   1      42.833  29.992  34.842  1.00  0.00     0.074 A 
ATOM     55  C   UNL A   1      37.307  31.644  32.241  1.00  0.00     0.029 A 
ATOM     56  N   UNL A   1      39.370  30.903  32.599  1.00  0.00    -0.354 N 
ATOM     57  N   UNL A   1      41.713  30.291  34.231  1.00  0.00    -0.248 NA
ATOM     58  C   UNL A   1      42.899  30.453  36.235  1.00  0.00     0.031 C 
ATOM     59  C   UNL A   1      37.657  31.942  33.561  1.00  0.00     0.029 A 
ATOM     60  C   UNL A   1      38.934  31.459  33.794  1.00  0.00     0.049 A 
ATOM     61  H   UNL A   1      40.248  30.479  32.461  1.00  0.00     0.167 HD
ATOM     62  C   UNL A   1      40.936  30.961  35.166  1.00  0.00     0.074 A 
ATOM     63  C   UNL A   1      41.700  30.995  36.396  1.00  0.00     0.031 C 
ATOM     64  C   UNL A   1      39.704  31.505  35.013  1.00  0.00     0.037 A 
BRANCH  51  65
ATOM     65  C   UNL A   1      37.365  30.877  29.328  1.00  0.00     0.064 A 
ATOM     66  C   UNL A   1      36.438  29.874  29.010  1.00  0.00     0.173 A 
ATOM     67  C   UNL A   1      37.127  32.168  28.833  1.00  0.00     0.173 A 
ATOM     68  F   UNL A   1      36.615  28.622  29.460  1.00  0.00    -0.203 F 
ATOM     69  C   UNL A   1      35.326  30.148  28.217  1.00  0.00     0.198 A 
ATOM     70  C   UNL A   1      35.998  32.447  28.066  1.00  0.00     0.198 A 
ATOM     71  F   UNL A   1      37.972  33.171  29.121  1.00  0.00    -0.203 F 
ATOM     72  F   UNL A   1      34.467  29.167  27.908  1.00  0.00    -0.200 F 
ATOM     73  C   UNL A   1      35.101  31.436  27.755  1.00  0.00     0.200 A 
ATOM     74  F   UNL A   1      35.771  33.697  27.640  1.00  0.00    -0.200 F 
ATOM     75  F   UNL A   1      34.017  31.704  27.014  1.00  0.00    -0.200 F 
ENDBRANCH  51  65
BRANCH  52  76
ATOM     76  C   UNL A   1      45.183  28.931  35.202  1.00  0.00     0.064 A 
ATOM     77  C   UNL A   1      45.195  27.767  35.981  1.00  0.00     0.173 A 
ATOM     78  C   UNL A   1      46.303  29.772  35.263  1.00  0.00     0.173 A 
ATOM     79  F   UNL A   1      44.138  26.941  35.970  1.00  0.00    -0.203 F 
ATOM     80  C   UNL A   1      46.281  27.462  36.798  1.00  0.00     0.198 A 
ATOM     81  C   UNL A   1      47.401  29.450  36.057  1.00  0.00     0.198 A 
ATOM     82  F   UNL A   1      46.341  30.896  34.532  1.00  0.00    -0.203 F 
ATOM     83  F   UNL A   1      46.252  26.362  37.562  1.00  0.00    -0.200 F 
ATOM     84  C   UNL A   1      47.387  28.298  36.828  1.00  0.00     0.200 A 
ATOM     85  F   UNL A   1      48.475  30.252  36.068  1.00  0.00    -0.200 F 
ATOM     86  F   UNL A   1      48.436  27.996  37.603  1.00  0.00    -0.200 F 
ENDBRANCH  52  76
BRANCH  64  87
ATOM     87  C   UNL A   1      39.100  32.195  36.206  1.00  0.00     0.064 A 
ATOM     88  C   UNL A   1      38.211  31.529  37.064  1.00  0.00     0.173 A 
ATOM     89  C   UNL A   1      39.443  33.519  36.521  1.00  0.00     0.173 A 
ATOM     90  F   UNL A   1      37.836  30.267  36.802  1.00  0.00    -0.203 F 
ATOM     91  C   UNL A   1      37.669  32.170  38.176  1.00  0.00     0.198 A 
ATOM     92  C   UNL A   1      38.927  34.145  37.653  1.00  0.00     0.198 A 
ATOM     93  F   UNL A   1      40.293  34.202  35.740  1.00  0.00    -0.203 F 
ATOM     94  F   UNL A   1      36.782  31.529  38.950  1.00  0.00    -0.200 F 
ATOM     95  C   UNL A   1      38.035  33.474  38.475  1.00  0.00     0.200 A 
ATOM     96  F   UNL A   1      39.294  35.400  37.950  1.00  0.00    -0.200 F 
ATOM     97  F   UNL A   1      37.521  34.085  39.551  1.00  0.00    -0.200 F 
ENDBRANCH  64  87
ENDBRANCH  38  39
ENDBRANCH  31  33
ENDBRANCH  30  31
ENDBRANCH  29  30
ENDBRANCH  28  29
ENDBRANCH  27  28
ENDBRANCH  26  27
ENDBRANCH   1  26
TORSDOF 20
ENDMDL
MODEL 3
REMARK VINA RESULT:     -10.5      3.653      9.201
REMARK SMILES C[C@@H]1CCCN(C(=O)c2ccc(=O)n([C@H](C)C(=O)OCCOCCOCCOC(=O)c3ccc(-c4c5nc(c(-c6c(F)c(F)c(F)c(F)c6F)c6ccc([nH]6)c(-c6c(F)c(F)c(F)c(F)c6F)c6nc(c(-c7c(F)c(F)c(F)c(F)c7F)c7ccc4[nH]7)C=C6)C=C5)cc3)n2)C1
REMARK SMILES IDX 23 1 22 2 21 3 20 4 19 5 17 6 18 7 15 8 16 9 14 10 9 11
REMARK SMILES IDX 10 12 94 13 11 14 12 15 13 16 7 17 8 18 6 19 1 20 2 21 3 22
REMARK SMILES IDX 95 23 4 24 5 25 24 26 25 27 26 28 27 29 28 30 29 31 30 32
REMARK SMILES IDX 31 33 32 34 93 35 33 36 92 37 34 38 35 39 36 40 86 41 37 42
REMARK SMILES IDX 91 43 85 44 87 45 38 46 90 47 84 48 83 49 39 51 71 52 51 53
REMARK SMILES IDX 70 54 52 55 55 56 69 57 88 58 53 59 54 60 68 62 89 63 56 64
REMARK SMILES IDX 40 65 41 66 49 67 42 68 43 69 47 70 50 71 44 72 45 73 48 74
REMARK SMILES IDX 46 75 72 76 73 77 81 78 74 79 75 80 79 81 82 82 76 83 77 84
REMARK SMILES IDX 80 85 78 86 57 87 58 88 66 89 59 90 60 91 64 92 67 93 61 94
REMARK SMILES IDX 62 95 65 96 63 97
REMARK H PARENT 87 50 55 61
REMARK Flexibility Score: inf
ROOT
ATOM      1  C   UNL A   1      34.906  32.230  28.269  1.00  0.00     0.188 C 
ENDROOT
BRANCH   1   2
ATOM      2  O   UNL A   1      33.785  31.973  27.445  1.00  0.00    -0.376 OA
BRANCH   2   3
ATOM      3  C   UNL A   1      33.401  30.621  27.212  1.00  0.00     0.202 C 
BRANCH   3   4
ATOM      4  C   UNL A   1      31.927  30.258  26.952  1.00  0.00     0.261 C 
BRANCH   4   5
ATOM      5  O   UNL A   1      31.724  29.005  26.264  1.00  0.00    -0.462 OA
BRANCH   5   6
ATOM      6  C   UNL A   1      31.514  29.084  24.923  1.00  0.00     0.330 C 
ATOM      7  O   UNL A   1      30.639  29.796  24.435  1.00  0.00    -0.250 OA
BRANCH   6   8
ATOM      8  C   UNL A   1      32.497  28.254  24.058  1.00  0.00     0.218 C 
ATOM      9  C   UNL A   1      33.969  28.108  24.472  1.00  0.00     0.046 C 
BRANCH   8  10
ATOM     10  N   UNL A   1      31.857  26.942  23.996  1.00  0.00    -0.215 N 
ATOM     11  C   UNL A   1      31.510  24.982  25.107  1.00  0.00     0.149 A 
ATOM     12  C   UNL A   1      30.453  24.561  24.174  1.00  0.00     0.042 A 
ATOM     13  N   UNL A   1      32.157  26.096  25.033  1.00  0.00    -0.164 NA
ATOM     14  C   UNL A   1      30.194  25.390  23.158  1.00  0.00     0.076 A 
ATOM     15  C   UNL A   1      30.939  26.658  22.994  1.00  0.00     0.267 A 
ATOM     16  O   UNL A   1      30.714  27.374  22.023  1.00  0.00    -0.268 OA
BRANCH  11  17
ATOM     17  C   UNL A   1      31.898  24.028  26.216  1.00  0.00     0.274 C 
ATOM     18  O   UNL A   1      31.253  24.107  27.257  1.00  0.00    -0.267 OA
BRANCH  17  19
ATOM     19  N   UNL A   1      32.921  23.111  25.976  1.00  0.00    -0.337 N 
ATOM     20  C   UNL A   1      35.747  23.006  23.420  1.00  0.00     0.009 C 
ATOM     21  C   UNL A   1      35.100  23.083  24.800  1.00  0.00     0.005 C 
ATOM     22  C   UNL A   1      35.533  21.900  25.678  1.00  0.00     0.007 C 
ATOM     23  C   UNL A   1      33.570  23.126  24.672  1.00  0.00     0.123 C 
ATOM     24  C   UNL A   1      34.840  21.962  27.040  1.00  0.00     0.022 C 
ATOM     25  C   UNL A   1      33.322  22.029  26.879  1.00  0.00     0.120 C 
ENDBRANCH  17  19
ENDBRANCH  11  17
ENDBRANCH   8  10
ENDBRANCH   6   8
ENDBRANCH   5   6
ENDBRANCH   4   5
ENDBRANCH   3   4
ENDBRANCH   2   3
ENDBRANCH   1   2
BRANCH   1  26
ATOM     26  C   UNL A   1      34.916  33.481  29.154  1.00  0.00     0.188 C 
BRANCH  26  27
ATOM     27  O   UNL A   1      33.690  34.068  29.496  1.00  0.00    -0.376 OA
BRANCH  27  28
ATOM     28  C   UNL A   1      33.414  35.423  29.197  1.00  0.00     0.202 C 
BRANCH  28  29
ATOM     29  C   UNL A   1      32.548  36.379  30.042  1.00  0.00     0.261 C 
BRANCH  29  30
ATOM     30  O   UNL A   1      33.011  36.755  31.341  1.00  0.00    -0.460 OA
BRANCH  30  31
ATOM     31  C   UNL A   1      32.685  35.921  32.366  1.00  0.00     0.338 C 
ATOM     32  O   UNL A   1      31.583  35.710  32.823  1.00  0.00    -0.246 OA
BRANCH  31  33
ATOM     33  C   UNL A   1      33.891  35.102  32.644  1.00  0.00     0.060 A 
ATOM     34  C   UNL A   1      35.162  35.618  32.399  1.00  0.00     0.016 A 
ATOM     35  C   UNL A   1      33.733  33.778  33.083  1.00  0.00     0.016 A 
ATOM     36  C   UNL A   1      36.281  34.809  32.605  1.00  0.00     0.010 A 
ATOM     37  C   UNL A   1      34.853  32.963  33.268  1.00  0.00     0.010 A 
ATOM     38  C   UNL A   1      36.137  33.480  33.048  1.00  0.00    -0.014 A 
BRANCH  38  39
ATOM     39  C   UNL A   1      37.341  32.707  33.437  1.00  0.00     0.031 A 
ATOM     40  C   UNL A   1      37.936  31.652  32.555  1.00  0.00     0.074 A 
ATOM     41  C   UNL A   1      37.910  32.992  34.622  1.00  0.00     0.049 A 
ATOM     42  N   UNL A   1      39.049  30.980  32.720  1.00  0.00    -0.248 NA
ATOM     43  C   UNL A   1      37.193  31.300  31.340  1.00  0.00     0.031 C 
ATOM     44  C   UNL A   1      37.397  33.975  35.578  1.00  0.00     0.029 A 
ATOM     45  N   UNL A   1      39.043  32.503  35.220  1.00  0.00    -0.354 N 
ATOM     46  C   UNL A   1      39.157  30.145  31.617  1.00  0.00     0.074 A 
ATOM     47  C   UNL A   1      37.967  30.356  30.817  1.00  0.00     0.031 C 
ATOM     48  C   UNL A   1      38.231  34.043  36.625  1.00  0.00     0.029 A 
ATOM     49  C   UNL A   1      39.323  33.092  36.427  1.00  0.00     0.049 A 
ATOM     50  H   UNL A   1      39.602  31.798  34.820  1.00  0.00     0.167 HD
ATOM     51  C   UNL A   1      40.169  29.300  31.297  1.00  0.00     0.037 A 
ATOM     52  C   UNL A   1      40.345  32.897  37.279  1.00  0.00     0.037 A 
ATOM     53  C   UNL A   1      41.341  29.079  32.110  1.00  0.00     0.049 A 
ATOM     54  C   UNL A   1      41.426  31.914  36.921  1.00  0.00     0.074 A 
ATOM     55  C   UNL A   1      42.434  28.270  31.847  1.00  0.00     0.029 A 
ATOM     56  N   UNL A   1      41.566  29.651  33.355  1.00  0.00    -0.354 N 
ATOM     57  N   UNL A   1      41.563  31.196  35.833  1.00  0.00    -0.248 NA
ATOM     58  C   UNL A   1      42.495  31.721  37.909  1.00  0.00     0.031 C 
ATOM     59  C   UNL A   1      43.289  28.306  32.953  1.00  0.00     0.029 A 
ATOM     60  C   UNL A   1      42.761  29.185  33.885  1.00  0.00     0.049 A 
ATOM     61  H   UNL A   1      40.965  30.295  33.797  1.00  0.00     0.167 HD
ATOM     62  C   UNL A   1      42.740  30.477  35.998  1.00  0.00     0.074 A 
ATOM     63  C   UNL A   1      43.294  30.872  37.277  1.00  0.00     0.031 C 
ATOM     64  C   UNL A   1      43.303  29.567  35.166  1.00  0.00     0.037 A 
BRANCH  51  65
ATOM     65  C   UNL A   1      40.073  28.550  29.997  1.00  0.00     0.064 A 
ATOM     66  C   UNL A   1      40.649  29.053  28.822  1.00  0.00     0.173 A 
ATOM     67  C   UNL A   1      39.487  27.275  29.944  1.00  0.00     0.173 A 
ATOM     68  F   UNL A   1      41.225  30.265  28.817  1.00  0.00    -0.203 F 
ATOM     69  C   UNL A   1      40.628  28.318  27.638  1.00  0.00     0.198 A 
ATOM     70  C   UNL A   1      39.494  26.529  28.768  1.00  0.00     0.198 A 
ATOM     71  F   UNL A   1      38.937  26.737  31.044  1.00  0.00    -0.203 F 
ATOM     72  F   UNL A   1      41.164  28.832  26.523  1.00  0.00    -0.200 F 
ATOM     73  C   UNL A   1      40.061  27.053  27.615  1.00  0.00     0.200 A 
ATOM     74  F   UNL A   1      38.966  25.298  28.753  1.00  0.00    -0.200 F 
ATOM     75  F   UNL A   1      40.063  26.337  26.483  1.00  0.00    -0.200 F 
ENDBRANCH  51  65
BRANCH  52  76
ATOM     76  C   UNL A   1      40.408  33.682  38.538  1.00  0.00     0.064 A 
ATOM     77  C   UNL A   1      41.192  34.840  38.624  1.00  0.00     0.173 A 
ATOM     78  C   UNL A   1      39.669  33.306  39.668  1.00  0.00     0.173 A 
ATOM     79  F   UNL A   1      41.932  35.229  37.575  1.00  0.00    -0.203 F 
ATOM     80  C   UNL A   1      41.243  35.586  39.799  1.00  0.00     0.198 A 
ATOM     81  C   UNL A   1      39.696  34.071  40.832  1.00  0.00     0.198 A 
ATOM     82  F   UNL A   1      38.899  32.208  39.634  1.00  0.00    -0.203 F 
ATOM     83  F   UNL A   1      42.030  36.669  39.868  1.00  0.00    -0.200 F 
ATOM     84  C   UNL A   1      40.487  35.207  40.898  1.00  0.00     0.200 A 
ATOM     85  F   UNL A   1      38.950  33.711  41.885  1.00  0.00    -0.200 F 
ATOM     86  F   UNL A   1      40.526  35.934  42.022  1.00  0.00    -0.200 F 
ENDBRANCH  52  76
BRANCH  64  87
ATOM     87  C   UNL A   1      44.587  28.924  35.612  1.00  0.00     0.064 A 
ATOM     88  C   UNL A   1      44.592  27.726  36.342  1.00  0.00     0.173 A 
ATOM     89  C   UNL A   1      45.828  29.486  35.273  1.00  0.00     0.173 A 
ATOM     90  F   UNL A   1      43.434  27.153  36.707  1.00  0.00    -0.203 F 
ATOM     91  C   UNL A   1      45.786  27.129  36.737  1.00  0.00     0.198 A 
ATOM     92  C   UNL A   1      47.021  28.868  35.639  1.00  0.00     0.198 A 
ATOM     93  F   UNL A   1      45.885  30.628  34.571  1.00  0.00    -0.203 F 
ATOM     94  F   UNL A   1      45.762  26.012  37.478  1.00  0.00    -0.200 F 
ATOM     95  C   UNL A   1      47.000  27.695  36.377  1.00  0.00     0.200 A 
ATOM     96  F   UNL A   1      48.194  29.408  35.277  1.00  0.00    -0.200 F 
ATOM     97  F   UNL A   1      48.148  27.113  36.749  1.00  0.00    -0.200 F 
ENDBRANCH  64  87
ENDBRANCH  38  39
ENDBRANCH  31  33
ENDBRANCH  30  31
ENDBRANCH  29  30
ENDBRANCH  28  29
ENDBRANCH  27  28
ENDBRANCH  26  27
ENDBRANCH   1  26
TORSDOF 20
ENDMDL
