MODEL 1
REMARK VINA RESULT:      -9.9      0.000      0.000
REMARK SMILES CC(C)(C[C@@H](O)C(F)(F)F)C(=O)OCCOCCOCCOC(=O)c1ccc(-c2c3nc(c(-c4c(F)c(F)c(F)c(F)c4F)c4ccc([nH]4)c(-c4c(F)c(F)c(F)c(F)c4F)c4nc(c(-c5c(F)c(F)c(F)c(F)c5F)c5ccc2[nH]5)C=C4)C=C3)cc1
REMARK SMILES IDX 17 1 16 2 15 3 14 4 13 5 11 6 12 7 2 8 1 9 3 10 4 11 5 12
REMARK SMILES IDX 6 13 7 15 8 16 9 17 10 18 18 19 19 20 20 21 21 22 22 23
REMARK SMILES IDX 23 24 24 25 25 26 26 27 87 28 27 29 86 30 28 31 29 32 30 33
REMARK SMILES IDX 80 34 31 35 85 36 79 37 81 38 32 39 84 40 78 41 77 42 33 44
REMARK SMILES IDX 65 45 45 46 64 47 46 48 49 49 63 50 82 51 47 52 48 53 62 55
REMARK SMILES IDX 83 56 50 57 34 58 35 59 43 60 36 61 37 62 41 63 44 64 38 65
REMARK SMILES IDX 39 66 42 67 40 68 66 69 67 70 75 71 68 72 69 73 73 74 76 75
REMARK SMILES IDX 70 76 71 77 74 78 72 79 51 80 52 81 60 82 53 83 54 84 58 85
REMARK SMILES IDX 61 86 55 87 56 88 59 89 57 90
REMARK H PARENT 6 14 81 43 49 54
REMARK Flexibility Score: inf
ROOT
ATOM      1  C   UNL A   1      31.425  28.359  23.469  1.00  0.00     0.188 C 
ENDROOT
BRANCH   1   2
ATOM      2  O   UNL A   1      31.152  27.010  23.829  1.00  0.00    -0.376 OA
BRANCH   2   3
ATOM      3  C   UNL A   1      29.864  26.637  24.293  1.00  0.00     0.202 C 
BRANCH   3   4
ATOM      4  C   UNL A   1      29.813  25.898  25.646  1.00  0.00     0.261 C 
BRANCH   4   5
ATOM      5  O   UNL A   1      31.009  25.875  26.478  1.00  0.00    -0.463 OA
BRANCH   5   6
ATOM      6  C   UNL A   1      31.611  24.658  26.557  1.00  0.00     0.311 C 
ATOM      7  O   UNL A   1      31.145  23.721  27.202  1.00  0.00    -0.252 OA
BRANCH   6   8
ATOM      8  C   UNL A   1      32.961  24.517  25.817  1.00  0.00     0.065 C 
ATOM      9  C   UNL A   1      33.796  23.504  26.631  1.00  0.00     0.023 C 
ATOM     10  C   UNL A   1      33.613  25.915  25.963  1.00  0.00     0.023 C 
BRANCH   8  11
ATOM     11  C   UNL A   1      33.041  24.184  24.289  1.00  0.00     0.059 C 
BRANCH  11  12
ATOM     12  C   UNL A   1      32.016  23.207  23.687  1.00  0.00     0.220 C 
BRANCH  12  13
ATOM     13  O   UNL A   1      31.087  23.971  22.901  1.00  0.00    -0.384 OA
ATOM     14  H   UNL A   1      30.195  23.876  23.272  1.00  0.00     0.211 HD
ENDBRANCH  12  13
BRANCH  12  15
ATOM     15  C   UNL A   1      32.653  22.101  22.810  1.00  0.00     0.414 C 
ATOM     16  F   UNL A   1      33.833  21.687  23.330  1.00  0.00    -0.168 F 
ATOM     17  F   UNL A   1      31.849  21.012  22.757  1.00  0.00    -0.168 F 
ATOM     18  F   UNL A   1      32.885  22.515  21.547  1.00  0.00    -0.168 F 
ENDBRANCH  12  15
ENDBRANCH  11  12
ENDBRANCH   8  11
ENDBRANCH   6   8
ENDBRANCH   5   6
ENDBRANCH   4   5
ENDBRANCH   3   4
ENDBRANCH   2   3
ENDBRANCH   1   2
BRANCH   1  19
ATOM     19  C   UNL A   1      30.326  29.413  23.535  1.00  0.00     0.188 C 
BRANCH  19  20
ATOM     20  O   UNL A   1      30.507  30.362  24.567  1.00  0.00    -0.376 OA
BRANCH  20  21
ATOM     21  C   UNL A   1      31.502  30.104  25.547  1.00  0.00     0.202 C 
BRANCH  21  22
ATOM     22  C   UNL A   1      31.709  31.294  26.491  1.00  0.00     0.261 C 
BRANCH  22  23
ATOM     23  O   UNL A   1      32.790  31.105  27.425  1.00  0.00    -0.460 OA
BRANCH  23  24
ATOM     24  C   UNL A   1      33.579  32.190  27.625  1.00  0.00     0.338 C 
ATOM     25  O   UNL A   1      33.233  33.352  27.644  1.00  0.00    -0.246 OA
BRANCH  24  26
ATOM     26  C   UNL A   1      34.911  31.717  28.070  1.00  0.00     0.060 A 
ATOM     27  C   UNL A   1      35.067  30.353  28.360  1.00  0.00     0.016 A 
ATOM     28  C   UNL A   1      35.986  32.596  28.208  1.00  0.00     0.016 A 
ATOM     29  C   UNL A   1      36.280  29.876  28.854  1.00  0.00     0.010 A 
ATOM     30  C   UNL A   1      37.197  32.121  28.722  1.00  0.00     0.010 A 
ATOM     31  C   UNL A   1      37.330  30.771  29.097  1.00  0.00    -0.014 A 
BRANCH  31  32
ATOM     32  C   UNL A   1      38.449  30.350  29.979  1.00  0.00     0.031 A 
ATOM     33  C   UNL A   1      39.457  29.377  29.423  1.00  0.00     0.074 A 
ATOM     34  C   UNL A   1      38.608  30.848  31.217  1.00  0.00     0.049 A 
ATOM     35  N   UNL A   1      40.497  28.829  29.997  1.00  0.00    -0.248 NA
ATOM     36  C   UNL A   1      39.257  28.963  28.024  1.00  0.00     0.031 C 
ATOM     37  C   UNL A   1      37.738  31.834  31.853  1.00  0.00     0.029 A 
ATOM     38  N   UNL A   1      39.569  30.584  32.163  1.00  0.00    -0.354 N 
ATOM     39  C   UNL A   1      41.063  28.000  29.037  1.00  0.00     0.074 A 
ATOM     40  C   UNL A   1      40.232  28.085  27.857  1.00  0.00     0.031 C 
ATOM     41  C   UNL A   1      38.201  32.086  33.091  1.00  0.00     0.029 A 
ATOM     42  C   UNL A   1      39.379  31.256  33.344  1.00  0.00     0.049 A 
ATOM     43  H   UNL A   1      40.323  29.970  32.006  1.00  0.00     0.167 HD
ATOM     44  C   UNL A   1      42.184  27.245  29.123  1.00  0.00     0.037 A 
ATOM     45  C   UNL A   1      40.067  31.189  34.501  1.00  0.00     0.037 A 
ATOM     46  C   UNL A   1      43.016  27.163  30.295  1.00  0.00     0.049 A 
ATOM     47  C   UNL A   1      41.269  30.282  34.598  1.00  0.00     0.074 A 
ATOM     48  C   UNL A   1      44.178  26.436  30.479  1.00  0.00     0.029 A 
ATOM     49  N   UNL A   1      42.769  27.830  31.485  1.00  0.00    -0.354 N 
ATOM     50  N   UNL A   1      41.809  29.512  33.682  1.00  0.00    -0.248 NA
ATOM     51  C   UNL A   1      41.964  30.241  35.893  1.00  0.00     0.031 C 
ATOM     52  C   UNL A   1      44.600  26.613  31.800  1.00  0.00     0.029 A 
ATOM     53  C   UNL A   1      43.743  27.509  32.418  1.00  0.00     0.049 A 
ATOM     54  H   UNL A   1      42.013  28.442  31.644  1.00  0.00     0.167 HD
ATOM     55  C   UNL A   1      42.920  28.925  34.278  1.00  0.00     0.074 A 
ATOM     56  C   UNL A   1      42.989  29.445  35.628  1.00  0.00     0.031 C 
ATOM     57  C   UNL A   1      43.804  28.036  33.758  1.00  0.00     0.037 A 
BRANCH  44  58
ATOM     58  C   UNL A   1      42.553  26.417  27.925  1.00  0.00     0.064 A 
ATOM     59  C   UNL A   1      42.016  25.138  27.711  1.00  0.00     0.173 A 
ATOM     60  C   UNL A   1      43.446  26.919  26.966  1.00  0.00     0.173 A 
ATOM     61  F   UNL A   1      41.171  24.602  28.606  1.00  0.00    -0.203 F 
ATOM     62  C   UNL A   1      42.384  24.381  26.601  1.00  0.00     0.198 A 
ATOM     63  C   UNL A   1      43.784  26.175  25.840  1.00  0.00     0.198 A 
ATOM     64  F   UNL A   1      43.989  28.136  27.118  1.00  0.00    -0.203 F 
ATOM     65  F   UNL A   1      41.904  23.138  26.450  1.00  0.00    -0.200 F 
ATOM     66  C   UNL A   1      43.262  24.903  25.663  1.00  0.00     0.200 A 
ATOM     67  F   UNL A   1      44.621  26.687  24.926  1.00  0.00    -0.200 F 
ATOM     68  F   UNL A   1      43.609  24.176  24.591  1.00  0.00    -0.200 F 
ENDBRANCH  44  58
BRANCH  45  69
ATOM     69  C   UNL A   1      39.634  31.992  35.678  1.00  0.00     0.064 A 
ATOM     70  C   UNL A   1      38.608  31.547  36.523  1.00  0.00     0.173 A 
ATOM     71  C   UNL A   1      40.210  33.240  35.957  1.00  0.00     0.173 A 
ATOM     72  F   UNL A   1      38.004  30.374  36.282  1.00  0.00    -0.203 F 
ATOM     73  C   UNL A   1      38.155  32.330  37.584  1.00  0.00     0.198 A 
ATOM     74  C   UNL A   1      39.780  34.008  37.038  1.00  0.00     0.198 A 
ATOM     75  F   UNL A   1      41.191  33.718  35.178  1.00  0.00    -0.203 F 
ATOM     76  F   UNL A   1      37.131  31.907  38.336  1.00  0.00    -0.200 F 
ATOM     77  C   UNL A   1      38.747  33.557  37.844  1.00  0.00     0.200 A 
ATOM     78  F   UNL A   1      40.362  35.188  37.293  1.00  0.00    -0.200 F 
ATOM     79  F   UNL A   1      38.311  34.310  38.863  1.00  0.00    -0.200 F 
ENDBRANCH  45  69
BRANCH  57  80
ATOM     80  C   UNL A   1      44.949  27.606  34.635  1.00  0.00     0.064 A 
ATOM     81  C   UNL A   1      46.160  28.313  34.679  1.00  0.00     0.173 A 
ATOM     82  C   UNL A   1      44.825  26.473  35.455  1.00  0.00     0.173 A 
ATOM     83  F   UNL A   1      46.336  29.397  33.909  1.00  0.00    -0.203 F 
ATOM     84  C   UNL A   1      47.218  27.876  35.473  1.00  0.00     0.198 A 
ATOM     85  C   UNL A   1      45.870  26.063  36.279  1.00  0.00     0.198 A 
ATOM     86  F   UNL A   1      43.685  25.764  35.465  1.00  0.00    -0.203 F 
ATOM     87  F   UNL A   1      48.388  28.529  35.444  1.00  0.00    -0.200 F 
ATOM     88  C   UNL A   1      47.070  26.756  36.276  1.00  0.00     0.200 A 
ATOM     89  F   UNL A   1      45.717  24.991  37.069  1.00  0.00    -0.200 F 
ATOM     90  F   UNL A   1      48.089  26.337  37.039  1.00  0.00    -0.200 F 
ENDBRANCH  57  80
ENDBRANCH  31  32
ENDBRANCH  24  26
ENDBRANCH  23  24
ENDBRANCH  22  23
ENDBRANCH  21  22
ENDBRANCH  20  21
ENDBRANCH  19  20
ENDBRANCH   1  19
TORSDOF 21
ENDMDL
MODEL 2
REMARK VINA RESULT:      -9.7      1.404      7.613
REMARK SMILES CC(C)(C[C@@H](O)C(F)(F)F)C(=O)OCCOCCOCCOC(=O)c1ccc(-c2c3nc(c(-c4c(F)c(F)c(F)c(F)c4F)c4ccc([nH]4)c(-c4c(F)c(F)c(F)c(F)c4F)c4nc(c(-c5c(F)c(F)c(F)c(F)c5F)c5ccc2[nH]5)C=C4)C=C3)cc1
REMARK SMILES IDX 17 1 16 2 15 3 14 4 13 5 11 6 12 7 2 8 1 9 3 10 4 11 5 12
REMARK SMILES IDX 6 13 7 15 8 16 9 17 10 18 18 19 19 20 20 21 21 22 22 23
REMARK SMILES IDX 23 24 24 25 25 26 26 27 87 28 27 29 86 30 28 31 29 32 30 33
REMARK SMILES IDX 80 34 31 35 85 36 79 37 81 38 32 39 84 40 78 41 77 42 33 44
REMARK SMILES IDX 65 45 45 46 64 47 46 48 49 49 63 50 82 51 47 52 48 53 62 55
REMARK SMILES IDX 83 56 50 57 34 58 35 59 43 60 36 61 37 62 41 63 44 64 38 65
REMARK SMILES IDX 39 66 42 67 40 68 66 69 67 70 75 71 68 72 69 73 73 74 76 75
REMARK SMILES IDX 70 76 71 77 74 78 72 79 51 80 52 81 60 82 53 83 54 84 58 85
REMARK SMILES IDX 61 86 55 87 56 88 59 89 57 90
REMARK H PARENT 6 14 81 43 49 54
REMARK Flexibility Score: inf
ROOT
ATOM      1  C   UNL A   1      30.641  28.474  22.389  1.00  0.00     0.188 C 
ENDROOT
BRANCH   1   2
ATOM      2  O   UNL A   1      31.303  27.219  22.278  1.00  0.00    -0.376 OA
BRANCH   2   3
ATOM      3  C   UNL A   1      32.718  27.145  22.350  1.00  0.00     0.202 C 
BRANCH   3   4
ATOM      4  C   UNL A   1      33.331  25.730  22.304  1.00  0.00     0.261 C 
BRANCH   4   5
ATOM      5  O   UNL A   1      34.024  25.226  23.481  1.00  0.00    -0.463 OA
BRANCH   5   6
ATOM      6  C   UNL A   1      34.285  23.892  23.448  1.00  0.00     0.311 C 
ATOM      7  O   UNL A   1      34.759  23.326  22.466  1.00  0.00    -0.252 OA
BRANCH   6   8
ATOM      8  C   UNL A   1      33.909  23.093  24.717  1.00  0.00     0.065 C 
ATOM      9  C   UNL A   1      35.181  22.322  25.136  1.00  0.00     0.023 C 
ATOM     10  C   UNL A   1      32.862  22.068  24.214  1.00  0.00     0.023 C 
BRANCH   8  11
ATOM     11  C   UNL A   1      33.251  23.773  25.964  1.00  0.00     0.059 C 
BRANCH  11  12
ATOM     12  C   UNL A   1      31.719  23.734  26.110  1.00  0.00     0.220 C 
BRANCH  12  13
ATOM     13  O   UNL A   1      31.410  23.699  27.512  1.00  0.00    -0.384 OA
ATOM     14  H   UNL A   1      31.614  24.561  27.910  1.00  0.00     0.211 HD
ENDBRANCH  12  13
BRANCH  12  15
ATOM     15  C   UNL A   1      31.002  24.937  25.449  1.00  0.00     0.414 C 
ATOM     16  F   UNL A   1      30.680  24.665  24.162  1.00  0.00    -0.168 F 
ATOM     17  F   UNL A   1      29.840  25.210  26.089  1.00  0.00    -0.168 F 
ATOM     18  F   UNL A   1      31.758  26.054  25.455  1.00  0.00    -0.168 F 
ENDBRANCH  12  15
ENDBRANCH  11  12
ENDBRANCH   8  11
ENDBRANCH   6   8
ENDBRANCH   5   6
ENDBRANCH   4   5
ENDBRANCH   3   4
ENDBRANCH   2   3
ENDBRANCH   1   2
BRANCH   1  19
ATOM     19  C   UNL A   1      29.998  28.895  23.705  1.00  0.00     0.188 C 
BRANCH  19  20
ATOM     20  O   UNL A   1      30.647  29.980  24.335  1.00  0.00    -0.376 OA
BRANCH  20  21
ATOM     21  C   UNL A   1      31.568  29.695  25.379  1.00  0.00     0.202 C 
BRANCH  21  22
ATOM     22  C   UNL A   1      31.774  30.892  26.314  1.00  0.00     0.261 C 
BRANCH  22  23
ATOM     23  O   UNL A   1      32.811  30.685  27.292  1.00  0.00    -0.460 OA
BRANCH  23  24
ATOM     24  C   UNL A   1      33.619  31.752  27.515  1.00  0.00     0.338 C 
ATOM     25  O   UNL A   1      33.282  32.912  27.629  1.00  0.00    -0.246 OA
BRANCH  24  26
ATOM     26  C   UNL A   1      34.971  31.247  27.851  1.00  0.00     0.060 A 
ATOM     27  C   UNL A   1      35.146  29.861  27.982  1.00  0.00     0.016 A 
ATOM     28  C   UNL A   1      36.045  32.117  28.041  1.00  0.00     0.016 A 
ATOM     29  C   UNL A   1      36.382  29.346  28.371  1.00  0.00     0.010 A 
ATOM     30  C   UNL A   1      37.279  31.601  28.450  1.00  0.00     0.010 A 
ATOM     31  C   UNL A   1      37.436  30.220  28.668  1.00  0.00    -0.014 A 
BRANCH  31  32
ATOM     32  C   UNL A   1      38.593  29.716  29.452  1.00  0.00     0.031 A 
ATOM     33  C   UNL A   1      38.790  30.257  30.845  1.00  0.00     0.074 A 
ATOM     34  C   UNL A   1      39.420  28.770  28.975  1.00  0.00     0.049 A 
ATOM     35  N   UNL A   1      39.736  30.008  31.714  1.00  0.00    -0.248 NA
ATOM     36  C   UNL A   1      37.777  31.215  31.318  1.00  0.00     0.031 C 
ATOM     37  C   UNL A   1      39.310  28.126  27.669  1.00  0.00     0.029 A 
ATOM     38  N   UNL A   1      40.525  28.187  29.548  1.00  0.00    -0.354 N 
ATOM     39  C   UNL A   1      39.439  30.787  32.825  1.00  0.00     0.074 A 
ATOM     40  C   UNL A   1      38.249  31.545  32.509  1.00  0.00     0.031 C 
ATOM     41  C   UNL A   1      40.314  27.241  27.536  1.00  0.00     0.029 A 
ATOM     42  C   UNL A   1      41.154  27.280  28.733  1.00  0.00     0.049 A 
ATOM     43  H   UNL A   1      40.834  28.400  30.458  1.00  0.00     0.167 HD
ATOM     44  C   UNL A   1      40.090  30.856  34.011  1.00  0.00     0.037 A 
ATOM     45  C   UNL A   1      42.290  26.581  28.926  1.00  0.00     0.037 A 
ATOM     46  C   UNL A   1      41.272  30.098  34.330  1.00  0.00     0.049 A 
ATOM     47  C   UNL A   1      43.041  26.731  30.227  1.00  0.00     0.074 A 
ATOM     48  C   UNL A   1      41.999  30.088  35.506  1.00  0.00     0.029 A 
ATOM     49  N   UNL A   1      41.902  29.217  33.463  1.00  0.00    -0.354 N 
ATOM     50  N   UNL A   1      42.747  27.457  31.280  1.00  0.00    -0.248 NA
ATOM     51  C   UNL A   1      44.282  25.955  30.367  1.00  0.00     0.031 C 
ATOM     52  C   UNL A   1      43.104  29.249  35.329  1.00  0.00     0.029 A 
ATOM     53  C   UNL A   1      43.025  28.679  34.069  1.00  0.00     0.049 A 
ATOM     54  H   UNL A   1      41.595  29.005  32.551  1.00  0.00     0.167 HD
ATOM     55  C   UNL A   1      43.744  27.199  32.215  1.00  0.00     0.074 A 
ATOM     56  C   UNL A   1      44.639  26.234  31.612  1.00  0.00     0.031 C 
ATOM     57  C   UNL A   1      43.907  27.715  33.461  1.00  0.00     0.037 A 
BRANCH  44  58
ATOM     58  C   UNL A   1      39.557  31.813  35.038  1.00  0.00     0.064 A 
ATOM     59  C   UNL A   1      39.900  33.174  35.034  1.00  0.00     0.173 A 
ATOM     60  C   UNL A   1      38.673  31.365  36.031  1.00  0.00     0.173 A 
ATOM     61  F   UNL A   1      40.756  33.653  34.118  1.00  0.00    -0.203 F 
ATOM     62  C   UNL A   1      39.406  34.042  36.006  1.00  0.00     0.198 A 
ATOM     63  C   UNL A   1      38.153  32.242  36.979  1.00  0.00     0.198 A 
ATOM     64  F   UNL A   1      38.309  30.075  36.081  1.00  0.00    -0.203 F 
ATOM     65  F   UNL A   1      39.796  35.324  36.019  1.00  0.00    -0.200 F 
ATOM     66  C   UNL A   1      38.528  33.577  36.972  1.00  0.00     0.200 A 
ATOM     67  F   UNL A   1      37.292  31.793  37.903  1.00  0.00    -0.200 F 
ATOM     68  F   UNL A   1      38.046  34.414  37.902  1.00  0.00    -0.200 F 
ENDBRANCH  44  58
BRANCH  45  69
ATOM     69  C   UNL A   1      42.807  25.680  27.860  1.00  0.00     0.064 A 
ATOM     70  C   UNL A   1      42.458  24.322  27.825  1.00  0.00     0.173 A 
ATOM     71  C   UNL A   1      43.693  26.149  26.878  1.00  0.00     0.173 A 
ATOM     72  F   UNL A   1      41.638  23.817  28.758  1.00  0.00    -0.203 F 
ATOM     73  C   UNL A   1      42.996  23.464  26.867  1.00  0.00     0.198 A 
ATOM     74  C   UNL A   1      44.204  25.297  25.901  1.00  0.00     0.198 A 
ATOM     75  F   UNL A   1      44.065  27.437  26.869  1.00  0.00    -0.203 F 
ATOM     76  F   UNL A   1      42.695  22.159  26.896  1.00  0.00    -0.200 F 
ATOM     77  C   UNL A   1      43.864  23.954  25.903  1.00  0.00     0.200 A 
ATOM     78  F   UNL A   1      45.033  25.776  24.964  1.00  0.00    -0.200 F 
ATOM     79  F   UNL A   1      44.382  23.128  24.983  1.00  0.00    -0.200 F 
ENDBRANCH  45  69
BRANCH  57  80
ATOM     80  C   UNL A   1      45.069  27.209  34.272  1.00  0.00     0.064 A 
ATOM     81  C   UNL A   1      46.320  27.846  34.257  1.00  0.00     0.173 A 
ATOM     82  C   UNL A   1      44.923  26.076  35.088  1.00  0.00     0.173 A 
ATOM     83  F   UNL A   1      46.518  28.927  33.488  1.00  0.00    -0.203 F 
ATOM     84  C   UNL A   1      47.391  27.340  34.990  1.00  0.00     0.198 A 
ATOM     85  C   UNL A   1      45.985  25.598  35.852  1.00  0.00     0.198 A 
ATOM     86  F   UNL A   1      43.747  25.434  35.153  1.00  0.00    -0.203 F 
ATOM     87  F   UNL A   1      48.594  27.925  34.904  1.00  0.00    -0.200 F 
ATOM     88  C   UNL A   1      47.221  26.221  35.791  1.00  0.00     0.200 A 
ATOM     89  F   UNL A   1      45.813  24.528  36.640  1.00  0.00    -0.200 F 
ATOM     90  F   UNL A   1      48.253  25.737  36.495  1.00  0.00    -0.200 F 
ENDBRANCH  57  80
ENDBRANCH  31  32
ENDBRANCH  24  26
ENDBRANCH  23  24
ENDBRANCH  22  23
ENDBRANCH  21  22
ENDBRANCH  20  21
ENDBRANCH  19  20
ENDBRANCH   1  19
TORSDOF 21
ENDMDL
MODEL 3
REMARK VINA RESULT:      -9.5      4.578      7.381
REMARK SMILES CC(C)(C[C@@H](O)C(F)(F)F)C(=O)OCCOCCOCCOC(=O)c1ccc(-c2c3nc(c(-c4c(F)c(F)c(F)c(F)c4F)c4ccc([nH]4)c(-c4c(F)c(F)c(F)c(F)c4F)c4nc(c(-c5c(F)c(F)c(F)c(F)c5F)c5ccc2[nH]5)C=C4)C=C3)cc1
REMARK SMILES IDX 17 1 16 2 15 3 14 4 13 5 11 6 12 7 2 8 1 9 3 10 4 11 5 12
REMARK SMILES IDX 6 13 7 15 8 16 9 17 10 18 18 19 19 20 20 21 21 22 22 23
REMARK SMILES IDX 23 24 24 25 25 26 26 27 87 28 27 29 86 30 28 31 29 32 30 33
REMARK SMILES IDX 80 34 31 35 85 36 79 37 81 38 32 39 84 40 78 41 77 42 33 44
REMARK SMILES IDX 65 45 45 46 64 47 46 48 49 49 63 50 82 51 47 52 48 53 62 55
REMARK SMILES IDX 83 56 50 57 34 58 35 59 43 60 36 61 37 62 41 63 44 64 38 65
REMARK SMILES IDX 39 66 42 67 40 68 66 69 67 70 75 71 68 72 69 73 73 74 76 75
REMARK SMILES IDX 70 76 71 77 74 78 72 79 51 80 52 81 60 82 53 83 54 84 58 85
REMARK SMILES IDX 61 86 55 87 56 88 59 89 57 90
REMARK H PARENT 6 14 81 43 49 54
REMARK Flexibility Score: inf
ROOT
ATOM      1  C   UNL A   1      33.842  22.615  26.067  1.00  0.00     0.188 C 
ENDROOT
BRANCH   1   2
ATOM      2  O   UNL A   1      33.053  23.144  27.127  1.00  0.00    -0.376 OA
BRANCH   2   3
ATOM      3  C   UNL A   1      31.702  23.512  26.901  1.00  0.00     0.202 C 
BRANCH   3   4
ATOM      4  C   UNL A   1      31.307  23.797  25.436  1.00  0.00     0.261 C 
BRANCH   4   5
ATOM      5  O   UNL A   1      31.754  25.037  24.818  1.00  0.00    -0.463 OA
BRANCH   5   6
ATOM      6  C   UNL A   1      31.206  25.282  23.598  1.00  0.00     0.311 C 
ATOM      7  O   UNL A   1      30.296  24.607  23.124  1.00  0.00    -0.252 OA
BRANCH   6   8
ATOM      8  C   UNL A   1      31.824  26.451  22.796  1.00  0.00     0.065 C 
ATOM      9  C   UNL A   1      32.673  25.808  21.677  1.00  0.00     0.023 C 
ATOM     10  C   UNL A   1      32.784  27.128  23.807  1.00  0.00     0.023 C 
BRANCH   8  11
ATOM     11  C   UNL A   1      30.952  27.615  22.215  1.00  0.00     0.059 C 
BRANCH  11  12
ATOM     12  C   UNL A   1      31.172  29.043  22.744  1.00  0.00     0.220 C 
BRANCH  12  13
ATOM     13  O   UNL A   1      31.139  29.939  21.621  1.00  0.00    -0.384 OA
ATOM     14  H   UNL A   1      30.527  29.596  20.951  1.00  0.00     0.211 HD
ENDBRANCH  12  13
BRANCH  12  15
ATOM     15  C   UNL A   1      30.122  29.484  23.793  1.00  0.00     0.414 C 
ATOM     16  F   UNL A   1      29.554  30.664  23.446  1.00  0.00    -0.168 F 
ATOM     17  F   UNL A   1      29.117  28.579  23.872  1.00  0.00    -0.168 F 
ATOM     18  F   UNL A   1      30.653  29.632  25.024  1.00  0.00    -0.168 F 
ENDBRANCH  12  15
ENDBRANCH  11  12
ENDBRANCH   8  11
ENDBRANCH   6   8
ENDBRANCH   5   6
ENDBRANCH   4   5
ENDBRANCH   3   4
ENDBRANCH   2   3
ENDBRANCH   1   2
BRANCH   1  19
ATOM     19  C   UNL A   1      34.953  21.613  26.357  1.00  0.00     0.188 C 
BRANCH  19  20
ATOM     20  O   UNL A   1      35.882  21.470  25.302  1.00  0.00    -0.376 OA
BRANCH  20  21
ATOM     21  C   UNL A   1      36.363  20.167  25.004  1.00  0.00     0.202 C 
BRANCH  21  22
ATOM     22  C   UNL A   1      37.894  20.100  25.000  1.00  0.00     0.261 C 
BRANCH  22  23
ATOM     23  O   UNL A   1      38.524  21.316  25.448  1.00  0.00    -0.460 OA
BRANCH  23  24
ATOM     24  C   UNL A   1      39.663  21.148  26.165  1.00  0.00     0.338 C 
ATOM     25  O   UNL A   1      40.413  20.195  26.133  1.00  0.00    -0.246 OA
BRANCH  24  26
ATOM     26  C   UNL A   1      39.989  22.435  26.823  1.00  0.00     0.060 A 
ATOM     27  C   UNL A   1      39.217  23.560  26.497  1.00  0.00     0.016 A 
ATOM     28  C   UNL A   1      41.037  22.539  27.738  1.00  0.00     0.016 A 
ATOM     29  C   UNL A   1      39.535  24.807  27.033  1.00  0.00     0.010 A 
ATOM     30  C   UNL A   1      41.368  23.793  28.260  1.00  0.00     0.010 A 
ATOM     31  C   UNL A   1      40.652  24.939  27.868  1.00  0.00    -0.014 A 
BRANCH  31  32
ATOM     32  C   UNL A   1      41.220  26.291  28.107  1.00  0.00     0.031 A 
ATOM     33  C   UNL A   1      42.611  26.570  27.599  1.00  0.00     0.074 A 
ATOM     34  C   UNL A   1      40.515  27.265  28.707  1.00  0.00     0.049 A 
ATOM     35  N   UNL A   1      43.342  27.650  27.710  1.00  0.00    -0.248 NA
ATOM     36  C   UNL A   1      43.267  25.475  26.866  1.00  0.00     0.031 C 
ATOM     37  C   UNL A   1      39.144  27.143  29.195  1.00  0.00     0.029 A 
ATOM     38  N   UNL A   1      40.867  28.559  29.006  1.00  0.00    -0.354 N 
ATOM     39  C   UNL A   1      44.543  27.357  27.077  1.00  0.00     0.074 A 
ATOM     40  C   UNL A   1      44.460  25.989  26.617  1.00  0.00     0.031 C 
ATOM     41  C   UNL A   1      38.773  28.315  29.743  1.00  0.00     0.029 A 
ATOM     42  C   UNL A   1      39.891  29.256  29.672  1.00  0.00     0.049 A 
ATOM     43  H   UNL A   1      41.739  28.948  28.765  1.00  0.00     0.167 HD
ATOM     44  C   UNL A   1      45.616  28.159  26.881  1.00  0.00     0.037 A 
ATOM     45  C   UNL A   1      39.909  30.503  30.183  1.00  0.00     0.037 A 
ATOM     46  C   UNL A   1      45.699  29.524  27.333  1.00  0.00     0.049 A 
ATOM     47  C   UNL A   1      41.146  31.354  30.019  1.00  0.00     0.074 A 
ATOM     48  C   UNL A   1      46.737  30.424  27.175  1.00  0.00     0.029 A 
ATOM     49  N   UNL A   1      44.703  30.183  28.038  1.00  0.00    -0.354 N 
ATOM     50  N   UNL A   1      42.272  31.077  29.405  1.00  0.00    -0.248 NA
ATOM     51  C   UNL A   1      41.107  32.697  30.614  1.00  0.00     0.031 C 
ATOM     52  C   UNL A   1      46.395  31.607  27.838  1.00  0.00     0.029 A 
ATOM     53  C   UNL A   1      45.113  31.470  28.345  1.00  0.00     0.049 A 
ATOM     54  H   UNL A   1      43.831  29.793  28.282  1.00  0.00     0.167 HD
ATOM     55  C   UNL A   1      43.059  32.219  29.512  1.00  0.00     0.074 A 
ATOM     56  C   UNL A   1      42.272  33.199  30.231  1.00  0.00     0.031 C 
ATOM     57  C   UNL A   1      44.319  32.439  29.058  1.00  0.00     0.037 A 
BRANCH  44  58
ATOM     58  C   UNL A   1      46.804  27.567  26.177  1.00  0.00     0.064 A 
ATOM     59  C   UNL A   1      46.965  27.658  24.786  1.00  0.00     0.173 A 
ATOM     60  C   UNL A   1      47.806  26.912  26.909  1.00  0.00     0.173 A 
ATOM     61  F   UNL A   1      46.027  28.257  24.035  1.00  0.00    -0.203 F 
ATOM     62  C   UNL A   1      48.066  27.088  24.152  1.00  0.00     0.198 A 
ATOM     63  C   UNL A   1      48.923  26.376  26.276  1.00  0.00     0.198 A 
ATOM     64  F   UNL A   1      47.705  26.797  28.242  1.00  0.00    -0.203 F 
ATOM     65  F   UNL A   1      48.168  27.135  22.816  1.00  0.00    -0.200 F 
ATOM     66  C   UNL A   1      49.047  26.454  24.898  1.00  0.00     0.200 A 
ATOM     67  F   UNL A   1      49.878  25.776  27.001  1.00  0.00    -0.200 F 
ATOM     68  F   UNL A   1      50.111  25.912  24.287  1.00  0.00    -0.200 F 
ENDBRANCH  44  58
BRANCH  45  69
ATOM     69  C   UNL A   1      38.725  31.031  30.915  1.00  0.00     0.064 A 
ATOM     70  C   UNL A   1      38.626  30.921  32.309  1.00  0.00     0.173 A 
ATOM     71  C   UNL A   1      37.650  31.618  30.232  1.00  0.00     0.173 A 
ATOM     72  F   UNL A   1      39.614  30.341  33.008  1.00  0.00    -0.203 F 
ATOM     73  C   UNL A   1      37.488  31.353  32.988  1.00  0.00     0.198 A 
ATOM     74  C   UNL A   1      36.526  32.080  30.914  1.00  0.00     0.198 A 
ATOM     75  F   UNL A   1      37.689  31.742  28.897  1.00  0.00    -0.203 F 
ATOM     76  F   UNL A   1      37.394  31.179  34.313  1.00  0.00    -0.200 F 
ATOM     77  C   UNL A   1      36.442  31.938  32.290  1.00  0.00     0.200 A 
ATOM     78  F   UNL A   1      35.522  32.654  30.238  1.00  0.00    -0.200 F 
ATOM     79  F   UNL A   1      35.347  32.351  32.943  1.00  0.00    -0.200 F 
ENDBRANCH  45  69
BRANCH  57  80
ATOM     80  C   UNL A   1      44.907  33.805  29.284  1.00  0.00     0.064 A 
ATOM     81  C   UNL A   1      44.729  34.853  28.367  1.00  0.00     0.173 A 
ATOM     82  C   UNL A   1      45.649  34.074  30.446  1.00  0.00     0.173 A 
ATOM     83  F   UNL A   1      44.038  34.650  27.236  1.00  0.00    -0.203 F 
ATOM     84  C   UNL A   1      45.312  36.101  28.581  1.00  0.00     0.198 A 
ATOM     85  C   UNL A   1      46.194  35.334  30.676  1.00  0.00     0.198 A 
ATOM     86  F   UNL A   1      45.841  33.116  31.365  1.00  0.00    -0.203 F 
ATOM     87  F   UNL A   1      45.187  37.062  27.657  1.00  0.00    -0.200 F 
ATOM     88  C   UNL A   1      46.038  36.342  29.737  1.00  0.00     0.200 A 
ATOM     89  F   UNL A   1      46.879  35.571  31.804  1.00  0.00    -0.200 F 
ATOM     90  F   UNL A   1      46.597  37.543  29.941  1.00  0.00    -0.200 F 
ENDBRANCH  57  80
ENDBRANCH  31  32
ENDBRANCH  24  26
ENDBRANCH  23  24
ENDBRANCH  22  23
ENDBRANCH  21  22
ENDBRANCH  20  21
ENDBRANCH  19  20
ENDBRANCH   1  19
TORSDOF 21
ENDMDL
