MODEL 1
REMARK VINA RESULT:     -12.3      0.000      0.000
REMARK SMILES Cc1coc2c(C)c3oc(=O)c(CC(=O)NCC(=O)N[C@H](C(=O)OCCOCCOCCOC(=O)c4ccc(-c5c6nc(c(-c7c(F)c(F)c(F)c(F)c7F)c7ccc([nH]7)c(-c7c(F)c(F)c(F)c(F)c7F)c7nc(c(-c8c(F)c(F)c(F)c(F)c8F)c8ccc5[nH]8)C=C7)C=C6)cc4)C(C)C)c(C)c3cc12
REMARK SMILES IDX 27 1 26 2 25 3 24 4 22 5 23 6 21 7 20 8 18 9 19 10 17 12
REMARK SMILES IDX 16 13 14 14 15 15 13 17 12 18 1 19 2 20 3 21 106 22 4 23
REMARK SMILES IDX 5 24 105 25 6 26 104 27 7 28 8 29 102 30 9 31 103 32 10 33
REMARK SMILES IDX 11 34 99 35 100 36 101 37 28 38 29 39 30 40 31 41 32 42
REMARK SMILES IDX 33 43 34 44 35 45 36 46 37 47 98 48 38 49 97 50 39 51 40 52
REMARK SMILES IDX 41 53 91 54 42 55 96 56 90 57 92 58 43 59 95 60 89 61 88 62
REMARK SMILES IDX 44 64 76 65 56 66 75 67 57 68 60 69 74 70 93 71 58 72 59 73
REMARK SMILES IDX 73 75 94 76 61 77 45 78 46 79 54 80 47 81 48 82 52 83 55 84
REMARK SMILES IDX 49 85 50 86 53 87 51 88 77 89 78 90 86 91 79 92 80 93 84 94
REMARK SMILES IDX 87 95 81 96 82 97 85 98 83 99 62 100 63 101 71 102 64 103
REMARK SMILES IDX 65 104 69 105 72 106 66 107 67 108 70 109 68 110
REMARK H PARENT 20 11 16 16 92 63 60 74
REMARK Flexibility Score: inf
ROOT
ATOM      1  O   UNL A   1      32.264  26.445  25.425  1.00  0.00    -0.376 OA
ENDROOT
BRANCH   1   2
ATOM      2  C   UNL A   1      31.750  25.089  25.414  1.00  0.00     0.202 C 
BRANCH   2   3
ATOM      3  C   UNL A   1      31.841  23.944  24.023  1.00  0.00     0.261 C 
BRANCH   3   4
ATOM      4  O   UNL A   1      33.273  23.100  23.400  1.00  0.00    -0.462 OA
BRANCH   4   5
ATOM      5  C   UNL A   1      34.732  22.984  23.474  1.00  0.00     0.328 C 
ATOM      6  O   UNL A   1      35.478  23.579  22.701  1.00  0.00    -0.250 OA
BRANCH   5   7
ATOM      7  C   UNL A   1      35.387  21.762  24.586  1.00  0.00     0.194 C 
BRANCH   7   8
ATOM      8  N   UNL A   1      36.011  22.709  25.492  1.00  0.00    -0.341 N 
ATOM      9  C   UNL A   1      37.352  22.899  25.652  1.00  0.00     0.240 C 
ATOM     10  O   UNL A   1      37.717  24.055  25.887  1.00  0.00    -0.273 OA
ATOM     11  H   UNL A   1      35.412  23.266  26.039  1.00  0.00     0.164 HD
BRANCH   9  12
ATOM     12  C   UNL A   1      38.394  21.798  25.363  1.00  0.00     0.216 C 
BRANCH  12  13
ATOM     13  N   UNL A   1      39.074  21.178  26.502  1.00  0.00    -0.347 N 
ATOM     14  C   UNL A   1      40.401  21.059  26.836  1.00  0.00     0.225 C 
ATOM     15  O   UNL A   1      40.668  20.502  27.898  1.00  0.00    -0.275 OA
ATOM     16  H   UNL A   1      38.462  20.766  27.154  1.00  0.00     0.164 HD
BRANCH  14  17
ATOM     17  C   UNL A   1      41.496  21.677  25.916  1.00  0.00     0.143 C 
BRANCH  17  18
ATOM     18  C   UNL A   1      42.428  23.177  26.096  1.00  0.00     0.051 A 
ATOM     19  C   UNL A   1      48.451  25.890  24.498  1.00  0.00     0.048 C 
ATOM     20  C   UNL A   1      47.262  26.752  24.647  1.00  0.00    -0.005 A 
ATOM     21  C   UNL A   1      47.036  28.098  24.469  1.00  0.00     0.199 A 
ATOM     22  C   UNL A   1      46.028  26.208  25.041  1.00  0.00     0.024 A 
ATOM     23  O   UNL A   1      45.725  28.405  24.719  1.00  0.00    -0.464 OA
ATOM     24  C   UNL A   1      45.112  27.242  25.095  1.00  0.00     0.140 A 
ATOM     25  C   UNL A   1      45.655  24.881  25.312  1.00  0.00     0.024 A 
ATOM     26  C   UNL A   1      43.800  27.052  25.500  1.00  0.00     0.036 A 
ATOM     27  C   UNL A   1      44.389  24.586  25.731  1.00  0.00     0.022 A 
ATOM     28  C   UNL A   1      42.701  28.064  25.333  1.00  0.00     0.052 C 
ATOM     29  C   UNL A   1      43.607  25.721  25.971  1.00  0.00     0.145 A 
ATOM     30  C   UNL A   1      43.765  23.219  25.873  1.00  0.00    -0.029 A 
ATOM     31  O   UNL A   1      42.839  25.523  27.087  1.00  0.00    -0.422 OA
ATOM     32  C   UNL A   1      44.526  21.932  25.627  1.00  0.00     0.046 C 
ATOM     33  C   UNL A   1      41.886  24.743  26.538  1.00  0.00     0.340 A 
ATOM     34  O   UNL A   1      40.790  25.278  26.503  1.00  0.00    -0.246 OA
ENDBRANCH  17  18
ENDBRANCH  14  17
ENDBRANCH  12  13
ENDBRANCH   9  12
ENDBRANCH   7   8
BRANCH   7  35
ATOM     35  C   UNL A   1      34.478  20.577  25.463  1.00  0.00     0.017 C 
ATOM     36  C   UNL A   1      33.239  20.802  26.479  1.00  0.00     0.010 C 
ATOM     37  C   UNL A   1      33.650  19.661  24.540  1.00  0.00     0.010 C 
ENDBRANCH   7  35
ENDBRANCH   5   7
ENDBRANCH   4   5
ENDBRANCH   3   4
ENDBRANCH   2   3
ENDBRANCH   1   2
BRANCH   1  38
ATOM     38  C   UNL A   1      32.131  27.451  24.389  1.00  0.00     0.188 C 
BRANCH  38  39
ATOM     39  C   UNL A   1      32.142  28.934  24.722  1.00  0.00     0.188 C 
BRANCH  39  40
ATOM     40  O   UNL A   1      31.435  29.488  25.805  1.00  0.00    -0.376 OA
BRANCH  40  41
ATOM     41  C   UNL A   1      32.189  29.708  26.962  1.00  0.00     0.202 C 
BRANCH  41  42
ATOM     42  C   UNL A   1      33.676  29.657  26.677  1.00  0.00     0.261 C 
BRANCH  42  43
ATOM     43  O   UNL A   1      34.296  30.894  26.999  1.00  0.00    -0.460 OA
BRANCH  43  44
ATOM     44  C   UNL A   1      34.809  31.060  28.261  1.00  0.00     0.338 C 
ATOM     45  O   UNL A   1      34.539  31.888  29.081  1.00  0.00    -0.246 OA
BRANCH  44  46
ATOM     46  C   UNL A   1      35.784  29.935  28.439  1.00  0.00     0.060 A 
ATOM     47  C   UNL A   1      36.086  29.592  29.741  1.00  0.00     0.016 A 
ATOM     48  C   UNL A   1      36.794  29.879  27.503  1.00  0.00     0.016 A 
ATOM     49  C   UNL A   1      37.312  30.041  30.201  1.00  0.00     0.010 A 
ATOM     50  C   UNL A   1      38.037  30.151  27.983  1.00  0.00     0.010 A 
ATOM     51  C   UNL A   1      38.206  30.614  29.282  1.00  0.00    -0.014 A 
BRANCH  51  52
ATOM     52  C   UNL A   1      39.557  31.083  29.635  1.00  0.00     0.031 A 
ATOM     53  C   UNL A   1      40.389  29.826  29.585  1.00  0.00     0.074 A 
ATOM     54  C   UNL A   1      39.943  32.379  29.918  1.00  0.00     0.049 A 
ATOM     55  N   UNL A   1      40.516  29.032  30.603  1.00  0.00    -0.248 NA
ATOM     56  C   UNL A   1      40.710  29.114  28.318  1.00  0.00     0.031 C 
ATOM     57  C   UNL A   1      39.190  33.661  29.941  1.00  0.00     0.029 A 
ATOM     58  N   UNL A   1      41.194  32.845  30.333  1.00  0.00    -0.354 N 
ATOM     59  C   UNL A   1      41.292  27.968  30.160  1.00  0.00     0.074 A 
ATOM     60  C   UNL A   1      41.079  27.903  28.753  1.00  0.00     0.031 C 
ATOM     61  C   UNL A   1      40.032  34.735  30.059  1.00  0.00     0.029 A 
ATOM     62  C   UNL A   1      41.395  34.268  30.252  1.00  0.00     0.049 A 
ATOM     63  H   UNL A   1      41.895  32.237  30.661  1.00  0.00     0.167 HD
ATOM     64  C   UNL A   1      42.372  27.621  30.914  1.00  0.00     0.037 A 
ATOM     65  C   UNL A   1      42.529  34.987  30.603  1.00  0.00     0.037 A 
ATOM     66  C   UNL A   1      42.204  28.187  32.236  1.00  0.00     0.049 A 
ATOM     67  C   UNL A   1      43.314  34.074  31.466  1.00  0.00     0.074 A 
ATOM     68  C   UNL A   1      41.338  27.986  33.290  1.00  0.00     0.029 A 
ATOM     69  N   UNL A   1      42.594  29.500  32.283  1.00  0.00    -0.354 N 
ATOM     70  N   UNL A   1      42.912  33.742  32.658  1.00  0.00    -0.248 NA
ATOM     71  C   UNL A   1      44.157  33.123  30.761  1.00  0.00     0.031 C 
ATOM     72  C   UNL A   1      41.098  29.276  33.856  1.00  0.00     0.029 A 
ATOM     73  C   UNL A   1      41.951  30.197  33.258  1.00  0.00     0.049 A 
ATOM     74  H   UNL A   1      43.265  29.895  31.680  1.00  0.00     0.167 HD
ATOM     75  C   UNL A   1      43.020  32.363  32.659  1.00  0.00     0.074 A 
ATOM     76  C   UNL A   1      43.844  32.041  31.480  1.00  0.00     0.031 C 
ATOM     77  C   UNL A   1      42.138  31.616  33.390  1.00  0.00     0.037 A 
BRANCH  64  78
ATOM     78  C   UNL A   1      43.767  27.374  30.357  1.00  0.00     0.064 A 
ATOM     79  C   UNL A   1      44.330  28.371  29.534  1.00  0.00     0.173 A 
ATOM     80  C   UNL A   1      44.443  26.131  30.335  1.00  0.00     0.173 A 
ATOM     81  F   UNL A   1      43.762  29.584  29.452  1.00  0.00    -0.203 F 
ATOM     82  C   UNL A   1      45.437  28.128  28.715  1.00  0.00     0.198 A 
ATOM     83  C   UNL A   1      45.575  25.904  29.548  1.00  0.00     0.198 A 
ATOM     84  F   UNL A   1      43.999  25.052  30.987  1.00  0.00    -0.203 F 
ATOM     85  F   UNL A   1      45.866  29.081  27.878  1.00  0.00    -0.200 F 
ATOM     86  C   UNL A   1      46.059  26.894  28.722  1.00  0.00     0.200 A 
ATOM     87  F   UNL A   1      46.146  24.692  29.550  1.00  0.00    -0.200 F 
ATOM     88  F   UNL A   1      47.098  26.647  27.914  1.00  0.00    -0.200 F 
ENDBRANCH  64  78
BRANCH  65  89
ATOM     89  C   UNL A   1      43.294  36.107  29.918  1.00  0.00     0.064 A 
ATOM     90  C   UNL A   1      43.273  36.335  28.510  1.00  0.00     0.173 A 
ATOM     91  C   UNL A   1      43.753  37.189  30.681  1.00  0.00     0.173 A 
ATOM     92  F   UNL A   1      42.819  35.389  27.673  1.00  0.00    -0.203 F 
ATOM     93  C   UNL A   1      43.645  37.570  27.933  1.00  0.00     0.198 A 
ATOM     94  C   UNL A   1      44.103  38.423  30.108  1.00  0.00     0.198 A 
ATOM     95  F   UNL A   1      43.771  37.099  32.016  1.00  0.00    -0.203 F 
ATOM     96  F   UNL A   1      43.563  37.762  26.607  1.00  0.00    -0.200 F 
ATOM     97  C   UNL A   1      44.036  38.622  28.741  1.00  0.00     0.200 A 
ATOM     98  F   UNL A   1      44.439  39.446  30.907  1.00  0.00    -0.200 F 
ATOM     99  F   UNL A   1      44.308  39.827  28.215  1.00  0.00    -0.200 F 
ENDBRANCH  65  89
BRANCH  77 100
ATOM    100  C   UNL A   1      41.282  32.312  34.410  1.00  0.00     0.064 A 
ATOM    101  C   UNL A   1      39.957  32.744  34.224  1.00  0.00     0.173 A 
ATOM    102  C   UNL A   1      41.808  32.384  35.703  1.00  0.00     0.173 A 
ATOM    103  F   UNL A   1      39.347  32.609  33.040  1.00  0.00    -0.203 F 
ATOM    104  C   UNL A   1      39.213  33.263  35.290  1.00  0.00     0.198 A 
ATOM    105  C   UNL A   1      41.057  32.864  36.767  1.00  0.00     0.198 A 
ATOM    106  F   UNL A   1      43.042  31.914  35.944  1.00  0.00    -0.203 F 
ATOM    107  F   UNL A   1      37.948  33.670  35.100  1.00  0.00    -0.200 F 
ATOM    108  C   UNL A   1      39.767  33.319  36.560  1.00  0.00     0.200 A 
ATOM    109  F   UNL A   1      41.577  32.844  38.001  1.00  0.00    -0.200 F 
ATOM    110  F   UNL A   1      39.048  33.784  37.592  1.00  0.00    -0.200 F 
ENDBRANCH  77 100
ENDBRANCH  51  52
ENDBRANCH  44  46
ENDBRANCH  43  44
ENDBRANCH  42  43
ENDBRANCH  41  42
ENDBRANCH  40  41
ENDBRANCH  39  40
ENDBRANCH  38  39
ENDBRANCH   1  38
TORSDOF 23
ENDMDL
MODEL 2
REMARK VINA RESULT:     -11.9      1.366      2.037
REMARK SMILES Cc1coc2c(C)c3oc(=O)c(CC(=O)NCC(=O)N[C@H](C(=O)OCCOCCOCCOC(=O)c4ccc(-c5c6nc(c(-c7c(F)c(F)c(F)c(F)c7F)c7ccc([nH]7)c(-c7c(F)c(F)c(F)c(F)c7F)c7nc(c(-c8c(F)c(F)c(F)c(F)c8F)c8ccc5[nH]8)C=C7)C=C6)cc4)C(C)C)c(C)c3cc12
REMARK SMILES IDX 27 1 26 2 25 3 24 4 22 5 23 6 21 7 20 8 18 9 19 10 17 12
REMARK SMILES IDX 16 13 14 14 15 15 13 17 12 18 1 19 2 20 3 21 106 22 4 23
REMARK SMILES IDX 5 24 105 25 6 26 104 27 7 28 8 29 102 30 9 31 103 32 10 33
REMARK SMILES IDX 11 34 99 35 100 36 101 37 28 38 29 39 30 40 31 41 32 42
REMARK SMILES IDX 33 43 34 44 35 45 36 46 37 47 98 48 38 49 97 50 39 51 40 52
REMARK SMILES IDX 41 53 91 54 42 55 96 56 90 57 92 58 43 59 95 60 89 61 88 62
REMARK SMILES IDX 44 64 76 65 56 66 75 67 57 68 60 69 74 70 93 71 58 72 59 73
REMARK SMILES IDX 73 75 94 76 61 77 45 78 46 79 54 80 47 81 48 82 52 83 55 84
REMARK SMILES IDX 49 85 50 86 53 87 51 88 77 89 78 90 86 91 79 92 80 93 84 94
REMARK SMILES IDX 87 95 81 96 82 97 85 98 83 99 62 100 63 101 71 102 64 103
REMARK SMILES IDX 65 104 69 105 72 106 66 107 67 108 70 109 68 110
REMARK H PARENT 20 11 16 16 92 63 60 74
REMARK Flexibility Score: inf
ROOT
ATOM      1  O   UNL A   1      32.495  25.189  26.212  1.00  0.00    -0.376 OA
ENDROOT
BRANCH   1   2
ATOM      2  C   UNL A   1      31.292  24.460  26.562  1.00  0.00     0.202 C 
BRANCH   2   3
ATOM      3  C   UNL A   1      30.914  22.764  26.079  1.00  0.00     0.261 C 
BRANCH   3   4
ATOM      4  O   UNL A   1      31.961  21.619  25.217  1.00  0.00    -0.462 OA
BRANCH   4   5
ATOM      5  C   UNL A   1      33.077  21.477  24.278  1.00  0.00     0.328 C 
ATOM      6  O   UNL A   1      33.117  22.080  23.209  1.00  0.00    -0.250 OA
BRANCH   5   7
ATOM      7  C   UNL A   1      34.276  20.215  24.638  1.00  0.00     0.194 C 
BRANCH   7   8
ATOM      8  N   UNL A   1      34.741  20.806  25.879  1.00  0.00    -0.341 N 
ATOM      9  C   UNL A   1      35.807  21.645  26.017  1.00  0.00     0.240 C 
ATOM     10  O   UNL A   1      35.702  22.528  26.873  1.00  0.00    -0.273 OA
ATOM     11  H   UNL A   1      34.239  20.581  26.696  1.00  0.00     0.164 HD
BRANCH   9  12
ATOM     12  C   UNL A   1      37.004  21.644  25.042  1.00  0.00     0.216 C 
BRANCH  12  13
ATOM     13  N   UNL A   1      38.063  20.657  25.254  1.00  0.00    -0.347 N 
ATOM     14  C   UNL A   1      39.311  20.744  25.824  1.00  0.00     0.225 C 
ATOM     15  O   UNL A   1      39.974  19.711  25.890  1.00  0.00    -0.275 OA
ATOM     16  H   UNL A   1      37.839  19.757  24.924  1.00  0.00     0.164 HD
BRANCH  14  17
ATOM     17  C   UNL A   1      39.807  22.098  26.413  1.00  0.00     0.143 C 
BRANCH  17  18
ATOM     18  C   UNL A   1      41.229  23.074  25.994  1.00  0.00     0.051 A 
ATOM     19  C   UNL A   1      43.938  29.213  27.076  1.00  0.00     0.048 C 
ATOM     20  C   UNL A   1      44.809  28.050  26.815  1.00  0.00    -0.005 A 
ATOM     21  C   UNL A   1      46.174  27.872  26.792  1.00  0.00     0.199 A 
ATOM     22  C   UNL A   1      44.256  26.791  26.527  1.00  0.00     0.024 A 
ATOM     23  O   UNL A   1      46.485  26.567  26.517  1.00  0.00    -0.464 OA
ATOM     24  C   UNL A   1      45.302  25.908  26.329  1.00  0.00     0.140 A 
ATOM     25  C   UNL A   1      42.917  26.370  26.465  1.00  0.00     0.024 A 
ATOM     26  C   UNL A   1      45.099  24.584  25.977  1.00  0.00     0.036 A 
ATOM     27  C   UNL A   1      42.607  25.088  26.114  1.00  0.00     0.022 A 
ATOM     28  C   UNL A   1      46.162  23.521  26.005  1.00  0.00     0.052 C 
ATOM     29  C   UNL A   1      43.719  24.338  25.716  1.00  0.00     0.145 A 
ATOM     30  C   UNL A   1      41.257  24.416  26.189  1.00  0.00    -0.029 A 
ATOM     31  O   UNL A   1      43.382  23.543  24.654  1.00  0.00    -0.422 OA
ATOM     32  C   UNL A   1      39.995  25.140  26.616  1.00  0.00     0.046 C 
ATOM     33  C   UNL A   1      42.729  22.576  25.329  1.00  0.00     0.340 A 
ATOM     34  O   UNL A   1      43.301  21.499  25.298  1.00  0.00    -0.246 OA
ENDBRANCH  17  18
ENDBRANCH  14  17
ENDBRANCH  12  13
ENDBRANCH   9  12
ENDBRANCH   7   8
BRANCH   7  35
ATOM     35  C   UNL A   1      33.961  18.523  24.838  1.00  0.00     0.017 C 
ATOM     36  C   UNL A   1      32.725  17.809  25.600  1.00  0.00     0.010 C 
ATOM     37  C   UNL A   1      33.644  17.817  23.506  1.00  0.00     0.010 C 
ENDBRANCH   7  35
ENDBRANCH   5   7
ENDBRANCH   4   5
ENDBRANCH   3   4
ENDBRANCH   2   3
ENDBRANCH   1   2
BRANCH   1  38
ATOM     38  C   UNL A   1      32.758  25.932  24.994  1.00  0.00     0.188 C 
BRANCH  38  39
ATOM     39  C   UNL A   1      33.069  27.419  25.028  1.00  0.00     0.188 C 
BRANCH  39  40
ATOM     40  O   UNL A   1      32.077  28.415  25.102  1.00  0.00    -0.376 OA
BRANCH  40  41
ATOM     41  C   UNL A   1      31.808  28.897  26.387  1.00  0.00     0.202 C 
BRANCH  41  42
ATOM     42  C   UNL A   1      33.079  29.098  27.185  1.00  0.00     0.261 C 
BRANCH  42  43
ATOM     43  O   UNL A   1      33.681  30.347  26.872  1.00  0.00    -0.460 OA
BRANCH  43  44
ATOM     44  C   UNL A   1      34.532  30.912  27.788  1.00  0.00     0.338 C 
ATOM     45  O   UNL A   1      34.530  32.021  28.234  1.00  0.00    -0.246 OA
BRANCH  44  46
ATOM     46  C   UNL A   1      35.481  29.816  28.169  1.00  0.00     0.060 A 
ATOM     47  C   UNL A   1      35.702  29.644  29.520  1.00  0.00     0.016 A 
ATOM     48  C   UNL A   1      36.543  29.634  27.311  1.00  0.00     0.016 A 
ATOM     49  C   UNL A   1      36.903  30.144  29.991  1.00  0.00     0.010 A 
ATOM     50  C   UNL A   1      37.760  29.960  27.825  1.00  0.00     0.010 A 
ATOM     51  C   UNL A   1      37.857  30.588  29.060  1.00  0.00    -0.014 A 
BRANCH  51  52
ATOM     52  C   UNL A   1      39.190  31.094  29.429  1.00  0.00     0.031 A 
ATOM     53  C   UNL A   1      40.037  29.846  29.482  1.00  0.00     0.074 A 
ATOM     54  C   UNL A   1      39.553  32.409  29.648  1.00  0.00     0.049 A 
ATOM     55  N   UNL A   1      40.137  29.116  30.549  1.00  0.00    -0.248 NA
ATOM     56  C   UNL A   1      40.408  29.064  28.271  1.00  0.00     0.031 C 
ATOM     57  C   UNL A   1      38.788  33.681  29.569  1.00  0.00     0.029 A 
ATOM     58  N   UNL A   1      40.786  32.914  30.076  1.00  0.00    -0.354 N 
ATOM     59  C   UNL A   1      40.938  28.037  30.197  1.00  0.00     0.074 A 
ATOM     60  C   UNL A   1      40.774  27.885  28.790  1.00  0.00     0.031 C 
ATOM     61  C   UNL A   1      39.614  34.770  29.651  1.00  0.00     0.029 A 
ATOM     62  C   UNL A   1      40.975  34.331  29.916  1.00  0.00     0.049 A 
ATOM     63  H   UNL A   1      41.481  32.335  30.462  1.00  0.00     0.167 HD
ATOM     64  C   UNL A   1      41.995  27.748  31.005  1.00  0.00     0.037 A 
ATOM     65  C   UNL A   1      42.089  35.084  30.262  1.00  0.00     0.037 A 
ATOM     66  C   UNL A   1      41.776  28.389  32.285  1.00  0.00     0.049 A 
ATOM     67  C   UNL A   1      42.853  34.233  31.203  1.00  0.00     0.074 A 
ATOM     68  C   UNL A   1      40.877  28.240  33.320  1.00  0.00     0.029 A 
ATOM     69  N   UNL A   1      42.152  29.707  32.267  1.00  0.00    -0.354 N 
ATOM     70  N   UNL A   1      42.414  33.967  32.399  1.00  0.00    -0.248 NA
ATOM     71  C   UNL A   1      43.729  33.252  30.585  1.00  0.00     0.031 C 
ATOM     72  C   UNL A   1      40.605  29.558  33.800  1.00  0.00     0.029 A 
ATOM     73  C   UNL A   1      41.469  30.453  33.177  1.00  0.00     0.049 A 
ATOM     74  H   UNL A   1      42.838  30.073  31.664  1.00  0.00     0.167 HD
ATOM     75  C   UNL A   1      42.535  32.592  32.485  1.00  0.00     0.074 A 
ATOM     76  C   UNL A   1      43.402  32.211  31.356  1.00  0.00     0.031 C 
ATOM     77  C   UNL A   1      41.636  31.879  33.230  1.00  0.00     0.037 A 
BRANCH  64  78
ATOM     78  C   UNL A   1      43.411  27.485  30.511  1.00  0.00     0.064 A 
ATOM     79  C   UNL A   1      43.706  26.193  30.028  1.00  0.00     0.173 A 
ATOM     80  C   UNL A   1      44.540  28.302  30.754  1.00  0.00     0.173 A 
ATOM     81  F   UNL A   1      42.718  25.317  29.784  1.00  0.00    -0.203 F 
ATOM     82  C   UNL A   1      45.017  25.740  29.858  1.00  0.00     0.198 A 
ATOM     83  C   UNL A   1      45.848  27.860  30.543  1.00  0.00     0.198 A 
ATOM     84  F   UNL A   1      44.450  29.522  31.293  1.00  0.00    -0.203 F 
ATOM     85  F   UNL A   1      45.239  24.470  29.493  1.00  0.00    -0.200 F 
ATOM     86  C   UNL A   1      46.089  26.573  30.115  1.00  0.00     0.200 A 
ATOM     87  F   UNL A   1      46.873  28.677  30.825  1.00  0.00    -0.200 F 
ATOM     88  F   UNL A   1      47.346  26.131  29.987  1.00  0.00    -0.200 F 
ENDBRANCH  64  78
BRANCH  65  89
ATOM     89  C   UNL A   1      42.865  36.171  29.537  1.00  0.00     0.064 A 
ATOM     90  C   UNL A   1      42.573  36.601  28.209  1.00  0.00     0.173 A 
ATOM     91  C   UNL A   1      43.662  37.053  30.278  1.00  0.00     0.173 A 
ATOM     92  F   UNL A   1      41.788  35.862  27.410  1.00  0.00    -0.203 F 
ATOM     93  C   UNL A   1      43.016  37.841  27.696  1.00  0.00     0.198 A 
ATOM     94  C   UNL A   1      44.085  38.294  29.774  1.00  0.00     0.198 A 
ATOM     95  F   UNL A   1      43.959  36.768  31.552  1.00  0.00    -0.203 F 
ATOM     96  F   UNL A   1      42.677  38.233  26.457  1.00  0.00    -0.200 F 
ATOM     97  C   UNL A   1      43.752  38.697  28.494  1.00  0.00     0.200 A 
ATOM     98  F   UNL A   1      44.762  39.131  30.574  1.00  0.00    -0.200 F 
ATOM     99  F   UNL A   1      44.106  39.914  28.051  1.00  0.00    -0.200 F 
ENDBRANCH  65  89
BRANCH  77 100
ATOM    100  C   UNL A   1      40.740  32.624  34.178  1.00  0.00     0.064 A 
ATOM    101  C   UNL A   1      39.415  33.022  33.925  1.00  0.00     0.173 A 
ATOM    102  C   UNL A   1      41.224  32.785  35.479  1.00  0.00     0.173 A 
ATOM    103  F   UNL A   1      38.844  32.803  32.734  1.00  0.00    -0.203 F 
ATOM    104  C   UNL A   1      38.631  33.595  34.933  1.00  0.00     0.198 A 
ATOM    105  C   UNL A   1      40.434  33.319  36.487  1.00  0.00     0.198 A 
ATOM    106  F   UNL A   1      42.456  32.351  35.786  1.00  0.00    -0.203 F 
ATOM    107  F   UNL A   1      37.367  33.969  34.679  1.00  0.00    -0.200 F 
ATOM    108  C   UNL A   1      39.144  33.740  36.213  1.00  0.00     0.200 A 
ATOM    109  F   UNL A   1      40.915  33.385  37.735  1.00  0.00    -0.200 F 
ATOM    110  F   UNL A   1      38.387  34.257  37.192  1.00  0.00    -0.200 F 
ENDBRANCH  77 100
ENDBRANCH  51  52
ENDBRANCH  44  46
ENDBRANCH  43  44
ENDBRANCH  42  43
ENDBRANCH  41  42
ENDBRANCH  40  41
ENDBRANCH  39  40
ENDBRANCH  38  39
ENDBRANCH   1  38
TORSDOF 23
ENDMDL
MODEL 3
REMARK VINA RESULT:     -11.6      2.535      7.470
REMARK SMILES Cc1coc2c(C)c3oc(=O)c(CC(=O)NCC(=O)N[C@H](C(=O)OCCOCCOCCOC(=O)c4ccc(-c5c6nc(c(-c7c(F)c(F)c(F)c(F)c7F)c7ccc([nH]7)c(-c7c(F)c(F)c(F)c(F)c7F)c7nc(c(-c8c(F)c(F)c(F)c(F)c8F)c8ccc5[nH]8)C=C7)C=C6)cc4)C(C)C)c(C)c3cc12
REMARK SMILES IDX 27 1 26 2 25 3 24 4 22 5 23 6 21 7 20 8 18 9 19 10 17 12
REMARK SMILES IDX 16 13 14 14 15 15 13 17 12 18 1 19 2 20 3 21 106 22 4 23
REMARK SMILES IDX 5 24 105 25 6 26 104 27 7 28 8 29 102 30 9 31 103 32 10 33
REMARK SMILES IDX 11 34 99 35 100 36 101 37 28 38 29 39 30 40 31 41 32 42
REMARK SMILES IDX 33 43 34 44 35 45 36 46 37 47 98 48 38 49 97 50 39 51 40 52
REMARK SMILES IDX 41 53 91 54 42 55 96 56 90 57 92 58 43 59 95 60 89 61 88 62
REMARK SMILES IDX 44 64 76 65 56 66 75 67 57 68 60 69 74 70 93 71 58 72 59 73
REMARK SMILES IDX 73 75 94 76 61 77 45 78 46 79 54 80 47 81 48 82 52 83 55 84
REMARK SMILES IDX 49 85 50 86 53 87 51 88 77 89 78 90 86 91 79 92 80 93 84 94
REMARK SMILES IDX 87 95 81 96 82 97 85 98 83 99 62 100 63 101 71 102 64 103
REMARK SMILES IDX 65 104 69 105 72 106 66 107 67 108 70 109 68 110
REMARK H PARENT 20 11 16 16 92 63 60 74
REMARK Flexibility Score: inf
ROOT
ATOM      1  O   UNL A   1      32.632  25.441  25.955  1.00  0.00    -0.376 OA
ENDROOT
BRANCH   1   2
ATOM      2  C   UNL A   1      31.483  24.737  26.491  1.00  0.00     0.202 C 
BRANCH   2   3
ATOM      3  C   UNL A   1      31.030  23.031  26.118  1.00  0.00     0.261 C 
BRANCH   3   4
ATOM      4  O   UNL A   1      31.964  21.834  25.199  1.00  0.00    -0.462 OA
BRANCH   4   5
ATOM      5  C   UNL A   1      33.003  21.634  24.185  1.00  0.00     0.328 C 
ATOM      6  O   UNL A   1      33.011  22.250  23.123  1.00  0.00    -0.250 OA
BRANCH   5   7
ATOM      7  C   UNL A   1      34.138  20.292  24.450  1.00  0.00     0.194 C 
BRANCH   7   8
ATOM      8  N   UNL A   1      34.640  20.775  25.723  1.00  0.00    -0.341 N 
ATOM      9  C   UNL A   1      35.741  21.560  25.904  1.00  0.00     0.240 C 
ATOM     10  O   UNL A   1      35.681  22.385  26.821  1.00  0.00    -0.273 OA
ATOM     11  H   UNL A   1      34.140  20.514  26.529  1.00  0.00     0.164 HD
BRANCH   9  12
ATOM     12  C   UNL A   1      36.926  21.582  24.914  1.00  0.00     0.216 C 
BRANCH  12  13
ATOM     13  N   UNL A   1      37.882  20.475  24.962  1.00  0.00    -0.347 N 
ATOM     14  C   UNL A   1      39.081  20.314  25.615  1.00  0.00     0.225 C 
ATOM     15  O   UNL A   1      39.652  19.234  25.487  1.00  0.00    -0.275 OA
ATOM     16  H   UNL A   1      37.616  19.696  24.422  1.00  0.00     0.164 HD
BRANCH  14  17
ATOM     17  C   UNL A   1      39.631  21.450  26.529  1.00  0.00     0.143 C 
BRANCH  17  18
ATOM     18  C   UNL A   1      41.091  22.445  26.360  1.00  0.00     0.051 A 
ATOM     19  C   UNL A   1      44.262  27.718  29.248  1.00  0.00     0.048 C 
ATOM     20  C   UNL A   1      45.038  26.675  28.547  1.00  0.00    -0.005 A 
ATOM     21  C   UNL A   1      46.384  26.454  28.364  1.00  0.00     0.199 A 
ATOM     22  C   UNL A   1      44.386  25.616  27.892  1.00  0.00     0.024 A 
ATOM     23  O   UNL A   1      46.591  25.309  27.643  1.00  0.00    -0.464 OA
ATOM     24  C   UNL A   1      45.358  24.808  27.332  1.00  0.00     0.140 A 
ATOM     25  C   UNL A   1      43.020  25.303  27.790  1.00  0.00     0.024 A 
ATOM     26  C   UNL A   1      45.047  23.694  26.569  1.00  0.00     0.036 A 
ATOM     27  C   UNL A   1      42.606  24.233  27.051  1.00  0.00     0.022 A 
ATOM     28  C   UNL A   1      46.036  22.638  26.158  1.00  0.00     0.052 C 
ATOM     29  C   UNL A   1      43.642  23.615  26.343  1.00  0.00     0.145 A 
ATOM     30  C   UNL A   1      41.220  23.637  26.995  1.00  0.00    -0.029 A 
ATOM     31  O   UNL A   1      43.196  23.245  25.103  1.00  0.00    -0.422 OA
ATOM     32  C   UNL A   1      40.035  24.229  27.731  1.00  0.00     0.046 C 
ATOM     33  C   UNL A   1      42.516  22.137  25.457  1.00  0.00     0.340 A 
ATOM     34  O   UNL A   1      43.012  21.110  25.023  1.00  0.00    -0.246 OA
ENDBRANCH  17  18
ENDBRANCH  14  17
ENDBRANCH  12  13
ENDBRANCH   9  12
ENDBRANCH   7   8
BRANCH   7  35
ATOM     35  C   UNL A   1      33.738  18.609  24.542  1.00  0.00     0.017 C 
ATOM     36  C   UNL A   1      32.816  17.733  23.541  1.00  0.00     0.010 C 
ATOM     37  C   UNL A   1      34.961  17.695  24.334  1.00  0.00     0.010 C 
ENDBRANCH   7  35
ENDBRANCH   5   7
ENDBRANCH   4   5
ENDBRANCH   3   4
ENDBRANCH   2   3
ENDBRANCH   1   2
BRANCH   1  38
ATOM     38  C   UNL A   1      32.703  26.218  24.732  1.00  0.00     0.188 C 
BRANCH  38  39
ATOM     39  C   UNL A   1      33.243  27.639  24.729  1.00  0.00     0.188 C 
BRANCH  39  40
ATOM     40  O   UNL A   1      32.556  28.728  25.299  1.00  0.00    -0.376 OA
BRANCH  40  41
ATOM     41  C   UNL A   1      32.940  29.061  26.602  1.00  0.00     0.202 C 
BRANCH  41  42
ATOM     42  C   UNL A   1      34.444  29.023  26.768  1.00  0.00     0.261 C 
BRANCH  42  43
ATOM     43  O   UNL A   1      34.934  30.272  27.235  1.00  0.00    -0.460 OA
BRANCH  43  44
ATOM     44  C   UNL A   1      36.228  30.341  27.688  1.00  0.00     0.338 C 
ATOM     45  O   UNL A   1      37.222  29.896  27.197  1.00  0.00    -0.246 OA
BRANCH  44  46
ATOM     46  C   UNL A   1      36.158  31.149  28.950  1.00  0.00     0.060 A 
ATOM     47  C   UNL A   1      36.945  32.282  28.991  1.00  0.00     0.016 A 
ATOM     48  C   UNL A   1      36.015  30.418  30.108  1.00  0.00     0.016 A 
ATOM     49  C   UNL A   1      38.104  32.170  29.738  1.00  0.00     0.010 A 
ATOM     50  C   UNL A   1      37.092  30.441  30.939  1.00  0.00     0.010 A 
ATOM     51  C   UNL A   1      38.284  31.025  30.531  1.00  0.00    -0.014 A 
BRANCH  51  52
ATOM     52  C   UNL A   1      39.448  30.810  31.408  1.00  0.00     0.031 A 
ATOM     53  C   UNL A   1      39.421  32.006  32.328  1.00  0.00     0.074 A 
ATOM     54  C   UNL A   1      40.326  29.743  31.384  1.00  0.00     0.049 A 
ATOM     55  N   UNL A   1      39.992  33.130  32.026  1.00  0.00    -0.248 NA
ATOM     56  C   UNL A   1      38.375  32.207  33.367  1.00  0.00     0.031 C 
ATOM     57  C   UNL A   1      40.384  28.519  30.543  1.00  0.00     0.029 A 
ATOM     58  N   UNL A   1      41.482  29.547  32.147  1.00  0.00    -0.354 N 
ATOM     59  C   UNL A   1      39.700  33.996  33.073  1.00  0.00     0.074 A 
ATOM     60  C   UNL A   1      38.485  33.514  33.638  1.00  0.00     0.031 C 
ATOM     61  C   UNL A   1      41.303  27.624  31.022  1.00  0.00     0.029 A 
ATOM     62  C   UNL A   1      42.024  28.215  32.138  1.00  0.00     0.049 A 
ATOM     63  H   UNL A   1      41.899  30.277  32.658  1.00  0.00     0.167 HD
ATOM     64  C   UNL A   1      40.740  34.669  33.640  1.00  0.00     0.037 A 
ATOM     65  C   UNL A   1      43.156  27.754  32.795  1.00  0.00     0.037 A 
ATOM     66  C   UNL A   1      41.859  34.633  32.722  1.00  0.00     0.049 A 
ATOM     67  C   UNL A   1      43.922  28.972  33.145  1.00  0.00     0.074 A 
ATOM     68  C   UNL A   1      42.129  35.161  31.477  1.00  0.00     0.029 A 
ATOM     69  N   UNL A   1      42.565  33.461  32.822  1.00  0.00    -0.354 N 
ATOM     70  N   UNL A   1      44.503  29.702  32.237  1.00  0.00    -0.248 NA
ATOM     71  C   UNL A   1      43.506  29.639  34.367  1.00  0.00     0.031 C 
ATOM     72  C   UNL A   1      42.883  34.166  30.781  1.00  0.00     0.029 A 
ATOM     73  C   UNL A   1      43.207  33.144  31.667  1.00  0.00     0.049 A 
ATOM     74  H   UNL A   1      42.602  32.912  33.639  1.00  0.00     0.167 HD
ATOM     75  C   UNL A   1      44.080  30.983  32.541  1.00  0.00     0.074 A 
ATOM     76  C   UNL A   1      43.510  30.890  33.897  1.00  0.00     0.031 C 
ATOM     77  C   UNL A   1      43.904  31.893  31.535  1.00  0.00     0.037 A 
BRANCH  64  78
ATOM     78  C   UNL A   1      40.981  34.777  35.139  1.00  0.00     0.064 A 
ATOM     79  C   UNL A   1      41.045  33.578  35.880  1.00  0.00     0.173 A 
ATOM     80  C   UNL A   1      40.856  35.952  35.918  1.00  0.00     0.173 A 
ATOM     81  F   UNL A   1      41.138  32.396  35.252  1.00  0.00    -0.203 F 
ATOM     82  C   UNL A   1      40.935  33.553  37.273  1.00  0.00     0.198 A 
ATOM     83  C   UNL A   1      40.789  35.927  37.313  1.00  0.00     0.198 A 
ATOM     84  F   UNL A   1      40.696  37.165  35.379  1.00  0.00    -0.203 F 
ATOM     85  F   UNL A   1      40.900  32.379  37.917  1.00  0.00    -0.200 F 
ATOM     86  C   UNL A   1      40.807  34.728  37.990  1.00  0.00     0.200 A 
ATOM     87  F   UNL A   1      40.638  37.077  37.985  1.00  0.00    -0.200 F 
ATOM     88  F   UNL A   1      40.666  34.706  39.321  1.00  0.00    -0.200 F 
ENDBRANCH  64  78
BRANCH  65  89
ATOM     89  C   UNL A   1      43.435  26.509  33.621  1.00  0.00     0.064 A 
ATOM     90  C   UNL A   1      42.582  26.043  34.665  1.00  0.00     0.173 A 
ATOM     91  C   UNL A   1      44.348  25.560  33.143  1.00  0.00     0.173 A 
ATOM     92  F   UNL A   1      41.638  26.846  35.183  1.00  0.00    -0.203 F 
ATOM     93  C   UNL A   1      42.625  24.717  35.149  1.00  0.00     0.198 A 
ATOM     94  C   UNL A   1      44.377  24.236  33.610  1.00  0.00     0.198 A 
ATOM     95  F   UNL A   1      45.166  25.878  32.131  1.00  0.00    -0.203 F 
ATOM     96  F   UNL A   1      41.770  24.303  36.098  1.00  0.00    -0.200 F 
ATOM     97  C   UNL A   1      43.510  23.807  34.599  1.00  0.00     0.200 A 
ATOM     98  F   UNL A   1      45.210  23.355  33.037  1.00  0.00    -0.200 F 
ATOM     99  F   UNL A   1      43.502  22.522  34.985  1.00  0.00    -0.200 F 
ENDBRANCH  65  89
BRANCH  77 100
ATOM    100  C   UNL A   1      44.466  31.580  30.178  1.00  0.00     0.064 A 
ATOM    101  C   UNL A   1      43.728  31.202  29.042  1.00  0.00     0.173 A 
ATOM    102  C   UNL A   1      45.827  31.849  30.002  1.00  0.00     0.173 A 
ATOM    103  F   UNL A   1      42.401  31.031  29.107  1.00  0.00    -0.203 F 
ATOM    104  C   UNL A   1      44.347  31.063  27.795  1.00  0.00     0.198 A 
ATOM    105  C   UNL A   1      46.432  31.747  28.758  1.00  0.00     0.198 A 
ATOM    106  F   UNL A   1      46.555  32.285  31.041  1.00  0.00    -0.203 F 
ATOM    107  F   UNL A   1      43.631  30.704  26.718  1.00  0.00    -0.200 F 
ATOM    108  C   UNL A   1      45.699  31.338  27.657  1.00  0.00     0.200 A 
ATOM    109  F   UNL A   1      47.720  32.087  28.623  1.00  0.00    -0.200 F 
ATOM    110  F   UNL A   1      46.291  31.240  26.458  1.00  0.00    -0.200 F 
ENDBRANCH  77 100
ENDBRANCH  51  52
ENDBRANCH  44  46
ENDBRANCH  43  44
ENDBRANCH  42  43
ENDBRANCH  41  42
ENDBRANCH  40  41
ENDBRANCH  39  40
ENDBRANCH  38  39
ENDBRANCH   1  38
TORSDOF 23
ENDMDL
