MODEL 1
REMARK VINA RESULT:     -12.0      0.000      0.000
REMARK SMILES O=C(OCCOCCOCCOC(=O)[C@H]1[C@@H](C(=O)Nc2cc(F)ccc2F)[C@@H]2C=C[C@H]1O2)c1ccc(-c2c3nc(c(-c4c(F)c(F)c(F)c(F)c4F)c4ccc([nH]4)c(-c4c(F)c(F)c(F)c(F)c4F)c4nc(c(-c5c(F)c(F)c(F)c(F)c5F)c5ccc2[nH]5)C=C4)C=C3)cc1
REMARK SMILES IDX 7 1 6 2 5 3 4 4 3 5 2 6 1 7 33 8 34 9 95 10 35 11 94 12
REMARK SMILES IDX 36 13 37 14 38 15 88 16 39 17 93 18 87 19 89 20 40 21 92 22
REMARK SMILES IDX 86 23 85 24 41 26 73 27 53 28 72 29 54 30 57 31 71 32 90 33
REMARK SMILES IDX 55 34 56 35 70 37 91 38 58 39 42 40 43 41 51 42 44 43 45 44
REMARK SMILES IDX 49 45 52 46 46 47 47 48 50 49 48 50 74 51 75 52 83 53 76 54
REMARK SMILES IDX 77 55 81 56 84 57 78 58 79 59 82 60 80 61 59 62 60 63 68 64
REMARK SMILES IDX 61 65 62 66 66 67 69 68 63 69 64 70 67 71 65 72 8 73 9 74
REMARK SMILES IDX 10 75 11 76 12 77 13 78 14 79 15 80 16 81 31 82 28 83 30 84
REMARK SMILES IDX 32 85 29 86 17 87 18 88 19 89 20 91 21 92 26 93 22 94 25 95
REMARK SMILES IDX 27 96 23 97 24 98
REMARK H PARENT 89 25 57 36 19 90
REMARK Flexibility Score: inf
ROOT
ATOM      1  C   UNL A   1      40.055  21.174  26.150  1.00  0.00     0.188 C 
ENDROOT
BRANCH   1   2
ATOM      2  O   UNL A   1      41.357  21.568  26.600  1.00  0.00    -0.376 OA
BRANCH   2   3
ATOM      3  C   UNL A   1      42.428  20.900  25.943  1.00  0.00     0.202 C 
BRANCH   3   4
ATOM      4  C   UNL A   1      43.560  21.842  25.513  1.00  0.00     0.261 C 
BRANCH   4   5
ATOM      5  O   UNL A   1      43.029  23.088  25.015  1.00  0.00    -0.460 OA
BRANCH   5   6
ATOM      6  C   UNL A   1      43.473  24.354  25.199  1.00  0.00     0.338 C 
ATOM      7  O   UNL A   1      44.505  24.700  24.626  1.00  0.00    -0.246 OA
BRANCH   6   8
ATOM      8  C   UNL A   1      42.795  25.362  26.075  1.00  0.00     0.060 A 
ATOM      9  C   UNL A   1      43.202  26.685  26.250  1.00  0.00     0.016 A 
ATOM     10  C   UNL A   1      41.623  24.948  26.737  1.00  0.00     0.016 A 
ATOM     11  C   UNL A   1      42.551  27.537  27.140  1.00  0.00     0.010 A 
ATOM     12  C   UNL A   1      40.943  25.805  27.611  1.00  0.00     0.010 A 
ATOM     13  C   UNL A   1      41.445  27.088  27.857  1.00  0.00    -0.014 A 
BRANCH  13  14
ATOM     14  C   UNL A   1      40.993  27.884  29.019  1.00  0.00     0.031 A 
ATOM     15  C   UNL A   1      41.792  27.768  30.285  1.00  0.00     0.074 A 
ATOM     16  C   UNL A   1      39.996  28.782  28.910  1.00  0.00     0.049 A 
ATOM     17  N   UNL A   1      41.622  28.368  31.432  1.00  0.00    -0.248 NA
ATOM     18  C   UNL A   1      42.977  26.889  30.238  1.00  0.00     0.031 C 
ATOM     19  C   UNL A   1      39.282  29.095  27.675  1.00  0.00     0.029 A 
ATOM     20  N   UNL A   1      39.415  29.604  29.839  1.00  0.00    -0.354 N 
ATOM     21  C   UNL A   1      42.676  27.948  32.231  1.00  0.00     0.074 A 
ATOM     22  C   UNL A   1      43.468  27.021  31.460  1.00  0.00     0.031 C 
ATOM     23  C   UNL A   1      38.313  29.986  27.931  1.00  0.00     0.029 A 
ATOM     24  C   UNL A   1      38.354  30.328  29.347  1.00  0.00     0.049 A 
ATOM     25  H   UNL A   1      39.728  29.671  30.770  1.00  0.00     0.167 HD
ATOM     26  C   UNL A   1      42.962  28.325  33.497  1.00  0.00     0.037 A 
ATOM     27  C   UNL A   1      37.514  31.172  29.978  1.00  0.00     0.037 A 
ATOM     28  C   UNL A   1      42.161  29.253  34.243  1.00  0.00     0.049 A 
ATOM     29  C   UNL A   1      37.775  31.468  31.431  1.00  0.00     0.074 A 
ATOM     30  C   UNL A   1      42.323  29.676  35.547  1.00  0.00     0.029 A 
ATOM     31  N   UNL A   1      41.039  29.899  33.741  1.00  0.00    -0.354 N 
ATOM     32  N   UNL A   1      38.762  31.049  32.189  1.00  0.00    -0.248 NA
ATOM     33  C   UNL A   1      36.827  32.354  32.115  1.00  0.00     0.031 C 
ATOM     34  C   UNL A   1      41.268  30.539  35.853  1.00  0.00     0.029 A 
ATOM     35  C   UNL A   1      40.478  30.694  34.723  1.00  0.00     0.049 A 
ATOM     36  H   UNL A   1      40.695  29.804  32.823  1.00  0.00     0.167 HD
ATOM     37  C   UNL A   1      38.565  31.634  33.431  1.00  0.00     0.074 A 
ATOM     38  C   UNL A   1      37.375  32.455  33.318  1.00  0.00     0.031 C 
ATOM     39  C   UNL A   1      39.295  31.501  34.565  1.00  0.00     0.037 A 
BRANCH  26  40
ATOM     40  C   UNL A   1      44.157  27.707  34.155  1.00  0.00     0.064 A 
ATOM     41  C   UNL A   1      44.029  26.502  34.861  1.00  0.00     0.173 A 
ATOM     42  C   UNL A   1      45.421  28.314  34.113  1.00  0.00     0.173 A 
ATOM     43  F   UNL A   1      42.843  25.878  34.921  1.00  0.00    -0.203 F 
ATOM     44  C   UNL A   1      45.118  25.936  35.515  1.00  0.00     0.198 A 
ATOM     45  C   UNL A   1      46.514  27.733  34.749  1.00  0.00     0.198 A 
ATOM     46  F   UNL A   1      45.601  29.452  33.425  1.00  0.00    -0.203 F 
ATOM     47  F   UNL A   1      44.966  24.795  36.201  1.00  0.00    -0.200 F 
ATOM     48  C   UNL A   1      46.361  26.550  35.457  1.00  0.00     0.200 A 
ATOM     49  F   UNL A   1      47.721  28.311  34.667  1.00  0.00    -0.200 F 
ATOM     50  F   UNL A   1      47.412  25.996  36.077  1.00  0.00    -0.200 F 
ENDBRANCH  26  40
BRANCH  27  51
ATOM     51  C   UNL A   1      36.365  31.779  29.251  1.00  0.00     0.064 A 
ATOM     52  C   UNL A   1      35.286  30.991  28.815  1.00  0.00     0.173 A 
ATOM     53  C   UNL A   1      36.306  33.153  28.987  1.00  0.00     0.173 A 
ATOM     54  F   UNL A   1      35.286  29.668  29.038  1.00  0.00    -0.203 F 
ATOM     55  C   UNL A   1      34.204  31.553  28.140  1.00  0.00     0.198 A 
ATOM     56  C   UNL A   1      35.210  33.719  28.335  1.00  0.00     0.198 A 
ATOM     57  F   UNL A   1      37.302  33.955  29.393  1.00  0.00    -0.203 F 
ATOM     58  F   UNL A   1      33.200  30.770  27.718  1.00  0.00    -0.200 F 
ATOM     59  C   UNL A   1      34.161  32.918  27.908  1.00  0.00     0.200 A 
ATOM     60  F   UNL A   1      35.162  35.044  28.136  1.00  0.00    -0.200 F 
ATOM     61  F   UNL A   1      33.109  33.463  27.283  1.00  0.00    -0.200 F 
ENDBRANCH  27  51
BRANCH  39  62
ATOM     62  C   UNL A   1      38.831  32.253  35.774  1.00  0.00     0.064 A 
ATOM     63  C   UNL A   1      39.188  33.596  35.956  1.00  0.00     0.173 A 
ATOM     64  C   UNL A   1      38.133  31.606  36.803  1.00  0.00     0.173 A 
ATOM     65  F   UNL A   1      39.867  34.251  35.002  1.00  0.00    -0.203 F 
ATOM     66  C   UNL A   1      38.888  34.259  37.141  1.00  0.00     0.198 A 
ATOM     67  C   UNL A   1      37.807  32.280  37.974  1.00  0.00     0.198 A 
ATOM     68  F   UNL A   1      37.761  30.324  36.665  1.00  0.00    -0.203 F 
ATOM     69  F   UNL A   1      39.283  35.527  37.317  1.00  0.00    -0.200 F 
ATOM     70  C   UNL A   1      38.196  33.601  38.148  1.00  0.00     0.200 A 
ATOM     71  F   UNL A   1      37.120  31.652  38.937  1.00  0.00    -0.200 F 
ATOM     72  F   UNL A   1      37.908  34.239  39.290  1.00  0.00    -0.200 F 
ENDBRANCH  39  62
ENDBRANCH  13  14
ENDBRANCH   6   8
ENDBRANCH   5   6
ENDBRANCH   4   5
ENDBRANCH   3   4
ENDBRANCH   2   3
ENDBRANCH   1   2
BRANCH   1  73
ATOM     73  C   UNL A   1      39.104  22.307  26.486  1.00  0.00     0.188 C 
BRANCH  73  74
ATOM     74  O   UNL A   1      37.976  22.292  25.612  1.00  0.00    -0.376 OA
BRANCH  74  75
ATOM     75  C   UNL A   1      37.327  23.563  25.539  1.00  0.00     0.202 C 
BRANCH  75  76
ATOM     76  C   UNL A   1      35.909  23.495  26.111  1.00  0.00     0.261 C 
BRANCH  76  77
ATOM     77  O   UNL A   1      35.017  24.423  25.440  1.00  0.00    -0.463 OA
BRANCH  77  78
ATOM     78  C   UNL A   1      34.194  23.862  24.502  1.00  0.00     0.312 C 
ATOM     79  O   UNL A   1      34.597  23.159  23.593  1.00  0.00    -0.252 OA
BRANCH  78  80
ATOM     80  C   UNL A   1      32.776  24.396  24.604  1.00  0.00     0.147 C 
ATOM     81  C   UNL A   1      31.814  23.616  25.554  1.00  0.00     0.129 C 
ATOM     82  C   UNL A   1      32.594  25.837  25.123  1.00  0.00     0.157 C 
ATOM     83  C   UNL A   1      31.171  24.733  26.355  1.00  0.00     0.155 C 
ATOM     84  C   UNL A   1      31.223  26.348  24.764  1.00  0.00     0.004 C 
ATOM     85  O   UNL A   1      32.323  25.605  26.519  1.00  0.00    -0.365 OA
ATOM     86  C   UNL A   1      30.348  25.630  25.481  1.00  0.00     0.004 C 
BRANCH  81  87
ATOM     87  C   UNL A   1      32.322  22.449  26.403  1.00  0.00     0.231 C 
ATOM     88  O   UNL A   1      32.620  22.710  27.580  1.00  0.00    -0.274 OA
ATOM     89  N   UNL A   1      32.379  21.134  26.065  1.00  0.00    -0.323 N 
ATOM     90  H   UNL A   1      32.464  20.562  26.862  1.00  0.00     0.170 HD
BRANCH  89  91
ATOM     91  C   UNL A   1      32.350  20.370  24.887  1.00  0.00     0.080 A 
ATOM     92  C   UNL A   1      32.205  20.890  23.606  1.00  0.00     0.068 A 
ATOM     93  C   UNL A   1      32.597  18.991  25.005  1.00  0.00     0.146 A 
ATOM     94  C   UNL A   1      32.153  20.036  22.502  1.00  0.00     0.125 A 
ATOM     95  C   UNL A   1      32.556  18.135  23.903  1.00  0.00     0.044 A 
ATOM     96  F   UNL A   1      32.835  18.463  26.215  1.00  0.00    -0.205 F 
ATOM     97  F   UNL A   1      31.944  20.551  21.283  1.00  0.00    -0.207 F 
ATOM     98  C   UNL A   1      32.307  18.661  22.638  1.00  0.00     0.042 A 
ENDBRANCH  89  91
ENDBRANCH  81  87
ENDBRANCH  78  80
ENDBRANCH  77  78
ENDBRANCH  76  77
ENDBRANCH  75  76
ENDBRANCH  74  75
ENDBRANCH  73  74
ENDBRANCH   1  73
TORSDOF 19
ENDMDL
MODEL 2
REMARK VINA RESULT:     -11.6      1.178      7.295
REMARK SMILES O=C(OCCOCCOCCOC(=O)[C@H]1[C@@H](C(=O)Nc2cc(F)ccc2F)[C@@H]2C=C[C@H]1O2)c1ccc(-c2c3nc(c(-c4c(F)c(F)c(F)c(F)c4F)c4ccc([nH]4)c(-c4c(F)c(F)c(F)c(F)c4F)c4nc(c(-c5c(F)c(F)c(F)c(F)c5F)c5ccc2[nH]5)C=C4)C=C3)cc1
REMARK SMILES IDX 7 1 6 2 5 3 4 4 3 5 2 6 1 7 33 8 34 9 95 10 35 11 94 12
REMARK SMILES IDX 36 13 37 14 38 15 88 16 39 17 93 18 87 19 89 20 40 21 92 22
REMARK SMILES IDX 86 23 85 24 41 26 73 27 53 28 72 29 54 30 57 31 71 32 90 33
REMARK SMILES IDX 55 34 56 35 70 37 91 38 58 39 42 40 43 41 51 42 44 43 45 44
REMARK SMILES IDX 49 45 52 46 46 47 47 48 50 49 48 50 74 51 75 52 83 53 76 54
REMARK SMILES IDX 77 55 81 56 84 57 78 58 79 59 82 60 80 61 59 62 60 63 68 64
REMARK SMILES IDX 61 65 62 66 66 67 69 68 63 69 64 70 67 71 65 72 8 73 9 74
REMARK SMILES IDX 10 75 11 76 12 77 13 78 14 79 15 80 16 81 31 82 28 83 30 84
REMARK SMILES IDX 32 85 29 86 17 87 18 88 19 89 20 91 21 92 26 93 22 94 25 95
REMARK SMILES IDX 27 96 23 97 24 98
REMARK H PARENT 89 25 57 36 19 90
REMARK Flexibility Score: inf
ROOT
ATOM      1  C   UNL A   1      41.042  21.232  26.367  1.00  0.00     0.188 C 
ENDROOT
BRANCH   1   2
ATOM      2  O   UNL A   1      41.937  21.842  25.430  1.00  0.00    -0.376 OA
BRANCH   2   3
ATOM      3  C   UNL A   1      43.313  21.733  25.779  1.00  0.00     0.202 C 
BRANCH   3   4
ATOM      4  C   UNL A   1      44.243  22.516  24.843  1.00  0.00     0.261 C 
BRANCH   4   5
ATOM      5  O   UNL A   1      43.755  23.859  24.642  1.00  0.00    -0.460 OA
BRANCH   5   6
ATOM      6  C   UNL A   1      44.236  25.035  25.111  1.00  0.00     0.338 C 
ATOM      7  O   UNL A   1      45.345  25.405  24.731  1.00  0.00    -0.246 OA
BRANCH   6   8
ATOM      8  C   UNL A   1      43.508  25.909  26.085  1.00  0.00     0.060 A 
ATOM      9  C   UNL A   1      43.696  27.284  26.233  1.00  0.00     0.016 A 
ATOM     10  C   UNL A   1      42.519  25.298  26.878  1.00  0.00     0.016 A 
ATOM     11  C   UNL A   1      43.024  28.011  27.214  1.00  0.00     0.010 A 
ATOM     12  C   UNL A   1      41.815  26.024  27.847  1.00  0.00     0.010 A 
ATOM     13  C   UNL A   1      42.112  27.376  28.054  1.00  0.00    -0.014 A 
BRANCH  13  14
ATOM     14  C   UNL A   1      41.678  28.084  29.278  1.00  0.00     0.031 A 
ATOM     15  C   UNL A   1      40.420  28.898  29.191  1.00  0.00     0.074 A 
ATOM     16  C   UNL A   1      42.299  27.895  30.457  1.00  0.00     0.049 A 
ATOM     17  N   UNL A   1      39.816  29.594  30.116  1.00  0.00    -0.248 NA
ATOM     18  C   UNL A   1      39.717  28.890  27.893  1.00  0.00     0.031 C 
ATOM     19  C   UNL A   1      43.417  26.982  30.676  1.00  0.00     0.029 A 
ATOM     20  N   UNL A   1      42.080  28.444  31.693  1.00  0.00    -0.354 N 
ATOM     21  C   UNL A   1      38.667  30.093  29.517  1.00  0.00     0.074 A 
ATOM     22  C   UNL A   1      38.664  29.652  28.143  1.00  0.00     0.031 C 
ATOM     23  C   UNL A   1      43.835  27.082  31.947  1.00  0.00     0.029 A 
ATOM     24  C   UNL A   1      42.995  28.050  32.641  1.00  0.00     0.049 A 
ATOM     25  H   UNL A   1      41.337  29.061  31.883  1.00  0.00     0.167 HD
ATOM     26  C   UNL A   1      37.693  30.841  30.079  1.00  0.00     0.037 A 
ATOM     27  C   UNL A   1      43.132  28.433  33.925  1.00  0.00     0.037 A 
ATOM     28  C   UNL A   1      37.716  31.265  31.450  1.00  0.00     0.049 A 
ATOM     29  C   UNL A   1      42.106  29.380  34.488  1.00  0.00     0.074 A 
ATOM     30  C   UNL A   1      36.811  32.063  32.120  1.00  0.00     0.029 A 
ATOM     31  N   UNL A   1      38.708  30.920  32.360  1.00  0.00    -0.354 N 
ATOM     32  N   UNL A   1      41.033  29.868  33.909  1.00  0.00    -0.248 NA
ATOM     33  C   UNL A   1      42.293  29.823  35.875  1.00  0.00     0.031 C 
ATOM     34  C   UNL A   1      37.282  32.245  33.423  1.00  0.00     0.029 A 
ATOM     35  C   UNL A   1      38.454  31.519  33.579  1.00  0.00     0.049 A 
ATOM     36  H   UNL A   1      39.477  30.337  32.163  1.00  0.00     0.167 HD
ATOM     37  C   UNL A   1      40.408  30.657  34.863  1.00  0.00     0.074 A 
ATOM     38  C   UNL A   1      41.211  30.566  36.066  1.00  0.00     0.031 C 
ATOM     39  C   UNL A   1      39.277  31.396  34.754  1.00  0.00     0.037 A 
BRANCH  26  40
ATOM     40  C   UNL A   1      36.555  31.274  29.206  1.00  0.00     0.064 A 
ATOM     41  C   UNL A   1      36.458  32.607  28.784  1.00  0.00     0.173 A 
ATOM     42  C   UNL A   1      35.548  30.382  28.809  1.00  0.00     0.173 A 
ATOM     43  F   UNL A   1      37.403  33.495  29.130  1.00  0.00    -0.203 F 
ATOM     44  C   UNL A   1      35.386  33.038  28.010  1.00  0.00     0.198 A 
ATOM     45  C   UNL A   1      34.488  30.811  28.014  1.00  0.00     0.198 A 
ATOM     46  F   UNL A   1      35.611  29.090  29.162  1.00  0.00    -0.203 F 
ATOM     47  F   UNL A   1      35.304  34.322  27.636  1.00  0.00    -0.200 F 
ATOM     48  C   UNL A   1      34.402  32.139  27.623  1.00  0.00     0.200 A 
ATOM     49  F   UNL A   1      33.554  29.935  27.616  1.00  0.00    -0.200 F 
ATOM     50  F   UNL A   1      33.377  32.552  26.867  1.00  0.00    -0.200 F 
ENDBRANCH  26  40
BRANCH  27  51
ATOM     51  C   UNL A   1      44.270  27.935  34.746  1.00  0.00     0.064 A 
ATOM     52  C   UNL A   1      44.147  26.769  35.521  1.00  0.00     0.173 A 
ATOM     53  C   UNL A   1      45.504  28.598  34.770  1.00  0.00     0.173 A 
ATOM     54  F   UNL A   1      42.989  26.093  35.539  1.00  0.00    -0.203 F 
ATOM     55  C   UNL A   1      45.209  26.293  36.288  1.00  0.00     0.198 A 
ATOM     56  C   UNL A   1      46.575  28.106  35.516  1.00  0.00     0.198 A 
ATOM     57  F   UNL A   1      45.682  29.708  34.039  1.00  0.00    -0.203 F 
ATOM     58  F   UNL A   1      45.053  25.190  37.033  1.00  0.00    -0.200 F 
ATOM     59  C   UNL A   1      46.426  26.956  36.279  1.00  0.00     0.200 A 
ATOM     60  F   UNL A   1      47.757  28.736  35.484  1.00  0.00    -0.200 F 
ATOM     61  F   UNL A   1      47.456  26.485  36.995  1.00  0.00    -0.200 F 
ENDBRANCH  27  51
BRANCH  39  62
ATOM     62  C   UNL A   1      38.841  32.167  35.962  1.00  0.00     0.064 A 
ATOM     63  C   UNL A   1      39.239  33.500  36.136  1.00  0.00     0.173 A 
ATOM     64  C   UNL A   1      38.129  31.545  36.996  1.00  0.00     0.173 A 
ATOM     65  F   UNL A   1      39.933  34.130  35.177  1.00  0.00    -0.203 F 
ATOM     66  C   UNL A   1      38.963  34.176  37.320  1.00  0.00     0.198 A 
ATOM     67  C   UNL A   1      37.828  32.234  38.165  1.00  0.00     0.198 A 
ATOM     68  F   UNL A   1      37.718  30.274  36.865  1.00  0.00    -0.203 F 
ATOM     69  F   UNL A   1      39.397  35.432  37.488  1.00  0.00    -0.200 F 
ATOM     70  C   UNL A   1      38.257  33.543  38.332  1.00  0.00     0.200 A 
ATOM     71  F   UNL A   1      37.126  31.630  39.134  1.00  0.00    -0.200 F 
ATOM     72  F   UNL A   1      37.992  34.195  39.472  1.00  0.00    -0.200 F 
ENDBRANCH  39  62
ENDBRANCH  13  14
ENDBRANCH   6   8
ENDBRANCH   5   6
ENDBRANCH   4   5
ENDBRANCH   3   4
ENDBRANCH   2   3
ENDBRANCH   1   2
BRANCH   1  73
ATOM     73  C   UNL A   1      40.291  22.351  27.062  1.00  0.00     0.188 C 
BRANCH  73  74
ATOM     74  O   UNL A   1      38.983  22.497  26.511  1.00  0.00    -0.376 OA
BRANCH  74  75
ATOM     75  C   UNL A   1      38.610  21.387  25.693  1.00  0.00     0.202 C 
BRANCH  75  76
ATOM     76  C   UNL A   1      37.260  21.627  25.014  1.00  0.00     0.261 C 
BRANCH  76  77
ATOM     77  O   UNL A   1      36.333  22.315  25.895  1.00  0.00    -0.463 OA
BRANCH  77  78
ATOM     78  C   UNL A   1      35.019  21.963  25.743  1.00  0.00     0.312 C 
ATOM     79  O   UNL A   1      34.452  21.165  26.468  1.00  0.00    -0.252 OA
BRANCH  78  80
ATOM     80  C   UNL A   1      34.434  22.510  24.453  1.00  0.00     0.147 C 
ATOM     81  C   UNL A   1      32.957  22.111  24.143  1.00  0.00     0.129 C 
ATOM     82  C   UNL A   1      34.361  24.043  24.298  1.00  0.00     0.157 C 
ATOM     83  C   UNL A   1      32.335  23.440  23.757  1.00  0.00     0.155 C 
ATOM     84  C   UNL A   1      34.173  24.409  22.849  1.00  0.00     0.004 C 
ATOM     85  O   UNL A   1      33.005  24.307  24.712  1.00  0.00    -0.365 OA
ATOM     86  C   UNL A   1      32.949  23.988  22.505  1.00  0.00     0.004 C 
BRANCH  81  87
ATOM     87  C   UNL A   1      32.134  21.302  25.149  1.00  0.00     0.231 C 
ATOM     88  O   UNL A   1      31.437  21.954  25.944  1.00  0.00    -0.274 OA
ATOM     89  N   UNL A   1      31.976  19.954  25.205  1.00  0.00    -0.323 N 
ATOM     90  H   UNL A   1      31.189  19.707  25.742  1.00  0.00     0.170 HD
BRANCH  89  91
ATOM     91  C   UNL A   1      32.634  18.817  24.707  1.00  0.00     0.080 A 
ATOM     92  C   UNL A   1      33.241  17.843  25.491  1.00  0.00     0.068 A 
ATOM     93  C   UNL A   1      32.574  18.593  23.320  1.00  0.00     0.146 A 
ATOM     94  C   UNL A   1      33.900  16.768  24.890  1.00  0.00     0.125 A 
ATOM     95  C   UNL A   1      33.222  17.514  22.717  1.00  0.00     0.044 A 
ATOM     96  F   UNL A   1      31.915  19.461  22.538  1.00  0.00    -0.205 F 
ATOM     97  F   UNL A   1      34.538  15.877  25.660  1.00  0.00    -0.207 F 
ATOM     98  C   UNL A   1      33.914  16.603  23.510  1.00  0.00     0.042 A 
ENDBRANCH  89  91
ENDBRANCH  81  87
ENDBRANCH  78  80
ENDBRANCH  77  78
ENDBRANCH  76  77
ENDBRANCH  75  76
ENDBRANCH  74  75
ENDBRANCH  73  74
ENDBRANCH   1  73
TORSDOF 19
ENDMDL
MODEL 3
REMARK VINA RESULT:     -11.6      2.874      8.304
REMARK SMILES O=C(OCCOCCOCCOC(=O)[C@H]1[C@@H](C(=O)Nc2cc(F)ccc2F)[C@@H]2C=C[C@H]1O2)c1ccc(-c2c3nc(c(-c4c(F)c(F)c(F)c(F)c4F)c4ccc([nH]4)c(-c4c(F)c(F)c(F)c(F)c4F)c4nc(c(-c5c(F)c(F)c(F)c(F)c5F)c5ccc2[nH]5)C=C4)C=C3)cc1
REMARK SMILES IDX 7 1 6 2 5 3 4 4 3 5 2 6 1 7 33 8 34 9 95 10 35 11 94 12
REMARK SMILES IDX 36 13 37 14 38 15 88 16 39 17 93 18 87 19 89 20 40 21 92 22
REMARK SMILES IDX 86 23 85 24 41 26 73 27 53 28 72 29 54 30 57 31 71 32 90 33
REMARK SMILES IDX 55 34 56 35 70 37 91 38 58 39 42 40 43 41 51 42 44 43 45 44
REMARK SMILES IDX 49 45 52 46 46 47 47 48 50 49 48 50 74 51 75 52 83 53 76 54
REMARK SMILES IDX 77 55 81 56 84 57 78 58 79 59 82 60 80 61 59 62 60 63 68 64
REMARK SMILES IDX 61 65 62 66 66 67 69 68 63 69 64 70 67 71 65 72 8 73 9 74
REMARK SMILES IDX 10 75 11 76 12 77 13 78 14 79 15 80 16 81 31 82 28 83 30 84
REMARK SMILES IDX 32 85 29 86 17 87 18 88 19 89 20 91 21 92 26 93 22 94 25 95
REMARK SMILES IDX 27 96 23 97 24 98
REMARK H PARENT 89 25 57 36 19 90
REMARK Flexibility Score: inf
ROOT
ATOM      1  C   UNL A   1      33.153  29.100  25.436  1.00  0.00     0.188 C 
ENDROOT
BRANCH   1   2
ATOM      2  O   UNL A   1      32.301  30.224  25.685  1.00  0.00    -0.376 OA
BRANCH   2   3
ATOM      3  C   UNL A   1      32.532  30.869  26.932  1.00  0.00     0.202 C 
BRANCH   3   4
ATOM      4  C   UNL A   1      31.849  32.238  27.046  1.00  0.00     0.261 C 
BRANCH   4   5
ATOM      5  O   UNL A   1      32.828  33.294  27.122  1.00  0.00    -0.460 OA
BRANCH   5   6
ATOM      6  C   UNL A   1      33.178  34.079  28.169  1.00  0.00     0.338 C 
ATOM      7  O   UNL A   1      32.528  35.102  28.375  1.00  0.00    -0.246 OA
BRANCH   6   8
ATOM      8  C   UNL A   1      34.325  33.787  29.087  1.00  0.00     0.060 A 
ATOM      9  C   UNL A   1      35.650  34.168  28.870  1.00  0.00     0.016 A 
ATOM     10  C   UNL A   1      34.028  33.117  30.289  1.00  0.00     0.016 A 
ATOM     11  C   UNL A   1      36.669  33.795  29.744  1.00  0.00     0.010 A 
ATOM     12  C   UNL A   1      35.040  32.763  31.190  1.00  0.00     0.010 A 
ATOM     13  C   UNL A   1      36.375  33.053  30.886  1.00  0.00    -0.014 A 
BRANCH  13  14
ATOM     14  C   UNL A   1      37.491  32.395  31.600  1.00  0.00     0.031 A 
ATOM     15  C   UNL A   1      38.158  31.239  30.914  1.00  0.00     0.074 A 
ATOM     16  C   UNL A   1      37.982  32.895  32.749  1.00  0.00     0.049 A 
ATOM     17  N   UNL A   1      39.164  30.506  31.311  1.00  0.00    -0.248 NA
ATOM     18  C   UNL A   1      37.655  30.888  29.572  1.00  0.00     0.031 C 
ATOM     19  C   UNL A   1      37.516  34.119  33.396  1.00  0.00     0.029 A 
ATOM     20  N   UNL A   1      38.983  32.452  33.573  1.00  0.00    -0.354 N 
ATOM     21  C   UNL A   1      39.415  29.623  30.270  1.00  0.00     0.074 A 
ATOM     22  C   UNL A   1      38.444  29.881  29.234  1.00  0.00     0.031 C 
ATOM     23  C   UNL A   1      38.176  34.295  34.551  1.00  0.00     0.029 A 
ATOM     24  C   UNL A   1      39.133  33.208  34.712  1.00  0.00     0.049 A 
ATOM     25  H   UNL A   1      39.542  31.669  33.367  1.00  0.00     0.167 HD
ATOM     26  C   UNL A   1      40.387  28.689  30.187  1.00  0.00     0.037 A 
ATOM     27  C   UNL A   1      39.955  33.033  35.765  1.00  0.00     0.037 A 
ATOM     28  C   UNL A   1      41.344  28.453  31.231  1.00  0.00     0.049 A 
ATOM     29  C   UNL A   1      40.940  31.896  35.707  1.00  0.00     0.074 A 
ATOM     30  C   UNL A   1      42.346  27.505  31.281  1.00  0.00     0.029 A 
ATOM     31  N   UNL A   1      41.410  29.179  32.413  1.00  0.00    -0.354 N 
ATOM     32  N   UNL A   1      41.157  31.047  34.728  1.00  0.00    -0.248 NA
ATOM     33  C   UNL A   1      41.798  31.692  36.879  1.00  0.00     0.031 C 
ATOM     34  C   UNL A   1      42.986  27.622  32.518  1.00  0.00     0.029 A 
ATOM     35  C   UNL A   1      42.416  28.677  33.216  1.00  0.00     0.049 A 
ATOM     36  H   UNL A   1      40.826  29.938  32.643  1.00  0.00     0.167 HD
ATOM     37  C   UNL A   1      42.187  30.224  35.157  1.00  0.00     0.074 A 
ATOM     38  C   UNL A   1      42.566  30.688  36.477  1.00  0.00     0.031 C 
ATOM     39  C   UNL A   1      42.764  29.174  34.523  1.00  0.00     0.037 A 
BRANCH  26  40
ATOM     40  C   UNL A   1      40.435  27.840  28.955  1.00  0.00     0.064 A 
ATOM     41  C   UNL A   1      41.236  28.220  27.868  1.00  0.00     0.173 A 
ATOM     42  C   UNL A   1      39.674  26.668  28.834  1.00  0.00     0.173 A 
ATOM     43  F   UNL A   1      41.990  29.327  27.939  1.00  0.00    -0.203 F 
ATOM     44  C   UNL A   1      41.260  27.467  26.698  1.00  0.00     0.198 A 
ATOM     45  C   UNL A   1      39.719  25.905  27.670  1.00  0.00     0.198 A 
ATOM     46  F   UNL A   1      38.916  26.246  29.857  1.00  0.00    -0.203 F 
ATOM     47  F   UNL A   1      42.016  27.862  25.665  1.00  0.00    -0.200 F 
ATOM     48  C   UNL A   1      40.503  26.309  26.601  1.00  0.00     0.200 A 
ATOM     49  F   UNL A   1      39.010  24.768  27.589  1.00  0.00    -0.200 F 
ATOM     50  F   UNL A   1      40.537  25.578  25.478  1.00  0.00    -0.200 F 
ENDBRANCH  26  40
BRANCH  27  51
ATOM     51  C   UNL A   1      39.877  33.938  36.945  1.00  0.00     0.064 A 
ATOM     52  C   UNL A   1      39.013  33.658  38.017  1.00  0.00     0.173 A 
ATOM     53  C   UNL A   1      40.666  35.092  37.039  1.00  0.00     0.173 A 
ATOM     54  F   UNL A   1      38.231  32.568  37.983  1.00  0.00    -0.203 F 
ATOM     55  C   UNL A   1      38.939  34.497  39.127  1.00  0.00     0.198 A 
ATOM     56  C   UNL A   1      40.612  35.917  38.163  1.00  0.00     0.198 A 
ATOM     57  F   UNL A   1      41.519  35.401  36.051  1.00  0.00    -0.203 F 
ATOM     58  F   UNL A   1      38.088  34.212  40.124  1.00  0.00    -0.200 F 
ATOM     59  C   UNL A   1      39.744  35.621  39.205  1.00  0.00     0.200 A 
ATOM     60  F   UNL A   1      41.411  36.989  38.244  1.00  0.00    -0.200 F 
ATOM     61  F   UNL A   1      39.693  36.415  40.283  1.00  0.00    -0.200 F 
ENDBRANCH  27  51
BRANCH  39  62
ATOM     62  C   UNL A   1      43.861  28.454  35.243  1.00  0.00     0.064 A 
ATOM     63  C   UNL A   1      43.560  27.442  36.166  1.00  0.00     0.173 A 
ATOM     64  C   UNL A   1      45.198  28.849  35.103  1.00  0.00     0.173 A 
ATOM     65  F   UNL A   1      42.292  27.041  36.341  1.00  0.00    -0.203 F 
ATOM     66  C   UNL A   1      44.560  26.870  36.946  1.00  0.00     0.198 A 
ATOM     67  C   UNL A   1      46.199  28.254  35.862  1.00  0.00     0.198 A 
ATOM     68  F   UNL A   1      45.531  29.805  34.222  1.00  0.00    -0.203 F 
ATOM     69  F   UNL A   1      44.245  25.942  37.859  1.00  0.00    -0.200 F 
ATOM     70  C   UNL A   1      45.877  27.275  36.792  1.00  0.00     0.200 A 
ATOM     71  F   UNL A   1      47.475  28.628  35.698  1.00  0.00    -0.200 F 
ATOM     72  F   UNL A   1      46.840  26.724  37.544  1.00  0.00    -0.200 F 
ENDBRANCH  39  62
ENDBRANCH  13  14
ENDBRANCH   6   8
ENDBRANCH   5   6
ENDBRANCH   4   5
ENDBRANCH   3   4
ENDBRANCH   2   3
ENDBRANCH   1   2
BRANCH   1  73
ATOM     73  C   UNL A   1      32.900  28.653  24.009  1.00  0.00     0.188 C 
BRANCH  73  74
ATOM     74  O   UNL A   1      33.989  27.865  23.529  1.00  0.00    -0.376 OA
BRANCH  74  75
ATOM     75  C   UNL A   1      33.556  26.793  22.690  1.00  0.00     0.202 C 
BRANCH  75  76
ATOM     76  C   UNL A   1      32.514  25.923  23.396  1.00  0.00     0.261 C 
BRANCH  76  77
ATOM     77  O   UNL A   1      33.113  24.733  23.974  1.00  0.00    -0.463 OA
BRANCH  77  78
ATOM     78  C   UNL A   1      33.434  24.831  25.301  1.00  0.00     0.312 C 
ATOM     79  O   UNL A   1      32.852  25.568  26.077  1.00  0.00    -0.252 OA
BRANCH  78  80
ATOM     80  C   UNL A   1      34.720  24.092  25.626  1.00  0.00     0.147 C 
ATOM     81  C   UNL A   1      34.574  22.811  26.506  1.00  0.00     0.129 C 
ATOM     82  C   UNL A   1      35.542  23.540  24.443  1.00  0.00     0.157 C 
ATOM     83  C   UNL A   1      35.418  21.800  25.753  1.00  0.00     0.155 C 
ATOM     84  C   UNL A   1      36.948  23.233  24.888  1.00  0.00     0.004 C 
ATOM     85  O   UNL A   1      35.084  22.175  24.389  1.00  0.00    -0.365 OA
ATOM     86  C   UNL A   1      36.862  22.199  25.736  1.00  0.00     0.004 C 
BRANCH  81  87
ATOM     87  C   UNL A   1      33.193  22.293  26.917  1.00  0.00     0.231 C 
ATOM     88  O   UNL A   1      32.787  22.632  28.041  1.00  0.00    -0.274 OA
ATOM     89  N   UNL A   1      32.301  21.604  26.158  1.00  0.00    -0.323 N 
ATOM     90  H   UNL A   1      31.396  21.643  26.545  1.00  0.00     0.170 HD
BRANCH  89  91
ATOM     91  C   UNL A   1      32.320  20.851  24.973  1.00  0.00     0.080 A 
ATOM     92  C   UNL A   1      32.153  21.374  23.696  1.00  0.00     0.068 A 
ATOM     93  C   UNL A   1      32.643  19.486  25.080  1.00  0.00     0.146 A 
ATOM     94  C   UNL A   1      32.154  20.529  22.584  1.00  0.00     0.125 A 
ATOM     95  C   UNL A   1      32.655  18.640  23.970  1.00  0.00     0.044 A 
ATOM     96  F   UNL A   1      32.904  18.961  26.286  1.00  0.00    -0.205 F 
ATOM     97  F   UNL A   1      31.924  21.043  21.369  1.00  0.00    -0.207 F 
ATOM     98  C   UNL A   1      32.384  19.164  22.709  1.00  0.00     0.042 A 
ENDBRANCH  89  91
ENDBRANCH  81  87
ENDBRANCH  78  80
ENDBRANCH  77  78
ENDBRANCH  76  77
ENDBRANCH  75  76
ENDBRANCH  74  75
ENDBRANCH  73  74
ENDBRANCH   1  73
TORSDOF 19
ENDMDL
