MODEL 1
REMARK VINA RESULT:     -10.7      0.000      0.000
REMARK SMILES C[NH2+]CCC(=O)N1Cc2nc[nH]c2C[C@H]1C(=O)OCCOCCOCCOC(=O)c1ccc(-c2c3nc(c(-c4c(F)c(F)c(F)c(F)c4F)c4ccc([nH]4)c(-c4c(F)c(F)c(F)c(F)c4F)c4nc(c(-c5c(F)c(F)c(F)c(F)c5F)c5ccc2[nH]5)C=C4)C=C3)cc1
REMARK SMILES IDX 22 1 21 2 20 3 19 4 18 5 16 6 17 7 15 8 7 9 8 10 9 11 14 12
REMARK SMILES IDX 10 13 13 14 11 15 12 16 5 18 6 19 4 20 3 21 2 22 1 23 23 26
REMARK SMILES IDX 24 27 25 28 26 29 27 30 28 31 29 32 30 33 31 34 92 35 32 36
REMARK SMILES IDX 91 37 33 38 34 39 35 40 85 41 36 42 90 43 84 44 86 45 37 46
REMARK SMILES IDX 89 47 83 48 82 49 38 51 70 52 50 53 69 54 51 55 54 56 68 57
REMARK SMILES IDX 87 58 52 59 53 60 67 62 88 63 55 64 39 65 40 66 48 67 41 68
REMARK SMILES IDX 42 69 46 70 49 71 43 72 44 73 47 74 45 75 71 76 72 77 80 78
REMARK SMILES IDX 73 79 74 80 78 81 81 82 75 83 76 84 79 85 77 86 56 87 57 88
REMARK SMILES IDX 65 89 58 90 59 91 63 92 66 93 60 94 61 95 64 96 62 97
REMARK H PARENT 12 17 2 24 2 25 86 50 54 61
REMARK Flexibility Score: inf
ROOT
ATOM      1  C   UNL A   1      38.377  21.502  25.693  1.00  0.00     0.188 C 
ENDROOT
BRANCH   1   2
ATOM      2  O   UNL A   1      37.785  22.356  24.752  1.00  0.00    -0.376 OA
BRANCH   2   3
ATOM      3  C   UNL A   1      36.801  23.271  25.210  1.00  0.00     0.202 C 
BRANCH   3   4
ATOM      4  C   UNL A   1      35.561  23.709  24.393  1.00  0.00     0.261 C 
BRANCH   4   5
ATOM      5  O   UNL A   1      35.096  22.864  23.326  1.00  0.00    -0.462 OA
BRANCH   5   6
ATOM      6  C   UNL A   1      33.833  23.089  22.879  1.00  0.00     0.329 C 
ATOM      7  O   UNL A   1      33.508  24.087  22.236  1.00  0.00    -0.250 OA
BRANCH   6   8
ATOM      8  C   UNL A   1      32.785  22.010  23.252  1.00  0.00     0.201 C 
ATOM      9  N   UNL A   1      32.864  21.174  24.490  1.00  0.00    -0.322 N 
ATOM     10  C   UNL A   1      32.730  21.869  25.797  1.00  0.00     0.178 C 
ATOM     11  C   UNL A   1      31.828  23.049  25.661  1.00  0.00     0.081 A 
ATOM     12  C   UNL A   1      31.394  22.720  23.193  1.00  0.00     0.093 C 
ATOM     13  N   UNL A   1      31.602  23.985  26.634  1.00  0.00    -0.240 NA
ATOM     14  C   UNL A   1      31.229  23.432  24.482  1.00  0.00     0.042 A 
ATOM     15  C   UNL A   1      30.858  24.905  26.057  1.00  0.00     0.197 A 
ATOM     16  N   UNL A   1      30.595  24.607  24.746  1.00  0.00    -0.348 N 
ATOM     17  H   UNL A   1      30.054  25.138  24.117  1.00  0.00     0.167 HD
BRANCH   9  18
ATOM     18  C   UNL A   1      32.421  19.852  24.438  1.00  0.00     0.229 C 
ATOM     19  O   UNL A   1      32.119  19.218  25.448  1.00  0.00    -0.275 OA
BRANCH  18  20
ATOM     20  C   UNL A   1      32.465  19.162  23.079  1.00  0.00     0.161 C 
BRANCH  20  21
ATOM     21  C   UNL A   1      32.930  17.705  23.047  1.00  0.00     0.270 C 
BRANCH  21  22
ATOM     22  N   UNL A   1      32.424  16.790  24.073  1.00  0.00    -0.348 N 
ATOM     23  C   UNL A   1      33.408  15.905  24.666  1.00  0.00     0.330 C 
ATOM     24  H   UNL A   1      32.016  17.350  24.820  1.00  0.00     0.346 HD
ATOM     25  H   UNL A   1      31.755  16.184  23.598  1.00  0.00     0.346 HD
ENDBRANCH  21  22
ENDBRANCH  20  21
ENDBRANCH  18  20
ENDBRANCH   9  18
ENDBRANCH   6   8
ENDBRANCH   5   6
ENDBRANCH   4   5
ENDBRANCH   3   4
ENDBRANCH   2   3
ENDBRANCH   1   2
BRANCH   1  26
ATOM     26  C   UNL A   1      39.639  22.073  26.346  1.00  0.00     0.188 C 
BRANCH  26  27
ATOM     27  O   UNL A   1      40.235  21.557  27.528  1.00  0.00    -0.376 OA
BRANCH  27  28
ATOM     28  C   UNL A   1      41.046  20.393  27.556  1.00  0.00     0.202 C 
BRANCH  28  29
ATOM     29  C   UNL A   1      41.828  19.994  26.312  1.00  0.00     0.261 C 
BRANCH  29  30
ATOM     30  O   UNL A   1      43.178  20.386  26.387  1.00  0.00    -0.460 OA
BRANCH  30  31
ATOM     31  C   UNL A   1      43.796  20.429  25.186  1.00  0.00     0.338 C 
ATOM     32  O   UNL A   1      43.919  19.540  24.369  1.00  0.00    -0.246 OA
BRANCH  31  33
ATOM     33  C   UNL A   1      44.351  21.781  25.039  1.00  0.00     0.060 A 
ATOM     34  C   UNL A   1      45.511  22.050  25.765  1.00  0.00     0.016 A 
ATOM     35  C   UNL A   1      43.543  22.787  24.492  1.00  0.00     0.016 A 
ATOM     36  C   UNL A   1      45.662  23.321  26.256  1.00  0.00     0.010 A 
ATOM     37  C   UNL A   1      43.660  24.037  25.021  1.00  0.00     0.010 A 
ATOM     38  C   UNL A   1      44.644  24.237  25.986  1.00  0.00    -0.014 A 
BRANCH  38  39
ATOM     39  C   UNL A   1      44.513  25.369  26.866  1.00  0.00     0.031 A 
ATOM     40  C   UNL A   1      45.549  26.397  26.693  1.00  0.00     0.074 A 
ATOM     41  C   UNL A   1      43.422  25.481  27.647  1.00  0.00     0.049 A 
ATOM     42  N   UNL A   1      46.411  26.810  27.558  1.00  0.00    -0.248 NA
ATOM     43  C   UNL A   1      45.736  26.940  25.339  1.00  0.00     0.031 C 
ATOM     44  C   UNL A   1      42.198  24.667  27.611  1.00  0.00     0.029 A 
ATOM     45  N   UNL A   1      43.125  26.439  28.559  1.00  0.00    -0.354 N 
ATOM     46  C   UNL A   1      47.134  27.801  26.905  1.00  0.00     0.074 A 
ATOM     47  C   UNL A   1      46.821  27.690  25.507  1.00  0.00     0.031 C 
ATOM     48  C   UNL A   1      41.223  25.308  28.294  1.00  0.00     0.029 A 
ATOM     49  C   UNL A   1      41.782  26.508  28.892  1.00  0.00     0.049 A 
ATOM     50  H   UNL A   1      43.804  27.034  28.950  1.00  0.00     0.167 HD
ATOM     51  C   UNL A   1      47.708  28.817  27.596  1.00  0.00     0.037 A 
ATOM     52  C   UNL A   1      41.176  27.549  29.513  1.00  0.00     0.037 A 
ATOM     53  C   UNL A   1      47.894  28.466  28.982  1.00  0.00     0.049 A 
ATOM     54  C   UNL A   1      42.244  28.386  30.128  1.00  0.00     0.074 A 
ATOM     55  C   UNL A   1      48.567  27.450  29.635  1.00  0.00     0.029 A 
ATOM     56  N   UNL A   1      47.046  29.007  29.916  1.00  0.00    -0.354 N 
ATOM     57  N   UNL A   1      42.971  28.021  31.147  1.00  0.00    -0.248 NA
ATOM     58  C   UNL A   1      42.806  29.463  29.321  1.00  0.00     0.031 C 
ATOM     59  C   UNL A   1      47.765  27.135  30.770  1.00  0.00     0.029 A 
ATOM     60  C   UNL A   1      46.667  27.995  30.761  1.00  0.00     0.049 A 
ATOM     61  H   UNL A   1      46.761  29.948  29.969  1.00  0.00     0.167 HD
ATOM     62  C   UNL A   1      44.239  28.520  30.880  1.00  0.00     0.074 A 
ATOM     63  C   UNL A   1      44.054  29.479  29.797  1.00  0.00     0.031 C 
ATOM     64  C   UNL A   1      45.356  27.898  31.360  1.00  0.00     0.037 A 
BRANCH  51  65
ATOM     65  C   UNL A   1      47.739  30.241  27.096  1.00  0.00     0.064 A 
ATOM     66  C   UNL A   1      48.952  30.950  27.157  1.00  0.00     0.173 A 
ATOM     67  C   UNL A   1      46.589  31.026  26.836  1.00  0.00     0.173 A 
ATOM     68  F   UNL A   1      50.103  30.309  27.408  1.00  0.00    -0.203 F 
ATOM     69  C   UNL A   1      48.997  32.341  27.060  1.00  0.00     0.198 A 
ATOM     70  C   UNL A   1      46.649  32.406  26.679  1.00  0.00     0.198 A 
ATOM     71  F   UNL A   1      45.351  30.520  26.836  1.00  0.00    -0.203 F 
ATOM     72  F   UNL A   1      50.157  32.981  27.264  1.00  0.00    -0.200 F 
ATOM     73  C   UNL A   1      47.846  33.070  26.829  1.00  0.00     0.200 A 
ATOM     74  F   UNL A   1      45.516  33.093  26.466  1.00  0.00    -0.200 F 
ATOM     75  F   UNL A   1      47.878  34.407  26.802  1.00  0.00    -0.200 F 
ENDBRANCH  51  65
BRANCH  52  76
ATOM     76  C   UNL A   1      39.786  28.029  29.332  1.00  0.00     0.064 A 
ATOM     77  C   UNL A   1      38.903  28.111  30.420  1.00  0.00     0.173 A 
ATOM     78  C   UNL A   1      39.362  28.642  28.136  1.00  0.00     0.173 A 
ATOM     79  F   UNL A   1      39.250  27.600  31.609  1.00  0.00    -0.203 F 
ATOM     80  C   UNL A   1      37.676  28.776  30.319  1.00  0.00     0.198 A 
ATOM     81  C   UNL A   1      38.132  29.290  28.031  1.00  0.00     0.198 A 
ATOM     82  F   UNL A   1      40.170  28.710  27.069  1.00  0.00    -0.203 F 
ATOM     83  F   UNL A   1      36.885  28.885  31.395  1.00  0.00    -0.200 F 
ATOM     84  C   UNL A   1      37.293  29.367  29.126  1.00  0.00     0.200 A 
ATOM     85  F   UNL A   1      37.791  29.889  26.881  1.00  0.00    -0.200 F 
ATOM     86  F   UNL A   1      36.139  30.046  29.043  1.00  0.00    -0.200 F 
ENDBRANCH  52  76
BRANCH  64  87
ATOM     87  C   UNL A   1      45.168  26.835  32.402  1.00  0.00     0.064 A 
ATOM     88  C   UNL A   1      45.067  27.108  33.777  1.00  0.00     0.173 A 
ATOM     89  C   UNL A   1      44.937  25.518  31.985  1.00  0.00     0.173 A 
ATOM     90  F   UNL A   1      45.164  28.360  34.238  1.00  0.00    -0.203 F 
ATOM     91  C   UNL A   1      44.801  26.095  34.697  1.00  0.00     0.198 A 
ATOM     92  C   UNL A   1      44.634  24.515  32.902  1.00  0.00     0.198 A 
ATOM     93  F   UNL A   1      44.957  25.213  30.678  1.00  0.00    -0.203 F 
ATOM     94  F   UNL A   1      44.724  26.378  36.006  1.00  0.00    -0.200 F 
ATOM     95  C   UNL A   1      44.578  24.801  34.258  1.00  0.00     0.200 A 
ATOM     96  F   UNL A   1      44.367  23.274  32.469  1.00  0.00    -0.200 F 
ATOM     97  F   UNL A   1      44.281  23.834  35.136  1.00  0.00    -0.200 F 
ENDBRANCH  64  87
ENDBRANCH  38  39
ENDBRANCH  31  33
ENDBRANCH  30  31
ENDBRANCH  29  30
ENDBRANCH  28  29
ENDBRANCH  27  28
ENDBRANCH  26  27
ENDBRANCH   1  26
TORSDOF 21
ENDMDL
MODEL 2
REMARK VINA RESULT:     -10.4      1.245      3.072
REMARK SMILES C[NH2+]CCC(=O)N1Cc2nc[nH]c2C[C@H]1C(=O)OCCOCCOCCOC(=O)c1ccc(-c2c3nc(c(-c4c(F)c(F)c(F)c(F)c4F)c4ccc([nH]4)c(-c4c(F)c(F)c(F)c(F)c4F)c4nc(c(-c5c(F)c(F)c(F)c(F)c5F)c5ccc2[nH]5)C=C4)C=C3)cc1
REMARK SMILES IDX 22 1 21 2 20 3 19 4 18 5 16 6 17 7 15 8 7 9 8 10 9 11 14 12
REMARK SMILES IDX 10 13 13 14 11 15 12 16 5 18 6 19 4 20 3 21 2 22 1 23 23 26
REMARK SMILES IDX 24 27 25 28 26 29 27 30 28 31 29 32 30 33 31 34 92 35 32 36
REMARK SMILES IDX 91 37 33 38 34 39 35 40 85 41 36 42 90 43 84 44 86 45 37 46
REMARK SMILES IDX 89 47 83 48 82 49 38 51 70 52 50 53 69 54 51 55 54 56 68 57
REMARK SMILES IDX 87 58 52 59 53 60 67 62 88 63 55 64 39 65 40 66 48 67 41 68
REMARK SMILES IDX 42 69 46 70 49 71 43 72 44 73 47 74 45 75 71 76 72 77 80 78
REMARK SMILES IDX 73 79 74 80 78 81 81 82 75 83 76 84 79 85 77 86 56 87 57 88
REMARK SMILES IDX 65 89 58 90 59 91 63 92 66 93 60 94 61 95 64 96 62 97
REMARK H PARENT 12 17 2 24 2 25 86 50 54 61
REMARK Flexibility Score: inf
ROOT
ATOM      1  C   UNL A   1      40.393  21.596  26.563  1.00  0.00     0.188 C 
ENDROOT
BRANCH   1   2
ATOM      2  O   UNL A   1      39.471  22.511  27.090  1.00  0.00    -0.376 OA
BRANCH   2   3
ATOM      3  C   UNL A   1      38.653  23.229  26.180  1.00  0.00     0.202 C 
BRANCH   3   4
ATOM      4  C   UNL A   1      37.417  22.640  25.457  1.00  0.00     0.261 C 
BRANCH   4   5
ATOM      5  O   UNL A   1      36.139  22.682  26.117  1.00  0.00    -0.462 OA
BRANCH   5   6
ATOM      6  C   UNL A   1      35.171  23.422  25.519  1.00  0.00     0.329 C 
ATOM      7  O   UNL A   1      35.297  23.935  24.407  1.00  0.00    -0.250 OA
BRANCH   6   8
ATOM      8  C   UNL A   1      33.870  23.619  26.339  1.00  0.00     0.201 C 
ATOM      9  N   UNL A   1      32.534  23.881  25.719  1.00  0.00    -0.322 N 
ATOM     10  C   UNL A   1      31.940  22.802  24.887  1.00  0.00     0.178 C 
ATOM     11  C   UNL A   1      32.355  21.467  25.406  1.00  0.00     0.081 A 
ATOM     12  C   UNL A   1      33.767  22.384  27.291  1.00  0.00     0.093 C 
ATOM     13  N   UNL A   1      32.102  20.270  24.792  1.00  0.00    -0.240 NA
ATOM     14  C   UNL A   1      33.183  21.282  26.489  1.00  0.00     0.042 A 
ATOM     15  C   UNL A   1      32.747  19.375  25.509  1.00  0.00     0.197 A 
ATOM     16  N   UNL A   1      33.415  19.944  26.562  1.00  0.00    -0.348 N 
ATOM     17  H   UNL A   1      33.955  19.475  27.240  1.00  0.00     0.167 HD
BRANCH   9  18
ATOM     18  C   UNL A   1      31.640  24.724  26.381  1.00  0.00     0.229 C 
ATOM     19  O   UNL A   1      30.741  24.295  27.102  1.00  0.00    -0.275 OA
BRANCH  18  20
ATOM     20  C   UNL A   1      31.726  26.212  26.058  1.00  0.00     0.161 C 
BRANCH  20  21
ATOM     21  C   UNL A   1      31.076  26.686  24.757  1.00  0.00     0.270 C 
BRANCH  21  22
ATOM     22  N   UNL A   1      30.531  28.044  24.705  1.00  0.00    -0.348 N 
ATOM     23  C   UNL A   1      31.294  28.998  23.923  1.00  0.00     0.330 C 
ATOM     24  H   UNL A   1      29.593  27.992  24.308  1.00  0.00     0.346 HD
ATOM     25  H   UNL A   1      30.553  28.389  25.665  1.00  0.00     0.346 HD
ENDBRANCH  21  22
ENDBRANCH  20  21
ENDBRANCH  18  20
ENDBRANCH   9  18
ENDBRANCH   6   8
ENDBRANCH   5   6
ENDBRANCH   4   5
ENDBRANCH   3   4
ENDBRANCH   2   3
ENDBRANCH   1   2
BRANCH   1  26
ATOM     26  C   UNL A   1      41.504  21.198  27.538  1.00  0.00     0.188 C 
BRANCH  26  27
ATOM     27  O   UNL A   1      42.323  20.046  27.397  1.00  0.00    -0.376 OA
BRANCH  27  28
ATOM     28  C   UNL A   1      42.278  19.183  26.271  1.00  0.00     0.202 C 
BRANCH  28  29
ATOM     29  C   UNL A   1      43.500  19.059  25.371  1.00  0.00     0.261 C 
BRANCH  29  30
ATOM     30  O   UNL A   1      43.713  20.220  24.604  1.00  0.00    -0.460 OA
BRANCH  30  31
ATOM     31  C   UNL A   1      44.931  20.775  24.789  1.00  0.00     0.338 C 
ATOM     32  O   UNL A   1      45.966  20.230  25.117  1.00  0.00    -0.246 OA
BRANCH  31  33
ATOM     33  C   UNL A   1      44.785  22.217  24.551  1.00  0.00     0.060 A 
ATOM     34  C   UNL A   1      45.944  22.981  24.685  1.00  0.00     0.016 A 
ATOM     35  C   UNL A   1      43.499  22.774  24.553  1.00  0.00     0.016 A 
ATOM     36  C   UNL A   1      45.802  24.250  25.186  1.00  0.00     0.010 A 
ATOM     37  C   UNL A   1      43.357  24.013  25.101  1.00  0.00     0.010 A 
ATOM     38  C   UNL A   1      44.513  24.667  25.519  1.00  0.00    -0.014 A 
BRANCH  38  39
ATOM     39  C   UNL A   1      44.382  25.733  26.478  1.00  0.00     0.031 A 
ATOM     40  C   UNL A   1      45.389  26.796  26.347  1.00  0.00     0.074 A 
ATOM     41  C   UNL A   1      43.312  25.765  27.294  1.00  0.00     0.049 A 
ATOM     42  N   UNL A   1      46.267  27.170  27.214  1.00  0.00    -0.248 NA
ATOM     43  C   UNL A   1      45.524  27.434  25.029  1.00  0.00     0.031 C 
ATOM     44  C   UNL A   1      42.107  24.926  27.235  1.00  0.00     0.029 A 
ATOM     45  N   UNL A   1      43.020  26.651  28.277  1.00  0.00    -0.354 N 
ATOM     46  C   UNL A   1      46.947  28.220  26.611  1.00  0.00     0.074 A 
ATOM     47  C   UNL A   1      46.597  28.197  25.219  1.00  0.00     0.031 C 
ATOM     48  C   UNL A   1      41.138  25.494  27.987  1.00  0.00     0.029 A 
ATOM     49  C   UNL A   1      41.686  26.664  28.651  1.00  0.00     0.049 A 
ATOM     50  H   UNL A   1      43.697  27.235  28.689  1.00  0.00     0.167 HD
ATOM     51  C   UNL A   1      47.518  29.201  27.355  1.00  0.00     0.037 A 
ATOM     52  C   UNL A   1      41.075  27.645  29.359  1.00  0.00     0.037 A 
ATOM     53  C   UNL A   1      47.753  28.761  28.708  1.00  0.00     0.049 A 
ATOM     54  C   UNL A   1      42.142  28.464  30.000  1.00  0.00     0.074 A 
ATOM     55  C   UNL A   1      48.467  27.719  29.271  1.00  0.00     0.029 A 
ATOM     56  N   UNL A   1      46.920  29.216  29.700  1.00  0.00    -0.354 N 
ATOM     57  N   UNL A   1      42.906  28.049  30.972  1.00  0.00    -0.248 NA
ATOM     58  C   UNL A   1      42.655  29.607  29.254  1.00  0.00     0.031 C 
ATOM     59  C   UNL A   1      47.706  27.309  30.403  1.00  0.00     0.029 A 
ATOM     60  C   UNL A   1      46.588  28.140  30.483  1.00  0.00     0.049 A 
ATOM     61  H   UNL A   1      46.615  30.144  29.825  1.00  0.00     0.167 HD
ATOM     62  C   UNL A   1      44.154  28.596  30.705  1.00  0.00     0.074 A 
ATOM     63  C   UNL A   1      43.916  29.621  29.696  1.00  0.00     0.031 C 
ATOM     64  C   UNL A   1      45.298  27.971  31.110  1.00  0.00     0.037 A 
BRANCH  51  65
ATOM     65  C   UNL A   1      47.502  30.655  26.953  1.00  0.00     0.064 A 
ATOM     66  C   UNL A   1      48.699  31.390  27.036  1.00  0.00     0.173 A 
ATOM     67  C   UNL A   1      46.328  31.426  26.773  1.00  0.00     0.173 A 
ATOM     68  F   UNL A   1      49.871  30.764  27.218  1.00  0.00    -0.203 F 
ATOM     69  C   UNL A   1      48.708  32.786  27.034  1.00  0.00     0.198 A 
ATOM     70  C   UNL A   1      46.350  32.815  26.709  1.00  0.00     0.198 A 
ATOM     71  F   UNL A   1      45.103  30.889  26.764  1.00  0.00    -0.203 F 
ATOM     72  F   UNL A   1      49.856  33.440  27.257  1.00  0.00    -0.200 F 
ATOM     73  C   UNL A   1      47.534  33.498  26.878  1.00  0.00     0.200 A 
ATOM     74  F   UNL A   1      45.196  33.485  26.568  1.00  0.00    -0.200 F 
ATOM     75  F   UNL A   1      47.532  34.835  26.943  1.00  0.00    -0.200 F 
ENDBRANCH  51  65
BRANCH  52  76
ATOM     76  C   UNL A   1      39.670  28.102  29.249  1.00  0.00     0.064 A 
ATOM     77  C   UNL A   1      38.838  28.156  30.378  1.00  0.00     0.173 A 
ATOM     78  C   UNL A   1      39.179  28.722  28.082  1.00  0.00     0.173 A 
ATOM     79  F   UNL A   1      39.250  27.638  31.543  1.00  0.00    -0.203 F 
ATOM     80  C   UNL A   1      37.596  28.800  30.343  1.00  0.00     0.198 A 
ATOM     81  C   UNL A   1      37.934  29.348  28.043  1.00  0.00     0.198 A 
ATOM     82  F   UNL A   1      39.935  28.816  26.978  1.00  0.00    -0.203 F 
ATOM     83  F   UNL A   1      36.855  28.883  31.457  1.00  0.00    -0.200 F 
ATOM     84  C   UNL A   1      37.147  29.398  29.177  1.00  0.00     0.200 A 
ATOM     85  F   UNL A   1      37.529  29.954  26.917  1.00  0.00    -0.200 F 
ATOM     86  F   UNL A   1      35.979  30.057  29.156  1.00  0.00    -0.200 F 
ENDBRANCH  52  76
BRANCH  64  87
ATOM     87  C   UNL A   1      45.164  26.835  32.081  1.00  0.00     0.064 A 
ATOM     88  C   UNL A   1      44.867  25.516  31.695  1.00  0.00     0.173 A 
ATOM     89  C   UNL A   1      45.488  27.057  33.426  1.00  0.00     0.173 A 
ATOM     90  F   UNL A   1      44.657  25.207  30.410  1.00  0.00    -0.203 F 
ATOM     91  C   UNL A   1      44.843  24.479  32.625  1.00  0.00     0.198 A 
ATOM     92  C   UNL A   1      45.500  26.013  34.346  1.00  0.00     0.198 A 
ATOM     93  F   UNL A   1      45.841  28.285  33.837  1.00  0.00    -0.203 F 
ATOM     94  F   UNL A   1      44.543  23.232  32.234  1.00  0.00    -0.200 F 
ATOM     95  C   UNL A   1      45.166  24.727  33.948  1.00  0.00     0.200 A 
ATOM     96  F   UNL A   1      45.863  26.247  35.615  1.00  0.00    -0.200 F 
ATOM     97  F   UNL A   1      45.184  23.724  34.836  1.00  0.00    -0.200 F 
ENDBRANCH  64  87
ENDBRANCH  38  39
ENDBRANCH  31  33
ENDBRANCH  30  31
ENDBRANCH  29  30
ENDBRANCH  28  29
ENDBRANCH  27  28
ENDBRANCH  26  27
ENDBRANCH   1  26
TORSDOF 21
ENDMDL
MODEL 3
REMARK VINA RESULT:     -10.2      4.425      9.515
REMARK SMILES C[NH2+]CCC(=O)N1Cc2nc[nH]c2C[C@H]1C(=O)OCCOCCOCCOC(=O)c1ccc(-c2c3nc(c(-c4c(F)c(F)c(F)c(F)c4F)c4ccc([nH]4)c(-c4c(F)c(F)c(F)c(F)c4F)c4nc(c(-c5c(F)c(F)c(F)c(F)c5F)c5ccc2[nH]5)C=C4)C=C3)cc1
REMARK SMILES IDX 22 1 21 2 20 3 19 4 18 5 16 6 17 7 15 8 7 9 8 10 9 11 14 12
REMARK SMILES IDX 10 13 13 14 11 15 12 16 5 18 6 19 4 20 3 21 2 22 1 23 23 26
REMARK SMILES IDX 24 27 25 28 26 29 27 30 28 31 29 32 30 33 31 34 92 35 32 36
REMARK SMILES IDX 91 37 33 38 34 39 35 40 85 41 36 42 90 43 84 44 86 45 37 46
REMARK SMILES IDX 89 47 83 48 82 49 38 51 70 52 50 53 69 54 51 55 54 56 68 57
REMARK SMILES IDX 87 58 52 59 53 60 67 62 88 63 55 64 39 65 40 66 48 67 41 68
REMARK SMILES IDX 42 69 46 70 49 71 43 72 44 73 47 74 45 75 71 76 72 77 80 78
REMARK SMILES IDX 73 79 74 80 78 81 81 82 75 83 76 84 79 85 77 86 56 87 57 88
REMARK SMILES IDX 65 89 58 90 59 91 63 92 66 93 60 94 61 95 64 96 62 97
REMARK H PARENT 12 17 2 24 2 25 86 50 54 61
REMARK Flexibility Score: inf
ROOT
ATOM      1  C   UNL A   1      33.509  32.915  27.981  1.00  0.00     0.188 C 
ENDROOT
BRANCH   1   2
ATOM      2  O   UNL A   1      34.222  31.746  28.281  1.00  0.00    -0.376 OA
BRANCH   2   3
ATOM      3  C   UNL A   1      34.088  30.641  27.401  1.00  0.00     0.202 C 
BRANCH   3   4
ATOM      4  C   UNL A   1      32.739  30.114  26.851  1.00  0.00     0.261 C 
BRANCH   4   5
ATOM      5  O   UNL A   1      32.751  29.118  25.813  1.00  0.00    -0.462 OA
BRANCH   5   6
ATOM      6  C   UNL A   1      31.757  28.193  25.848  1.00  0.00     0.329 C 
ATOM      7  O   UNL A   1      31.626  27.371  26.754  1.00  0.00    -0.250 OA
BRANCH   6   8
ATOM      8  C   UNL A   1      30.783  28.206  24.641  1.00  0.00     0.201 C 
ATOM      9  N   UNL A   1      30.960  29.087  23.446  1.00  0.00    -0.322 N 
ATOM     10  C   UNL A   1      32.148  28.846  22.585  1.00  0.00     0.178 C 
ATOM     11  C   UNL A   1      32.504  27.398  22.596  1.00  0.00     0.081 A 
ATOM     12  C   UNL A   1      30.652  26.720  24.176  1.00  0.00     0.093 C 
ATOM     13  N   UNL A   1      33.625  26.858  22.025  1.00  0.00    -0.240 NA
ATOM     14  C   UNL A   1      31.828  26.442  23.318  1.00  0.00     0.042 A 
ATOM     15  C   UNL A   1      33.611  25.590  22.378  1.00  0.00     0.197 A 
ATOM     16  N   UNL A   1      32.527  25.285  23.160  1.00  0.00    -0.348 N 
ATOM     17  H   UNL A   1      32.299  24.403  23.534  1.00  0.00     0.167 HD
BRANCH   9  18
ATOM     18  C   UNL A   1      29.826  29.601  22.815  1.00  0.00     0.229 C 
ATOM     19  O   UNL A   1      29.472  29.235  21.696  1.00  0.00    -0.275 OA
BRANCH  18  20
ATOM     20  C   UNL A   1      29.112  30.755  23.511  1.00  0.00     0.161 C 
BRANCH  20  21
ATOM     21  C   UNL A   1      28.050  31.508  22.707  1.00  0.00     0.270 C 
BRANCH  21  22
ATOM     22  N   UNL A   1      27.952  31.250  21.269  1.00  0.00    -0.348 N 
ATOM     23  C   UNL A   1      27.938  32.424  20.419  1.00  0.00     0.330 C 
ATOM     24  H   UNL A   1      28.749  30.675  20.997  1.00  0.00     0.346 HD
ATOM     25  H   UNL A   1      27.049  30.795  21.130  1.00  0.00     0.346 HD
ENDBRANCH  21  22
ENDBRANCH  20  21
ENDBRANCH  18  20
ENDBRANCH   9  18
ENDBRANCH   6   8
ENDBRANCH   5   6
ENDBRANCH   4   5
ENDBRANCH   3   4
ENDBRANCH   2   3
ENDBRANCH   1   2
BRANCH   1  26
ATOM     26  C   UNL A   1      34.305  34.204  28.196  1.00  0.00     0.188 C 
BRANCH  26  27
ATOM     27  O   UNL A   1      34.827  34.627  29.448  1.00  0.00    -0.376 OA
BRANCH  27  28
ATOM     28  C   UNL A   1      34.028  34.836  30.602  1.00  0.00     0.202 C 
BRANCH  28  29
ATOM     29  C   UNL A   1      34.190  33.914  31.804  1.00  0.00     0.261 C 
BRANCH  29  30
ATOM     30  O   UNL A   1      34.478  32.591  31.421  1.00  0.00    -0.460 OA
BRANCH  30  31
ATOM     31  C   UNL A   1      35.615  32.105  31.967  1.00  0.00     0.338 C 
ATOM     32  O   UNL A   1      35.960  32.124  33.131  1.00  0.00    -0.246 OA
BRANCH  31  33
ATOM     33  C   UNL A   1      36.418  31.557  30.866  1.00  0.00     0.060 A 
ATOM     34  C   UNL A   1      36.363  30.174  30.696  1.00  0.00     0.016 A 
ATOM     35  C   UNL A   1      37.420  32.356  30.299  1.00  0.00     0.016 A 
ATOM     36  C   UNL A   1      37.506  29.549  30.269  1.00  0.00     0.010 A 
ATOM     37  C   UNL A   1      38.575  31.737  29.926  1.00  0.00     0.010 A 
ATOM     38  C   UNL A   1      38.626  30.350  30.041  1.00  0.00    -0.014 A 
BRANCH  38  39
ATOM     39  C   UNL A   1      39.919  29.719  30.092  1.00  0.00     0.031 A 
ATOM     40  C   UNL A   1      40.499  29.627  31.440  1.00  0.00     0.074 A 
ATOM     41  C   UNL A   1      40.424  29.147  28.982  1.00  0.00     0.049 A 
ATOM     42  N   UNL A   1      41.598  30.146  31.870  1.00  0.00    -0.248 NA
ATOM     43  C   UNL A   1      39.680  28.986  32.480  1.00  0.00     0.031 C 
ATOM     44  C   UNL A   1      39.744  28.907  27.702  1.00  0.00     0.029 A 
ATOM     45  N   UNL A   1      41.623  28.539  28.810  1.00  0.00    -0.354 N 
ATOM     46  C   UNL A   1      41.697  29.740  33.194  1.00  0.00     0.074 A 
ATOM     47  C   UNL A   1      40.412  29.218  33.566  1.00  0.00     0.031 C 
ATOM     48  C   UNL A   1      40.460  28.013  26.984  1.00  0.00     0.029 A 
ATOM     49  C   UNL A   1      41.683  27.706  27.706  1.00  0.00     0.049 A 
ATOM     50  H   UNL A   1      42.385  28.677  29.419  1.00  0.00     0.167 HD
ATOM     51  C   UNL A   1      42.907  29.598  33.792  1.00  0.00     0.037 A 
ATOM     52  C   UNL A   1      42.623  26.755  27.485  1.00  0.00     0.037 A 
ATOM     53  C   UNL A   1      43.921  30.358  33.105  1.00  0.00     0.049 A 
ATOM     54  C   UNL A   1      43.770  27.041  28.392  1.00  0.00     0.074 A 
ATOM     55  C   UNL A   1      44.072  31.696  32.790  1.00  0.00     0.029 A 
ATOM     56  N   UNL A   1      44.820  29.688  32.314  1.00  0.00    -0.354 N 
ATOM     57  N   UNL A   1      44.573  28.061  28.266  1.00  0.00    -0.248 NA
ATOM     58  C   UNL A   1      43.755  26.425  29.714  1.00  0.00     0.031 C 
ATOM     59  C   UNL A   1      44.709  31.713  31.515  1.00  0.00     0.029 A 
ATOM     60  C   UNL A   1      44.935  30.388  31.140  1.00  0.00     0.049 A 
ATOM     61  H   UNL A   1      45.294  28.856  32.545  1.00  0.00     0.167 HD
ATOM     62  C   UNL A   1      44.845  28.466  29.566  1.00  0.00     0.074 A 
ATOM     63  C   UNL A   1      44.397  27.366  30.412  1.00  0.00     0.031 C 
ATOM     64  C   UNL A   1      45.139  29.768  29.852  1.00  0.00     0.037 A 
BRANCH  51  65
ATOM     65  C   UNL A   1      43.225  28.479  34.753  1.00  0.00     0.064 A 
ATOM     66  C   UNL A   1      43.732  28.806  36.024  1.00  0.00     0.173 A 
ATOM     67  C   UNL A   1      43.333  27.115  34.389  1.00  0.00     0.173 A 
ATOM     68  F   UNL A   1      43.693  30.070  36.468  1.00  0.00    -0.203 F 
ATOM     69  C   UNL A   1      44.378  27.862  36.824  1.00  0.00     0.198 A 
ATOM     70  C   UNL A   1      43.923  26.166  35.217  1.00  0.00     0.198 A 
ATOM     71  F   UNL A   1      42.982  26.657  33.183  1.00  0.00    -0.203 F 
ATOM     72  F   UNL A   1      44.967  28.253  37.962  1.00  0.00    -0.200 F 
ATOM     73  C   UNL A   1      44.480  26.545  36.418  1.00  0.00     0.200 A 
ATOM     74  F   UNL A   1      44.020  24.896  34.797  1.00  0.00    -0.200 F 
ATOM     75  F   UNL A   1      45.157  25.654  37.153  1.00  0.00    -0.200 F 
ENDBRANCH  51  65
BRANCH  52  76
ATOM     76  C   UNL A   1      42.456  25.458  26.789  1.00  0.00     0.064 A 
ATOM     77  C   UNL A   1      43.251  25.124  25.683  1.00  0.00     0.173 A 
ATOM     78  C   UNL A   1      41.678  24.417  27.336  1.00  0.00     0.173 A 
ATOM     79  F   UNL A   1      44.060  26.040  25.134  1.00  0.00    -0.203 F 
ATOM     80  C   UNL A   1      43.274  23.825  25.162  1.00  0.00     0.198 A 
ATOM     81  C   UNL A   1      41.688  23.127  26.806  1.00  0.00     0.198 A 
ATOM     82  F   UNL A   1      40.961  24.603  28.454  1.00  0.00    -0.203 F 
ATOM     83  F   UNL A   1      44.091  23.529  24.141  1.00  0.00    -0.200 F 
ATOM     84  C   UNL A   1      42.496  22.828  25.726  1.00  0.00     0.200 A 
ATOM     85  F   UNL A   1      40.957  22.164  27.386  1.00  0.00    -0.200 F 
ATOM     86  F   UNL A   1      42.554  21.572  25.258  1.00  0.00    -0.200 F 
ENDBRANCH  52  76
BRANCH  64  87
ATOM     87  C   UNL A   1      45.429  30.685  28.699  1.00  0.00     0.064 A 
ATOM     88  C   UNL A   1      44.434  31.392  28.003  1.00  0.00     0.173 A 
ATOM     89  C   UNL A   1      46.764  30.969  28.385  1.00  0.00     0.173 A 
ATOM     90  F   UNL A   1      43.141  31.256  28.324  1.00  0.00    -0.203 F 
ATOM     91  C   UNL A   1      44.761  32.301  26.999  1.00  0.00     0.198 A 
ATOM     92  C   UNL A   1      47.090  31.906  27.408  1.00  0.00     0.198 A 
ATOM     93  F   UNL A   1      47.756  30.371  29.063  1.00  0.00    -0.203 F 
ATOM     94  F   UNL A   1      43.793  32.952  26.338  1.00  0.00    -0.200 F 
ATOM     95  C   UNL A   1      46.089  32.562  26.708  1.00  0.00     0.200 A 
ATOM     96  F   UNL A   1      48.377  32.194  27.165  1.00  0.00    -0.200 F 
ATOM     97  F   UNL A   1      46.408  33.467  25.772  1.00  0.00    -0.200 F 
ENDBRANCH  64  87
ENDBRANCH  38  39
ENDBRANCH  31  33
ENDBRANCH  30  31
ENDBRANCH  29  30
ENDBRANCH  28  29
ENDBRANCH  27  28
ENDBRANCH  26  27
ENDBRANCH   1  26
TORSDOF 21
ENDMDL
