MODEL 1
REMARK VINA RESULT:     -11.1      0.000      0.000
REMARK SMILES CCc1cc(OC(F)(F)F)cc2c1O[C@@H](C(F)(F)F)C(C(=O)OCCOCCOCCOC(=O)c1ccc(-c3c4nc(c(-c5c(F)c(F)c(F)c(F)c5F)c5ccc([nH]5)c(-c5c(F)c(F)c(F)c(F)c5F)c5nc(c(-c6c(F)c(F)c(F)c(F)c6F)c6ccc3[nH]6)C=C5)C=C4)cc1)=C2
REMARK SMILES IDX 27 1 26 2 25 3 24 4 23 5 21 6 22 7 20 8 3 9 4 10 13 11 5 12
REMARK SMILES IDX 12 13 14 14 11 15 98 16 15 17 2 18 1 19 6 20 7 21 8 22 9 23
REMARK SMILES IDX 10 24 16 25 17 26 18 27 19 28 28 29 29 30 30 31 31 32 32 33
REMARK SMILES IDX 33 34 34 35 35 36 36 37 97 38 37 39 96 40 38 41 39 42 40 43
REMARK SMILES IDX 90 44 41 45 95 46 89 47 91 48 42 49 94 50 88 51 87 52 43 54
REMARK SMILES IDX 75 55 55 56 74 57 56 58 59 59 73 60 92 61 57 62 58 63 72 65
REMARK SMILES IDX 93 66 60 67 44 68 45 69 53 70 46 71 47 72 51 73 54 74 48 75
REMARK SMILES IDX 49 76 52 77 50 78 76 79 77 80 85 81 78 82 79 83 83 84 86 85
REMARK SMILES IDX 80 86 81 87 84 88 82 89 61 90 62 91 70 92 63 93 64 94 68 95
REMARK SMILES IDX 71 96 65 97 66 98 69 99 67 100
REMARK H PARENT 91 53 59 64
REMARK Flexibility Score: inf
ROOT
ATOM      1  C   UNL A   1      31.451  29.458  25.471  1.00  0.00     0.188 C 
ENDROOT
BRANCH   1   2
ATOM      2  O   UNL A   1      30.922  29.476  24.163  1.00  0.00    -0.376 OA
BRANCH   2   3
ATOM      3  C   UNL A   1      30.802  28.293  23.392  1.00  0.00     0.202 C 
BRANCH   3   4
ATOM      4  C   UNL A   1      29.799  27.180  23.715  1.00  0.00     0.261 C 
BRANCH   4   5
ATOM      5  O   UNL A   1      30.366  25.879  23.887  1.00  0.00    -0.460 OA
BRANCH   5   6
ATOM      6  C   UNL A   1      30.595  25.523  25.179  1.00  0.00     0.338 C 
ATOM      7  O   UNL A   1      30.038  25.958  26.160  1.00  0.00    -0.246 OA
BRANCH   6   8
ATOM      8  C   UNL A   1      31.565  24.415  25.237  1.00  0.00     0.087 C 
ATOM      9  C   UNL A   1      34.620  21.614  24.728  1.00  0.00    -0.002 A 
ATOM     10  C   UNL A   1      34.281  20.265  24.526  1.00  0.00     0.054 A 
ATOM     11  C   UNL A   1      33.588  22.548  24.881  1.00  0.00     0.131 A 
ATOM     12  C   UNL A   1      32.945  19.862  24.453  1.00  0.00     0.130 A 
ATOM     13  C   UNL A   1      32.242  22.157  24.815  1.00  0.00     0.021 A 
ATOM     14  O   UNL A   1      33.940  23.868  25.025  1.00  0.00    -0.475 OA
ATOM     15  C   UNL A   1      31.929  20.811  24.616  1.00  0.00     0.058 A 
ATOM     16  C   UNL A   1      31.198  23.183  24.849  1.00  0.00     0.027 C 
ATOM     17  C   UNL A   1      32.969  24.685  25.725  1.00  0.00     0.316 C 
BRANCH   9  18
ATOM     18  C   UNL A   1      36.076  22.020  24.759  1.00  0.00     0.036 C 
ATOM     19  C   UNL A   1      36.528  22.653  23.451  1.00  0.00     0.009 C 
ENDBRANCH   9  18
BRANCH  12  20
ATOM     20  O   UNL A   1      32.506  18.587  24.228  1.00  0.00    -0.406 OA
BRANCH  20  21
ATOM     21  C   UNL A   1      32.803  17.615  25.220  1.00  0.00     0.573 C 
ATOM     22  F   UNL A   1      33.879  16.875  24.878  1.00  0.00    -0.132 F 
ATOM     23  F   UNL A   1      33.021  18.200  26.418  1.00  0.00    -0.132 F 
ATOM     24  F   UNL A   1      31.745  16.784  25.345  1.00  0.00    -0.132 F 
ENDBRANCH  20  21
ENDBRANCH  12  20
BRANCH  17  25
ATOM     25  C   UNL A   1      33.481  26.135  25.731  1.00  0.00     0.430 C 
ATOM     26  F   UNL A   1      32.901  26.861  26.715  1.00  0.00    -0.167 F 
ATOM     27  F   UNL A   1      34.815  26.157  26.001  1.00  0.00    -0.167 F 
ATOM     28  F   UNL A   1      33.307  26.771  24.557  1.00  0.00    -0.167 F 
ENDBRANCH  17  25
ENDBRANCH   6   8
ENDBRANCH   5   6
ENDBRANCH   4   5
ENDBRANCH   3   4
ENDBRANCH   2   3
ENDBRANCH   1   2
BRANCH   1  29
ATOM     29  C   UNL A   1      32.898  29.907  25.759  1.00  0.00     0.188 C 
BRANCH  29  30
ATOM     30  O   UNL A   1      33.362  30.109  27.078  1.00  0.00    -0.376 OA
BRANCH  30  31
ATOM     31  C   UNL A   1      33.732  31.408  27.510  1.00  0.00     0.202 C 
BRANCH  31  32
ATOM     32  C   UNL A   1      32.687  32.514  27.681  1.00  0.00     0.261 C 
BRANCH  32  33
ATOM     33  O   UNL A   1      33.188  33.846  27.508  1.00  0.00    -0.460 OA
BRANCH  33  34
ATOM     34  C   UNL A   1      33.256  34.575  28.648  1.00  0.00     0.338 C 
ATOM     35  O   UNL A   1      32.434  35.369  29.073  1.00  0.00    -0.246 OA
BRANCH  34  36
ATOM     36  C   UNL A   1      34.425  34.157  29.442  1.00  0.00     0.060 A 
ATOM     37  C   UNL A   1      35.694  34.381  28.897  1.00  0.00     0.016 A 
ATOM     38  C   UNL A   1      34.278  33.475  30.653  1.00  0.00     0.016 A 
ATOM     39  C   UNL A   1      36.824  33.884  29.539  1.00  0.00     0.010 A 
ATOM     40  C   UNL A   1      35.415  32.962  31.288  1.00  0.00     0.010 A 
ATOM     41  C   UNL A   1      36.688  33.133  30.715  1.00  0.00    -0.014 A 
BRANCH  41  42
ATOM     42  C   UNL A   1      37.867  32.400  31.235  1.00  0.00     0.031 A 
ATOM     43  C   UNL A   1      38.387  32.733  32.606  1.00  0.00     0.074 A 
ATOM     44  C   UNL A   1      38.427  31.405  30.525  1.00  0.00     0.049 A 
ATOM     45  N   UNL A   1      39.358  32.176  33.286  1.00  0.00    -0.248 NA
ATOM     46  C   UNL A   1      37.719  33.839  33.308  1.00  0.00     0.031 C 
ATOM     47  C   UNL A   1      37.998  30.969  29.199  1.00  0.00     0.029 A 
ATOM     48  N   UNL A   1      39.478  30.578  30.832  1.00  0.00    -0.354 N 
ATOM     49  C   UNL A   1      39.410  32.856  34.496  1.00  0.00     0.074 A 
ATOM     50  C   UNL A   1      38.400  33.891  34.444  1.00  0.00     0.031 C 
ATOM     51  C   UNL A   1      38.782  29.951  28.803  1.00  0.00     0.029 A 
ATOM     52  C   UNL A   1      39.775  29.678  29.839  1.00  0.00     0.049 A 
ATOM     53  H   UNL A   1      39.970  30.625  31.683  1.00  0.00     0.167 HD
ATOM     54  C   UNL A   1      40.216  32.629  35.560  1.00  0.00     0.037 A 
ATOM     55  C   UNL A   1      40.745  28.745  29.777  1.00  0.00     0.037 A 
ATOM     56  C   UNL A   1      41.228  31.606  35.612  1.00  0.00     0.049 A 
ATOM     57  C   UNL A   1      41.671  28.555  30.951  1.00  0.00     0.074 A 
ATOM     58  C   UNL A   1      42.083  31.289  36.653  1.00  0.00     0.029 A 
ATOM     59  N   UNL A   1      41.529  30.741  34.571  1.00  0.00    -0.354 N 
ATOM     60  N   UNL A   1      41.684  29.171  32.107  1.00  0.00    -0.248 NA
ATOM     61  C   UNL A   1      42.711  27.525  30.811  1.00  0.00     0.031 C 
ATOM     62  C   UNL A   1      42.934  30.263  36.224  1.00  0.00     0.029 A 
ATOM     63  C   UNL A   1      42.573  29.906  34.936  1.00  0.00     0.049 A 
ATOM     64  H   UNL A   1      41.068  30.722  33.702  1.00  0.00     0.167 HD
ATOM     65  C   UNL A   1      42.710  28.589  32.840  1.00  0.00     0.074 A 
ATOM     66  C   UNL A   1      43.285  27.556  32.005  1.00  0.00     0.031 C 
ATOM     67  C   UNL A   1      43.137  28.882  34.095  1.00  0.00     0.037 A 
BRANCH  54  68
ATOM     68  C   UNL A   1      40.047  33.520  36.755  1.00  0.00     0.064 A 
ATOM     69  C   UNL A   1      39.116  33.229  37.764  1.00  0.00     0.173 A 
ATOM     70  C   UNL A   1      40.846  34.663  36.907  1.00  0.00     0.173 A 
ATOM     71  F   UNL A   1      38.319  32.156  37.656  1.00  0.00    -0.203 F 
ATOM     72  C   UNL A   1      38.976  34.062  38.870  1.00  0.00     0.198 A 
ATOM     73  C   UNL A   1      40.722  35.480  38.029  1.00  0.00     0.198 A 
ATOM     74  F   UNL A   1      41.753  34.985  35.973  1.00  0.00    -0.203 F 
ATOM     75  F   UNL A   1      38.051  33.788  39.800  1.00  0.00    -0.200 F 
ATOM     76  C   UNL A   1      39.783  35.182  39.005  1.00  0.00     0.200 A 
ATOM     77  F   UNL A   1      41.510  36.556  38.163  1.00  0.00    -0.200 F 
ATOM     78  F   UNL A   1      39.651  35.980  40.074  1.00  0.00    -0.200 F 
ENDBRANCH  54  68
BRANCH  55  79
ATOM     79  C   UNL A   1      40.893  27.910  28.557  1.00  0.00     0.064 A 
ATOM     80  C   UNL A   1      41.671  28.340  27.474  1.00  0.00     0.173 A 
ATOM     81  C   UNL A   1      40.231  26.679  28.438  1.00  0.00     0.173 A 
ATOM     82  F   UNL A   1      42.297  29.525  27.529  1.00  0.00    -0.203 F 
ATOM     83  C   UNL A   1      41.767  27.581  26.311  1.00  0.00     0.198 A 
ATOM     84  C   UNL A   1      40.350  25.907  27.284  1.00  0.00     0.198 A 
ATOM     85  F   UNL A   1      39.468  26.227  29.443  1.00  0.00    -0.203 F 
ATOM     86  F   UNL A   1      42.474  28.040  25.270  1.00  0.00    -0.200 F 
ATOM     87  C   UNL A   1      41.111  26.362  26.219  1.00  0.00     0.200 A 
ATOM     88  F   UNL A   1      39.718  24.729  27.202  1.00  0.00    -0.200 F 
ATOM     89  F   UNL A   1      41.199  25.635  25.097  1.00  0.00    -0.200 F 
ENDBRANCH  55  79
BRANCH  67  90
ATOM     90  C   UNL A   1      44.262  28.053  34.649  1.00  0.00     0.064 A 
ATOM     91  C   UNL A   1      44.026  26.846  35.324  1.00  0.00     0.173 A 
ATOM     92  C   UNL A   1      45.594  28.463  34.482  1.00  0.00     0.173 A 
ATOM     93  F   UNL A   1      42.771  26.417  35.521  1.00  0.00    -0.203 F 
ATOM     94  C   UNL A   1      45.080  26.098  35.843  1.00  0.00     0.198 A 
ATOM     95  C   UNL A   1      46.647  27.696  34.975  1.00  0.00     0.198 A 
ATOM     96  F   UNL A   1      45.876  29.604  33.835  1.00  0.00    -0.203 F 
ATOM     97  F   UNL A   1      44.828  24.978  36.534  1.00  0.00    -0.200 F 
ATOM     98  C   UNL A   1      46.389  26.520  35.663  1.00  0.00     0.200 A 
ATOM     99  F   UNL A   1      47.912  28.099  34.788  1.00  0.00    -0.200 F 
ATOM    100  F   UNL A   1      47.402  25.799  36.163  1.00  0.00    -0.200 F 
ENDBRANCH  67  90
ENDBRANCH  41  42
ENDBRANCH  34  36
ENDBRANCH  33  34
ENDBRANCH  32  33
ENDBRANCH  31  32
ENDBRANCH  30  31
ENDBRANCH  29  30
ENDBRANCH   1  29
TORSDOF 21
ENDMDL
MODEL 2
REMARK VINA RESULT:     -10.9      1.975      3.390
REMARK SMILES CCc1cc(OC(F)(F)F)cc2c1O[C@@H](C(F)(F)F)C(C(=O)OCCOCCOCCOC(=O)c1ccc(-c3c4nc(c(-c5c(F)c(F)c(F)c(F)c5F)c5ccc([nH]5)c(-c5c(F)c(F)c(F)c(F)c5F)c5nc(c(-c6c(F)c(F)c(F)c(F)c6F)c6ccc3[nH]6)C=C5)C=C4)cc1)=C2
REMARK SMILES IDX 27 1 26 2 25 3 24 4 23 5 21 6 22 7 20 8 3 9 4 10 13 11 5 12
REMARK SMILES IDX 12 13 14 14 11 15 98 16 15 17 2 18 1 19 6 20 7 21 8 22 9 23
REMARK SMILES IDX 10 24 16 25 17 26 18 27 19 28 28 29 29 30 30 31 31 32 32 33
REMARK SMILES IDX 33 34 34 35 35 36 36 37 97 38 37 39 96 40 38 41 39 42 40 43
REMARK SMILES IDX 90 44 41 45 95 46 89 47 91 48 42 49 94 50 88 51 87 52 43 54
REMARK SMILES IDX 75 55 55 56 74 57 56 58 59 59 73 60 92 61 57 62 58 63 72 65
REMARK SMILES IDX 93 66 60 67 44 68 45 69 53 70 46 71 47 72 51 73 54 74 48 75
REMARK SMILES IDX 49 76 52 77 50 78 76 79 77 80 85 81 78 82 79 83 83 84 86 85
REMARK SMILES IDX 80 86 81 87 84 88 82 89 61 90 62 91 70 92 63 93 64 94 68 95
REMARK SMILES IDX 71 96 65 97 66 98 69 99 67 100
REMARK H PARENT 91 53 59 64
REMARK Flexibility Score: inf
ROOT
ATOM      1  C   UNL A   1      35.049  31.918  28.274  1.00  0.00     0.188 C 
ENDROOT
BRANCH   1   2
ATOM      2  O   UNL A   1      34.271  31.352  27.242  1.00  0.00    -0.376 OA
BRANCH   2   3
ATOM      3  C   UNL A   1      33.840  30.003  27.288  1.00  0.00     0.202 C 
BRANCH   3   4
ATOM      4  C   UNL A   1      32.408  29.570  26.959  1.00  0.00     0.261 C 
BRANCH   4   5
ATOM      5  O   UNL A   1      32.267  28.222  26.504  1.00  0.00    -0.460 OA
BRANCH   5   6
ATOM      6  C   UNL A   1      32.522  28.036  25.181  1.00  0.00     0.338 C 
ATOM      7  O   UNL A   1      32.558  28.887  24.324  1.00  0.00    -0.246 OA
BRANCH   6   8
ATOM      8  C   UNL A   1      32.873  26.628  24.925  1.00  0.00     0.087 C 
ATOM      9  C   UNL A   1      33.289  22.477  24.743  1.00  0.00    -0.002 A 
ATOM     10  C   UNL A   1      34.520  21.899  25.101  1.00  0.00     0.054 A 
ATOM     11  C   UNL A   1      33.155  23.868  24.823  1.00  0.00     0.131 A 
ATOM     12  C   UNL A   1      35.582  22.689  25.552  1.00  0.00     0.130 A 
ATOM     13  C   UNL A   1      34.213  24.674  25.270  1.00  0.00     0.021 A 
ATOM     14  O   UNL A   1      31.929  24.408  24.519  1.00  0.00    -0.475 OA
ATOM     15  C   UNL A   1      35.428  24.078  25.618  1.00  0.00     0.058 A 
ATOM     16  C   UNL A   1      33.988  26.107  25.463  1.00  0.00     0.027 C 
ATOM     17  C   UNL A   1      31.964  25.783  24.064  1.00  0.00     0.316 C 
BRANCH   9  18
ATOM     18  C   UNL A   1      32.150  21.588  24.300  1.00  0.00     0.036 C 
ATOM     19  C   UNL A   1      32.150  21.355  22.795  1.00  0.00     0.009 C 
ENDBRANCH   9  18
BRANCH  12  20
ATOM     20  O   UNL A   1      36.804  22.229  25.954  1.00  0.00    -0.406 OA
BRANCH  20  21
ATOM     21  C   UNL A   1      37.536  21.438  25.029  1.00  0.00     0.573 C 
ATOM     22  F   UNL A   1      37.388  21.891  23.767  1.00  0.00    -0.132 F 
ATOM     23  F   UNL A   1      38.849  21.414  25.347  1.00  0.00    -0.132 F 
ATOM     24  F   UNL A   1      37.070  20.171  25.077  1.00  0.00    -0.132 F 
ENDBRANCH  20  21
ENDBRANCH  12  20
BRANCH  17  25
ATOM     25  C   UNL A   1      30.515  26.249  23.842  1.00  0.00     0.430 C 
ATOM     26  F   UNL A   1      30.422  27.089  22.785  1.00  0.00    -0.167 F 
ATOM     27  F   UNL A   1      29.725  25.185  23.533  1.00  0.00    -0.167 F 
ATOM     28  F   UNL A   1      29.971  26.842  24.922  1.00  0.00    -0.167 F 
ENDBRANCH  17  25
ENDBRANCH   6   8
ENDBRANCH   5   6
ENDBRANCH   4   5
ENDBRANCH   3   4
ENDBRANCH   2   3
ENDBRANCH   1   2
BRANCH   1  29
ATOM     29  C   UNL A   1      34.447  32.925  29.275  1.00  0.00     0.188 C 
BRANCH  29  30
ATOM     30  O   UNL A   1      33.433  33.831  28.894  1.00  0.00    -0.376 OA
BRANCH  30  31
ATOM     31  C   UNL A   1      33.717  35.217  28.798  1.00  0.00     0.202 C 
BRANCH  31  32
ATOM     32  C   UNL A   1      32.875  36.254  29.547  1.00  0.00     0.261 C 
BRANCH  32  33
ATOM     33  O   UNL A   1      33.300  36.517  30.890  1.00  0.00    -0.460 OA
BRANCH  33  34
ATOM     34  C   UNL A   1      32.881  35.608  31.802  1.00  0.00     0.338 C 
ATOM     35  O   UNL A   1      31.738  35.238  32.013  1.00  0.00    -0.246 OA
BRANCH  34  36
ATOM     36  C   UNL A   1      34.042  34.960  32.436  1.00  0.00     0.060 A 
ATOM     37  C   UNL A   1      35.275  35.617  32.358  1.00  0.00     0.016 A 
ATOM     38  C   UNL A   1      33.946  33.690  33.012  1.00  0.00     0.016 A 
ATOM     39  C   UNL A   1      36.429  34.989  32.817  1.00  0.00     0.010 A 
ATOM     40  C   UNL A   1      35.110  33.054  33.458  1.00  0.00     0.010 A 
ATOM     41  C   UNL A   1      36.359  33.686  33.329  1.00  0.00    -0.014 A 
BRANCH  41  42
ATOM     42  C   UNL A   1      37.622  32.944  33.568  1.00  0.00     0.031 A 
ATOM     43  C   UNL A   1      38.387  33.196  34.837  1.00  0.00     0.074 A 
ATOM     44  C   UNL A   1      38.046  32.010  32.699  1.00  0.00     0.049 A 
ATOM     45  N   UNL A   1      39.473  32.617  35.284  1.00  0.00    -0.248 NA
ATOM     46  C   UNL A   1      37.854  34.240  35.726  1.00  0.00     0.031 C 
ATOM     47  C   UNL A   1      37.379  31.653  31.449  1.00  0.00     0.029 A 
ATOM     48  N   UNL A   1      39.142  31.187  32.746  1.00  0.00    -0.354 N 
ATOM     49  C   UNL A   1      39.746  33.216  36.506  1.00  0.00     0.074 A 
ATOM     50  C   UNL A   1      38.736  34.231  36.715  1.00  0.00     0.031 C 
ATOM     51  C   UNL A   1      38.082  30.680  30.845  1.00  0.00     0.029 A 
ATOM     52  C   UNL A   1      39.255  30.360  31.656  1.00  0.00     0.049 A 
ATOM     53  H   UNL A   1      39.786  31.187  33.492  1.00  0.00     0.167 HD
ATOM     54  C   UNL A   1      40.740  32.936  37.382  1.00  0.00     0.037 A 
ATOM     55  C   UNL A   1      40.204  29.454  31.350  1.00  0.00     0.037 A 
ATOM     56  C   UNL A   1      41.751  31.934  37.174  1.00  0.00     0.049 A 
ATOM     57  C   UNL A   1      41.335  29.206  32.314  1.00  0.00     0.074 A 
ATOM     58  C   UNL A   1      42.790  31.567  38.012  1.00  0.00     0.029 A 
ATOM     59  N   UNL A   1      41.858  31.145  36.038  1.00  0.00    -0.354 N 
ATOM     60  N   UNL A   1      41.560  29.745  33.487  1.00  0.00    -0.248 NA
ATOM     61  C   UNL A   1      42.339  28.209  31.912  1.00  0.00     0.031 C 
ATOM     62  C   UNL A   1      43.553  30.589  37.363  1.00  0.00     0.029 A 
ATOM     63  C   UNL A   1      42.959  30.310  36.144  1.00  0.00     0.049 A 
ATOM     64  H   UNL A   1      41.242  31.174  35.271  1.00  0.00     0.167 HD
ATOM     65  C   UNL A   1      42.711  29.137  33.974  1.00  0.00     0.074 A 
ATOM     66  C   UNL A   1      43.127  28.174  32.976  1.00  0.00     0.031 C 
ATOM     67  C   UNL A   1      43.363  29.355  35.143  1.00  0.00     0.037 A 
BRANCH  54  68
ATOM     68  C   UNL A   1      40.791  33.743  38.647  1.00  0.00     0.064 A 
ATOM     69  C   UNL A   1      41.619  34.870  38.767  1.00  0.00     0.173 A 
ATOM     70  C   UNL A   1      39.981  33.403  39.740  1.00  0.00     0.173 A 
ATOM     71  F   UNL A   1      42.424  35.226  37.755  1.00  0.00    -0.203 F 
ATOM     72  C   UNL A   1      41.650  35.613  39.944  1.00  0.00     0.198 A 
ATOM     73  C   UNL A   1      39.994  34.165  40.906  1.00  0.00     0.198 A 
ATOM     74  F   UNL A   1      39.170  32.337  39.675  1.00  0.00    -0.203 F 
ATOM     75  F   UNL A   1      42.480  36.660  40.051  1.00  0.00    -0.200 F 
ATOM     76  C   UNL A   1      40.833  35.264  41.009  1.00  0.00     0.200 A 
ATOM     77  F   UNL A   1      39.197  33.833  41.931  1.00  0.00    -0.200 F 
ATOM     78  F   UNL A   1      40.860  35.984  42.139  1.00  0.00    -0.200 F 
ENDBRANCH  54  68
BRANCH  55  79
ATOM     79  C   UNL A   1      40.126  28.705  30.069  1.00  0.00     0.064 A 
ATOM     80  C   UNL A   1      39.460  27.475  29.987  1.00  0.00     0.173 A 
ATOM     81  C   UNL A   1      40.744  29.192  28.908  1.00  0.00     0.173 A 
ATOM     82  F   UNL A   1      38.880  26.955  31.079  1.00  0.00    -0.203 F 
ATOM     83  C   UNL A   1      39.431  26.751  28.798  1.00  0.00     0.198 A 
ATOM     84  C   UNL A   1      40.692  28.479  27.712  1.00  0.00     0.198 A 
ATOM     85  F   UNL A   1      41.401  30.361  28.936  1.00  0.00    -0.203 F 
ATOM     86  F   UNL A   1      38.834  25.552  28.761  1.00  0.00    -0.200 F 
ATOM     87  C   UNL A   1      40.043  27.256  27.660  1.00  0.00     0.200 A 
ATOM     88  F   UNL A   1      41.281  28.973  26.614  1.00  0.00    -0.200 F 
ATOM     89  F   UNL A   1      40.020  26.555  26.518  1.00  0.00    -0.200 F 
ENDBRANCH  55  79
BRANCH  67  90
ATOM     90  C   UNL A   1      44.579  28.516  35.419  1.00  0.00     0.064 A 
ATOM     91  C   UNL A   1      44.487  27.273  36.064  1.00  0.00     0.173 A 
ATOM     92  C   UNL A   1      45.850  28.952  35.013  1.00  0.00     0.173 A 
ATOM     93  F   UNL A   1      43.298  26.817  36.482  1.00  0.00    -0.203 F 
ATOM     94  C   UNL A   1      45.626  26.515  36.323  1.00  0.00     0.198 A 
ATOM     95  C   UNL A   1      46.983  28.176  35.246  1.00  0.00     0.198 A 
ATOM     96  F   UNL A   1      45.993  30.128  34.384  1.00  0.00    -0.203 F 
ATOM     97  F   UNL A   1      45.520  25.357  36.991  1.00  0.00    -0.200 F 
ATOM     98  C   UNL A   1      46.871  26.964  35.909  1.00  0.00     0.200 A 
ATOM     99  F   UNL A   1      48.183  28.605  34.834  1.00  0.00    -0.200 F 
ATOM    100  F   UNL A   1      47.966  26.233  36.160  1.00  0.00    -0.200 F 
ENDBRANCH  67  90
ENDBRANCH  41  42
ENDBRANCH  34  36
ENDBRANCH  33  34
ENDBRANCH  32  33
ENDBRANCH  31  32
ENDBRANCH  30  31
ENDBRANCH  29  30
ENDBRANCH   1  29
TORSDOF 21
ENDMDL
MODEL 3
REMARK VINA RESULT:     -10.8      1.068      7.065
REMARK SMILES CCc1cc(OC(F)(F)F)cc2c1O[C@@H](C(F)(F)F)C(C(=O)OCCOCCOCCOC(=O)c1ccc(-c3c4nc(c(-c5c(F)c(F)c(F)c(F)c5F)c5ccc([nH]5)c(-c5c(F)c(F)c(F)c(F)c5F)c5nc(c(-c6c(F)c(F)c(F)c(F)c6F)c6ccc3[nH]6)C=C5)C=C4)cc1)=C2
REMARK SMILES IDX 27 1 26 2 25 3 24 4 23 5 21 6 22 7 20 8 3 9 4 10 13 11 5 12
REMARK SMILES IDX 12 13 14 14 11 15 98 16 15 17 2 18 1 19 6 20 7 21 8 22 9 23
REMARK SMILES IDX 10 24 16 25 17 26 18 27 19 28 28 29 29 30 30 31 31 32 32 33
REMARK SMILES IDX 33 34 34 35 35 36 36 37 97 38 37 39 96 40 38 41 39 42 40 43
REMARK SMILES IDX 90 44 41 45 95 46 89 47 91 48 42 49 94 50 88 51 87 52 43 54
REMARK SMILES IDX 75 55 55 56 74 57 56 58 59 59 73 60 92 61 57 62 58 63 72 65
REMARK SMILES IDX 93 66 60 67 44 68 45 69 53 70 46 71 47 72 51 73 54 74 48 75
REMARK SMILES IDX 49 76 52 77 50 78 76 79 77 80 85 81 78 82 79 83 83 84 86 85
REMARK SMILES IDX 80 86 81 87 84 88 82 89 61 90 62 91 70 92 63 93 64 94 68 95
REMARK SMILES IDX 71 96 65 97 66 98 69 99 67 100
REMARK H PARENT 91 53 59 64
REMARK Flexibility Score: inf
ROOT
ATOM      1  C   UNL A   1      31.589  29.132  25.499  1.00  0.00     0.188 C 
ENDROOT
BRANCH   1   2
ATOM      2  O   UNL A   1      31.028  29.071  24.206  1.00  0.00    -0.376 OA
BRANCH   2   3
ATOM      3  C   UNL A   1      31.097  27.895  23.419  1.00  0.00     0.202 C 
BRANCH   3   4
ATOM      4  C   UNL A   1      30.114  26.729  23.566  1.00  0.00     0.261 C 
BRANCH   4   5
ATOM      5  O   UNL A   1      30.714  25.444  23.748  1.00  0.00    -0.460 OA
BRANCH   5   6
ATOM      6  C   UNL A   1      30.788  25.027  25.040  1.00  0.00     0.338 C 
ATOM      7  O   UNL A   1      30.109  25.408  25.965  1.00  0.00    -0.246 OA
BRANCH   6   8
ATOM      8  C   UNL A   1      31.761  23.926  25.163  1.00  0.00     0.087 C 
ATOM      9  C   UNL A   1      34.850  21.135  24.846  1.00  0.00    -0.002 A 
ATOM     10  C   UNL A   1      34.527  19.779  24.662  1.00  0.00     0.054 A 
ATOM     11  C   UNL A   1      33.808  22.065  24.935  1.00  0.00     0.131 A 
ATOM     12  C   UNL A   1      33.197  19.366  24.544  1.00  0.00     0.130 A 
ATOM     13  C   UNL A   1      32.468  21.664  24.822  1.00  0.00     0.021 A 
ATOM     14  O   UNL A   1      34.146  23.390  25.062  1.00  0.00    -0.475 OA
ATOM     15  C   UNL A   1      32.171  20.312  24.642  1.00  0.00     0.058 A 
ATOM     16  C   UNL A   1      31.417  22.683  24.789  1.00  0.00     0.027 C 
ATOM     17  C   UNL A   1      33.142  24.217  25.702  1.00  0.00     0.316 C 
BRANCH   9  18
ATOM     18  C   UNL A   1      36.302  21.551  24.927  1.00  0.00     0.036 C 
ATOM     19  C   UNL A   1      37.248  20.359  24.889  1.00  0.00     0.009 C 
ENDBRANCH   9  18
BRANCH  12  20
ATOM     20  O   UNL A   1      32.775  18.083  24.332  1.00  0.00    -0.406 OA
BRANCH  20  21
ATOM     21  C   UNL A   1      32.867  17.181  25.425  1.00  0.00     0.573 C 
ATOM     22  F   UNL A   1      31.983  16.168  25.302  1.00  0.00    -0.132 F 
ATOM     23  F   UNL A   1      34.116  16.678  25.531  1.00  0.00    -0.132 F 
ATOM     24  F   UNL A   1      32.585  17.848  26.564  1.00  0.00    -0.132 F 
ENDBRANCH  20  21
ENDBRANCH  12  20
BRANCH  17  25
ATOM     25  C   UNL A   1      33.647  25.670  25.694  1.00  0.00     0.430 C 
ATOM     26  F   UNL A   1      33.395  26.276  24.510  1.00  0.00    -0.167 F 
ATOM     27  F   UNL A   1      32.977  26.401  26.626  1.00  0.00    -0.167 F 
ATOM     28  F   UNL A   1      34.959  25.784  25.973  1.00  0.00    -0.167 F 
ENDBRANCH  17  25
ENDBRANCH   6   8
ENDBRANCH   5   6
ENDBRANCH   4   5
ENDBRANCH   3   4
ENDBRANCH   2   3
ENDBRANCH   1   2
BRANCH   1  29
ATOM     29  C   UNL A   1      33.052  29.567  25.722  1.00  0.00     0.188 C 
BRANCH  29  30
ATOM     30  O   UNL A   1      33.568  29.796  27.017  1.00  0.00    -0.376 OA
BRANCH  30  31
ATOM     31  C   UNL A   1      33.945  31.104  27.410  1.00  0.00     0.202 C 
BRANCH  31  32
ATOM     32  C   UNL A   1      32.895  32.184  27.685  1.00  0.00     0.261 C 
BRANCH  32  33
ATOM     33  O   UNL A   1      33.341  33.528  27.463  1.00  0.00    -0.460 OA
BRANCH  33  34
ATOM     34  C   UNL A   1      33.352  34.308  28.570  1.00  0.00     0.338 C 
ATOM     35  O   UNL A   1      32.475  35.060  28.959  1.00  0.00    -0.246 OA
BRANCH  34  36
ATOM     36  C   UNL A   1      34.544  34.008  29.383  1.00  0.00     0.060 A 
ATOM     37  C   UNL A   1      35.798  34.274  28.821  1.00  0.00     0.016 A 
ATOM     38  C   UNL A   1      34.438  33.391  30.632  1.00  0.00     0.016 A 
ATOM     39  C   UNL A   1      36.955  33.884  29.488  1.00  0.00     0.010 A 
ATOM     40  C   UNL A   1      35.603  32.985  31.293  1.00  0.00     0.010 A 
ATOM     41  C   UNL A   1      36.863  33.197  30.707  1.00  0.00    -0.014 A 
BRANCH  41  42
ATOM     42  C   UNL A   1      38.084  32.567  31.265  1.00  0.00     0.031 A 
ATOM     43  C   UNL A   1      38.620  31.318  30.620  1.00  0.00     0.074 A 
ATOM     44  C   UNL A   1      38.746  33.135  32.287  1.00  0.00     0.049 A 
ATOM     45  N   UNL A   1      39.705  30.639  30.896  1.00  0.00    -0.248 NA
ATOM     46  C   UNL A   1      37.828  30.763  29.512  1.00  0.00     0.031 C 
ATOM     47  C   UNL A   1      38.347  34.359  32.977  1.00  0.00     0.029 A 
ATOM     48  N   UNL A   1      39.904  32.753  32.917  1.00  0.00    -0.354 N 
ATOM     49  C   UNL A   1      39.730  29.585  29.992  1.00  0.00     0.074 A 
ATOM     50  C   UNL A   1      38.535  29.691  29.184  1.00  0.00     0.031 C 
ATOM     51  C   UNL A   1      39.246  34.628  33.939  1.00  0.00     0.029 A 
ATOM     52  C   UNL A   1      40.273  33.587  33.942  1.00  0.00     0.049 A 
ATOM     53  H   UNL A   1      40.422  31.956  32.657  1.00  0.00     0.167 HD
ATOM     54  C   UNL A   1      40.673  28.625  29.839  1.00  0.00     0.037 A 
ATOM     55  C   UNL A   1      41.318  33.512  34.788  1.00  0.00     0.037 A 
ATOM     56  C   UNL A   1      41.859  28.511  30.646  1.00  0.00     0.049 A 
ATOM     57  C   UNL A   1      42.319  32.396  34.637  1.00  0.00     0.074 A 
ATOM     58  C   UNL A   1      42.880  27.581  30.555  1.00  0.00     0.029 A 
ATOM     59  N   UNL A   1      42.177  29.351  31.703  1.00  0.00    -0.354 N 
ATOM     60  N   UNL A   1      42.360  31.431  33.751  1.00  0.00    -0.248 NA
ATOM     61  C   UNL A   1      43.431  32.371  35.599  1.00  0.00     0.031 C 
ATOM     62  C   UNL A   1      43.792  27.829  31.588  1.00  0.00     0.029 A 
ATOM     63  C   UNL A   1      43.367  28.945  32.288  1.00  0.00     0.049 A 
ATOM     64  H   UNL A   1      41.639  30.121  31.994  1.00  0.00     0.167 HD
ATOM     65  C   UNL A   1      43.509  30.702  34.031  1.00  0.00     0.074 A 
ATOM     66  C   UNL A   1      44.148  31.348  35.158  1.00  0.00     0.031 C 
ATOM     67  C   UNL A   1      43.993  29.597  33.409  1.00  0.00     0.037 A 
BRANCH  54  68
ATOM     68  C   UNL A   1      40.448  27.604  28.762  1.00  0.00     0.064 A 
ATOM     69  C   UNL A   1      41.064  27.712  27.506  1.00  0.00     0.173 A 
ATOM     70  C   UNL A   1      39.629  26.490  28.999  1.00  0.00     0.173 A 
ATOM     71  F   UNL A   1      41.843  28.766  27.225  1.00  0.00    -0.203 F 
ATOM     72  C   UNL A   1      40.851  26.752  26.520  1.00  0.00     0.198 A 
ATOM     73  C   UNL A   1      39.439  25.518  28.020  1.00  0.00     0.198 A 
ATOM     74  F   UNL A   1      39.019  26.339  30.184  1.00  0.00    -0.203 F 
ATOM     75  F   UNL A   1      41.415  26.898  25.313  1.00  0.00    -0.200 F 
ATOM     76  C   UNL A   1      40.044  25.654  26.779  1.00  0.00     0.200 A 
ATOM     77  F   UNL A   1      38.669  24.452  28.275  1.00  0.00    -0.200 F 
ATOM     78  F   UNL A   1      39.845  24.729  25.831  1.00  0.00    -0.200 F 
ENDBRANCH  54  68
BRANCH  55  79
ATOM     79  C   UNL A   1      41.478  34.529  35.860  1.00  0.00     0.064 A 
ATOM     80  C   UNL A   1      40.793  34.414  37.077  1.00  0.00     0.173 A 
ATOM     81  C   UNL A   1      42.296  35.653  35.675  1.00  0.00     0.173 A 
ATOM     82  F   UNL A   1      39.975  33.372  37.287  1.00  0.00    -0.203 F 
ATOM     83  C   UNL A   1      40.904  35.393  38.060  1.00  0.00     0.198 A 
ATOM     84  C   UNL A   1      42.428  36.619  36.670  1.00  0.00     0.198 A 
ATOM     85  F   UNL A   1      42.967  35.814  34.525  1.00  0.00    -0.203 F 
ATOM     86  F   UNL A   1      40.196  35.286  39.192  1.00  0.00    -0.200 F 
ATOM     87  C   UNL A   1      41.726  36.493  37.859  1.00  0.00     0.200 A 
ATOM     88  F   UNL A   1      43.226  37.677  36.472  1.00  0.00    -0.200 F 
ATOM     89  F   UNL A   1      41.827  37.438  38.803  1.00  0.00    -0.200 F 
ENDBRANCH  55  79
BRANCH  67  90
ATOM     90  C   UNL A   1      45.291  29.036  33.918  1.00  0.00     0.064 A 
ATOM     91  C   UNL A   1      45.332  28.101  34.963  1.00  0.00     0.173 A 
ATOM     92  C   UNL A   1      46.508  29.422  33.335  1.00  0.00     0.173 A 
ATOM     93  F   UNL A   1      44.198  27.709  35.562  1.00  0.00    -0.203 F 
ATOM     94  C   UNL A   1      46.545  27.602  35.430  1.00  0.00     0.198 A 
ATOM     95  C   UNL A   1      47.717  28.896  33.784  1.00  0.00     0.198 A 
ATOM     96  F   UNL A   1      46.525  30.305  32.325  1.00  0.00    -0.203 F 
ATOM     97  F   UNL A   1      46.563  26.753  36.468  1.00  0.00    -0.200 F 
ATOM     98  C   UNL A   1      47.735  27.994  34.837  1.00  0.00     0.200 A 
ATOM     99  F   UNL A   1      48.865  29.267  33.201  1.00  0.00    -0.200 F 
ATOM    100  F   UNL A   1      48.902  27.513  35.288  1.00  0.00    -0.200 F 
ENDBRANCH  67  90
ENDBRANCH  41  42
ENDBRANCH  34  36
ENDBRANCH  33  34
ENDBRANCH  32  33
ENDBRANCH  31  32
ENDBRANCH  30  31
ENDBRANCH  29  30
ENDBRANCH   1  29
TORSDOF 21
ENDMDL
