MODEL 1
REMARK VINA RESULT:     -11.0      0.000      0.000
REMARK SMILES CC(C)CCc1cc2c(cc1Cl)C=C(C(=O)OCCOCCOCCOC(=O)c1ccc(-c3c4nc(c(-c5c(F)c(F)c(F)c(F)c5F)c5ccc([nH]5)c(-c5c(F)c(F)c(F)c(F)c5F)c5nc(c(-c6c(F)c(F)c(F)c(F)c6F)c6ccc3[nH]6)C=C5)C=C4)cc1)[C@@H](C(F)(F)F)O2
REMARK SMILES IDX 21 1 20 2 19 3 18 4 17 5 15 6 16 7 14 8 6 9 7 10 11 11 8 12
REMARK SMILES IDX 10 13 12 14 9 15 97 16 13 17 92 18 5 19 4 20 2 21 1 22 3 23
REMARK SMILES IDX 93 24 94 25 95 26 96 27 22 28 23 29 24 30 25 31 26 32 27 33
REMARK SMILES IDX 28 34 29 35 30 36 91 37 31 38 90 39 32 40 33 41 34 42 84 43
REMARK SMILES IDX 35 44 89 45 83 46 85 47 36 48 88 49 82 50 81 51 37 53 69 54
REMARK SMILES IDX 49 55 68 56 50 57 53 58 67 59 86 60 51 61 52 62 66 64 87 65
REMARK SMILES IDX 54 66 38 67 39 68 47 69 40 70 41 71 45 72 48 73 42 74 43 75
REMARK SMILES IDX 46 76 44 77 70 78 71 79 79 80 72 81 73 82 77 83 80 84 74 85
REMARK SMILES IDX 75 86 78 87 76 88 55 89 56 90 64 91 57 92 58 93 62 94 65 95
REMARK SMILES IDX 59 96 60 97 63 98 61 99
REMARK H PARENT 85 52 53 63
REMARK Flexibility Score: inf
ROOT
ATOM      1  C   UNL A   1      34.226  32.300  28.535  1.00  0.00     0.188 C 
ENDROOT
BRANCH   1   2
ATOM      2  O   UNL A   1      34.426  31.338  27.528  1.00  0.00    -0.376 OA
BRANCH   2   3
ATOM      3  C   UNL A   1      33.473  30.319  27.277  1.00  0.00     0.202 C 
BRANCH   3   4
ATOM      4  C   UNL A   1      32.694  30.121  25.964  1.00  0.00     0.261 C 
BRANCH   4   5
ATOM      5  O   UNL A   1      32.176  28.814  25.705  1.00  0.00    -0.460 OA
BRANCH   5   6
ATOM      6  C   UNL A   1      32.987  28.019  24.968  1.00  0.00     0.338 C 
ATOM      7  O   UNL A   1      33.920  28.376  24.266  1.00  0.00    -0.246 OA
BRANCH   6   8
ATOM      8  C   UNL A   1      32.711  26.604  25.274  1.00  0.00     0.087 C 
ATOM      9  C   UNL A   1      33.202  21.613  25.623  1.00  0.00    -0.026 A 
ATOM     10  C   UNL A   1      32.109  22.513  25.673  1.00  0.00     0.052 A 
ATOM     11  C   UNL A   1      34.493  22.168  25.611  1.00  0.00     0.045 A 
ATOM     12  C   UNL A   1      32.294  23.899  25.659  1.00  0.00     0.128 A 
ATOM     13  C   UNL A   1      34.675  23.555  25.657  1.00  0.00     0.032 A 
ATOM     14  Cl  UNL A   1      35.950  21.258  25.444  1.00  0.00    -0.084 Cl
ATOM     15  C   UNL A   1      33.581  24.418  25.636  1.00  0.00     0.019 A 
ATOM     16  O   UNL A   1      31.167  24.675  25.639  1.00  0.00    -0.475 OA
ATOM     17  C   UNL A   1      33.792  25.840  25.472  1.00  0.00     0.027 C 
ATOM     18  C   UNL A   1      31.298  26.095  25.330  1.00  0.00     0.316 C 
BRANCH   9  19
ATOM     19  C   UNL A   1      32.851  20.146  25.443  1.00  0.00     0.037 C 
BRANCH  19  20
ATOM     20  C   UNL A   1      33.042  19.437  24.095  1.00  0.00     0.008 C 
BRANCH  20  21
ATOM     21  C   UNL A   1      33.020  17.900  24.154  1.00  0.00    -0.017 C 
ATOM     22  C   UNL A   1      34.401  17.311  23.868  1.00  0.00     0.007 C 
ATOM     23  C   UNL A   1      32.528  17.438  25.528  1.00  0.00     0.007 C 
ENDBRANCH  20  21
ENDBRANCH  19  20
ENDBRANCH   9  19
BRANCH  18  24
ATOM     24  C   UNL A   1      30.530  26.399  24.036  1.00  0.00     0.430 C 
ATOM     25  F   UNL A   1      30.014  27.650  24.048  1.00  0.00    -0.167 F 
ATOM     26  F   UNL A   1      31.337  26.321  22.951  1.00  0.00    -0.167 F 
ATOM     27  F   UNL A   1      29.507  25.535  23.842  1.00  0.00    -0.167 F 
ENDBRANCH  18  24
ENDBRANCH   6   8
ENDBRANCH   5   6
ENDBRANCH   4   5
ENDBRANCH   3   4
ENDBRANCH   2   3
ENDBRANCH   1   2
BRANCH   1  28
ATOM     28  C   UNL A   1      35.095  33.575  28.523  1.00  0.00     0.188 C 
BRANCH  28  29
ATOM     29  O   UNL A   1      34.945  34.555  29.528  1.00  0.00    -0.376 OA
BRANCH  29  30
ATOM     30  C   UNL A   1      34.154  34.271  30.674  1.00  0.00     0.202 C 
BRANCH  30  31
ATOM     31  C   UNL A   1      34.760  33.938  32.049  1.00  0.00     0.261 C 
BRANCH  31  32
ATOM     32  O   UNL A   1      35.053  32.558  32.298  1.00  0.00    -0.460 OA
BRANCH  32  33
ATOM     33  C   UNL A   1      36.127  32.325  33.098  1.00  0.00     0.338 C 
ATOM     34  O   UNL A   1      36.189  32.425  34.304  1.00  0.00    -0.246 OA
BRANCH  33  35
ATOM     35  C   UNL A   1      37.195  31.712  32.279  1.00  0.00     0.060 A 
ATOM     36  C   UNL A   1      37.074  31.639  30.893  1.00  0.00     0.016 A 
ATOM     37  C   UNL A   1      38.335  31.209  32.923  1.00  0.00     0.016 A 
ATOM     38  C   UNL A   1      38.114  31.084  30.144  1.00  0.00     0.010 A 
ATOM     39  C   UNL A   1      39.365  30.634  32.175  1.00  0.00     0.010 A 
ATOM     40  C   UNL A   1      39.272  30.594  30.777  1.00  0.00    -0.014 A 
BRANCH  40  41
ATOM     41  C   UNL A   1      40.453  30.221  29.961  1.00  0.00     0.031 A 
ATOM     42  C   UNL A   1      41.579  31.173  29.700  1.00  0.00     0.074 A 
ATOM     43  C   UNL A   1      40.488  28.977  29.447  1.00  0.00     0.049 A 
ATOM     44  N   UNL A   1      42.713  30.951  29.081  1.00  0.00    -0.248 NA
ATOM     45  C   UNL A   1      41.417  32.548  30.189  1.00  0.00     0.031 C 
ATOM     46  C   UNL A   1      39.430  27.979  29.609  1.00  0.00     0.029 A 
ATOM     47  N   UNL A   1      41.444  28.336  28.702  1.00  0.00    -0.354 N 
ATOM     48  C   UNL A   1      43.413  32.147  29.127  1.00  0.00     0.074 A 
ATOM     49  C   UNL A   1      42.554  33.108  29.791  1.00  0.00     0.031 C 
ATOM     50  C   UNL A   1      39.808  26.841  29.011  1.00  0.00     0.029 A 
ATOM     51  C   UNL A   1      41.121  27.036  28.401  1.00  0.00     0.049 A 
ATOM     52  H   UNL A   1      42.280  28.765  28.411  1.00  0.00     0.167 HD
ATOM     53  C   UNL A   1      44.665  32.404  28.676  1.00  0.00     0.037 A 
ATOM     54  C   UNL A   1      41.806  26.101  27.718  1.00  0.00     0.037 A 
ATOM     55  C   UNL A   1      45.504  31.445  27.997  1.00  0.00     0.049 A 
ATOM     56  C   UNL A   1      43.171  26.432  27.185  1.00  0.00     0.074 A 
ATOM     57  C   UNL A   1      46.799  31.609  27.533  1.00  0.00     0.029 A 
ATOM     58  N   UNL A   1      45.129  30.149  27.671  1.00  0.00    -0.354 N 
ATOM     59  N   UNL A   1      43.858  27.541  27.305  1.00  0.00    -0.248 NA
ATOM     60  C   UNL A   1      43.861  25.377  26.430  1.00  0.00     0.031 C 
ATOM     61  C   UNL A   1      47.185  30.436  26.877  1.00  0.00     0.029 A 
ATOM     62  C   UNL A   1      46.156  29.515  26.986  1.00  0.00     0.049 A 
ATOM     63  H   UNL A   1      44.262  29.739  27.894  1.00  0.00     0.167 HD
ATOM     64  C   UNL A   1      45.068  27.312  26.664  1.00  0.00     0.074 A 
ATOM     65  C   UNL A   1      45.029  25.950  26.173  1.00  0.00     0.031 C 
ATOM     66  C   UNL A   1      46.113  28.158  26.498  1.00  0.00     0.037 A 
BRANCH  53  67
ATOM     67  C   UNL A   1      45.230  33.777  28.907  1.00  0.00     0.064 A 
ATOM     68  C   UNL A   1      44.940  34.839  28.035  1.00  0.00     0.173 A 
ATOM     69  C   UNL A   1      45.977  34.064  30.061  1.00  0.00     0.173 A 
ATOM     70  F   UNL A   1      44.231  34.621  26.918  1.00  0.00    -0.203 F 
ATOM     71  C   UNL A   1      45.386  36.131  28.305  1.00  0.00     0.198 A 
ATOM     72  C   UNL A   1      46.397  35.362  30.341  1.00  0.00     0.198 A 
ATOM     73  F   UNL A   1      46.270  33.090  30.935  1.00  0.00    -0.203 F 
ATOM     74  F   UNL A   1      45.117  37.124  27.446  1.00  0.00    -0.200 F 
ATOM     75  C   UNL A   1      46.105  36.393  29.462  1.00  0.00     0.200 A 
ATOM     76  F   UNL A   1      47.072  35.616  31.470  1.00  0.00    -0.200 F 
ATOM     77  F   UNL A   1      46.512  37.641  29.732  1.00  0.00    -0.200 F 
ENDBRANCH  53  67
BRANCH  54  78
ATOM     78  C   UNL A   1      41.219  24.747  27.544  1.00  0.00     0.064 A 
ATOM     79  C   UNL A   1      40.138  24.540  26.677  1.00  0.00     0.173 A 
ATOM     80  C   UNL A   1      41.745  23.633  28.212  1.00  0.00     0.173 A 
ATOM     81  F   UNL A   1      39.590  25.579  26.029  1.00  0.00    -0.203 F 
ATOM     82  C   UNL A   1      39.598  23.269  26.492  1.00  0.00     0.198 A 
ATOM     83  C   UNL A   1      41.225  22.357  28.003  1.00  0.00     0.198 A 
ATOM     84  F   UNL A   1      42.785  23.778  29.046  1.00  0.00    -0.203 F 
ATOM     85  F   UNL A   1      38.542  23.103  25.685  1.00  0.00    -0.200 F 
ATOM     86  C   UNL A   1      40.148  22.178  27.148  1.00  0.00     0.200 A 
ATOM     87  F   UNL A   1      41.771  21.303  28.624  1.00  0.00    -0.200 F 
ATOM     88  F   UNL A   1      39.638  20.954  26.958  1.00  0.00    -0.200 F 
ENDBRANCH  54  78
BRANCH  66  89
ATOM     89  C   UNL A   1      47.321  27.638  25.770  1.00  0.00     0.064 A 
ATOM     90  C   UNL A   1      47.429  27.716  24.373  1.00  0.00     0.173 A 
ATOM     91  C   UNL A   1      48.408  27.105  26.480  1.00  0.00     0.173 A 
ATOM     92  F   UNL A   1      46.412  28.202  23.644  1.00  0.00    -0.203 F 
ATOM     93  C   UNL A   1      48.570  27.265  23.714  1.00  0.00     0.198 A 
ATOM     94  C   UNL A   1      49.561  26.686  25.821  1.00  0.00     0.198 A 
ATOM     95  F   UNL A   1      48.362  27.011  27.818  1.00  0.00    -0.203 F 
ATOM     96  F   UNL A   1      48.631  27.311  22.376  1.00  0.00    -0.200 F 
ATOM     97  C   UNL A   1      49.638  26.760  24.440  1.00  0.00     0.200 A 
ATOM     98  F   UNL A   1      50.599  26.213  26.525  1.00  0.00    -0.200 F 
ATOM     99  F   UNL A   1      50.742  26.340  23.805  1.00  0.00    -0.200 F 
ENDBRANCH  66  89
ENDBRANCH  40  41
ENDBRANCH  33  35
ENDBRANCH  32  33
ENDBRANCH  31  32
ENDBRANCH  30  31
ENDBRANCH  29  30
ENDBRANCH  28  29
ENDBRANCH   1  28
TORSDOF 21
ENDMDL
MODEL 2
REMARK VINA RESULT:     -11.0      4.925      9.111
REMARK SMILES CC(C)CCc1cc2c(cc1Cl)C=C(C(=O)OCCOCCOCCOC(=O)c1ccc(-c3c4nc(c(-c5c(F)c(F)c(F)c(F)c5F)c5ccc([nH]5)c(-c5c(F)c(F)c(F)c(F)c5F)c5nc(c(-c6c(F)c(F)c(F)c(F)c6F)c6ccc3[nH]6)C=C5)C=C4)cc1)[C@@H](C(F)(F)F)O2
REMARK SMILES IDX 21 1 20 2 19 3 18 4 17 5 15 6 16 7 14 8 6 9 7 10 11 11 8 12
REMARK SMILES IDX 10 13 12 14 9 15 97 16 13 17 92 18 5 19 4 20 2 21 1 22 3 23
REMARK SMILES IDX 93 24 94 25 95 26 96 27 22 28 23 29 24 30 25 31 26 32 27 33
REMARK SMILES IDX 28 34 29 35 30 36 91 37 31 38 90 39 32 40 33 41 34 42 84 43
REMARK SMILES IDX 35 44 89 45 83 46 85 47 36 48 88 49 82 50 81 51 37 53 69 54
REMARK SMILES IDX 49 55 68 56 50 57 53 58 67 59 86 60 51 61 52 62 66 64 87 65
REMARK SMILES IDX 54 66 38 67 39 68 47 69 40 70 41 71 45 72 48 73 42 74 43 75
REMARK SMILES IDX 46 76 44 77 70 78 71 79 79 80 72 81 73 82 77 83 80 84 74 85
REMARK SMILES IDX 75 86 78 87 76 88 55 89 56 90 64 91 57 92 58 93 62 94 65 95
REMARK SMILES IDX 59 96 60 97 63 98 61 99
REMARK H PARENT 85 52 53 63
REMARK Flexibility Score: inf
ROOT
ATOM      1  C   UNL A   1      34.562  31.929  28.771  1.00  0.00     0.188 C 
ENDROOT
BRANCH   1   2
ATOM      2  O   UNL A   1      34.625  30.781  27.959  1.00  0.00    -0.376 OA
BRANCH   2   3
ATOM      3  C   UNL A   1      33.628  30.504  26.990  1.00  0.00     0.202 C 
BRANCH   3   4
ATOM      4  C   UNL A   1      32.698  29.276  26.983  1.00  0.00     0.261 C 
BRANCH   4   5
ATOM      5  O   UNL A   1      33.319  27.989  26.979  1.00  0.00    -0.460 OA
BRANCH   5   6
ATOM      6  C   UNL A   1      33.457  27.431  25.754  1.00  0.00     0.338 C 
ATOM      7  O   UNL A   1      33.989  27.932  24.776  1.00  0.00    -0.246 OA
BRANCH   6   8
ATOM      8  C   UNL A   1      33.032  26.020  25.799  1.00  0.00     0.087 C 
ATOM      9  C   UNL A   1      32.961  21.035  25.156  1.00  0.00    -0.026 A 
ATOM     10  C   UNL A   1      31.980  22.017  25.440  1.00  0.00     0.052 A 
ATOM     11  C   UNL A   1      34.305  21.442  25.174  1.00  0.00     0.045 A 
ATOM     12  C   UNL A   1      32.322  23.352  25.681  1.00  0.00     0.128 A 
ATOM     13  C   UNL A   1      34.647  22.766  25.475  1.00  0.00     0.032 A 
ATOM     14  Cl  UNL A   1      35.641  20.435  24.750  1.00  0.00    -0.084 Cl
ATOM     15  C   UNL A   1      33.658  23.727  25.683  1.00  0.00     0.019 A 
ATOM     16  O   UNL A   1      31.292  24.230  25.877  1.00  0.00    -0.475 OA
ATOM     17  C   UNL A   1      34.024  25.123  25.783  1.00  0.00     0.027 C 
ATOM     18  C   UNL A   1      31.573  25.661  25.839  1.00  0.00     0.316 C 
BRANCH   9  19
ATOM     19  C   UNL A   1      32.438  19.677  24.718  1.00  0.00     0.037 C 
BRANCH  19  20
ATOM     20  C   UNL A   1      32.870  18.386  25.427  1.00  0.00     0.008 C 
BRANCH  20  21
ATOM     21  C   UNL A   1      33.162  17.195  24.498  1.00  0.00    -0.017 C 
ATOM     22  C   UNL A   1      32.940  17.562  23.031  1.00  0.00     0.007 C 
ATOM     23  C   UNL A   1      34.601  16.714  24.705  1.00  0.00     0.007 C 
ENDBRANCH  20  21
ENDBRANCH  19  20
ENDBRANCH   9  19
BRANCH  18  24
ATOM     24  C   UNL A   1      30.797  26.293  24.674  1.00  0.00     0.430 C 
ATOM     25  F   UNL A   1      31.374  26.009  23.482  1.00  0.00    -0.167 F 
ATOM     26  F   UNL A   1      29.527  25.826  24.613  1.00  0.00    -0.167 F 
ATOM     27  F   UNL A   1      30.728  27.639  24.785  1.00  0.00    -0.167 F 
ENDBRANCH  18  24
ENDBRANCH   6   8
ENDBRANCH   5   6
ENDBRANCH   4   5
ENDBRANCH   3   4
ENDBRANCH   2   3
ENDBRANCH   1   2
BRANCH   1  28
ATOM     28  C   UNL A   1      34.613  33.316  28.096  1.00  0.00     0.188 C 
BRANCH  28  29
ATOM     29  O   UNL A   1      33.555  34.235  28.264  1.00  0.00    -0.376 OA
BRANCH  29  30
ATOM     30  C   UNL A   1      33.820  35.516  28.819  1.00  0.00     0.202 C 
BRANCH  30  31
ATOM     31  C   UNL A   1      32.810  36.273  29.699  1.00  0.00     0.261 C 
BRANCH  31  32
ATOM     32  O   UNL A   1      33.218  36.545  31.046  1.00  0.00    -0.460 OA
BRANCH  32  33
ATOM     33  C   UNL A   1      32.791  35.650  31.977  1.00  0.00     0.338 C 
ATOM     34  O   UNL A   1      31.650  35.319  32.217  1.00  0.00    -0.246 OA
BRANCH  33  35
ATOM     35  C   UNL A   1      33.973  34.961  32.539  1.00  0.00     0.060 A 
ATOM     36  C   UNL A   1      33.844  33.718  33.155  1.00  0.00     0.016 A 
ATOM     37  C   UNL A   1      35.227  35.580  32.435  1.00  0.00     0.016 A 
ATOM     38  C   UNL A   1      34.984  33.078  33.646  1.00  0.00     0.010 A 
ATOM     39  C   UNL A   1      36.363  34.948  32.946  1.00  0.00     0.010 A 
ATOM     40  C   UNL A   1      36.251  33.680  33.530  1.00  0.00    -0.014 A 
BRANCH  40  41
ATOM     41  C   UNL A   1      37.469  32.894  33.847  1.00  0.00     0.031 A 
ATOM     42  C   UNL A   1      38.010  31.847  32.923  1.00  0.00     0.074 A 
ATOM     43  C   UNL A   1      38.090  33.150  35.014  1.00  0.00     0.049 A 
ATOM     44  N   UNL A   1      39.113  31.149  33.032  1.00  0.00    -0.248 NA
ATOM     45  C   UNL A   1      37.215  31.537  31.728  1.00  0.00     0.031 C 
ATOM     46  C   UNL A   1      37.631  34.124  36.005  1.00  0.00     0.029 A 
ATOM     47  N   UNL A   1      39.236  32.632  35.558  1.00  0.00    -0.354 N 
ATOM     48  C   UNL A   1      39.163  30.337  31.910  1.00  0.00     0.074 A 
ATOM     49  C   UNL A   1      37.951  30.590  31.156  1.00  0.00     0.031 C 
ATOM     50  C   UNL A   1      38.505  34.158  37.021  1.00  0.00     0.029 A 
ATOM     51  C   UNL A   1      39.569  33.190  36.768  1.00  0.00     0.049 A 
ATOM     52  H   UNL A   1      39.770  31.927  35.124  1.00  0.00     0.167 HD
ATOM     53  C   UNL A   1      40.144  29.478  31.538  1.00  0.00     0.037 A 
ATOM     54  C   UNL A   1      40.616  32.957  37.579  1.00  0.00     0.037 A 
ATOM     55  C   UNL A   1      41.339  29.217  32.307  1.00  0.00     0.049 A 
ATOM     56  C   UNL A   1      41.662  31.962  37.164  1.00  0.00     0.074 A 
ATOM     57  C   UNL A   1      42.401  28.387  31.991  1.00  0.00     0.029 A 
ATOM     58  N   UNL A   1      41.623  29.769  33.548  1.00  0.00    -0.354 N 
ATOM     59  N   UNL A   1      41.741  31.258  36.062  1.00  0.00    -0.248 NA
ATOM     60  C   UNL A   1      42.770  31.736  38.102  1.00  0.00     0.031 C 
ATOM     61  C   UNL A   1      43.299  28.391  33.064  1.00  0.00     0.029 A 
ATOM     62  C   UNL A   1      42.829  29.273  34.024  1.00  0.00     0.049 A 
ATOM     63  H   UNL A   1      41.053  30.417  34.021  1.00  0.00     0.167 HD
ATOM     64  C   UNL A   1      42.916  30.524  36.160  1.00  0.00     0.074 A 
ATOM     65  C   UNL A   1      43.527  30.884  37.422  1.00  0.00     0.031 C 
ATOM     66  C   UNL A   1      43.435  29.633  35.282  1.00  0.00     0.037 A 
BRANCH  53  67
ATOM     67  C   UNL A   1      39.991  28.754  30.230  1.00  0.00     0.064 A 
ATOM     68  C   UNL A   1      40.509  29.287  29.039  1.00  0.00     0.173 A 
ATOM     69  C   UNL A   1      39.419  27.473  30.179  1.00  0.00     0.173 A 
ATOM     70  F   UNL A   1      41.066  30.507  29.031  1.00  0.00    -0.203 F 
ATOM     71  C   UNL A   1      40.449  28.569  27.846  1.00  0.00     0.198 A 
ATOM     72  C   UNL A   1      39.387  26.747  28.991  1.00  0.00     0.198 A 
ATOM     73  F   UNL A   1      38.922  26.910  31.291  1.00  0.00    -0.203 F 
ATOM     74  F   UNL A   1      40.930  29.108  26.717  1.00  0.00    -0.200 F 
ATOM     75  C   UNL A   1      39.899  27.296  27.826  1.00  0.00     0.200 A 
ATOM     76  F   UNL A   1      38.873  25.509  28.978  1.00  0.00    -0.200 F 
ATOM     77  F   UNL A   1      39.865  26.597  26.683  1.00  0.00    -0.200 F 
ENDBRANCH  53  67
BRANCH  54  78
ATOM     78  C   UNL A   1      40.741  33.721  38.847  1.00  0.00     0.064 A 
ATOM     79  C   UNL A   1      41.534  34.874  38.917  1.00  0.00     0.173 A 
ATOM     80  C   UNL A   1      40.046  33.335  40.002  1.00  0.00     0.173 A 
ATOM     81  F   UNL A   1      42.231  35.273  37.842  1.00  0.00    -0.203 F 
ATOM     82  C   UNL A   1      41.636  35.606  40.097  1.00  0.00     0.198 A 
ATOM     83  C   UNL A   1      40.123  34.085  41.173  1.00  0.00     0.198 A 
ATOM     84  F   UNL A   1      39.267  32.244  39.984  1.00  0.00    -0.203 F 
ATOM     85  F   UNL A   1      42.429  36.685  40.147  1.00  0.00    -0.200 F 
ATOM     86  C   UNL A   1      40.923  35.217  41.221  1.00  0.00     0.200 A 
ATOM     87  F   UNL A   1      39.418  33.716  42.251  1.00  0.00    -0.200 F 
ATOM     88  F   UNL A   1      41.010  35.930  42.351  1.00  0.00    -0.200 F 
ENDBRANCH  54  78
BRANCH  66  89
ATOM     89  C   UNL A   1      44.746  28.989  35.637  1.00  0.00     0.064 A 
ATOM     90  C   UNL A   1      44.803  27.773  36.335  1.00  0.00     0.173 A 
ATOM     91  C   UNL A   1      45.959  29.565  35.228  1.00  0.00     0.173 A 
ATOM     92  F   UNL A   1      43.675  27.187  36.764  1.00  0.00    -0.203 F 
ATOM     93  C   UNL A   1      46.024  27.168  36.625  1.00  0.00     0.198 A 
ATOM     94  C   UNL A   1      47.175  28.941  35.489  1.00  0.00     0.198 A 
ATOM     95  F   UNL A   1      45.963  30.725  34.553  1.00  0.00    -0.203 F 
ATOM     96  F   UNL A   1      46.055  26.028  37.329  1.00  0.00    -0.200 F 
ATOM     97  C   UNL A   1      47.208  27.747  36.192  1.00  0.00     0.200 A 
ATOM     98  F   UNL A   1      48.317  29.494  35.057  1.00  0.00    -0.200 F 
ATOM     99  F   UNL A   1      48.381  27.156  36.458  1.00  0.00    -0.200 F 
ENDBRANCH  66  89
ENDBRANCH  40  41
ENDBRANCH  33  35
ENDBRANCH  32  33
ENDBRANCH  31  32
ENDBRANCH  30  31
ENDBRANCH  29  30
ENDBRANCH  28  29
ENDBRANCH   1  28
TORSDOF 21
ENDMDL
MODEL 3
REMARK VINA RESULT:     -10.9      5.347     10.905
REMARK SMILES CC(C)CCc1cc2c(cc1Cl)C=C(C(=O)OCCOCCOCCOC(=O)c1ccc(-c3c4nc(c(-c5c(F)c(F)c(F)c(F)c5F)c5ccc([nH]5)c(-c5c(F)c(F)c(F)c(F)c5F)c5nc(c(-c6c(F)c(F)c(F)c(F)c6F)c6ccc3[nH]6)C=C5)C=C4)cc1)[C@@H](C(F)(F)F)O2
REMARK SMILES IDX 21 1 20 2 19 3 18 4 17 5 15 6 16 7 14 8 6 9 7 10 11 11 8 12
REMARK SMILES IDX 10 13 12 14 9 15 97 16 13 17 92 18 5 19 4 20 2 21 1 22 3 23
REMARK SMILES IDX 93 24 94 25 95 26 96 27 22 28 23 29 24 30 25 31 26 32 27 33
REMARK SMILES IDX 28 34 29 35 30 36 91 37 31 38 90 39 32 40 33 41 34 42 84 43
REMARK SMILES IDX 35 44 89 45 83 46 85 47 36 48 88 49 82 50 81 51 37 53 69 54
REMARK SMILES IDX 49 55 68 56 50 57 53 58 67 59 86 60 51 61 52 62 66 64 87 65
REMARK SMILES IDX 54 66 38 67 39 68 47 69 40 70 41 71 45 72 48 73 42 74 43 75
REMARK SMILES IDX 46 76 44 77 70 78 71 79 79 80 72 81 73 82 77 83 80 84 74 85
REMARK SMILES IDX 75 86 78 87 76 88 55 89 56 90 64 91 57 92 58 93 62 94 65 95
REMARK SMILES IDX 59 96 60 97 63 98 61 99
REMARK H PARENT 85 52 53 63
REMARK Flexibility Score: inf
ROOT
ATOM      1  C   UNL A   1      39.610  21.976  26.331  1.00  0.00     0.188 C 
ENDROOT
BRANCH   1   2
ATOM      2  O   UNL A   1      38.783  23.100  26.513  1.00  0.00    -0.376 OA
BRANCH   2   3
ATOM      3  C   UNL A   1      37.589  23.270  25.767  1.00  0.00     0.202 C 
BRANCH   3   4
ATOM      4  C   UNL A   1      36.211  22.686  26.130  1.00  0.00     0.261 C 
BRANCH   4   5
ATOM      5  O   UNL A   1      35.068  23.291  25.524  1.00  0.00    -0.460 OA
BRANCH   5   6
ATOM      6  C   UNL A   1      35.088  23.310  24.171  1.00  0.00     0.338 C 
ATOM      7  O   UNL A   1      35.715  22.562  23.437  1.00  0.00    -0.246 OA
BRANCH   6   8
ATOM      8  C   UNL A   1      34.079  24.261  23.670  1.00  0.00     0.087 C 
ATOM      9  C   UNL A   1      30.912  28.156  23.401  1.00  0.00    -0.026 A 
ATOM     10  C   UNL A   1      31.029  26.917  22.723  1.00  0.00     0.052 A 
ATOM     11  C   UNL A   1      31.957  28.517  24.268  1.00  0.00     0.045 A 
ATOM     12  C   UNL A   1      32.110  26.057  22.939  1.00  0.00     0.128 A 
ATOM     13  C   UNL A   1      33.067  27.680  24.436  1.00  0.00     0.032 A 
ATOM     14  Cl  UNL A   1      31.961  29.923  25.269  1.00  0.00    -0.084 Cl
ATOM     15  C   UNL A   1      33.123  26.436  23.810  1.00  0.00     0.019 A 
ATOM     16  O   UNL A   1      32.088  24.857  22.285  1.00  0.00    -0.475 OA
ATOM     17  C   UNL A   1      34.172  25.503  24.159  1.00  0.00     0.027 C 
ATOM     18  C   UNL A   1      33.025  23.816  22.695  1.00  0.00     0.316 C 
BRANCH   9  19
ATOM     19  C   UNL A   1      29.595  28.893  23.224  1.00  0.00     0.037 C 
BRANCH  19  20
ATOM     20  C   UNL A   1      29.481  30.120  22.311  1.00  0.00     0.008 C 
BRANCH  20  21
ATOM     21  C   UNL A   1      28.067  30.711  22.179  1.00  0.00    -0.017 C 
ATOM     22  C   UNL A   1      27.630  31.408  23.467  1.00  0.00     0.007 C 
ATOM     23  C   UNL A   1      28.022  31.697  21.009  1.00  0.00     0.007 C 
ENDBRANCH  20  21
ENDBRANCH  19  20
ENDBRANCH   9  19
BRANCH  18  24
ATOM     24  C   UNL A   1      32.236  22.609  23.218  1.00  0.00     0.430 C 
ATOM     25  F   UNL A   1      32.859  21.443  22.924  1.00  0.00    -0.167 F 
ATOM     26  F   UNL A   1      32.102  22.650  24.565  1.00  0.00    -0.167 F 
ATOM     27  F   UNL A   1      30.992  22.552  22.690  1.00  0.00    -0.167 F 
ENDBRANCH  18  24
ENDBRANCH   6   8
ENDBRANCH   5   6
ENDBRANCH   4   5
ENDBRANCH   3   4
ENDBRANCH   2   3
ENDBRANCH   1   2
BRANCH   1  28
ATOM     28  C   UNL A   1      41.137  22.153  26.459  1.00  0.00     0.188 C 
BRANCH  28  29
ATOM     29  O   UNL A   1      42.020  21.296  25.767  1.00  0.00    -0.376 OA
BRANCH  29  30
ATOM     30  C   UNL A   1      43.372  21.687  25.575  1.00  0.00     0.202 C 
BRANCH  30  31
ATOM     31  C   UNL A   1      43.795  22.780  24.577  1.00  0.00     0.261 C 
BRANCH  31  32
ATOM     32  O   UNL A   1      43.430  24.125  24.913  1.00  0.00    -0.460 OA
BRANCH  32  33
ATOM     33  C   UNL A   1      44.462  24.941  25.258  1.00  0.00     0.338 C 
ATOM     34  O   UNL A   1      45.475  25.159  24.630  1.00  0.00    -0.246 OA
BRANCH  33  35
ATOM     35  C   UNL A   1      44.068  25.712  26.457  1.00  0.00     0.060 A 
ATOM     36  C   UNL A   1      44.523  27.014  26.646  1.00  0.00     0.016 A 
ATOM     37  C   UNL A   1      43.221  25.107  27.399  1.00  0.00     0.016 A 
ATOM     38  C   UNL A   1      44.107  27.727  27.772  1.00  0.00     0.010 A 
ATOM     39  C   UNL A   1      42.823  25.815  28.535  1.00  0.00     0.010 A 
ATOM     40  C   UNL A   1      43.242  27.140  28.714  1.00  0.00    -0.014 A 
BRANCH  40  41
ATOM     41  C   UNL A   1      42.632  27.978  29.774  1.00  0.00     0.031 A 
ATOM     42  C   UNL A   1      41.341  28.710  29.573  1.00  0.00     0.074 A 
ATOM     43  C   UNL A   1      43.283  28.070  30.949  1.00  0.00     0.049 A 
ATOM     44  N   UNL A   1      40.649  29.405  30.442  1.00  0.00    -0.248 NA
ATOM     45  C   UNL A   1      40.749  28.663  28.230  1.00  0.00     0.031 C 
ATOM     46  C   UNL A   1      44.565  27.428  31.243  1.00  0.00     0.029 A 
ATOM     47  N   UNL A   1      42.959  28.720  32.112  1.00  0.00    -0.354 N 
ATOM     48  C   UNL A   1      39.527  29.856  29.764  1.00  0.00     0.074 A 
ATOM     49  C   UNL A   1      39.656  29.400  28.394  1.00  0.00     0.031 C 
ATOM     50  C   UNL A   1      44.903  27.688  32.514  1.00  0.00     0.029 A 
ATOM     51  C   UNL A   1      43.878  28.536  33.115  1.00  0.00     0.049 A 
ATOM     52  H   UNL A   1      42.147  29.266  32.217  1.00  0.00     0.167 HD
ATOM     53  C   UNL A   1      38.480  30.566  30.251  1.00  0.00     0.037 A 
ATOM     54  C   UNL A   1      43.891  28.990  34.382  1.00  0.00     0.037 A 
ATOM     55  C   UNL A   1      38.372  31.034  31.613  1.00  0.00     0.049 A 
ATOM     56  C   UNL A   1      42.740  29.818  34.879  1.00  0.00     0.074 A 
ATOM     57  C   UNL A   1      37.331  31.733  32.203  1.00  0.00     0.029 A 
ATOM     58  N   UNL A   1      39.340  30.866  32.592  1.00  0.00    -0.354 N 
ATOM     59  N   UNL A   1      41.646  30.171  34.252  1.00  0.00    -0.248 NA
ATOM     60  C   UNL A   1      42.823  30.302  36.264  1.00  0.00     0.031 C 
ATOM     61  C   UNL A   1      37.694  32.038  33.519  1.00  0.00     0.029 A 
ATOM     62  C   UNL A   1      38.934  31.475  33.772  1.00  0.00     0.049 A 
ATOM     63  H   UNL A   1      40.190  30.385  32.469  1.00  0.00     0.167 HD
ATOM     64  C   UNL A   1      40.897  30.897  35.169  1.00  0.00     0.074 A 
ATOM     65  C   UNL A   1      41.655  30.917  36.403  1.00  0.00     0.031 C 
ATOM     66  C   UNL A   1      39.692  31.493  34.999  1.00  0.00     0.037 A 
BRANCH  53  67
ATOM     67  C   UNL A   1      37.344  30.879  29.319  1.00  0.00     0.064 A 
ATOM     68  C   UNL A   1      36.394  29.904  28.976  1.00  0.00     0.173 A 
ATOM     69  C   UNL A   1      37.139  32.186  28.848  1.00  0.00     0.173 A 
ATOM     70  F   UNL A   1      36.542  28.639  29.398  1.00  0.00    -0.203 F 
ATOM     71  C   UNL A   1      35.290  30.224  28.189  1.00  0.00     0.198 A 
ATOM     72  C   UNL A   1      36.019  32.507  28.086  1.00  0.00     0.198 A 
ATOM     73  F   UNL A   1      38.007  33.160  29.158  1.00  0.00    -0.203 F 
ATOM     74  F   UNL A   1      34.409  29.270  27.855  1.00  0.00    -0.200 F 
ATOM     75  C   UNL A   1      35.097  31.526  27.754  1.00  0.00     0.200 A 
ATOM     76  F   UNL A   1      35.824  33.771  27.684  1.00  0.00    -0.200 F 
ATOM     77  F   UNL A   1      34.021  31.836  27.018  1.00  0.00    -0.200 F 
ENDBRANCH  53  67
BRANCH  54  78
ATOM     78  C   UNL A   1      45.021  28.627  35.276  1.00  0.00     0.064 A 
ATOM     79  C   UNL A   1      46.164  29.434  35.352  1.00  0.00     0.173 A 
ATOM     80  C   UNL A   1      44.968  27.489  36.092  1.00  0.00     0.173 A 
ATOM     81  F   UNL A   1      46.268  30.524  34.577  1.00  0.00    -0.203 F 
ATOM     82  C   UNL A   1      47.216  29.110  36.205  1.00  0.00     0.198 A 
ATOM     83  C   UNL A   1      46.006  27.182  36.968  1.00  0.00     0.198 A 
ATOM     84  F   UNL A   1      43.892  26.689  36.062  1.00  0.00    -0.203 F 
ATOM     85  F   UNL A   1      48.313  29.879  36.234  1.00  0.00    -0.200 F 
ATOM     86  C   UNL A   1      47.133  27.990  37.019  1.00  0.00     0.200 A 
ATOM     87  F   UNL A   1      45.914  26.110  37.766  1.00  0.00    -0.200 F 
ATOM     88  F   UNL A   1      48.139  27.688  37.850  1.00  0.00    -0.200 F 
ENDBRANCH  54  78
BRANCH  66  89
ATOM     89  C   UNL A   1      39.097  32.207  36.180  1.00  0.00     0.064 A 
ATOM     90  C   UNL A   1      38.213  31.565  37.061  1.00  0.00     0.173 A 
ATOM     91  C   UNL A   1      39.456  33.534  36.467  1.00  0.00     0.173 A 
ATOM     92  F   UNL A   1      37.824  30.302  36.825  1.00  0.00    -0.203 F 
ATOM     93  C   UNL A   1      37.699  32.228  38.172  1.00  0.00     0.198 A 
ATOM     94  C   UNL A   1      38.966  34.182  37.597  1.00  0.00     0.198 A 
ATOM     95  F   UNL A   1      40.301  34.195  35.661  1.00  0.00    -0.203 F 
ATOM     96  F   UNL A   1      36.823  31.607  38.975  1.00  0.00    -0.200 F 
ATOM     97  C   UNL A   1      38.084  33.532  38.445  1.00  0.00     0.200 A 
ATOM     98  F   UNL A   1      39.352  35.437  37.867  1.00  0.00    -0.200 F 
ATOM     99  F   UNL A   1      37.600  34.163  39.524  1.00  0.00    -0.200 F 
ENDBRANCH  66  89
ENDBRANCH  40  41
ENDBRANCH  33  35
ENDBRANCH  32  33
ENDBRANCH  31  32
ENDBRANCH  30  31
ENDBRANCH  29  30
ENDBRANCH  28  29
ENDBRANCH   1  28
TORSDOF 21
ENDMDL
