MODEL 1
REMARK VINA RESULT:     -11.2      0.000      0.000
REMARK SMILES O=C(OCCOCCOCCOC(=O)[C@@H](F)Oc1ccc(F)c(Cl)c1)c1ccc(-c2c3nc(c(-c4c(F)c(F)c(F)c(F)c4F)c4ccc([nH]4)c(-c4c(F)c(F)c(F)c(F)c4F)c4nc(c(-c5c(F)c(F)c(F)c(F)c5F)c5ccc2[nH]5)C=C4)C=C3)cc1
REMARK SMILES IDX 7 1 6 2 5 3 4 4 3 5 2 6 1 7 26 8 27 9 88 10 28 11 87 12
REMARK SMILES IDX 29 13 30 14 31 15 81 16 32 17 86 18 80 19 82 20 33 21 85 22
REMARK SMILES IDX 79 23 78 24 34 26 66 27 46 28 65 29 47 30 50 31 64 32 83 33
REMARK SMILES IDX 48 34 49 35 63 37 84 38 51 39 35 40 36 41 44 42 37 43 38 44
REMARK SMILES IDX 42 45 45 46 39 47 40 48 43 49 41 50 67 51 68 52 76 53 69 54
REMARK SMILES IDX 70 55 74 56 77 57 71 58 72 59 75 60 73 61 52 62 53 63 61 64
REMARK SMILES IDX 54 65 55 66 59 67 62 68 56 69 57 70 60 71 58 72 8 73 9 74
REMARK SMILES IDX 10 75 11 76 12 77 13 78 14 79 15 80 16 81 17 82 18 83 19 84
REMARK SMILES IDX 25 85 20 86 23 87 21 88 24 89 22 90
REMARK H PARENT 82 25 50 36
REMARK Flexibility Score: inf
ROOT
ATOM      1  C   UNL A   1      39.687  21.458  26.320  1.00  0.00     0.188 C 
ENDROOT
BRANCH   1   2
ATOM      2  O   UNL A   1      40.869  22.027  25.750  1.00  0.00    -0.376 OA
BRANCH   2   3
ATOM      3  C   UNL A   1      42.081  21.337  26.094  1.00  0.00     0.202 C 
BRANCH   3   4
ATOM      4  C   UNL A   1      43.388  21.820  25.428  1.00  0.00     0.261 C 
BRANCH   4   5
ATOM      5  O   UNL A   1      43.276  23.066  24.716  1.00  0.00    -0.460 OA
BRANCH   5   6
ATOM      6  C   UNL A   1      43.762  24.290  25.035  1.00  0.00     0.338 C 
ATOM      7  O   UNL A   1      44.869  24.610  24.603  1.00  0.00    -0.246 OA
BRANCH   6   8
ATOM      8  C   UNL A   1      43.041  25.276  25.899  1.00  0.00     0.060 A 
ATOM      9  C   UNL A   1      43.528  26.531  26.255  1.00  0.00     0.016 A 
ATOM     10  C   UNL A   1      41.763  24.916  26.367  1.00  0.00     0.016 A 
ATOM     11  C   UNL A   1      42.860  27.343  27.154  1.00  0.00     0.010 A 
ATOM     12  C   UNL A   1      41.054  25.749  27.241  1.00  0.00     0.010 A 
ATOM     13  C   UNL A   1      41.642  26.937  27.687  1.00  0.00    -0.014 A 
BRANCH  13  14
ATOM     14  C   UNL A   1      41.173  27.663  28.881  1.00  0.00     0.031 A 
ATOM     15  C   UNL A   1      42.023  27.579  30.117  1.00  0.00     0.074 A 
ATOM     16  C   UNL A   1      40.148  28.528  28.779  1.00  0.00     0.049 A 
ATOM     17  N   UNL A   1      41.872  28.166  31.274  1.00  0.00    -0.248 NA
ATOM     18  C   UNL A   1      43.226  26.731  30.031  1.00  0.00     0.031 C 
ATOM     19  C   UNL A   1      39.362  28.769  27.567  1.00  0.00     0.029 A 
ATOM     20  N   UNL A   1      39.624  29.399  29.696  1.00  0.00    -0.354 N 
ATOM     21  C   UNL A   1      42.935  27.729  32.056  1.00  0.00     0.074 A 
ATOM     22  C   UNL A   1      43.722  26.825  31.253  1.00  0.00     0.031 C 
ATOM     23  C   UNL A   1      38.468  29.742  27.812  1.00  0.00     0.029 A 
ATOM     24  C   UNL A   1      38.584  30.150  29.206  1.00  0.00     0.049 A 
ATOM     25  H   UNL A   1      39.960  29.478  30.618  1.00  0.00     0.167 HD
ATOM     26  C   UNL A   1      43.219  28.057  33.337  1.00  0.00     0.037 A 
ATOM     27  C   UNL A   1      37.807  31.049  29.839  1.00  0.00     0.037 A 
ATOM     28  C   UNL A   1      42.424  28.972  34.107  1.00  0.00     0.049 A 
ATOM     29  C   UNL A   1      38.097  31.322  31.294  1.00  0.00     0.074 A 
ATOM     30  C   UNL A   1      42.566  29.349  35.427  1.00  0.00     0.029 A 
ATOM     31  N   UNL A   1      41.324  29.658  33.604  1.00  0.00    -0.354 N 
ATOM     32  N   UNL A   1      39.073  30.869  32.048  1.00  0.00    -0.248 NA
ATOM     33  C   UNL A   1      37.173  32.225  31.991  1.00  0.00     0.031 C 
ATOM     34  C   UNL A   1      41.516  30.218  35.742  1.00  0.00     0.029 A 
ATOM     35  C   UNL A   1      40.762  30.438  34.598  1.00  0.00     0.049 A 
ATOM     36  H   UNL A   1      40.993  29.596  32.679  1.00  0.00     0.167 HD
ATOM     37  C   UNL A   1      38.900  31.457  33.293  1.00  0.00     0.074 A 
ATOM     38  C   UNL A   1      37.742  32.321  33.183  1.00  0.00     0.031 C 
ATOM     39  C   UNL A   1      39.620  31.300  34.430  1.00  0.00     0.037 A 
BRANCH  26  40
ATOM     40  C   UNL A   1      44.374  27.351  33.987  1.00  0.00     0.064 A 
ATOM     41  C   UNL A   1      45.691  27.828  33.905  1.00  0.00     0.173 A 
ATOM     42  C   UNL A   1      44.156  26.145  34.670  1.00  0.00     0.173 A 
ATOM     43  F   UNL A   1      45.960  28.960  33.237  1.00  0.00    -0.203 F 
ATOM     44  C   UNL A   1      46.750  27.105  34.453  1.00  0.00     0.198 A 
ATOM     45  C   UNL A   1      45.212  25.441  35.243  1.00  0.00     0.198 A 
ATOM     46  F   UNL A   1      42.918  25.638  34.771  1.00  0.00    -0.203 F 
ATOM     47  F   UNL A   1      48.007  27.544  34.302  1.00  0.00    -0.200 F 
ATOM     48  C   UNL A   1      46.509  25.916  35.124  1.00  0.00     0.200 A 
ATOM     49  F   UNL A   1      44.976  24.295  35.895  1.00  0.00    -0.200 F 
ATOM     50  F   UNL A   1      47.530  25.217  35.641  1.00  0.00    -0.200 F 
ENDBRANCH  26  40
BRANCH  27  51
ATOM     51  C   UNL A   1      36.660  31.711  29.154  1.00  0.00     0.064 A 
ATOM     52  C   UNL A   1      36.648  33.095  28.924  1.00  0.00     0.173 A 
ATOM     53  C   UNL A   1      35.508  30.990  28.802  1.00  0.00     0.173 A 
ATOM     54  F   UNL A   1      37.723  33.835  29.239  1.00  0.00    -0.203 F 
ATOM     55  C   UNL A   1      35.512  33.738  28.432  1.00  0.00     0.198 A 
ATOM     56  C   UNL A   1      34.391  31.626  28.263  1.00  0.00     0.198 A 
ATOM     57  F   UNL A   1      35.459  29.663  28.992  1.00  0.00    -0.203 F 
ATOM     58  F   UNL A   1      35.512  35.069  28.281  1.00  0.00    -0.200 F 
ATOM     59  C   UNL A   1      34.383  33.002  28.102  1.00  0.00     0.200 A 
ATOM     60  F   UNL A   1      33.320  30.902  27.907  1.00  0.00    -0.200 F 
ATOM     61  F   UNL A   1      33.299  33.615  27.608  1.00  0.00    -0.200 F 
ENDBRANCH  27  51
BRANCH  39  62
ATOM     62  C   UNL A   1      39.204  32.125  35.612  1.00  0.00     0.064 A 
ATOM     63  C   UNL A   1      38.334  31.629  36.592  1.00  0.00     0.173 A 
ATOM     64  C   UNL A   1      39.707  33.425  35.769  1.00  0.00     0.173 A 
ATOM     65  F   UNL A   1      37.814  30.397  36.475  1.00  0.00    -0.203 F 
ATOM     66  C   UNL A   1      37.950  32.420  37.670  1.00  0.00     0.198 A 
ATOM     67  C   UNL A   1      39.352  34.198  36.869  1.00  0.00     0.198 A 
ATOM     68  F   UNL A   1      40.549  33.940  34.862  1.00  0.00    -0.203 F 
ATOM     69  F   UNL A   1      37.066  31.951  38.561  1.00  0.00    -0.200 F 
ATOM     70  C   UNL A   1      38.466  33.700  37.812  1.00  0.00     0.200 A 
ATOM     71  F   UNL A   1      39.866  35.428  37.014  1.00  0.00    -0.200 F 
ATOM     72  F   UNL A   1      38.100  34.458  38.854  1.00  0.00    -0.200 F 
ENDBRANCH  39  62
ENDBRANCH  13  14
ENDBRANCH   6   8
ENDBRANCH   5   6
ENDBRANCH   4   5
ENDBRANCH   3   4
ENDBRANCH   2   3
ENDBRANCH   1   2
BRANCH   1  73
ATOM     73  C   UNL A   1      38.460  21.425  25.407  1.00  0.00     0.188 C 
BRANCH  73  74
ATOM     74  O   UNL A   1      37.208  21.765  25.993  1.00  0.00    -0.376 OA
BRANCH  74  75
ATOM     75  C   UNL A   1      36.333  22.591  25.235  1.00  0.00     0.202 C 
BRANCH  75  76
ATOM     76  C   UNL A   1      35.368  21.883  24.285  1.00  0.00     0.261 C 
BRANCH  76  77
ATOM     77  O   UNL A   1      34.114  22.561  24.139  1.00  0.00    -0.458 OA
BRANCH  77  78
ATOM     78  C   UNL A   1      33.032  21.796  23.797  1.00  0.00     0.381 C 
ATOM     79  O   UNL A   1      32.432  21.867  22.736  1.00  0.00    -0.244 OA
BRANCH  78  80
ATOM     80  C   UNL A   1      32.619  20.898  24.971  1.00  0.00     0.461 C 
ATOM     81  F   UNL A   1      31.696  21.458  25.813  1.00  0.00    -0.189 F 
BRANCH  80  82
ATOM     82  O   UNL A   1      32.141  19.612  24.593  1.00  0.00    -0.451 OA
BRANCH  82  83
ATOM     83  C   UNL A   1      33.003  18.556  24.695  1.00  0.00     0.125 A 
ATOM     84  C   UNL A   1      34.387  18.591  24.508  1.00  0.00     0.050 A 
ATOM     85  C   UNL A   1      32.408  17.353  25.067  1.00  0.00     0.070 A 
ATOM     86  C   UNL A   1      35.166  17.442  24.639  1.00  0.00     0.044 A 
ATOM     87  C   UNL A   1      33.192  16.209  25.224  1.00  0.00     0.080 A 
ATOM     88  C   UNL A   1      34.559  16.250  24.983  1.00  0.00     0.142 A 
ATOM     89  Cl  UNL A   1      32.463  14.762  25.772  1.00  0.00    -0.081 Cl
ATOM     90  F   UNL A   1      35.315  15.149  25.093  1.00  0.00    -0.205 F 
ENDBRANCH  82  83
ENDBRANCH  80  82
ENDBRANCH  78  80
ENDBRANCH  77  78
ENDBRANCH  76  77
ENDBRANCH  75  76
ENDBRANCH  74  75
ENDBRANCH  73  74
ENDBRANCH   1  73
TORSDOF 19
ENDMDL
MODEL 2
REMARK VINA RESULT:     -11.0      3.497      8.748
REMARK SMILES O=C(OCCOCCOCCOC(=O)[C@@H](F)Oc1ccc(F)c(Cl)c1)c1ccc(-c2c3nc(c(-c4c(F)c(F)c(F)c(F)c4F)c4ccc([nH]4)c(-c4c(F)c(F)c(F)c(F)c4F)c4nc(c(-c5c(F)c(F)c(F)c(F)c5F)c5ccc2[nH]5)C=C4)C=C3)cc1
REMARK SMILES IDX 7 1 6 2 5 3 4 4 3 5 2 6 1 7 26 8 27 9 88 10 28 11 87 12
REMARK SMILES IDX 29 13 30 14 31 15 81 16 32 17 86 18 80 19 82 20 33 21 85 22
REMARK SMILES IDX 79 23 78 24 34 26 66 27 46 28 65 29 47 30 50 31 64 32 83 33
REMARK SMILES IDX 48 34 49 35 63 37 84 38 51 39 35 40 36 41 44 42 37 43 38 44
REMARK SMILES IDX 42 45 45 46 39 47 40 48 43 49 41 50 67 51 68 52 76 53 69 54
REMARK SMILES IDX 70 55 74 56 77 57 71 58 72 59 75 60 73 61 52 62 53 63 61 64
REMARK SMILES IDX 54 65 55 66 59 67 62 68 56 69 57 70 60 71 58 72 8 73 9 74
REMARK SMILES IDX 10 75 11 76 12 77 13 78 14 79 15 80 16 81 17 82 18 83 19 84
REMARK SMILES IDX 25 85 20 86 23 87 21 88 24 89 22 90
REMARK H PARENT 82 25 50 36
REMARK Flexibility Score: inf
ROOT
ATOM      1  C   UNL A   1      33.378  29.584  26.253  1.00  0.00     0.188 C 
ENDROOT
BRANCH   1   2
ATOM      2  O   UNL A   1      32.280  30.153  26.972  1.00  0.00    -0.376 OA
BRANCH   2   3
ATOM      3  C   UNL A   1      31.610  31.219  26.279  1.00  0.00     0.202 C 
BRANCH   3   4
ATOM      4  C   UNL A   1      31.464  32.566  27.020  1.00  0.00     0.261 C 
BRANCH   4   5
ATOM      5  O   UNL A   1      32.680  33.330  27.126  1.00  0.00    -0.460 OA
BRANCH   5   6
ATOM      6  C   UNL A   1      33.484  33.530  28.198  1.00  0.00     0.338 C 
ATOM      7  O   UNL A   1      33.163  34.390  29.016  1.00  0.00    -0.246 OA
BRANCH   6   8
ATOM      8  C   UNL A   1      34.755  32.779  28.441  1.00  0.00     0.060 A 
ATOM      9  C   UNL A   1      34.837  31.417  28.718  1.00  0.00     0.016 A 
ATOM     10  C   UNL A   1      35.961  33.501  28.359  1.00  0.00     0.016 A 
ATOM     11  C   UNL A   1      36.037  30.812  29.049  1.00  0.00     0.010 A 
ATOM     12  C   UNL A   1      37.188  32.891  28.646  1.00  0.00     0.010 A 
ATOM     13  C   UNL A   1      37.211  31.556  29.060  1.00  0.00    -0.014 A 
BRANCH  13  14
ATOM     14  C   UNL A   1      38.363  30.953  29.755  1.00  0.00     0.031 A 
ATOM     15  C   UNL A   1      38.516  31.248  31.220  1.00  0.00     0.074 A 
ATOM     16  C   UNL A   1      39.101  30.013  29.137  1.00  0.00     0.049 A 
ATOM     17  N   UNL A   1      39.398  30.800  32.073  1.00  0.00    -0.248 NA
ATOM     18  C   UNL A   1      37.521  32.159  31.815  1.00  0.00     0.031 C 
ATOM     19  C   UNL A   1      38.919  29.570  27.752  1.00  0.00     0.029 A 
ATOM     20  N   UNL A   1      40.120  29.229  29.607  1.00  0.00    -0.354 N 
ATOM     21  C   UNL A   1      39.086  31.403  33.285  1.00  0.00     0.074 A 
ATOM     22  C   UNL A   1      37.940  32.252  33.065  1.00  0.00     0.031 C 
ATOM     23  C   UNL A   1      39.786  28.576  27.495  1.00  0.00     0.029 A 
ATOM     24  C   UNL A   1      40.614  28.353  28.672  1.00  0.00     0.049 A 
ATOM     25  H   UNL A   1      40.464  29.289  30.528  1.00  0.00     0.167 HD
ATOM     26  C   UNL A   1      39.710  31.257  34.476  1.00  0.00     0.037 A 
ATOM     27  C   UNL A   1      41.641  27.488  28.770  1.00  0.00     0.037 A 
ATOM     28  C   UNL A   1      40.840  30.392  34.667  1.00  0.00     0.049 A 
ATOM     29  C   UNL A   1      42.373  27.419  30.089  1.00  0.00     0.074 A 
ATOM     30  C   UNL A   1      41.600  30.194  35.803  1.00  0.00     0.029 A 
ATOM     31  N   UNL A   1      41.370  29.576  33.675  1.00  0.00    -0.354 N 
ATOM     32  N   UNL A   1      42.107  28.029  31.222  1.00  0.00    -0.248 NA
ATOM     33  C   UNL A   1      43.553  26.548  30.141  1.00  0.00     0.031 C 
ATOM     34  C   UNL A   1      42.627  29.299  35.482  1.00  0.00     0.029 A 
ATOM     35  C   UNL A   1      42.465  28.888  34.167  1.00  0.00     0.049 A 
ATOM     36  H   UNL A   1      41.020  29.499  32.759  1.00  0.00     0.167 HD
ATOM     37  C   UNL A   1      43.063  27.589  32.126  1.00  0.00     0.074 A 
ATOM     38  C   UNL A   1      43.897  26.640  31.416  1.00  0.00     0.031 C 
ATOM     39  C   UNL A   1      43.249  27.936  33.423  1.00  0.00     0.037 A 
BRANCH  26  40
ATOM     40  C   UNL A   1      39.234  32.116  35.612  1.00  0.00     0.064 A 
ATOM     41  C   UNL A   1      39.666  33.439  35.789  1.00  0.00     0.173 A 
ATOM     42  C   UNL A   1      38.356  31.581  36.568  1.00  0.00     0.173 A 
ATOM     43  F   UNL A   1      40.530  33.990  34.922  1.00  0.00    -0.203 F 
ATOM     44  C   UNL A   1      39.266  34.180  36.899  1.00  0.00     0.198 A 
ATOM     45  C   UNL A   1      37.934  32.336  37.659  1.00  0.00     0.198 A 
ATOM     46  F   UNL A   1      37.919  30.317  36.452  1.00  0.00    -0.203 F 
ATOM     47  F   UNL A   1      39.746  35.418  37.085  1.00  0.00    -0.200 F 
ATOM     48  C   UNL A   1      38.397  33.630  37.830  1.00  0.00     0.200 A 
ATOM     49  F   UNL A   1      37.091  31.802  38.554  1.00  0.00    -0.200 F 
ATOM     50  F   UNL A   1      38.021  34.342  38.902  1.00  0.00    -0.200 F 
ENDBRANCH  26  40
BRANCH  27  51
ATOM     51  C   UNL A   1      42.088  26.670  27.608  1.00  0.00     0.064 A 
ATOM     52  C   UNL A   1      41.589  25.376  27.393  1.00  0.00     0.173 A 
ATOM     53  C   UNL A   1      43.094  27.124  26.741  1.00  0.00     0.173 A 
ATOM     54  F   UNL A   1      40.625  24.890  28.189  1.00  0.00    -0.203 F 
ATOM     55  C   UNL A   1      42.123  24.549  26.404  1.00  0.00     0.198 A 
ATOM     56  C   UNL A   1      43.592  26.315  25.720  1.00  0.00     0.198 A 
ATOM     57  F   UNL A   1      43.609  28.353  26.891  1.00  0.00    -0.203 F 
ATOM     58  F   UNL A   1      41.666  23.297  26.263  1.00  0.00    -0.200 F 
ATOM     59  C   UNL A   1      43.124  25.020  25.568  1.00  0.00     0.200 A 
ATOM     60  F   UNL A   1      44.530  26.793  24.891  1.00  0.00    -0.200 F 
ATOM     61  F   UNL A   1      43.622  24.236  24.602  1.00  0.00    -0.200 F 
ENDBRANCH  27  51
BRANCH  39  62
ATOM     62  C   UNL A   1      44.356  27.237  34.156  1.00  0.00     0.064 A 
ATOM     63  C   UNL A   1      45.647  27.775  34.234  1.00  0.00     0.173 A 
ATOM     64  C   UNL A   1      44.104  26.020  34.808  1.00  0.00     0.173 A 
ATOM     65  F   UNL A   1      45.939  28.927  33.612  1.00  0.00    -0.203 F 
ATOM     66  C   UNL A   1      46.661  27.099  34.906  1.00  0.00     0.198 A 
ATOM     67  C   UNL A   1      45.110  25.368  35.513  1.00  0.00     0.198 A 
ATOM     68  F   UNL A   1      42.881  25.471  34.769  1.00  0.00    -0.203 F 
ATOM     69  F   UNL A   1      47.904  27.597  34.912  1.00  0.00    -0.200 F 
ATOM     70  C   UNL A   1      46.389  25.901  35.551  1.00  0.00     0.200 A 
ATOM     71  F   UNL A   1      44.841  24.220  36.151  1.00  0.00    -0.200 F 
ATOM     72  F   UNL A   1      47.365  25.256  36.204  1.00  0.00    -0.200 F 
ENDBRANCH  39  62
ENDBRANCH  13  14
ENDBRANCH   6   8
ENDBRANCH   5   6
ENDBRANCH   4   5
ENDBRANCH   3   4
ENDBRANCH   2   3
ENDBRANCH   1   2
BRANCH   1  73
ATOM     73  C   UNL A   1      33.052  28.346  25.416  1.00  0.00     0.188 C 
BRANCH  73  74
ATOM     74  O   UNL A   1      33.078  28.496  24.000  1.00  0.00    -0.376 OA
BRANCH  74  75
ATOM     75  C   UNL A   1      31.859  28.289  23.297  1.00  0.00     0.202 C 
BRANCH  75  76
ATOM     76  C   UNL A   1      31.735  26.991  22.502  1.00  0.00     0.261 C 
BRANCH  76  77
ATOM     77  O   UNL A   1      32.911  26.175  22.559  1.00  0.00    -0.458 OA
BRANCH  77  78
ATOM     78  C   UNL A   1      33.072  25.248  21.565  1.00  0.00     0.381 C 
ATOM     79  O   UNL A   1      32.955  25.474  20.370  1.00  0.00    -0.244 OA
BRANCH  78  80
ATOM     80  C   UNL A   1      33.330  23.859  22.165  1.00  0.00     0.461 C 
ATOM     81  F   UNL A   1      33.208  22.827  21.274  1.00  0.00    -0.189 F 
BRANCH  80  82
ATOM     82  O   UNL A   1      34.585  23.722  22.822  1.00  0.00    -0.451 OA
BRANCH  82  83
ATOM     83  C   UNL A   1      34.606  23.091  24.034  1.00  0.00     0.125 A 
ATOM     84  C   UNL A   1      35.617  22.260  24.523  1.00  0.00     0.050 A 
ATOM     85  C   UNL A   1      33.510  23.364  24.851  1.00  0.00     0.070 A 
ATOM     86  C   UNL A   1      35.525  21.668  25.782  1.00  0.00     0.044 A 
ATOM     87  C   UNL A   1      33.431  22.793  26.122  1.00  0.00     0.080 A 
ATOM     88  C   UNL A   1      34.421  21.927  26.571  1.00  0.00     0.142 A 
ATOM     89  Cl  UNL A   1      32.130  23.211  27.150  1.00  0.00    -0.081 Cl
ATOM     90  F   UNL A   1      34.336  21.344  27.775  1.00  0.00    -0.205 F 
ENDBRANCH  82  83
ENDBRANCH  80  82
ENDBRANCH  78  80
ENDBRANCH  77  78
ENDBRANCH  76  77
ENDBRANCH  75  76
ENDBRANCH  74  75
ENDBRANCH  73  74
ENDBRANCH   1  73
TORSDOF 19
ENDMDL
MODEL 3
REMARK VINA RESULT:     -10.9      4.961      9.859
REMARK SMILES O=C(OCCOCCOCCOC(=O)[C@@H](F)Oc1ccc(F)c(Cl)c1)c1ccc(-c2c3nc(c(-c4c(F)c(F)c(F)c(F)c4F)c4ccc([nH]4)c(-c4c(F)c(F)c(F)c(F)c4F)c4nc(c(-c5c(F)c(F)c(F)c(F)c5F)c5ccc2[nH]5)C=C4)C=C3)cc1
REMARK SMILES IDX 7 1 6 2 5 3 4 4 3 5 2 6 1 7 26 8 27 9 88 10 28 11 87 12
REMARK SMILES IDX 29 13 30 14 31 15 81 16 32 17 86 18 80 19 82 20 33 21 85 22
REMARK SMILES IDX 79 23 78 24 34 26 66 27 46 28 65 29 47 30 50 31 64 32 83 33
REMARK SMILES IDX 48 34 49 35 63 37 84 38 51 39 35 40 36 41 44 42 37 43 38 44
REMARK SMILES IDX 42 45 45 46 39 47 40 48 43 49 41 50 67 51 68 52 76 53 69 54
REMARK SMILES IDX 70 55 74 56 77 57 71 58 72 59 75 60 73 61 52 62 53 63 61 64
REMARK SMILES IDX 54 65 55 66 59 67 62 68 56 69 57 70 60 71 58 72 8 73 9 74
REMARK SMILES IDX 10 75 11 76 12 77 13 78 14 79 15 80 16 81 17 82 18 83 19 84
REMARK SMILES IDX 25 85 20 86 23 87 21 88 24 89 22 90
REMARK H PARENT 82 25 50 36
REMARK Flexibility Score: inf
ROOT
ATOM      1  C   UNL A   1      33.326  30.010  26.644  1.00  0.00     0.188 C 
ENDROOT
BRANCH   1   2
ATOM      2  O   UNL A   1      31.989  30.377  26.292  1.00  0.00    -0.376 OA
BRANCH   2   3
ATOM      3  C   UNL A   1      31.618  31.706  26.690  1.00  0.00     0.202 C 
BRANCH   3   4
ATOM      4  C   UNL A   1      32.741  32.633  27.206  1.00  0.00     0.261 C 
BRANCH   4   5
ATOM      5  O   UNL A   1      32.286  33.888  27.743  1.00  0.00    -0.460 OA
BRANCH   5   6
ATOM      6  C   UNL A   1      32.909  34.743  28.590  1.00  0.00     0.338 C 
ATOM      7  O   UNL A   1      32.421  35.860  28.757  1.00  0.00    -0.246 OA
BRANCH   6   8
ATOM      8  C   UNL A   1      34.172  34.420  29.324  1.00  0.00     0.060 A 
ATOM      9  C   UNL A   1      35.457  34.617  28.826  1.00  0.00     0.016 A 
ATOM     10  C   UNL A   1      34.050  33.899  30.626  1.00  0.00     0.016 A 
ATOM     11  C   UNL A   1      36.578  34.185  29.513  1.00  0.00     0.010 A 
ATOM     12  C   UNL A   1      35.178  33.500  31.352  1.00  0.00     0.010 A 
ATOM     13  C   UNL A   1      36.442  33.583  30.759  1.00  0.00    -0.014 A 
BRANCH  13  14
ATOM     14  C   UNL A   1      37.612  32.839  31.260  1.00  0.00     0.031 A 
ATOM     15  C   UNL A   1      38.077  33.145  32.656  1.00  0.00     0.074 A 
ATOM     16  C   UNL A   1      38.087  31.790  30.565  1.00  0.00     0.049 A 
ATOM     17  N   UNL A   1      39.035  32.597  33.354  1.00  0.00    -0.248 NA
ATOM     18  C   UNL A   1      37.344  34.203  33.376  1.00  0.00     0.031 C 
ATOM     19  C   UNL A   1      37.589  31.344  29.262  1.00  0.00     0.029 A 
ATOM     20  N   UNL A   1      39.060  30.880  30.880  1.00  0.00    -0.354 N 
ATOM     21  C   UNL A   1      39.040  33.267  34.571  1.00  0.00     0.074 A 
ATOM     22  C   UNL A   1      37.999  34.265  34.522  1.00  0.00     0.031 C 
ATOM     23  C   UNL A   1      38.249  30.231  28.900  1.00  0.00     0.029 A 
ATOM     24  C   UNL A   1      39.246  29.920  29.916  1.00  0.00     0.049 A 
ATOM     25  H   UNL A   1      39.577  30.913  31.718  1.00  0.00     0.167 HD
ATOM     26  C   UNL A   1      39.852  33.063  35.633  1.00  0.00     0.037 A 
ATOM     27  C   UNL A   1      40.147  28.921  29.868  1.00  0.00     0.037 A 
ATOM     28  C   UNL A   1      40.871  32.051  35.658  1.00  0.00     0.049 A 
ATOM     29  C   UNL A   1      41.098  28.781  31.032  1.00  0.00     0.074 A 
ATOM     30  C   UNL A   1      41.797  31.774  36.644  1.00  0.00     0.029 A 
ATOM     31  N   UNL A   1      41.089  31.144  34.628  1.00  0.00    -0.354 N 
ATOM     32  N   UNL A   1      41.135  29.449  32.162  1.00  0.00    -0.248 NA
ATOM     33  C   UNL A   1      42.138  27.752  30.911  1.00  0.00     0.031 C 
ATOM     34  C   UNL A   1      42.615  30.736  36.186  1.00  0.00     0.029 A 
ATOM     35  C   UNL A   1      42.154  30.319  34.945  1.00  0.00     0.049 A 
ATOM     36  H   UNL A   1      40.565  31.096  33.796  1.00  0.00     0.167 HD
ATOM     37  C   UNL A   1      42.176  28.900  32.897  1.00  0.00     0.074 A 
ATOM     38  C   UNL A   1      42.725  27.826  32.095  1.00  0.00     0.031 C 
ATOM     39  C   UNL A   1      42.648  29.248  34.119  1.00  0.00     0.037 A 
BRANCH  26  40
ATOM     40  C   UNL A   1      39.719  34.008  36.793  1.00  0.00     0.064 A 
ATOM     41  C   UNL A   1      40.383  35.243  36.838  1.00  0.00     0.173 A 
ATOM     42  C   UNL A   1      38.940  33.643  37.902  1.00  0.00     0.173 A 
ATOM     43  F   UNL A   1      41.166  35.628  35.819  1.00  0.00    -0.203 F 
ATOM     44  C   UNL A   1      40.300  36.060  37.965  1.00  0.00     0.198 A 
ATOM     45  C   UNL A   1      38.834  34.476  39.012  1.00  0.00     0.198 A 
ATOM     46  F   UNL A   1      38.291  32.469  37.915  1.00  0.00    -0.203 F 
ATOM     47  F   UNL A   1      40.999  37.203  38.015  1.00  0.00    -0.200 F 
ATOM     48  C   UNL A   1      39.523  35.678  39.048  1.00  0.00     0.200 A 
ATOM     49  F   UNL A   1      38.079  34.105  40.055  1.00  0.00    -0.200 F 
ATOM     50  F   UNL A   1      39.453  36.460  40.135  1.00  0.00    -0.200 F 
ENDBRANCH  26  40
BRANCH  27  51
ATOM     51  C   UNL A   1      40.252  28.019  28.686  1.00  0.00     0.064 A 
ATOM     52  C   UNL A   1      39.654  26.750  28.682  1.00  0.00     0.173 A 
ATOM     53  C   UNL A   1      41.033  28.366  27.572  1.00  0.00     0.173 A 
ATOM     54  F   UNL A   1      38.895  26.365  29.720  1.00  0.00    -0.203 F 
ATOM     55  C   UNL A   1      39.886  25.844  27.648  1.00  0.00     0.198 A 
ATOM     56  C   UNL A   1      41.223  27.479  26.514  1.00  0.00     0.198 A 
ATOM     57  F   UNL A   1      41.627  29.568  27.513  1.00  0.00    -0.203 F 
ATOM     58  F   UNL A   1      39.350  24.617  27.703  1.00  0.00    -0.200 F 
ATOM     59  C   UNL A   1      40.671  26.209  26.563  1.00  0.00     0.200 A 
ATOM     60  F   UNL A   1      41.948  27.855  25.452  1.00  0.00    -0.200 F 
ATOM     61  F   UNL A   1      40.875  25.348  25.558  1.00  0.00    -0.200 F 
ENDBRANCH  27  51
BRANCH  39  62
ATOM     62  C   UNL A   1      43.768  28.417  34.672  1.00  0.00     0.064 A 
ATOM     63  C   UNL A   1      43.528  27.249  35.410  1.00  0.00     0.173 A 
ATOM     64  C   UNL A   1      45.099  28.789  34.435  1.00  0.00     0.173 A 
ATOM     65  F   UNL A   1      42.271  26.863  35.675  1.00  0.00    -0.203 F 
ATOM     66  C   UNL A   1      44.584  26.504  35.926  1.00  0.00     0.198 A 
ATOM     67  C   UNL A   1      46.152  28.020  34.919  1.00  0.00     0.198 A 
ATOM     68  F   UNL A   1      45.378  29.894  33.727  1.00  0.00    -0.203 F 
ATOM     69  F   UNL A   1      44.333  25.429  36.684  1.00  0.00    -0.200 F 
ATOM     70  C   UNL A   1      45.893  26.885  35.673  1.00  0.00     0.200 A 
ATOM     71  F   UNL A   1      47.416  28.380  34.658  1.00  0.00    -0.200 F 
ATOM     72  F   UNL A   1      46.908  26.163  36.165  1.00  0.00    -0.200 F 
ENDBRANCH  39  62
ENDBRANCH  13  14
ENDBRANCH   6   8
ENDBRANCH   5   6
ENDBRANCH   4   5
ENDBRANCH   3   4
ENDBRANCH   2   3
ENDBRANCH   1   2
BRANCH   1  73
ATOM     73  C   UNL A   1      33.620  28.509  26.657  1.00  0.00     0.188 C 
BRANCH  73  74
ATOM     74  O   UNL A   1      33.703  27.854  25.395  1.00  0.00    -0.376 OA
BRANCH  74  75
ATOM     75  C   UNL A   1      32.961  26.652  25.232  1.00  0.00     0.202 C 
BRANCH  75  76
ATOM     76  C   UNL A   1      31.441  26.784  25.169  1.00  0.00     0.261 C 
BRANCH  76  77
ATOM     77  O   UNL A   1      30.866  26.183  24.002  1.00  0.00    -0.458 OA
BRANCH  77  78
ATOM     78  C   UNL A   1      30.504  27.026  22.985  1.00  0.00     0.381 C 
ATOM     79  O   UNL A   1      31.225  27.351  22.055  1.00  0.00    -0.244 OA
BRANCH  78  80
ATOM     80  C   UNL A   1      29.093  27.578  23.225  1.00  0.00     0.461 C 
ATOM     81  F   UNL A   1      28.303  26.786  24.013  1.00  0.00    -0.189 F 
BRANCH  80  82
ATOM     82  O   UNL A   1      29.056  28.898  23.757  1.00  0.00    -0.451 OA
BRANCH  82  83
ATOM     83  C   UNL A   1      28.746  29.921  22.905  1.00  0.00     0.125 A 
ATOM     84  C   UNL A   1      28.140  29.806  21.652  1.00  0.00     0.050 A 
ATOM     85  C   UNL A   1      29.040  31.193  23.392  1.00  0.00     0.070 A 
ATOM     86  C   UNL A   1      27.872  30.928  20.869  1.00  0.00     0.044 A 
ATOM     87  C   UNL A   1      28.748  32.318  22.620  1.00  0.00     0.080 A 
ATOM     88  C   UNL A   1      28.193  32.182  21.353  1.00  0.00     0.142 A 
ATOM     89  Cl  UNL A   1      29.026  33.876  23.268  1.00  0.00    -0.081 Cl
ATOM     90  F   UNL A   1      27.943  33.253  20.588  1.00  0.00    -0.205 F 
ENDBRANCH  82  83
ENDBRANCH  80  82
ENDBRANCH  78  80
ENDBRANCH  77  78
ENDBRANCH  76  77
ENDBRANCH  75  76
ENDBRANCH  74  75
ENDBRANCH  73  74
ENDBRANCH   1  73
TORSDOF 19
ENDMDL
