MODEL 1
REMARK VINA RESULT:     -12.6      0.000      0.000
REMARK SMILES Cc1ccc(C(=O)[C@@H](C)[C@H](C)C(=O)OCCOCCOCCOC(=O)c2ccc(-c3c4nc(c(-c5c(F)c(F)c(F)c(F)c5F)c5ccc([nH]5)c(-c5c(F)c(F)c(F)c(F)c5F)c5nc(c(-c6c(F)c(F)c(F)c(F)c6F)c6ccc3[nH]6)C=C5)C=C4)cc2)cc1
REMARK SMILES IDX 18 1 17 2 16 3 15 4 14 5 12 6 13 7 10 8 11 9 8 10 9 11 6 12
REMARK SMILES IDX 7 13 5 14 1 15 2 16 3 17 90 18 4 19 89 20 19 21 20 22 21 23
REMARK SMILES IDX 22 24 23 25 24 26 25 27 26 28 27 29 88 30 28 31 87 32 29 33
REMARK SMILES IDX 30 34 31 35 81 36 32 37 86 38 80 39 82 40 33 41 85 42 79 43
REMARK SMILES IDX 78 44 34 46 66 47 46 48 65 49 47 50 50 51 64 52 83 53 48 54
REMARK SMILES IDX 49 55 63 57 84 58 51 59 35 60 36 61 44 62 37 63 38 64 42 65
REMARK SMILES IDX 45 66 39 67 40 68 43 69 41 70 67 71 68 72 76 73 69 74 70 75
REMARK SMILES IDX 74 76 77 77 71 78 72 79 75 80 73 81 52 82 53 83 61 84 54 85
REMARK SMILES IDX 55 86 59 87 62 88 56 89 57 90 60 91 58 92
REMARK H PARENT 82 45 50 56
REMARK Flexibility Score: inf
ROOT
ATOM      1  C   UNL A   1      40.731  20.641  26.898  1.00  0.00     0.188 C 
ENDROOT
BRANCH   1   2
ATOM      2  O   UNL A   1      39.690  21.480  26.366  1.00  0.00    -0.376 OA
BRANCH   2   3
ATOM      3  C   UNL A   1      39.337  22.847  26.662  1.00  0.00     0.202 C 
BRANCH   3   4
ATOM      4  C   UNL A   1      38.026  23.926  26.135  1.00  0.00     0.261 C 
BRANCH   4   5
ATOM      5  O   UNL A   1      36.640  23.762  25.058  1.00  0.00    -0.463 OA
BRANCH   5   6
ATOM      6  C   UNL A   1      35.224  24.085  24.856  1.00  0.00     0.309 C 
ATOM      7  O   UNL A   1      34.654  25.137  25.180  1.00  0.00    -0.252 OA
BRANCH   6   8
ATOM      8  C   UNL A   1      34.201  23.047  24.399  1.00  0.00     0.106 C 
ATOM      9  C   UNL A   1      33.876  22.886  22.923  1.00  0.00     0.021 C 
BRANCH   8  10
ATOM     10  C   UNL A   1      34.111  21.786  25.299  1.00  0.00     0.072 C 
ATOM     11  C   UNL A   1      34.195  22.107  26.825  1.00  0.00     0.017 C 
BRANCH  10  12
ATOM     12  C   UNL A   1      34.862  20.479  24.973  1.00  0.00     0.166 C 
ATOM     13  O   UNL A   1      36.079  20.549  24.761  1.00  0.00    -0.294 OA
BRANCH  12  14
ATOM     14  C   UNL A   1      34.255  19.108  24.862  1.00  0.00     0.018 A 
ATOM     15  C   UNL A   1      32.738  15.076  25.312  1.00  0.00     0.044 C 
ATOM     16  C   UNL A   1      33.206  16.481  25.109  1.00  0.00    -0.051 A 
ATOM     17  C   UNL A   1      32.420  17.598  25.402  1.00  0.00     0.004 A 
ATOM     18  C   UNL A   1      34.446  16.690  24.550  1.00  0.00     0.004 A 
ATOM     19  C   UNL A   1      32.951  18.898  25.307  1.00  0.00     0.012 A 
ATOM     20  C   UNL A   1      34.910  17.989  24.387  1.00  0.00     0.012 A 
ENDBRANCH  12  14
ENDBRANCH  10  12
ENDBRANCH   8  10
ENDBRANCH   6   8
ENDBRANCH   5   6
ENDBRANCH   4   5
ENDBRANCH   3   4
ENDBRANCH   2   3
ENDBRANCH   1   2
BRANCH   1  21
ATOM     21  C   UNL A   1      41.196  19.323  26.284  1.00  0.00     0.188 C 
BRANCH  21  22
ATOM     22  O   UNL A   1      42.090  19.548  25.218  1.00  0.00    -0.376 OA
BRANCH  22  23
ATOM     23  C   UNL A   1      43.460  19.602  25.572  1.00  0.00     0.202 C 
BRANCH  23  24
ATOM     24  C   UNL A   1      44.172  20.947  25.284  1.00  0.00     0.261 C 
BRANCH  24  25
ATOM     25  O   UNL A   1      43.229  22.038  25.116  1.00  0.00    -0.460 OA
BRANCH  25  26
ATOM     26  C   UNL A   1      43.726  23.325  24.956  1.00  0.00     0.338 C 
ATOM     27  O   UNL A   1      44.854  23.592  24.658  1.00  0.00    -0.246 OA
BRANCH  26  28
ATOM     28  C   UNL A   1      42.695  24.317  25.461  1.00  0.00     0.060 A 
ATOM     29  C   UNL A   1      42.364  25.581  24.939  1.00  0.00     0.016 A 
ATOM     30  C   UNL A   1      42.362  24.139  26.747  1.00  0.00     0.016 A 
ATOM     31  C   UNL A   1      41.947  26.704  25.806  1.00  0.00     0.010 A 
ATOM     32  C   UNL A   1      42.374  25.299  27.503  1.00  0.00     0.010 A 
ATOM     33  C   UNL A   1      42.057  26.656  27.200  1.00  0.00    -0.014 A 
BRANCH  33  34
ATOM     34  C   UNL A   1      41.798  27.925  28.388  1.00  0.00     0.031 A 
ATOM     35  C   UNL A   1      40.503  29.113  28.640  1.00  0.00     0.074 A 
ATOM     36  C   UNL A   1      42.716  27.998  29.379  1.00  0.00     0.049 A 
ATOM     37  N   UNL A   1      40.327  29.834  29.733  1.00  0.00    -0.248 NA
ATOM     38  C   UNL A   1      39.273  29.440  27.808  1.00  0.00     0.031 C 
ATOM     39  C   UNL A   1      42.667  28.728  30.651  1.00  0.00     0.029 A 
ATOM     40  N   UNL A   1      43.994  27.433  29.402  1.00  0.00    -0.354 N 
ATOM     41  C   UNL A   1      39.094  30.503  29.683  1.00  0.00     0.074 A 
ATOM     42  C   UNL A   1      38.364  29.943  28.625  1.00  0.00     0.031 C 
ATOM     43  C   UNL A   1      43.921  28.903  31.097  1.00  0.00     0.029 A 
ATOM     44  C   UNL A   1      44.797  28.382  30.069  1.00  0.00     0.049 A 
ATOM     45  H   UNL A   1      44.273  26.564  29.032  1.00  0.00     0.167 HD
ATOM     46  C   UNL A   1      38.749  31.655  30.317  1.00  0.00     0.037 A 
ATOM     47  C   UNL A   1      45.691  29.090  29.325  1.00  0.00     0.037 A 
ATOM     48  C   UNL A   1      39.914  32.232  30.916  1.00  0.00     0.049 A 
ATOM     49  C   UNL A   1      45.326  30.564  29.241  1.00  0.00     0.074 A 
ATOM     50  C   UNL A   1      40.596  31.977  32.085  1.00  0.00     0.029 A 
ATOM     51  N   UNL A   1      40.809  32.827  30.047  1.00  0.00    -0.354 N 
ATOM     52  N   UNL A   1      44.218  31.097  29.691  1.00  0.00    -0.248 NA
ATOM     53  C   UNL A   1      46.185  31.545  28.585  1.00  0.00     0.031 C 
ATOM     54  C   UNL A   1      41.970  32.278  31.836  1.00  0.00     0.029 A 
ATOM     55  C   UNL A   1      42.090  32.802  30.560  1.00  0.00     0.049 A 
ATOM     56  H   UNL A   1      40.565  33.219  29.177  1.00  0.00     0.167 HD
ATOM     57  C   UNL A   1      44.196  32.430  29.387  1.00  0.00     0.074 A 
ATOM     58  C   UNL A   1      45.434  32.655  28.661  1.00  0.00     0.031 C 
ATOM     59  C   UNL A   1      43.192  33.284  29.741  1.00  0.00     0.037 A 
BRANCH  46  60
ATOM     60  C   UNL A   1      37.336  32.212  30.327  1.00  0.00     0.064 A 
ATOM     61  C   UNL A   1      36.991  33.206  29.396  1.00  0.00     0.173 A 
ATOM     62  C   UNL A   1      36.339  31.925  31.288  1.00  0.00     0.173 A 
ATOM     63  F   UNL A   1      37.828  33.513  28.395  1.00  0.00    -0.203 F 
ATOM     64  C   UNL A   1      35.799  33.939  29.493  1.00  0.00     0.198 A 
ATOM     65  C   UNL A   1      35.183  32.708  31.433  1.00  0.00     0.198 A 
ATOM     66  F   UNL A   1      36.462  30.882  32.125  1.00  0.00    -0.203 F 
ATOM     67  F   UNL A   1      35.522  34.886  28.585  1.00  0.00    -0.200 F 
ATOM     68  C   UNL A   1      34.919  33.724  30.539  1.00  0.00     0.200 A 
ATOM     69  F   UNL A   1      34.345  32.490  32.459  1.00  0.00    -0.200 F 
ATOM     70  F   UNL A   1      33.825  34.486  30.680  1.00  0.00    -0.200 F 
ENDBRANCH  46  60
BRANCH  47  71
ATOM     71  C   UNL A   1      46.305  28.238  28.246  1.00  0.00     0.064 A 
ATOM     72  C   UNL A   1      47.332  27.331  28.620  1.00  0.00     0.173 A 
ATOM     73  C   UNL A   1      45.702  28.020  27.004  1.00  0.00     0.173 A 
ATOM     74  F   UNL A   1      47.971  27.480  29.794  1.00  0.00    -0.203 F 
ATOM     75  C   UNL A   1      47.603  26.178  27.885  1.00  0.00     0.198 A 
ATOM     76  C   UNL A   1      46.035  26.900  26.230  1.00  0.00     0.198 A 
ATOM     77  F   UNL A   1      44.692  28.796  26.588  1.00  0.00    -0.203 F 
ATOM     78  F   UNL A   1      48.427  25.242  28.380  1.00  0.00    -0.200 F 
ATOM     79  C   UNL A   1      46.941  25.956  26.695  1.00  0.00     0.200 A 
ATOM     80  F   UNL A   1      45.346  26.642  25.108  1.00  0.00    -0.200 F 
ATOM     81  F   UNL A   1      47.111  24.800  26.037  1.00  0.00    -0.200 F 
ENDBRANCH  47  71
BRANCH  59  82
ATOM     82  C   UNL A   1      43.241  34.737  29.390  1.00  0.00     0.064 A 
ATOM     83  C   UNL A   1      43.462  35.709  30.374  1.00  0.00     0.173 A 
ATOM     84  C   UNL A   1      42.936  35.200  28.095  1.00  0.00     0.173 A 
ATOM     85  F   UNL A   1      43.706  35.351  31.644  1.00  0.00    -0.203 F 
ATOM     86  C   UNL A   1      43.424  37.067  30.073  1.00  0.00     0.198 A 
ATOM     87  C   UNL A   1      42.827  36.560  27.814  1.00  0.00     0.198 A 
ATOM     88  F   UNL A   1      42.744  34.347  27.077  1.00  0.00    -0.203 F 
ATOM     89  F   UNL A   1      43.706  37.965  31.027  1.00  0.00    -0.200 F 
ATOM     90  C   UNL A   1      43.088  37.493  28.798  1.00  0.00     0.200 A 
ATOM     91  F   UNL A   1      42.467  36.959  26.585  1.00  0.00    -0.200 F 
ATOM     92  F   UNL A   1      43.017  38.801  28.522  1.00  0.00    -0.200 F 
ENDBRANCH  59  82
ENDBRANCH  33  34
ENDBRANCH  26  28
ENDBRANCH  25  26
ENDBRANCH  24  25
ENDBRANCH  23  24
ENDBRANCH  22  23
ENDBRANCH  21  22
ENDBRANCH   1  21
TORSDOF 20
ENDMDL
MODEL 2
REMARK VINA RESULT:     -12.5      1.875      3.290
REMARK SMILES Cc1ccc(C(=O)[C@@H](C)[C@H](C)C(=O)OCCOCCOCCOC(=O)c2ccc(-c3c4nc(c(-c5c(F)c(F)c(F)c(F)c5F)c5ccc([nH]5)c(-c5c(F)c(F)c(F)c(F)c5F)c5nc(c(-c6c(F)c(F)c(F)c(F)c6F)c6ccc3[nH]6)C=C5)C=C4)cc2)cc1
REMARK SMILES IDX 18 1 17 2 16 3 15 4 14 5 12 6 13 7 10 8 11 9 8 10 9 11 6 12
REMARK SMILES IDX 7 13 5 14 1 15 2 16 3 17 90 18 4 19 89 20 19 21 20 22 21 23
REMARK SMILES IDX 22 24 23 25 24 26 25 27 26 28 27 29 88 30 28 31 87 32 29 33
REMARK SMILES IDX 30 34 31 35 81 36 32 37 86 38 80 39 82 40 33 41 85 42 79 43
REMARK SMILES IDX 78 44 34 46 66 47 46 48 65 49 47 50 50 51 64 52 83 53 48 54
REMARK SMILES IDX 49 55 63 57 84 58 51 59 35 60 36 61 44 62 37 63 38 64 42 65
REMARK SMILES IDX 45 66 39 67 40 68 43 69 41 70 67 71 68 72 76 73 69 74 70 75
REMARK SMILES IDX 74 76 77 77 71 78 72 79 75 80 73 81 52 82 53 83 61 84 54 85
REMARK SMILES IDX 55 86 59 87 62 88 56 89 57 90 60 91 58 92
REMARK H PARENT 82 45 50 56
REMARK Flexibility Score: inf
ROOT
ATOM      1  C   UNL A   1      43.539  18.898  25.181  1.00  0.00     0.188 C 
ENDROOT
BRANCH   1   2
ATOM      2  O   UNL A   1      42.225  19.478  25.092  1.00  0.00    -0.376 OA
BRANCH   2   3
ATOM      3  C   UNL A   1      41.184  19.610  26.082  1.00  0.00     0.202 C 
BRANCH   3   4
ATOM      4  C   UNL A   1      40.033  20.899  26.499  1.00  0.00     0.261 C 
BRANCH   4   5
ATOM      5  O   UNL A   1      38.503  21.462  25.828  1.00  0.00    -0.463 OA
BRANCH   5   6
ATOM      6  C   UNL A   1      37.577  22.594  25.720  1.00  0.00     0.309 C 
ATOM      7  O   UNL A   1      37.847  23.788  25.910  1.00  0.00    -0.252 OA
BRANCH   6   8
ATOM      8  C   UNL A   1      36.069  22.411  25.562  1.00  0.00     0.106 C 
ATOM      9  C   UNL A   1      35.121  22.846  26.668  1.00  0.00     0.021 C 
BRANCH   8  10
ATOM     10  C   UNL A   1      35.556  22.492  24.099  1.00  0.00     0.072 C 
ATOM     11  C   UNL A   1      36.651  22.952  23.085  1.00  0.00     0.017 C 
BRANCH  10  12
ATOM     12  C   UNL A   1      34.184  23.094  23.733  1.00  0.00     0.166 C 
ATOM     13  O   UNL A   1      33.223  22.321  23.629  1.00  0.00    -0.294 OA
BRANCH  12  14
ATOM     14  C   UNL A   1      33.892  24.543  23.463  1.00  0.00     0.018 A 
ATOM     15  C   UNL A   1      32.331  28.559  23.015  1.00  0.00     0.044 C 
ATOM     16  C   UNL A   1      32.938  27.203  23.178  1.00  0.00    -0.051 A 
ATOM     17  C   UNL A   1      33.625  26.806  24.328  1.00  0.00     0.004 A 
ATOM     18  C   UNL A   1      32.874  26.318  22.125  1.00  0.00     0.004 A 
ATOM     19  C   UNL A   1      34.071  25.480  24.480  1.00  0.00     0.012 A 
ATOM     20  C   UNL A   1      33.401  25.043  22.273  1.00  0.00     0.012 A 
ENDBRANCH  12  14
ENDBRANCH  10  12
ENDBRANCH   8  10
ENDBRANCH   6   8
ENDBRANCH   5   6
ENDBRANCH   4   5
ENDBRANCH   3   4
ENDBRANCH   2   3
ENDBRANCH   1   2
BRANCH   1  21
ATOM     21  C   UNL A   1      44.849  19.662  25.007  1.00  0.00     0.188 C 
BRANCH  21  22
ATOM     22  O   UNL A   1      44.741  20.629  23.988  1.00  0.00    -0.376 OA
BRANCH  22  23
ATOM     23  C   UNL A   1      45.353  21.877  24.264  1.00  0.00     0.202 C 
BRANCH  23  24
ATOM     24  C   UNL A   1      44.434  23.115  24.129  1.00  0.00     0.261 C 
BRANCH  24  25
ATOM     25  O   UNL A   1      43.101  22.865  24.648  1.00  0.00    -0.460 OA
BRANCH  25  26
ATOM     26  C   UNL A   1      42.887  22.990  26.014  1.00  0.00     0.338 C 
ATOM     27  O   UNL A   1      43.184  22.168  26.832  1.00  0.00    -0.246 OA
BRANCH  26  28
ATOM     28  C   UNL A   1      41.999  24.195  26.265  1.00  0.00     0.060 A 
ATOM     29  C   UNL A   1      42.049  25.463  25.656  1.00  0.00     0.016 A 
ATOM     30  C   UNL A   1      41.381  24.170  27.454  1.00  0.00     0.016 A 
ATOM     31  C   UNL A   1      41.703  26.699  26.388  1.00  0.00     0.010 A 
ATOM     32  C   UNL A   1      41.475  25.352  28.168  1.00  0.00     0.010 A 
ATOM     33  C   UNL A   1      41.512  26.723  27.773  1.00  0.00    -0.014 A 
BRANCH  33  34
ATOM     34  C   UNL A   1      41.282  28.093  28.850  1.00  0.00     0.031 A 
ATOM     35  C   UNL A   1      40.004  29.315  29.009  1.00  0.00     0.074 A 
ATOM     36  C   UNL A   1      42.209  28.238  29.824  1.00  0.00     0.049 A 
ATOM     37  N   UNL A   1      39.847  30.130  30.038  1.00  0.00    -0.248 NA
ATOM     38  C   UNL A   1      38.770  29.586  28.163  1.00  0.00     0.031 C 
ATOM     39  C   UNL A   1      42.182  29.075  31.027  1.00  0.00     0.029 A 
ATOM     40  N   UNL A   1      43.480  27.659  29.884  1.00  0.00    -0.354 N 
ATOM     41  C   UNL A   1      38.623  30.809  29.941  1.00  0.00     0.074 A 
ATOM     42  C   UNL A   1      37.876  30.170  28.940  1.00  0.00     0.031 C 
ATOM     43  C   UNL A   1      43.442  29.270  31.447  1.00  0.00     0.029 A 
ATOM     44  C   UNL A   1      44.302  28.652  30.460  1.00  0.00     0.049 A 
ATOM     45  H   UNL A   1      43.744  26.758  29.588  1.00  0.00     0.167 HD
ATOM     46  C   UNL A   1      38.299  32.016  30.476  1.00  0.00     0.037 A 
ATOM     47  C   UNL A   1      45.198  29.280  29.651  1.00  0.00     0.037 A 
ATOM     48  C   UNL A   1      39.477  32.627  31.013  1.00  0.00     0.049 A 
ATOM     49  C   UNL A   1      44.851  30.746  29.443  1.00  0.00     0.074 A 
ATOM     50  C   UNL A   1      40.167  32.463  32.194  1.00  0.00     0.029 A 
ATOM     51  N   UNL A   1      40.371  33.132  30.088  1.00  0.00    -0.354 N 
ATOM     52  N   UNL A   1      43.755  31.332  29.854  1.00  0.00    -0.248 NA
ATOM     53  C   UNL A   1      45.717  31.656  28.698  1.00  0.00     0.031 C 
ATOM     54  C   UNL A   1      41.543  32.724  31.909  1.00  0.00     0.029 A 
ATOM     55  C   UNL A   1      41.657  33.134  30.590  1.00  0.00     0.049 A 
ATOM     56  H   UNL A   1      40.124  33.451  29.190  1.00  0.00     0.167 HD
ATOM     57  C   UNL A   1      43.746  32.633  29.437  1.00  0.00     0.074 A 
ATOM     58  C   UNL A   1      44.980  32.778  28.683  1.00  0.00     0.031 C 
ATOM     59  C   UNL A   1      42.757  33.528  29.725  1.00  0.00     0.037 A 
BRANCH  46  60
ATOM     60  C   UNL A   1      36.893  32.591  30.449  1.00  0.00     0.064 A 
ATOM     61  C   UNL A   1      36.522  33.428  29.385  1.00  0.00     0.173 A 
ATOM     62  C   UNL A   1      35.933  32.479  31.482  1.00  0.00     0.173 A 
ATOM     63  F   UNL A   1      37.321  33.556  28.316  1.00  0.00    -0.203 F 
ATOM     64  C   UNL A   1      35.342  34.188  29.407  1.00  0.00     0.198 A 
ATOM     65  C   UNL A   1      34.792  33.294  31.542  1.00  0.00     0.198 A 
ATOM     66  F   UNL A   1      36.078  31.581  32.470  1.00  0.00    -0.203 F 
ATOM     67  F   UNL A   1      35.039  34.981  28.370  1.00  0.00    -0.200 F 
ATOM     68  C   UNL A   1      34.503  34.158  30.507  1.00  0.00     0.200 A 
ATOM     69  F   UNL A   1      33.994  33.258  32.621  1.00  0.00    -0.200 F 
ATOM     70  F   UNL A   1      33.423  34.951  30.565  1.00  0.00    -0.200 F 
ENDBRANCH  46  60
BRANCH  47  71
ATOM     71  C   UNL A   1      45.791  28.331  28.644  1.00  0.00     0.064 A 
ATOM     72  C   UNL A   1      46.679  27.328  29.119  1.00  0.00     0.173 A 
ATOM     73  C   UNL A   1      45.260  28.138  27.365  1.00  0.00     0.173 A 
ATOM     74  F   UNL A   1      47.242  27.446  30.334  1.00  0.00    -0.203 F 
ATOM     75  C   UNL A   1      46.872  26.129  28.436  1.00  0.00     0.198 A 
ATOM     76  C   UNL A   1      45.522  26.963  26.647  1.00  0.00     0.198 A 
ATOM     77  F   UNL A   1      44.378  29.006  26.853  1.00  0.00    -0.203 F 
ATOM     78  F   UNL A   1      47.546  25.125  29.016  1.00  0.00    -0.200 F 
ATOM     79  C   UNL A   1      46.279  25.942  27.204  1.00  0.00     0.200 A 
ATOM     80  F   UNL A   1      44.893  26.745  25.481  1.00  0.00    -0.200 F 
ATOM     81  F   UNL A   1      46.367  24.752  26.590  1.00  0.00    -0.200 F 
ENDBRANCH  47  71
BRANCH  59  82
ATOM     82  C   UNL A   1      42.821  34.945  29.248  1.00  0.00     0.064 A 
ATOM     83  C   UNL A   1      42.663  35.256  27.892  1.00  0.00     0.173 A 
ATOM     84  C   UNL A   1      43.175  36.004  30.108  1.00  0.00     0.173 A 
ATOM     85  F   UNL A   1      42.379  34.295  27.000  1.00  0.00    -0.203 F 
ATOM     86  C   UNL A   1      42.807  36.560  27.426  1.00  0.00     0.198 A 
ATOM     87  C   UNL A   1      43.388  37.293  29.627  1.00  0.00     0.198 A 
ATOM     88  F   UNL A   1      43.313  35.812  31.429  1.00  0.00    -0.203 F 
ATOM     89  F   UNL A   1      42.582  36.829  26.133  1.00  0.00    -0.200 F 
ATOM     90  C   UNL A   1      43.188  37.574  28.289  1.00  0.00     0.200 A 
ATOM     91  F   UNL A   1      43.791  38.259  30.465  1.00  0.00    -0.200 F 
ATOM     92  F   UNL A   1      43.360  38.820  27.830  1.00  0.00    -0.200 F 
ENDBRANCH  59  82
ENDBRANCH  33  34
ENDBRANCH  26  28
ENDBRANCH  25  26
ENDBRANCH  24  25
ENDBRANCH  23  24
ENDBRANCH  22  23
ENDBRANCH  21  22
ENDBRANCH   1  21
TORSDOF 20
ENDMDL
MODEL 3
REMARK VINA RESULT:     -12.4      3.925     10.299
REMARK SMILES Cc1ccc(C(=O)[C@@H](C)[C@H](C)C(=O)OCCOCCOCCOC(=O)c2ccc(-c3c4nc(c(-c5c(F)c(F)c(F)c(F)c5F)c5ccc([nH]5)c(-c5c(F)c(F)c(F)c(F)c5F)c5nc(c(-c6c(F)c(F)c(F)c(F)c6F)c6ccc3[nH]6)C=C5)C=C4)cc2)cc1
REMARK SMILES IDX 18 1 17 2 16 3 15 4 14 5 12 6 13 7 10 8 11 9 8 10 9 11 6 12
REMARK SMILES IDX 7 13 5 14 1 15 2 16 3 17 90 18 4 19 89 20 19 21 20 22 21 23
REMARK SMILES IDX 22 24 23 25 24 26 25 27 26 28 27 29 88 30 28 31 87 32 29 33
REMARK SMILES IDX 30 34 31 35 81 36 32 37 86 38 80 39 82 40 33 41 85 42 79 43
REMARK SMILES IDX 78 44 34 46 66 47 46 48 65 49 47 50 50 51 64 52 83 53 48 54
REMARK SMILES IDX 49 55 63 57 84 58 51 59 35 60 36 61 44 62 37 63 38 64 42 65
REMARK SMILES IDX 45 66 39 67 40 68 43 69 41 70 67 71 68 72 76 73 69 74 70 75
REMARK SMILES IDX 74 76 77 77 71 78 72 79 75 80 73 81 52 82 53 83 61 84 54 85
REMARK SMILES IDX 55 86 59 87 62 88 56 89 57 90 60 91 58 92
REMARK H PARENT 82 45 50 56
REMARK Flexibility Score: inf
ROOT
ATOM      1  C   UNL A   1      34.356  30.855  27.374  1.00  0.00     0.188 C 
ENDROOT
BRANCH   1   2
ATOM      2  O   UNL A   1      33.918  29.782  26.520  1.00  0.00    -0.376 OA
BRANCH   2   3
ATOM      3  C   UNL A   1      33.567  28.417  26.827  1.00  0.00     0.202 C 
BRANCH   3   4
ATOM      4  C   UNL A   1      32.285  27.317  26.272  1.00  0.00     0.261 C 
BRANCH   4   5
ATOM      5  O   UNL A   1      32.230  25.907  25.215  1.00  0.00    -0.463 OA
BRANCH   5   6
ATOM      6  C   UNL A   1      31.385  24.838  24.672  1.00  0.00     0.309 C 
ATOM      7  O   UNL A   1      30.283  24.977  24.122  1.00  0.00    -0.252 OA
BRANCH   6   8
ATOM      8  C   UNL A   1      31.673  23.358  24.914  1.00  0.00     0.106 C 
ATOM      9  C   UNL A   1      30.753  22.529  25.795  1.00  0.00     0.021 C 
BRANCH   8  10
ATOM     10  C   UNL A   1      32.390  22.638  23.741  1.00  0.00     0.072 C 
ATOM     11  C   UNL A   1      32.434  21.085  23.903  1.00  0.00     0.017 C 
BRANCH  10  12
ATOM     12  C   UNL A   1      33.704  23.161  23.124  1.00  0.00     0.166 C 
ATOM     13  O   UNL A   1      33.708  23.435  21.918  1.00  0.00    -0.294 OA
BRANCH  12  14
ATOM     14  C   UNL A   1      35.009  23.354  23.845  1.00  0.00     0.018 A 
ATOM     15  C   UNL A   1      38.565  23.231  26.316  1.00  0.00     0.044 C 
ATOM     16  C   UNL A   1      37.379  23.305  25.409  1.00  0.00    -0.051 A 
ATOM     17  C   UNL A   1      37.327  22.674  24.164  1.00  0.00     0.004 A 
ATOM     18  C   UNL A   1      36.306  24.081  25.787  1.00  0.00     0.004 A 
ATOM     19  C   UNL A   1      36.143  22.674  23.404  1.00  0.00     0.012 A 
ATOM     20  C   UNL A   1      35.182  24.133  24.973  1.00  0.00     0.012 A 
ENDBRANCH  12  14
ENDBRANCH  10  12
ENDBRANCH   8  10
ENDBRANCH   6   8
ENDBRANCH   5   6
ENDBRANCH   4   5
ENDBRANCH   3   4
ENDBRANCH   2   3
ENDBRANCH   1   2
BRANCH   1  21
ATOM     21  C   UNL A   1      33.460  31.964  27.919  1.00  0.00     0.188 C 
BRANCH  21  22
ATOM     22  O   UNL A   1      34.130  33.203  27.919  1.00  0.00    -0.376 OA
BRANCH  22  23
ATOM     23  C   UNL A   1      33.486  34.245  28.631  1.00  0.00     0.202 C 
BRANCH  23  24
ATOM     24  C   UNL A   1      34.052  34.538  30.042  1.00  0.00     0.261 C 
BRANCH  24  25
ATOM     25  O   UNL A   1      34.110  33.344  30.866  1.00  0.00    -0.460 OA
BRANCH  25  26
ATOM     26  C   UNL A   1      35.284  33.070  31.555  1.00  0.00     0.338 C 
ATOM     27  O   UNL A   1      35.798  33.802  32.351  1.00  0.00    -0.246 OA
BRANCH  26  28
ATOM     28  C   UNL A   1      35.930  31.834  30.956  1.00  0.00     0.060 A 
ATOM     29  C   UNL A   1      36.138  30.577  31.552  1.00  0.00     0.016 A 
ATOM     30  C   UNL A   1      36.727  32.097  29.911  1.00  0.00     0.016 A 
ATOM     31  C   UNL A   1      37.317  29.743  31.234  1.00  0.00     0.010 A 
ATOM     32  C   UNL A   1      37.967  31.483  29.974  1.00  0.00     0.010 A 
ATOM     33  C   UNL A   1      38.401  30.227  30.495  1.00  0.00    -0.014 A 
BRANCH  33  34
ATOM     34  C   UNL A   1      39.957  29.479  30.166  1.00  0.00     0.031 A 
ATOM     35  C   UNL A   1      40.435  27.901  29.508  1.00  0.00     0.074 A 
ATOM     36  C   UNL A   1      41.041  30.261  30.373  1.00  0.00     0.049 A 
ATOM     37  N   UNL A   1      41.645  27.585  29.080  1.00  0.00    -0.248 NA
ATOM     38  C   UNL A   1      39.606  26.683  29.133  1.00  0.00     0.031 C 
ATOM     39  C   UNL A   1      42.432  30.067  29.953  1.00  0.00     0.029 A 
ATOM     40  N   UNL A   1      41.110  31.444  31.115  1.00  0.00    -0.354 N 
ATOM     41  C   UNL A   1      41.621  26.343  28.426  1.00  0.00     0.074 A 
ATOM     42  C   UNL A   1      40.275  26.016  28.210  1.00  0.00     0.031 C 
ATOM     43  C   UNL A   1      43.230  30.806  30.740  1.00  0.00     0.029 A 
ATOM     44  C   UNL A   1      42.374  31.403  31.743  1.00  0.00     0.049 A 
ATOM     45  H   UNL A   1      40.427  32.150  31.185  1.00  0.00     0.167 HD
ATOM     46  C   UNL A   1      42.649  25.465  28.277  1.00  0.00     0.037 A 
ATOM     47  C   UNL A   1      42.407  31.174  33.084  1.00  0.00     0.037 A 
ATOM     48  C   UNL A   1      43.758  25.896  29.072  1.00  0.00     0.049 A 
ATOM     49  C   UNL A   1      43.029  29.827  33.419  1.00  0.00     0.074 A 
ATOM     50  C   UNL A   1      44.743  26.840  28.881  1.00  0.00     0.029 A 
ATOM     51  N   UNL A   1      43.632  25.714  30.436  1.00  0.00    -0.354 N 
ATOM     52  N   UNL A   1      43.366  28.910  32.547  1.00  0.00    -0.248 NA
ATOM     53  C   UNL A   1      43.269  29.397  34.794  1.00  0.00     0.031 C 
ATOM     54  C   UNL A   1      45.087  27.346  30.172  1.00  0.00     0.029 A 
ATOM     55  C   UNL A   1      44.383  26.639  31.133  1.00  0.00     0.049 A 
ATOM     56  H   UNL A   1      43.081  25.015  30.857  1.00  0.00     0.167 HD
ATOM     57  C   UNL A   1      43.832  27.804  33.202  1.00  0.00     0.074 A 
ATOM     58  C   UNL A   1      43.715  28.145  34.611  1.00  0.00     0.031 C 
ATOM     59  C   UNL A   1      44.293  26.679  32.583  1.00  0.00     0.037 A 
BRANCH  46  60
ATOM     60  C   UNL A   1      42.564  24.219  27.413  1.00  0.00     0.064 A 
ATOM     61  C   UNL A   1      42.366  22.974  28.032  1.00  0.00     0.173 A 
ATOM     62  C   UNL A   1      42.803  24.159  26.019  1.00  0.00     0.173 A 
ATOM     63  F   UNL A   1      42.060  22.910  29.336  1.00  0.00    -0.203 F 
ATOM     64  C   UNL A   1      42.517  21.762  27.341  1.00  0.00     0.198 A 
ATOM     65  C   UNL A   1      43.031  22.950  25.345  1.00  0.00     0.198 A 
ATOM     66  F   UNL A   1      42.834  25.275  25.273  1.00  0.00    -0.203 F 
ATOM     67  F   UNL A   1      42.329  20.600  27.983  1.00  0.00    -0.200 F 
ATOM     68  C   UNL A   1      42.898  21.750  26.011  1.00  0.00     0.200 A 
ATOM     69  F   UNL A   1      43.408  22.957  24.057  1.00  0.00    -0.200 F 
ATOM     70  F   UNL A   1      43.129  20.591  25.377  1.00  0.00    -0.200 F 
ENDBRANCH  46  60
BRANCH  47  71
ATOM     71  C   UNL A   1      41.260  31.850  33.787  1.00  0.00     0.064 A 
ATOM     72  C   UNL A   1      41.376  33.239  34.062  1.00  0.00     0.173 A 
ATOM     73  C   UNL A   1      39.975  31.306  33.859  1.00  0.00     0.173 A 
ATOM     74  F   UNL A   1      42.580  33.836  34.027  1.00  0.00    -0.203 F 
ATOM     75  C   UNL A   1      40.258  34.058  34.211  1.00  0.00     0.198 A 
ATOM     76  C   UNL A   1      38.859  32.122  34.089  1.00  0.00     0.198 A 
ATOM     77  F   UNL A   1      39.762  30.015  33.569  1.00  0.00    -0.203 F 
ATOM     78  F   UNL A   1      40.402  35.391  34.256  1.00  0.00    -0.200 F 
ATOM     79  C   UNL A   1      38.997  33.499  34.210  1.00  0.00     0.200 A 
ATOM     80  F   UNL A   1      37.627  31.596  34.018  1.00  0.00    -0.200 F 
ATOM     81  F   UNL A   1      37.912  34.287  34.241  1.00  0.00    -0.200 F 
ENDBRANCH  47  71
BRANCH  59  82
ATOM     82  C   UNL A   1      44.805  25.511  33.365  1.00  0.00     0.064 A 
ATOM     83  C   UNL A   1      46.162  25.165  33.338  1.00  0.00     0.173 A 
ATOM     84  C   UNL A   1      43.937  24.633  34.045  1.00  0.00     0.173 A 
ATOM     85  F   UNL A   1      47.045  25.920  32.666  1.00  0.00    -0.203 F 
ATOM     86  C   UNL A   1      46.634  24.031  33.991  1.00  0.00     0.198 A 
ATOM     87  C   UNL A   1      44.403  23.461  34.636  1.00  0.00     0.198 A 
ATOM     88  F   UNL A   1      42.627  24.897  34.158  1.00  0.00    -0.203 F 
ATOM     89  F   UNL A   1      47.948  23.770  33.998  1.00  0.00    -0.200 F 
ATOM     90  C   UNL A   1      45.753  23.169  34.623  1.00  0.00     0.200 A 
ATOM     91  F   UNL A   1      43.536  22.617  35.215  1.00  0.00    -0.200 F 
ATOM     92  F   UNL A   1      46.207  22.059  35.220  1.00  0.00    -0.200 F 
ENDBRANCH  59  82
ENDBRANCH  33  34
ENDBRANCH  26  28
ENDBRANCH  25  26
ENDBRANCH  24  25
ENDBRANCH  23  24
ENDBRANCH  22  23
ENDBRANCH  21  22
ENDBRANCH   1  21
TORSDOF 20
ENDMDL
