MODEL 1
REMARK VINA RESULT:     -11.0      0.000      0.000
REMARK SMILES CCOc1cccc(-c2ccc([C@@H](C)C(=O)OCCOCCOCCOC(=O)c3ccc(-c4c5nc(c(-c6c(F)c(F)c(F)c(F)c6F)c6ccc([nH]6)c(-c6c(F)c(F)c(F)c(F)c6F)c6nc(c(-c7c(F)c(F)c(F)c(F)c7F)c7ccc4[nH]7)C=C6)C=C5)cc3)cc2F)c1
REMARK SMILES IDX 21 1 20 2 19 3 18 4 17 5 15 6 16 7 13 8 14 9 12 10 9 11
REMARK SMILES IDX 10 12 93 13 11 14 92 15 94 16 8 17 4 18 5 19 95 20 6 21 7 22
REMARK SMILES IDX 3 23 2 24 1 25 22 26 23 27 24 28 25 29 26 30 27 31 28 32
REMARK SMILES IDX 29 33 30 34 91 35 31 36 90 37 32 38 33 39 34 40 84 41 35 42
REMARK SMILES IDX 89 43 83 44 85 45 36 46 88 47 82 48 81 49 37 51 69 52 49 53
REMARK SMILES IDX 68 54 50 55 53 56 67 57 86 58 51 59 52 60 66 62 87 63 54 64
REMARK SMILES IDX 38 65 39 66 47 67 40 68 41 69 45 70 48 71 42 72 43 73 46 74
REMARK SMILES IDX 44 75 70 76 71 77 79 78 72 79 73 80 77 81 80 82 74 83 75 84
REMARK SMILES IDX 78 85 76 86 55 87 56 88 64 89 57 90 58 91 62 92 65 93 59 94
REMARK SMILES IDX 60 95 63 96 61 97
REMARK H PARENT 85 50 53 61
REMARK Flexibility Score: inf
ROOT
ATOM      1  C   UNL A   1      33.664  26.618  25.202  1.00  0.00     0.188 C 
ENDROOT
BRANCH   1   2
ATOM      2  O   UNL A   1      34.210  27.862  24.780  1.00  0.00    -0.376 OA
BRANCH   2   3
ATOM      3  C   UNL A   1      34.032  28.281  23.432  1.00  0.00     0.202 C 
BRANCH   3   4
ATOM      4  C   UNL A   1      32.694  28.931  23.039  1.00  0.00     0.261 C 
BRANCH   4   5
ATOM      5  O   UNL A   1      31.707  28.042  22.464  1.00  0.00    -0.463 OA
BRANCH   5   6
ATOM      6  C   UNL A   1      30.539  27.921  23.144  1.00  0.00     0.313 C 
ATOM      7  O   UNL A   1      29.985  28.866  23.707  1.00  0.00    -0.252 OA
BRANCH   6   8
ATOM      8  C   UNL A   1      29.900  26.530  23.166  1.00  0.00     0.126 C 
ATOM      9  C   UNL A   1      28.719  26.545  24.135  1.00  0.00     0.025 C 
BRANCH   8  10
ATOM     10  C   UNL A   1      30.729  25.262  23.363  1.00  0.00    -0.031 A 
ATOM     11  C   UNL A   1      32.238  22.867  23.878  1.00  0.00     0.018 A 
ATOM     12  C   UNL A   1      32.520  23.702  22.779  1.00  0.00     0.012 A 
ATOM     13  C   UNL A   1      31.184  23.267  24.708  1.00  0.00     0.131 A 
ATOM     14  C   UNL A   1      31.788  24.882  22.529  1.00  0.00     0.005 A 
ATOM     15  C   UNL A   1      30.452  24.436  24.468  1.00  0.00     0.044 A 
ATOM     16  F   UNL A   1      30.847  22.533  25.780  1.00  0.00    -0.206 F 
BRANCH  11  17
ATOM     17  C   UNL A   1      33.031  21.647  24.154  1.00  0.00    -0.012 A 
ATOM     18  C   UNL A   1      33.227  19.213  24.312  1.00  0.00     0.119 A 
ATOM     19  C   UNL A   1      34.530  19.326  24.782  1.00  0.00     0.046 A 
ATOM     20  C   UNL A   1      32.479  20.359  24.016  1.00  0.00     0.055 A 
ATOM     21  C   UNL A   1      35.099  20.589  24.931  1.00  0.00     0.004 A 
ATOM     22  C   UNL A   1      34.358  21.735  24.617  1.00  0.00     0.009 A 
BRANCH  18  23
ATOM     23  O   UNL A   1      32.658  17.969  24.308  1.00  0.00    -0.494 OA
BRANCH  23  24
ATOM     24  C   UNL A   1      32.879  17.231  25.516  1.00  0.00     0.226 C 
ATOM     25  C   UNL A   1      32.667  15.747  25.291  1.00  0.00     0.049 C 
ENDBRANCH  23  24
ENDBRANCH  18  23
ENDBRANCH  11  17
ENDBRANCH   8  10
ENDBRANCH   6   8
ENDBRANCH   5   6
ENDBRANCH   4   5
ENDBRANCH   3   4
ENDBRANCH   2   3
ENDBRANCH   1   2
BRANCH   1  26
ATOM     26  C   UNL A   1      32.695  26.575  26.393  1.00  0.00     0.188 C 
BRANCH  26  27
ATOM     27  O   UNL A   1      31.638  27.510  26.333  1.00  0.00    -0.376 OA
BRANCH  27  28
ATOM     28  C   UNL A   1      31.688  28.575  27.263  1.00  0.00     0.202 C 
BRANCH  28  29
ATOM     29  C   UNL A   1      31.743  29.978  26.640  1.00  0.00     0.261 C 
BRANCH  29  30
ATOM     30  O   UNL A   1      33.063  30.480  26.348  1.00  0.00    -0.460 OA
BRANCH  30  31
ATOM     31  C   UNL A   1      33.509  31.486  27.129  1.00  0.00     0.338 C 
ATOM     32  O   UNL A   1      32.873  32.476  27.465  1.00  0.00    -0.246 OA
BRANCH  31  33
ATOM     33  C   UNL A   1      34.823  31.124  27.696  1.00  0.00     0.060 A 
ATOM     34  C   UNL A   1      35.098  29.778  27.986  1.00  0.00     0.016 A 
ATOM     35  C   UNL A   1      35.772  32.110  27.972  1.00  0.00     0.016 A 
ATOM     36  C   UNL A   1      36.312  29.420  28.577  1.00  0.00     0.010 A 
ATOM     37  C   UNL A   1      36.978  31.752  28.585  1.00  0.00     0.010 A 
ATOM     38  C   UNL A   1      37.243  30.411  28.919  1.00  0.00    -0.014 A 
BRANCH  38  39
ATOM     39  C   UNL A   1      38.404  30.070  29.781  1.00  0.00     0.031 A 
ATOM     40  C   UNL A   1      39.434  29.106  29.257  1.00  0.00     0.074 A 
ATOM     41  C   UNL A   1      38.558  30.616  31.000  1.00  0.00     0.049 A 
ATOM     42  N   UNL A   1      40.504  28.626  29.841  1.00  0.00    -0.248 NA
ATOM     43  C   UNL A   1      39.224  28.611  27.887  1.00  0.00     0.031 C 
ATOM     44  C   UNL A   1      37.656  31.587  31.613  1.00  0.00     0.029 A 
ATOM     45  N   UNL A   1      39.535  30.419  31.947  1.00  0.00    -0.354 N 
ATOM     46  C   UNL A   1      41.087  27.771  28.915  1.00  0.00     0.074 A 
ATOM     47  C   UNL A   1      40.236  27.770  27.743  1.00  0.00     0.031 C 
ATOM     48  C   UNL A   1      38.114  31.894  32.840  1.00  0.00     0.029 A 
ATOM     49  C   UNL A   1      39.323  31.117  33.111  1.00  0.00     0.049 A 
ATOM     50  H   UNL A   1      40.314  29.832  31.805  1.00  0.00     0.167 HD
ATOM     51  C   UNL A   1      42.233  27.058  29.025  1.00  0.00     0.037 A 
ATOM     52  C   UNL A   1      40.014  31.112  34.268  1.00  0.00     0.037 A 
ATOM     53  C   UNL A   1      43.081  27.059  30.188  1.00  0.00     0.049 A 
ATOM     54  C   UNL A   1      41.252  30.256  34.390  1.00  0.00     0.074 A 
ATOM     55  C   UNL A   1      44.275  26.387  30.386  1.00  0.00     0.029 A 
ATOM     56  N   UNL A   1      42.819  27.758  31.357  1.00  0.00    -0.354 N 
ATOM     57  N   UNL A   1      41.815  29.475  33.500  1.00  0.00    -0.248 NA
ATOM     58  C   UNL A   1      41.955  30.289  35.682  1.00  0.00     0.031 C 
ATOM     59  C   UNL A   1      44.705  26.630  31.695  1.00  0.00     0.029 A 
ATOM     60  C   UNL A   1      43.815  27.510  32.291  1.00  0.00     0.049 A 
ATOM     61  H   UNL A   1      42.043  28.345  31.502  1.00  0.00     0.167 HD
ATOM     62  C   UNL A   1      42.951  28.954  34.110  1.00  0.00     0.074 A 
ATOM     63  C   UNL A   1      43.006  29.520  35.440  1.00  0.00     0.031 C 
ATOM     64  C   UNL A   1      43.865  28.084  33.611  1.00  0.00     0.037 A 
BRANCH  51  65
ATOM     65  C   UNL A   1      42.626  26.189  27.864  1.00  0.00     0.064 A 
ATOM     66  C   UNL A   1      43.531  26.625  26.884  1.00  0.00     0.173 A 
ATOM     67  C   UNL A   1      42.116  24.886  27.750  1.00  0.00     0.173 A 
ATOM     68  F   UNL A   1      44.038  27.867  26.937  1.00  0.00    -0.203 F 
ATOM     69  C   UNL A   1      43.890  25.800  25.821  1.00  0.00     0.198 A 
ATOM     70  C   UNL A   1      42.503  24.052  26.705  1.00  0.00     0.198 A 
ATOM     71  F   UNL A   1      41.250  24.418  28.661  1.00  0.00    -0.203 F 
ATOM     72  F   UNL A   1      44.717  26.255  24.870  1.00  0.00    -0.200 F 
ATOM     73  C   UNL A   1      43.382  24.512  25.737  1.00  0.00     0.200 A 
ATOM     74  F   UNL A   1      42.022  22.803  26.634  1.00  0.00    -0.200 F 
ATOM     75  F   UNL A   1      43.736  23.715  24.720  1.00  0.00    -0.200 F 
ENDBRANCH  51  65
BRANCH  52  76
ATOM     76  C   UNL A   1      39.550  31.933  35.419  1.00  0.00     0.064 A 
ATOM     77  C   UNL A   1      38.633  31.426  36.350  1.00  0.00     0.173 A 
ATOM     78  C   UNL A   1      39.986  33.255  35.591  1.00  0.00     0.173 A 
ATOM     79  F   UNL A   1      38.161  30.177  36.213  1.00  0.00    -0.203 F 
ATOM     80  C   UNL A   1      38.151  32.214  37.392  1.00  0.00     0.198 A 
ATOM     81  C   UNL A   1      39.529  34.033  36.653  1.00  0.00     0.198 A 
ATOM     82  F   UNL A   1      40.858  33.793  34.726  1.00  0.00    -0.203 F 
ATOM     83  F   UNL A   1      37.229  31.723  38.232  1.00  0.00    -0.200 F 
ATOM     84  C   UNL A   1      38.605  33.516  37.547  1.00  0.00     0.200 A 
ATOM     85  F   UNL A   1      39.979  35.287  36.805  1.00  0.00    -0.200 F 
ATOM     86  F   UNL A   1      38.141  34.275  38.549  1.00  0.00    -0.200 F 
ENDBRANCH  52  76
BRANCH  64  87
ATOM     87  C   UNL A   1      45.031  27.725  34.491  1.00  0.00     0.064 A 
ATOM     88  C   UNL A   1      46.233  28.448  34.464  1.00  0.00     0.173 A 
ATOM     89  C   UNL A   1      44.933  26.656  35.397  1.00  0.00     0.173 A 
ATOM     90  F   UNL A   1      46.385  29.473  33.611  1.00  0.00    -0.203 F 
ATOM     91  C   UNL A   1      47.306  28.091  35.278  1.00  0.00     0.198 A 
ATOM     92  C   UNL A   1      45.993  26.325  36.237  1.00  0.00     0.198 A 
ATOM     93  F   UNL A   1      43.804  25.936  35.475  1.00  0.00    -0.203 F 
ATOM     94  F   UNL A   1      48.464  28.758  35.189  1.00  0.00    -0.200 F 
ATOM     95  C   UNL A   1      47.182  27.034  36.169  1.00  0.00     0.200 A 
ATOM     96  F   UNL A   1      45.865  25.315  37.108  1.00  0.00    -0.200 F 
ATOM     97  F   UNL A   1      48.213  26.693  36.954  1.00  0.00    -0.200 F 
ENDBRANCH  64  87
ENDBRANCH  38  39
ENDBRANCH  31  33
ENDBRANCH  30  31
ENDBRANCH  29  30
ENDBRANCH  28  29
ENDBRANCH  27  28
ENDBRANCH  26  27
ENDBRANCH   1  26
TORSDOF 21
ENDMDL
MODEL 2
REMARK VINA RESULT:     -10.9      1.713      7.672
REMARK SMILES CCOc1cccc(-c2ccc([C@@H](C)C(=O)OCCOCCOCCOC(=O)c3ccc(-c4c5nc(c(-c6c(F)c(F)c(F)c(F)c6F)c6ccc([nH]6)c(-c6c(F)c(F)c(F)c(F)c6F)c6nc(c(-c7c(F)c(F)c(F)c(F)c7F)c7ccc4[nH]7)C=C6)C=C5)cc3)cc2F)c1
REMARK SMILES IDX 21 1 20 2 19 3 18 4 17 5 15 6 16 7 13 8 14 9 12 10 9 11
REMARK SMILES IDX 10 12 93 13 11 14 92 15 94 16 8 17 4 18 5 19 95 20 6 21 7 22
REMARK SMILES IDX 3 23 2 24 1 25 22 26 23 27 24 28 25 29 26 30 27 31 28 32
REMARK SMILES IDX 29 33 30 34 91 35 31 36 90 37 32 38 33 39 34 40 84 41 35 42
REMARK SMILES IDX 89 43 83 44 85 45 36 46 88 47 82 48 81 49 37 51 69 52 49 53
REMARK SMILES IDX 68 54 50 55 53 56 67 57 86 58 51 59 52 60 66 62 87 63 54 64
REMARK SMILES IDX 38 65 39 66 47 67 40 68 41 69 45 70 48 71 42 72 43 73 46 74
REMARK SMILES IDX 44 75 70 76 71 77 79 78 72 79 73 80 77 81 80 82 74 83 75 84
REMARK SMILES IDX 78 85 76 86 55 87 56 88 64 89 57 90 58 91 62 92 65 93 59 94
REMARK SMILES IDX 60 95 63 96 61 97
REMARK H PARENT 85 50 53 61
REMARK Flexibility Score: inf
ROOT
ATOM      1  C   UNL A   1      33.683  27.529  23.068  1.00  0.00     0.188 C 
ENDROOT
BRANCH   1   2
ATOM      2  O   UNL A   1      33.668  26.931  21.777  1.00  0.00    -0.376 OA
BRANCH   2   3
ATOM      3  C   UNL A   1      32.796  25.835  21.527  1.00  0.00     0.202 C 
BRANCH   3   4
ATOM      4  C   UNL A   1      31.419  25.824  22.210  1.00  0.00     0.261 C 
BRANCH   4   5
ATOM      5  O   UNL A   1      30.994  24.550  22.752  1.00  0.00    -0.463 OA
BRANCH   5   6
ATOM      6  C   UNL A   1      30.893  24.475  24.103  1.00  0.00     0.313 C 
ATOM      7  O   UNL A   1      30.274  25.296  24.779  1.00  0.00    -0.252 OA
BRANCH   6   8
ATOM      8  C   UNL A   1      31.575  23.280  24.774  1.00  0.00     0.126 C 
ATOM      9  C   UNL A   1      30.797  22.915  26.038  1.00  0.00     0.025 C 
BRANCH   8  10
ATOM     10  C   UNL A   1      33.077  23.258  25.053  1.00  0.00    -0.031 A 
ATOM     11  C   UNL A   1      35.889  23.074  25.629  1.00  0.00     0.018 A 
ATOM     12  C   UNL A   1      35.254  24.313  25.416  1.00  0.00     0.012 A 
ATOM     13  C   UNL A   1      35.078  21.936  25.548  1.00  0.00     0.131 A 
ATOM     14  C   UNL A   1      33.873  24.407  25.142  1.00  0.00     0.005 A 
ATOM     15  C   UNL A   1      33.707  22.020  25.277  1.00  0.00     0.044 A 
ATOM     16  F   UNL A   1      35.599  20.714  25.739  1.00  0.00    -0.206 F 
BRANCH  11  17
ATOM     17  C   UNL A   1      37.333  22.983  25.949  1.00  0.00    -0.012 A 
ATOM     18  C   UNL A   1      39.414  21.705  26.098  1.00  0.00     0.119 A 
ATOM     19  C   UNL A   1      40.070  22.796  26.657  1.00  0.00     0.046 A 
ATOM     20  C   UNL A   1      38.058  21.791  25.762  1.00  0.00     0.055 A 
ATOM     21  C   UNL A   1      39.374  23.987  26.855  1.00  0.00     0.004 A 
ATOM     22  C   UNL A   1      38.023  24.078  26.501  1.00  0.00     0.009 A 
BRANCH  18  23
ATOM     23  O   UNL A   1      40.089  20.516  26.046  1.00  0.00    -0.494 OA
BRANCH  23  24
ATOM     24  C   UNL A   1      41.008  20.328  27.128  1.00  0.00     0.226 C 
ATOM     25  C   UNL A   1      42.251  19.596  26.661  1.00  0.00     0.049 C 
ENDBRANCH  23  24
ENDBRANCH  18  23
ENDBRANCH  11  17
ENDBRANCH   8  10
ENDBRANCH   6   8
ENDBRANCH   5   6
ENDBRANCH   4   5
ENDBRANCH   3   4
ENDBRANCH   2   3
ENDBRANCH   1   2
BRANCH   1  26
ATOM     26  C   UNL A   1      33.137  28.953  23.256  1.00  0.00     0.188 C 
BRANCH  26  27
ATOM     27  O   UNL A   1      33.083  29.397  24.595  1.00  0.00    -0.376 OA
BRANCH  27  28
ATOM     28  C   UNL A   1      31.802  29.722  25.098  1.00  0.00     0.202 C 
BRANCH  28  29
ATOM     29  C   UNL A   1      31.796  30.732  26.256  1.00  0.00     0.261 C 
BRANCH  29  30
ATOM     30  O   UNL A   1      32.812  30.534  27.261  1.00  0.00    -0.460 OA
BRANCH  30  31
ATOM     31  C   UNL A   1      33.573  31.607  27.563  1.00  0.00     0.338 C 
ATOM     32  O   UNL A   1      33.194  32.769  27.622  1.00  0.00    -0.246 OA
BRANCH  31  33
ATOM     33  C   UNL A   1      34.903  31.154  28.017  1.00  0.00     0.060 A 
ATOM     34  C   UNL A   1      35.121  29.787  28.248  1.00  0.00     0.016 A 
ATOM     35  C   UNL A   1      35.926  32.077  28.244  1.00  0.00     0.016 A 
ATOM     36  C   UNL A   1      36.354  29.344  28.733  1.00  0.00     0.010 A 
ATOM     37  C   UNL A   1      37.152  31.633  28.751  1.00  0.00     0.010 A 
ATOM     38  C   UNL A   1      37.363  30.271  29.028  1.00  0.00    -0.014 A 
BRANCH  38  39
ATOM     39  C   UNL A   1      38.565  29.839  29.788  1.00  0.00     0.031 A 
ATOM     40  C   UNL A   1      38.757  30.356  31.188  1.00  0.00     0.074 A 
ATOM     41  C   UNL A   1      39.464  28.991  29.259  1.00  0.00     0.049 A 
ATOM     42  N   UNL A   1      39.745  30.156  32.026  1.00  0.00    -0.248 NA
ATOM     43  C   UNL A   1      37.691  31.223  31.714  1.00  0.00     0.031 C 
ATOM     44  C   UNL A   1      39.382  28.390  27.931  1.00  0.00     0.029 A 
ATOM     45  N   UNL A   1      40.635  28.494  29.781  1.00  0.00    -0.354 N 
ATOM     46  C   UNL A   1      39.422  30.875  33.169  1.00  0.00     0.074 A 
ATOM     47  C   UNL A   1      38.165  31.544  32.908  1.00  0.00     0.031 C 
ATOM     48  C   UNL A   1      40.462  27.614  27.735  1.00  0.00     0.029 A 
ATOM     49  C   UNL A   1      41.328  27.688  28.911  1.00  0.00     0.049 A 
ATOM     50  H   UNL A   1      40.948  28.697  30.693  1.00  0.00     0.167 HD
ATOM     51  C   UNL A   1      40.104  30.962  34.335  1.00  0.00     0.037 A 
ATOM     52  C   UNL A   1      42.533  27.097  29.043  1.00  0.00     0.037 A 
ATOM     53  C   UNL A   1      41.353  30.296  34.597  1.00  0.00     0.049 A 
ATOM     54  C   UNL A   1      43.306  27.265  30.328  1.00  0.00     0.074 A 
ATOM     55  C   UNL A   1      42.110  30.305  35.757  1.00  0.00     0.029 A 
ATOM     56  N   UNL A   1      42.037  29.509  33.682  1.00  0.00    -0.354 N 
ATOM     57  N   UNL A   1      42.980  27.920  31.416  1.00  0.00    -0.248 NA
ATOM     58  C   UNL A   1      44.617  26.602  30.403  1.00  0.00     0.031 C 
ATOM     59  C   UNL A   1      43.280  29.575  35.524  1.00  0.00     0.029 A 
ATOM     60  C   UNL A   1      43.221  29.052  34.242  1.00  0.00     0.049 A 
ATOM     61  H   UNL A   1      41.727  29.305  32.771  1.00  0.00     0.167 HD
ATOM     62  C   UNL A   1      44.023  27.721  32.313  1.00  0.00     0.074 A 
ATOM     63  C   UNL A   1      44.986  26.869  31.648  1.00  0.00     0.031 C 
ATOM     64  C   UNL A   1      44.170  28.199  33.574  1.00  0.00     0.037 A 
BRANCH  51  65
ATOM     65  C   UNL A   1      39.529  31.837  35.414  1.00  0.00     0.064 A 
ATOM     66  C   UNL A   1      38.597  31.350  36.343  1.00  0.00     0.173 A 
ATOM     67  C   UNL A   1      39.945  33.171  35.540  1.00  0.00     0.173 A 
ATOM     68  F   UNL A   1      38.154  30.086  36.259  1.00  0.00    -0.203 F 
ATOM     69  C   UNL A   1      38.083  32.175  37.341  1.00  0.00     0.198 A 
ATOM     70  C   UNL A   1      39.455  33.982  36.560  1.00  0.00     0.198 A 
ATOM     71  F   UNL A   1      40.837  33.685  34.681  1.00  0.00    -0.203 F 
ATOM     72  F   UNL A   1      37.156  31.704  38.187  1.00  0.00    -0.200 F 
ATOM     73  C   UNL A   1      38.519  33.487  37.454  1.00  0.00     0.200 A 
ATOM     74  F   UNL A   1      39.889  35.245  36.675  1.00  0.00    -0.200 F 
ATOM     75  F   UNL A   1      38.032  34.276  38.421  1.00  0.00    -0.200 F 
ENDBRANCH  51  65
BRANCH  52  76
ATOM     76  C   UNL A   1      43.099  26.298  27.922  1.00  0.00     0.064 A 
ATOM     77  C   UNL A   1      43.813  26.910  26.883  1.00  0.00     0.173 A 
ATOM     78  C   UNL A   1      42.904  24.911  27.849  1.00  0.00     0.173 A 
ATOM     79  F   UNL A   1      44.000  28.239  26.890  1.00  0.00    -0.203 F 
ATOM     80  C   UNL A   1      44.291  26.171  25.802  1.00  0.00     0.198 A 
ATOM     81  C   UNL A   1      43.411  24.167  26.784  1.00  0.00     0.198 A 
ATOM     82  F   UNL A   1      42.222  24.275  28.812  1.00  0.00    -0.203 F 
ATOM     83  F   UNL A   1      44.918  26.791  24.794  1.00  0.00    -0.200 F 
ATOM     84  C   UNL A   1      44.095  24.799  25.757  1.00  0.00     0.200 A 
ATOM     85  F   UNL A   1      43.228  22.840  26.750  1.00  0.00    -0.200 F 
ATOM     86  F   UNL A   1      44.553  24.088  24.718  1.00  0.00    -0.200 F 
ENDBRANCH  52  76
BRANCH  64  87
ATOM     87  C   UNL A   1      45.396  27.777  34.336  1.00  0.00     0.064 A 
ATOM     88  C   UNL A   1      46.580  28.529  34.317  1.00  0.00     0.173 A 
ATOM     89  C   UNL A   1      45.376  26.612  35.122  1.00  0.00     0.173 A 
ATOM     90  F   UNL A   1      46.659  29.644  33.574  1.00  0.00    -0.203 F 
ATOM     91  C   UNL A   1      47.709  28.112  35.020  1.00  0.00     0.198 A 
ATOM     92  C   UNL A   1      46.493  26.219  35.854  1.00  0.00     0.198 A 
ATOM     93  F   UNL A   1      44.267  25.860  35.188  1.00  0.00    -0.203 F 
ATOM     94  F   UNL A   1      48.846  28.814  34.934  1.00  0.00    -0.200 F 
ATOM     95  C   UNL A   1      47.661  26.961  35.793  1.00  0.00     0.200 A 
ATOM     96  F   UNL A   1      46.439  25.117  36.615  1.00  0.00    -0.200 F 
ATOM     97  F   UNL A   1      48.747  26.564  36.472  1.00  0.00    -0.200 F 
ENDBRANCH  64  87
ENDBRANCH  38  39
ENDBRANCH  31  33
ENDBRANCH  30  31
ENDBRANCH  29  30
ENDBRANCH  28  29
ENDBRANCH  27  28
ENDBRANCH  26  27
ENDBRANCH   1  26
TORSDOF 21
ENDMDL
MODEL 3
REMARK VINA RESULT:     -10.7      0.649      7.093
REMARK SMILES CCOc1cccc(-c2ccc([C@@H](C)C(=O)OCCOCCOCCOC(=O)c3ccc(-c4c5nc(c(-c6c(F)c(F)c(F)c(F)c6F)c6ccc([nH]6)c(-c6c(F)c(F)c(F)c(F)c6F)c6nc(c(-c7c(F)c(F)c(F)c(F)c7F)c7ccc4[nH]7)C=C6)C=C5)cc3)cc2F)c1
REMARK SMILES IDX 21 1 20 2 19 3 18 4 17 5 15 6 16 7 13 8 14 9 12 10 9 11
REMARK SMILES IDX 10 12 93 13 11 14 92 15 94 16 8 17 4 18 5 19 95 20 6 21 7 22
REMARK SMILES IDX 3 23 2 24 1 25 22 26 23 27 24 28 25 29 26 30 27 31 28 32
REMARK SMILES IDX 29 33 30 34 91 35 31 36 90 37 32 38 33 39 34 40 84 41 35 42
REMARK SMILES IDX 89 43 83 44 85 45 36 46 88 47 82 48 81 49 37 51 69 52 49 53
REMARK SMILES IDX 68 54 50 55 53 56 67 57 86 58 51 59 52 60 66 62 87 63 54 64
REMARK SMILES IDX 38 65 39 66 47 67 40 68 41 69 45 70 48 71 42 72 43 73 46 74
REMARK SMILES IDX 44 75 70 76 71 77 79 78 72 79 73 80 77 81 80 82 74 83 75 84
REMARK SMILES IDX 78 85 76 86 55 87 56 88 64 89 57 90 58 91 62 92 65 93 59 94
REMARK SMILES IDX 60 95 63 96 61 97
REMARK H PARENT 85 50 53 61
REMARK Flexibility Score: inf
ROOT
ATOM      1  C   UNL A   1      33.677  26.617  25.231  1.00  0.00     0.188 C 
ENDROOT
BRANCH   1   2
ATOM      2  O   UNL A   1      34.224  27.823  24.711  1.00  0.00    -0.376 OA
BRANCH   2   3
ATOM      3  C   UNL A   1      33.956  28.184  23.361  1.00  0.00     0.202 C 
BRANCH   3   4
ATOM      4  C   UNL A   1      32.901  29.271  23.090  1.00  0.00     0.261 C 
BRANCH   4   5
ATOM      5  O   UNL A   1      31.700  28.829  22.414  1.00  0.00    -0.463 OA
BRANCH   5   6
ATOM      6  C   UNL A   1      30.636  28.539  23.206  1.00  0.00     0.313 C 
ATOM      7  O   UNL A   1      30.204  29.310  24.062  1.00  0.00    -0.252 OA
BRANCH   6   8
ATOM      8  C   UNL A   1      29.957  27.188  22.971  1.00  0.00     0.126 C 
ATOM      9  C   UNL A   1      28.602  27.189  23.676  1.00  0.00     0.025 C 
BRANCH   8  10
ATOM     10  C   UNL A   1      30.680  25.865  23.218  1.00  0.00    -0.031 A 
ATOM     11  C   UNL A   1      31.988  23.376  23.827  1.00  0.00     0.018 A 
ATOM     12  C   UNL A   1      32.335  24.141  22.696  1.00  0.00     0.012 A 
ATOM     13  C   UNL A   1      30.972  23.892  24.640  1.00  0.00     0.131 A 
ATOM     14  C   UNL A   1      31.701  25.367  22.400  1.00  0.00     0.005 A 
ATOM     15  C   UNL A   1      30.338  25.107  24.354  1.00  0.00     0.044 A 
ATOM     16  F   UNL A   1      30.579  23.231  25.739  1.00  0.00    -0.206 F 
BRANCH  11  17
ATOM     17  C   UNL A   1      32.679  22.106  24.151  1.00  0.00    -0.012 A 
ATOM     18  C   UNL A   1      32.952  19.690  23.880  1.00  0.00     0.119 A 
ATOM     19  C   UNL A   1      33.943  19.670  24.854  1.00  0.00     0.046 A 
ATOM     20  C   UNL A   1      32.315  20.890  23.542  1.00  0.00     0.055 A 
ATOM     21  C   UNL A   1      34.320  20.860  25.474  1.00  0.00     0.004 A 
ATOM     22  C   UNL A   1      33.696  22.063  25.123  1.00  0.00     0.009 A 
BRANCH  18  23
ATOM     23  O   UNL A   1      32.515  18.488  23.393  1.00  0.00    -0.494 OA
BRANCH  23  24
ATOM     24  C   UNL A   1      33.045  17.357  24.093  1.00  0.00     0.226 C 
ATOM     25  C   UNL A   1      34.059  16.619  23.241  1.00  0.00     0.049 C 
ENDBRANCH  23  24
ENDBRANCH  18  23
ENDBRANCH  11  17
ENDBRANCH   8  10
ENDBRANCH   6   8
ENDBRANCH   5   6
ENDBRANCH   4   5
ENDBRANCH   3   4
ENDBRANCH   2   3
ENDBRANCH   1   2
BRANCH   1  26
ATOM     26  C   UNL A   1      32.811  26.658  26.500  1.00  0.00     0.188 C 
BRANCH  26  27
ATOM     27  O   UNL A   1      31.712  27.542  26.441  1.00  0.00    -0.376 OA
BRANCH  27  28
ATOM     28  C   UNL A   1      31.640  28.523  27.458  1.00  0.00     0.202 C 
BRANCH  28  29
ATOM     29  C   UNL A   1      31.844  29.969  26.982  1.00  0.00     0.261 C 
BRANCH  29  30
ATOM     30  O   UNL A   1      33.186  30.307  26.572  1.00  0.00    -0.460 OA
BRANCH  30  31
ATOM     31  C   UNL A   1      33.773  31.329  27.228  1.00  0.00     0.338 C 
ATOM     32  O   UNL A   1      33.250  32.395  27.524  1.00  0.00    -0.246 OA
BRANCH  31  33
ATOM     33  C   UNL A   1      35.095  30.900  27.726  1.00  0.00     0.060 A 
ATOM     34  C   UNL A   1      35.350  29.530  27.902  1.00  0.00     0.016 A 
ATOM     35  C   UNL A   1      36.071  31.844  28.049  1.00  0.00     0.016 A 
ATOM     36  C   UNL A   1      36.573  29.106  28.427  1.00  0.00     0.010 A 
ATOM     37  C   UNL A   1      37.287  31.416  28.596  1.00  0.00     0.010 A 
ATOM     38  C   UNL A   1      37.533  30.049  28.817  1.00  0.00    -0.014 A 
BRANCH  38  39
ATOM     39  C   UNL A   1      38.711  29.621  29.615  1.00  0.00     0.031 A 
ATOM     40  C   UNL A   1      38.900  30.200  30.991  1.00  0.00     0.074 A 
ATOM     41  C   UNL A   1      39.592  28.722  29.141  1.00  0.00     0.049 A 
ATOM     42  N   UNL A   1      39.869  30.012  31.852  1.00  0.00    -0.248 NA
ATOM     43  C   UNL A   1      37.852  31.122  31.458  1.00  0.00     0.031 C 
ATOM     44  C   UNL A   1      39.509  28.060  27.843  1.00  0.00     0.029 A 
ATOM     45  N   UNL A   1      40.740  28.218  29.705  1.00  0.00    -0.354 N 
ATOM     46  C   UNL A   1      39.552  30.796  32.954  1.00  0.00     0.074 A 
ATOM     47  C   UNL A   1      38.319  31.488  32.642  1.00  0.00     0.031 C 
ATOM     48  C   UNL A   1      40.568  27.243  27.701  1.00  0.00     0.029 A 
ATOM     49  C   UNL A   1      41.420  27.350  28.886  1.00  0.00     0.049 A 
ATOM     50  H   UNL A   1      41.046  28.456  30.610  1.00  0.00     0.167 HD
ATOM     51  C   UNL A   1      40.221  30.920  34.125  1.00  0.00     0.037 A 
ATOM     52  C   UNL A   1      42.605  26.732  29.064  1.00  0.00     0.037 A 
ATOM     53  C   UNL A   1      41.446  30.232  34.438  1.00  0.00     0.049 A 
ATOM     54  C   UNL A   1      43.366  26.940  30.351  1.00  0.00     0.074 A 
ATOM     55  C   UNL A   1      42.186  30.276  35.607  1.00  0.00     0.029 A 
ATOM     56  N   UNL A   1      42.118  29.382  33.573  1.00  0.00    -0.354 N 
ATOM     57  N   UNL A   1      43.044  27.656  31.401  1.00  0.00    -0.248 NA
ATOM     58  C   UNL A   1      44.655  26.243  30.478  1.00  0.00     0.031 C 
ATOM     59  C   UNL A   1      43.337  29.501  35.427  1.00  0.00     0.029 A 
ATOM     60  C   UNL A   1      43.280  28.918  34.172  1.00  0.00     0.049 A 
ATOM     61  H   UNL A   1      41.815  29.142  32.668  1.00  0.00     0.167 HD
ATOM     62  C   UNL A   1      44.069  27.471  32.322  1.00  0.00     0.074 A 
ATOM     63  C   UNL A   1      45.014  26.560  31.714  1.00  0.00     0.031 C 
ATOM     64  C   UNL A   1      44.213  28.006  33.560  1.00  0.00     0.037 A 
BRANCH  51  65
ATOM     65  C   UNL A   1      39.657  31.863  35.151  1.00  0.00     0.064 A 
ATOM     66  C   UNL A   1      38.740  31.437  36.124  1.00  0.00     0.173 A 
ATOM     67  C   UNL A   1      40.069  33.204  35.182  1.00  0.00     0.173 A 
ATOM     68  F   UNL A   1      38.302  30.169  36.131  1.00  0.00    -0.203 F 
ATOM     69  C   UNL A   1      38.237  32.325  37.072  1.00  0.00     0.198 A 
ATOM     70  C   UNL A   1      39.591  34.080  36.152  1.00  0.00     0.198 A 
ATOM     71  F   UNL A   1      40.947  33.662  34.278  1.00  0.00    -0.203 F 
ATOM     72  F   UNL A   1      37.324  31.908  37.960  1.00  0.00    -0.200 F 
ATOM     73  C   UNL A   1      38.669  33.643  37.090  1.00  0.00     0.200 A 
ATOM     74  F   UNL A   1      40.021  35.349  36.177  1.00  0.00    -0.200 F 
ATOM     75  F   UNL A   1      38.192  34.493  38.010  1.00  0.00    -0.200 F 
ENDBRANCH  51  65
BRANCH  52  76
ATOM     76  C   UNL A   1      43.163  25.863  27.992  1.00  0.00     0.064 A 
ATOM     77  C   UNL A   1      42.950  24.477  27.997  1.00  0.00     0.173 A 
ATOM     78  C   UNL A   1      43.951  26.396  26.961  1.00  0.00     0.173 A 
ATOM     79  F   UNL A   1      42.229  23.914  28.978  1.00  0.00    -0.203 F 
ATOM     80  C   UNL A   1      43.522  23.655  27.028  1.00  0.00     0.198 A 
ATOM     81  C   UNL A   1      44.496  25.577  25.973  1.00  0.00     0.198 A 
ATOM     82  F   UNL A   1      44.193  27.714  26.912  1.00  0.00    -0.203 F 
ATOM     83  F   UNL A   1      43.351  22.328  27.092  1.00  0.00    -0.200 F 
ATOM     84  C   UNL A   1      44.290  24.207  26.013  1.00  0.00     0.200 A 
ATOM     85  F   UNL A   1      45.229  26.116  24.989  1.00  0.00    -0.200 F 
ATOM     86  F   UNL A   1      44.841  23.417  25.082  1.00  0.00    -0.200 F 
ENDBRANCH  52  76
BRANCH  64  87
ATOM     87  C   UNL A   1      45.415  27.586  34.361  1.00  0.00     0.064 A 
ATOM     88  C   UNL A   1      46.620  28.304  34.326  1.00  0.00     0.173 A 
ATOM     89  C   UNL A   1      45.351  26.460  35.198  1.00  0.00     0.173 A 
ATOM     90  F   UNL A   1      46.740  29.382  33.535  1.00  0.00    -0.203 F 
ATOM     91  C   UNL A   1      47.725  27.890  35.065  1.00  0.00     0.198 A 
ATOM     92  C   UNL A   1      46.445  26.071  35.965  1.00  0.00     0.198 A 
ATOM     93  F   UNL A   1      44.221  25.742  35.281  1.00  0.00    -0.203 F 
ATOM     94  F   UNL A   1      48.883  28.556  34.966  1.00  0.00    -0.200 F 
ATOM     95  C   UNL A   1      47.635  26.778  35.890  1.00  0.00     0.200 A 
ATOM     96  F   UNL A   1      46.350  25.007  36.775  1.00  0.00    -0.200 F 
ATOM     97  F   UNL A   1      48.698  26.383  36.603  1.00  0.00    -0.200 F 
ENDBRANCH  64  87
ENDBRANCH  38  39
ENDBRANCH  31  33
ENDBRANCH  30  31
ENDBRANCH  29  30
ENDBRANCH  28  29
ENDBRANCH  27  28
ENDBRANCH  26  27
ENDBRANCH   1  26
TORSDOF 21
ENDMDL
