MODEL 1
REMARK VINA RESULT:     -10.8      0.000      0.000
REMARK SMILES COc1ccc([C@@H]2[NH2+][C@H](C(=O)OCCOCCOCCOC(=O)c3ccc(-c4c5nc(c(-c6c(F)c(F)c(F)c(F)c6F)c6ccc([nH]6)c(-c6c(F)c(F)c(F)c(F)c6F)c6nc(c(-c7c(F)c(F)c(F)c(F)c7F)c7ccc4[nH]7)C=C6)C=C5)cc3)CS2)cc1Cn1nc(C)c(Br)c1C
REMARK SMILES IDX 16 1 15 2 14 3 13 4 12 5 10 6 11 7 9 8 7 9 8 10 88 11 87 14
REMARK SMILES IDX 6 15 3 16 4 17 90 18 5 19 89 20 2 21 1 22 91 23 92 24 93 25
REMARK SMILES IDX 98 26 94 27 96 28 99 29 95 30 97 31 17 32 18 33 19 34 20 35
REMARK SMILES IDX 21 36 22 37 23 38 24 39 25 40 86 41 26 42 85 43 27 44 28 45
REMARK SMILES IDX 29 46 79 47 30 48 84 49 78 50 80 51 31 52 83 53 77 54 76 55
REMARK SMILES IDX 32 57 64 58 44 59 63 60 45 61 48 62 62 63 81 64 46 65 47 66
REMARK SMILES IDX 61 68 82 69 49 70 33 71 34 72 42 73 35 74 36 75 40 76 43 77
REMARK SMILES IDX 37 78 38 79 41 80 39 81 65 82 66 83 74 84 67 85 68 86 72 87
REMARK SMILES IDX 75 88 69 89 70 90 73 91 71 92 50 93 51 94 59 95 52 96 53 97
REMARK SMILES IDX 57 98 60 99 54 100 55 101 58 102 56 103
REMARK H PARENT 8 12 8 13 80 56 48 67
REMARK Flexibility Score: inf
ROOT
ATOM      1  C   UNL A   1      28.931  28.168  23.490  1.00  0.00     0.188 C 
ENDROOT
BRANCH   1   2
ATOM      2  O   UNL A   1      29.431  26.996  24.116  1.00  0.00    -0.376 OA
BRANCH   2   3
ATOM      3  C   UNL A   1      29.273  25.783  23.396  1.00  0.00     0.202 C 
BRANCH   3   4
ATOM      4  C   UNL A   1      30.535  24.963  23.134  1.00  0.00     0.261 C 
BRANCH   4   5
ATOM      5  O   UNL A   1      31.425  25.418  22.105  1.00  0.00    -0.459 OA
BRANCH   5   6
ATOM      6  C   UNL A   1      32.632  25.902  22.485  1.00  0.00     0.365 C 
ATOM      7  O   UNL A   1      33.706  25.548  22.005  1.00  0.00    -0.245 OA
BRANCH   6   8
ATOM      8  C   UNL A   1      32.563  26.981  23.573  1.00  0.00     0.304 C 
ATOM      9  C   UNL A   1      33.322  26.379  25.793  1.00  0.00     0.274 C 
ATOM     10  N   UNL A   1      32.154  26.508  24.923  1.00  0.00    -0.319 N 
ATOM     11  S   UNL A   1      34.490  27.661  25.313  1.00  0.00    -0.087 SA
ATOM     12  H   UNL A   1      31.504  27.180  25.331  1.00  0.00     0.348 HD
ATOM     13  H   UNL A   1      31.706  25.597  24.832  1.00  0.00     0.348 HD
ATOM     14  C   UNL A   1      33.885  27.745  23.615  1.00  0.00     0.153 C 
BRANCH   9  15
ATOM     15  C   UNL A   1      33.888  24.970  25.855  1.00  0.00     0.021 A 
ATOM     16  C   UNL A   1      35.042  22.396  25.980  1.00  0.00     0.123 A 
ATOM     17  C   UNL A   1      35.803  23.495  25.571  1.00  0.00     0.047 A 
ATOM     18  C   UNL A   1      33.696  22.548  26.347  1.00  0.00     0.016 A 
ATOM     19  C   UNL A   1      35.232  24.768  25.507  1.00  0.00     0.015 A 
ATOM     20  C   UNL A   1      33.142  23.845  26.268  1.00  0.00     0.020 A 
BRANCH  16  21
ATOM     21  O   UNL A   1      35.717  21.210  26.087  1.00  0.00    -0.496 OA
ATOM     22  C   UNL A   1      36.263  20.752  24.852  1.00  0.00     0.278 C 
ENDBRANCH  16  21
BRANCH  18  23
ATOM     23  C   UNL A   1      32.816  21.376  26.731  1.00  0.00     0.184 C 
BRANCH  23  24
ATOM     24  N   UNL A   1      32.734  20.287  25.758  1.00  0.00    -0.264 N 
ATOM     25  N   UNL A   1      33.023  19.026  26.165  1.00  0.00    -0.177 NA
ATOM     26  C   UNL A   1      32.514  20.371  24.395  1.00  0.00     0.050 A 
ATOM     27  C   UNL A   1      32.937  18.278  25.057  1.00  0.00     0.074 A 
ATOM     28  C   UNL A   1      32.673  19.083  23.931  1.00  0.00     0.061 A 
ATOM     29  C   UNL A   1      32.084  21.601  23.686  1.00  0.00     0.067 C 
ATOM     30  C   UNL A   1      33.054  16.800  25.139  1.00  0.00     0.070 C 
ATOM     31  Br  UNL A   1      32.434  18.453  22.182  1.00  0.00    -0.047 Br
ENDBRANCH  23  24
ENDBRANCH  18  23
ENDBRANCH   9  15
ENDBRANCH   6   8
ENDBRANCH   5   6
ENDBRANCH   4   5
ENDBRANCH   3   4
ENDBRANCH   2   3
ENDBRANCH   1   2
BRANCH   1  32
ATOM     32  C   UNL A   1      29.920  29.303  23.142  1.00  0.00     0.188 C 
BRANCH  32  33
ATOM     33  O   UNL A   1      30.164  30.226  24.187  1.00  0.00    -0.376 OA
BRANCH  33  34
ATOM     34  C   UNL A   1      31.288  29.948  25.009  1.00  0.00     0.202 C 
BRANCH  34  35
ATOM     35  C   UNL A   1      31.530  30.947  26.153  1.00  0.00     0.261 C 
BRANCH  35  36
ATOM     36  O   UNL A   1      32.776  30.794  26.859  1.00  0.00    -0.460 OA
BRANCH  36  37
ATOM     37  C   UNL A   1      33.377  31.906  27.338  1.00  0.00     0.338 C 
ATOM     38  O   UNL A   1      32.871  33.001  27.510  1.00  0.00    -0.246 OA
BRANCH  37  39
ATOM     39  C   UNL A   1      34.694  31.491  27.887  1.00  0.00     0.060 A 
ATOM     40  C   UNL A   1      34.907  30.133  28.176  1.00  0.00     0.016 A 
ATOM     41  C   UNL A   1      35.742  32.407  28.012  1.00  0.00     0.016 A 
ATOM     42  C   UNL A   1      36.157  29.693  28.615  1.00  0.00     0.010 A 
ATOM     43  C   UNL A   1      36.982  31.976  28.495  1.00  0.00     0.010 A 
ATOM     44  C   UNL A   1      37.180  30.625  28.838  1.00  0.00    -0.014 A 
BRANCH  44  45
ATOM     45  C   UNL A   1      38.287  30.264  29.758  1.00  0.00     0.031 A 
ATOM     46  C   UNL A   1      39.293  29.270  29.237  1.00  0.00     0.074 A 
ATOM     47  C   UNL A   1      38.428  30.792  30.986  1.00  0.00     0.049 A 
ATOM     48  N   UNL A   1      40.331  28.738  29.827  1.00  0.00    -0.248 NA
ATOM     49  C   UNL A   1      39.093  28.815  27.848  1.00  0.00     0.031 C 
ATOM     50  C   UNL A   1      37.560  31.799  31.588  1.00  0.00     0.029 A 
ATOM     51  N   UNL A   1      39.371  30.537  31.953  1.00  0.00    -0.354 N 
ATOM     52  C   UNL A   1      40.903  27.895  28.882  1.00  0.00     0.074 A 
ATOM     53  C   UNL A   1      40.084  27.956  27.695  1.00  0.00     0.031 C 
ATOM     54  C   UNL A   1      38.003  32.068  32.832  1.00  0.00     0.029 A 
ATOM     55  C   UNL A   1      39.167  31.231  33.121  1.00  0.00     0.049 A 
ATOM     56  H   UNL A   1      40.123  29.916  31.821  1.00  0.00     0.167 HD
ATOM     57  C   UNL A   1      42.020  27.140  28.987  1.00  0.00     0.037 A 
ATOM     58  C   UNL A   1      39.840  31.175  34.289  1.00  0.00     0.037 A 
ATOM     59  C   UNL A   1      42.821  27.053  30.174  1.00  0.00     0.049 A 
ATOM     60  C   UNL A   1      41.028  30.248  34.415  1.00  0.00     0.074 A 
ATOM     61  C   UNL A   1      43.954  26.294  30.398  1.00  0.00     0.029 A 
ATOM     62  N   UNL A   1      42.562  27.749  31.346  1.00  0.00    -0.354 N 
ATOM     63  N   UNL A   1      41.571  29.462  33.517  1.00  0.00    -0.248 NA
ATOM     64  C   UNL A   1      41.700  30.206  35.723  1.00  0.00     0.031 C 
ATOM     65  C   UNL A   1      44.357  26.496  31.721  1.00  0.00     0.029 A 
ATOM     66  C   UNL A   1      43.511  27.427  32.301  1.00  0.00     0.049 A 
ATOM     67  H   UNL A   1      41.816  28.377  31.478  1.00  0.00     0.167 HD
ATOM     68  C   UNL A   1      42.670  28.872  34.133  1.00  0.00     0.074 A 
ATOM     69  C   UNL A   1      42.718  29.394  35.482  1.00  0.00     0.031 C 
ATOM     70  C   UNL A   1      43.561  27.983  33.629  1.00  0.00     0.037 A 
BRANCH  57  71
ATOM     71  C   UNL A   1      42.408  26.326  27.790  1.00  0.00     0.064 A 
ATOM     72  C   UNL A   1      43.360  26.785  26.867  1.00  0.00     0.173 A 
ATOM     73  C   UNL A   1      41.819  25.075  27.559  1.00  0.00     0.173 A 
ATOM     74  F   UNL A   1      43.930  27.990  27.028  1.00  0.00    -0.203 F 
ATOM     75  C   UNL A   1      43.690  26.032  25.744  1.00  0.00     0.198 A 
ATOM     76  C   UNL A   1      42.174  24.310  26.452  1.00  0.00     0.198 A 
ATOM     77  F   UNL A   1      40.897  24.594  28.407  1.00  0.00    -0.203 F 
ATOM     78  F   UNL A   1      44.561  26.516  24.847  1.00  0.00    -0.200 F 
ATOM     79  C   UNL A   1      43.103  24.793  25.541  1.00  0.00     0.200 A 
ATOM     80  F   UNL A   1      41.612  23.109  26.261  1.00  0.00    -0.200 F 
ATOM     81  F   UNL A   1      43.425  24.065  24.463  1.00  0.00    -0.200 F 
ENDBRANCH  57  71
BRANCH  58  82
ATOM     82  C   UNL A   1      39.416  32.007  35.449  1.00  0.00     0.064 A 
ATOM     83  C   UNL A   1      38.517  31.512  36.404  1.00  0.00     0.173 A 
ATOM     84  C   UNL A   1      39.854  33.332  35.594  1.00  0.00     0.173 A 
ATOM     85  F   UNL A   1      38.042  30.262  36.294  1.00  0.00    -0.203 F 
ATOM     86  C   UNL A   1      38.050  32.318  37.443  1.00  0.00     0.198 A 
ATOM     87  C   UNL A   1      39.409  34.127  36.649  1.00  0.00     0.198 A 
ATOM     88  F   UNL A   1      40.705  33.859  34.702  1.00  0.00    -0.203 F 
ATOM     89  F   UNL A   1      37.143  31.838  38.304  1.00  0.00    -0.200 F 
ATOM     90  C   UNL A   1      38.500  33.623  37.566  1.00  0.00     0.200 A 
ATOM     91  F   UNL A   1      39.850  35.387  36.768  1.00  0.00    -0.200 F 
ATOM     92  F   UNL A   1      38.046  34.399  38.560  1.00  0.00    -0.200 F 
ENDBRANCH  58  82
BRANCH  70  93
ATOM     93  C   UNL A   1      44.710  27.573  34.504  1.00  0.00     0.064 A 
ATOM     94  C   UNL A   1      44.678  26.402  35.275  1.00  0.00     0.173 A 
ATOM     95  C   UNL A   1      45.883  28.345  34.531  1.00  0.00     0.173 A 
ATOM     96  F   UNL A   1      43.579  25.634  35.292  1.00  0.00    -0.203 F 
ATOM     97  C   UNL A   1      45.767  26.035  36.063  1.00  0.00     0.198 A 
ATOM     98  C   UNL A   1      46.981  27.957  35.293  1.00  0.00     0.198 A 
ATOM     99  F   UNL A   1      45.970  29.468  33.803  1.00  0.00    -0.203 F 
ATOM    100  F   UNL A   1      45.697  24.939  36.830  1.00  0.00    -0.200 F 
ATOM    101  C   UNL A   1      46.918  26.808  36.066  1.00  0.00     0.200 A 
ATOM    102  F   UNL A   1      48.099  28.697  35.280  1.00  0.00    -0.200 F 
ATOM    103  F   UNL A   1      47.968  26.449  36.817  1.00  0.00    -0.200 F 
ENDBRANCH  70  93
ENDBRANCH  44  45
ENDBRANCH  37  39
ENDBRANCH  36  37
ENDBRANCH  35  36
ENDBRANCH  34  35
ENDBRANCH  33  34
ENDBRANCH  32  33
ENDBRANCH   1  32
TORSDOF 21
ENDMDL
MODEL 2
REMARK VINA RESULT:     -10.8      1.451      2.709
REMARK SMILES COc1ccc([C@@H]2[NH2+][C@H](C(=O)OCCOCCOCCOC(=O)c3ccc(-c4c5nc(c(-c6c(F)c(F)c(F)c(F)c6F)c6ccc([nH]6)c(-c6c(F)c(F)c(F)c(F)c6F)c6nc(c(-c7c(F)c(F)c(F)c(F)c7F)c7ccc4[nH]7)C=C6)C=C5)cc3)CS2)cc1Cn1nc(C)c(Br)c1C
REMARK SMILES IDX 16 1 15 2 14 3 13 4 12 5 10 6 11 7 9 8 7 9 8 10 88 11 87 14
REMARK SMILES IDX 6 15 3 16 4 17 90 18 5 19 89 20 2 21 1 22 91 23 92 24 93 25
REMARK SMILES IDX 98 26 94 27 96 28 99 29 95 30 97 31 17 32 18 33 19 34 20 35
REMARK SMILES IDX 21 36 22 37 23 38 24 39 25 40 86 41 26 42 85 43 27 44 28 45
REMARK SMILES IDX 29 46 79 47 30 48 84 49 78 50 80 51 31 52 83 53 77 54 76 55
REMARK SMILES IDX 32 57 64 58 44 59 63 60 45 61 48 62 62 63 81 64 46 65 47 66
REMARK SMILES IDX 61 68 82 69 49 70 33 71 34 72 42 73 35 74 36 75 40 76 43 77
REMARK SMILES IDX 37 78 38 79 41 80 39 81 65 82 66 83 74 84 67 85 68 86 72 87
REMARK SMILES IDX 75 88 69 89 70 90 73 91 71 92 50 93 51 94 59 95 52 96 53 97
REMARK SMILES IDX 57 98 60 99 54 100 55 101 58 102 56 103
REMARK H PARENT 8 12 8 13 80 56 48 67
REMARK Flexibility Score: inf
ROOT
ATOM      1  C   UNL A   1      28.929  28.759  23.226  1.00  0.00     0.188 C 
ENDROOT
BRANCH   1   2
ATOM      2  O   UNL A   1      29.032  27.653  24.109  1.00  0.00    -0.376 OA
BRANCH   2   3
ATOM      3  C   UNL A   1      28.867  26.369  23.528  1.00  0.00     0.202 C 
BRANCH   3   4
ATOM      4  C   UNL A   1      30.132  25.540  23.308  1.00  0.00     0.261 C 
BRANCH   4   5
ATOM      5  O   UNL A   1      31.077  26.011  22.337  1.00  0.00    -0.459 OA
BRANCH   5   6
ATOM      6  C   UNL A   1      32.332  26.290  22.764  1.00  0.00     0.365 C 
ATOM      7  O   UNL A   1      33.358  25.881  22.225  1.00  0.00    -0.245 OA
BRANCH   6   8
ATOM      8  C   UNL A   1      32.389  27.207  23.993  1.00  0.00     0.304 C 
ATOM      9  C   UNL A   1      32.801  26.170  26.142  1.00  0.00     0.274 C 
ATOM     10  N   UNL A   1      31.770  26.662  25.230  1.00  0.00    -0.319 N 
ATOM     11  S   UNL A   1      34.249  27.217  25.928  1.00  0.00    -0.087 SA
ATOM     12  H   UNL A   1      31.238  27.401  25.693  1.00  0.00     0.348 HD
ATOM     13  H   UNL A   1      31.153  25.890  24.980  1.00  0.00     0.348 HD
ATOM     14  C   UNL A   1      33.832  27.652  24.227  1.00  0.00     0.153 C 
BRANCH   9  15
ATOM     15  C   UNL A   1      33.055  24.675  26.031  1.00  0.00     0.021 A 
ATOM     16  C   UNL A   1      33.417  21.881  25.847  1.00  0.00     0.123 A 
ATOM     17  C   UNL A   1      32.343  22.410  26.569  1.00  0.00     0.047 A 
ATOM     18  C   UNL A   1      34.329  22.722  25.191  1.00  0.00     0.016 A 
ATOM     19  C   UNL A   1      32.165  23.792  26.662  1.00  0.00     0.015 A 
ATOM     20  C   UNL A   1      34.128  24.116  25.305  1.00  0.00     0.020 A 
BRANCH  16  21
ATOM     21  O   UNL A   1      33.454  20.516  25.748  1.00  0.00    -0.496 OA
ATOM     22  C   UNL A   1      32.622  19.997  24.714  1.00  0.00     0.278 C 
ENDBRANCH  16  21
BRANCH  18  23
ATOM     23  C   UNL A   1      35.544  22.195  24.455  1.00  0.00     0.184 C 
BRANCH  23  24
ATOM     24  N   UNL A   1      36.817  22.282  25.169  1.00  0.00    -0.264 N 
ATOM     25  N   UNL A   1      37.200  23.481  25.677  1.00  0.00    -0.177 NA
ATOM     26  C   UNL A   1      37.791  21.309  25.305  1.00  0.00     0.050 A 
ATOM     27  C   UNL A   1      38.416  23.263  26.194  1.00  0.00     0.074 A 
ATOM     28  C   UNL A   1      38.838  21.943  25.939  1.00  0.00     0.061 A 
ATOM     29  C   UNL A   1      37.615  19.885  24.932  1.00  0.00     0.067 C 
ATOM     30  C   UNL A   1      39.101  24.327  26.970  1.00  0.00     0.070 C 
ATOM     31  Br  UNL A   1      40.457  21.194  26.514  1.00  0.00    -0.047 Br
ENDBRANCH  23  24
ENDBRANCH  18  23
ENDBRANCH   9  15
ENDBRANCH   6   8
ENDBRANCH   5   6
ENDBRANCH   4   5
ENDBRANCH   3   4
ENDBRANCH   2   3
ENDBRANCH   1   2
BRANCH   1  32
ATOM     32  C   UNL A   1      30.062  29.811  23.219  1.00  0.00     0.188 C 
BRANCH  32  33
ATOM     33  O   UNL A   1      30.234  30.515  24.435  1.00  0.00    -0.376 OA
BRANCH  33  34
ATOM     34  C   UNL A   1      31.383  30.169  25.194  1.00  0.00     0.202 C 
BRANCH  34  35
ATOM     35  C   UNL A   1      31.672  31.075  26.402  1.00  0.00     0.261 C 
BRANCH  35  36
ATOM     36  O   UNL A   1      32.991  30.955  26.968  1.00  0.00    -0.460 OA
BRANCH  36  37
ATOM     37  C   UNL A   1      33.570  32.068  27.472  1.00  0.00     0.338 C 
ATOM     38  O   UNL A   1      33.046  33.153  27.656  1.00  0.00    -0.246 OA
BRANCH  37  39
ATOM     39  C   UNL A   1      34.886  31.663  28.030  1.00  0.00     0.060 A 
ATOM     40  C   UNL A   1      35.099  30.309  28.341  1.00  0.00     0.016 A 
ATOM     41  C   UNL A   1      35.933  32.582  28.144  1.00  0.00     0.016 A 
ATOM     42  C   UNL A   1      36.349  29.877  28.788  1.00  0.00     0.010 A 
ATOM     43  C   UNL A   1      37.172  32.159  28.636  1.00  0.00     0.010 A 
ATOM     44  C   UNL A   1      37.371  30.814  29.000  1.00  0.00    -0.014 A 
BRANCH  44  45
ATOM     45  C   UNL A   1      38.476  30.468  29.927  1.00  0.00     0.031 A 
ATOM     46  C   UNL A   1      39.532  29.536  29.392  1.00  0.00     0.074 A 
ATOM     47  C   UNL A   1      38.574  30.959  31.175  1.00  0.00     0.049 A 
ATOM     48  N   UNL A   1      40.582  29.027  29.983  1.00  0.00    -0.248 NA
ATOM     49  C   UNL A   1      39.375  29.121  27.985  1.00  0.00     0.031 C 
ATOM     50  C   UNL A   1      37.654  31.908  31.794  1.00  0.00     0.029 A 
ATOM     51  N   UNL A   1      39.510  30.711  32.150  1.00  0.00    -0.354 N 
ATOM     52  C   UNL A   1      41.205  28.242  29.021  1.00  0.00     0.074 A 
ATOM     53  C   UNL A   1      40.404  28.309  27.822  1.00  0.00     0.031 C 
ATOM     54  C   UNL A   1      38.064  32.152  33.054  1.00  0.00     0.029 A 
ATOM     55  C   UNL A   1      39.258  31.356  33.337  1.00  0.00     0.049 A 
ATOM     56  H   UNL A   1      40.290  30.126  32.011  1.00  0.00     0.167 HD
ATOM     57  C   UNL A   1      42.350  27.530  29.121  1.00  0.00     0.037 A 
ATOM     58  C   UNL A   1      39.911  31.287  34.514  1.00  0.00     0.037 A 
ATOM     59  C   UNL A   1      43.134  27.436  30.319  1.00  0.00     0.049 A 
ATOM     60  C   UNL A   1      41.136  30.407  34.631  1.00  0.00     0.074 A 
ATOM     61  C   UNL A   1      44.294  26.718  30.538  1.00  0.00     0.029 A 
ATOM     62  N   UNL A   1      42.827  28.080  31.508  1.00  0.00    -0.354 N 
ATOM     63  N   UNL A   1      41.727  29.675  33.717  1.00  0.00    -0.248 NA
ATOM     64  C   UNL A   1      41.786  30.348  35.949  1.00  0.00     0.031 C 
ATOM     65  C   UNL A   1      44.666  26.891  31.875  1.00  0.00     0.029 A 
ATOM     66  C   UNL A   1      43.772  27.765  32.470  1.00  0.00     0.049 A 
ATOM     67  H   UNL A   1      42.052  28.672  31.648  1.00  0.00     0.167 HD
ATOM     68  C   UNL A   1      42.839  29.111  34.334  1.00  0.00     0.074 A 
ATOM     69  C   UNL A   1      42.842  29.587  35.700  1.00  0.00     0.031 C 
ATOM     70  C   UNL A   1      43.775  28.278  33.816  1.00  0.00     0.037 A 
BRANCH  57  71
ATOM     71  C   UNL A   1      42.793  26.775  27.905  1.00  0.00     0.064 A 
ATOM     72  C   UNL A   1      42.512  25.409  27.746  1.00  0.00     0.173 A 
ATOM     73  C   UNL A   1      43.509  27.422  26.888  1.00  0.00     0.173 A 
ATOM     74  F   UNL A   1      41.856  24.738  28.705  1.00  0.00    -0.203 F 
ATOM     75  C   UNL A   1      42.955  24.713  26.624  1.00  0.00     0.198 A 
ATOM     76  C   UNL A   1      43.923  26.730  25.753  1.00  0.00     0.198 A 
ATOM     77  F   UNL A   1      43.810  28.724  26.995  1.00  0.00    -0.203 F 
ATOM     78  F   UNL A   1      42.723  23.397  26.520  1.00  0.00    -0.200 F 
ATOM     79  C   UNL A   1      43.653  25.376  25.626  1.00  0.00     0.200 A 
ATOM     80  F   UNL A   1      44.591  27.373  24.785  1.00  0.00    -0.200 F 
ATOM     81  F   UNL A   1      44.074  24.706  24.544  1.00  0.00    -0.200 F 
ENDBRANCH  57  71
BRANCH  58  82
ATOM     82  C   UNL A   1      39.434  32.060  35.693  1.00  0.00     0.064 A 
ATOM     83  C   UNL A   1      38.492  31.519  36.580  1.00  0.00     0.173 A 
ATOM     84  C   UNL A   1      39.862  33.376  35.924  1.00  0.00     0.173 A 
ATOM     85  F   UNL A   1      38.025  30.277  36.386  1.00  0.00    -0.203 F 
ATOM     86  C   UNL A   1      37.976  32.272  37.635  1.00  0.00     0.198 A 
ATOM     87  C   UNL A   1      39.368  34.117  36.996  1.00  0.00     0.198 A 
ATOM     88  F   UNL A   1      40.753  33.947  35.101  1.00  0.00    -0.203 F 
ATOM     89  F   UNL A   1      37.031  31.751  38.429  1.00  0.00    -0.200 F 
ATOM     90  C   UNL A   1      38.418  33.570  37.844  1.00  0.00     0.200 A 
ATOM     91  F   UNL A   1      39.801  35.370  37.198  1.00  0.00    -0.200 F 
ATOM     92  F   UNL A   1      37.917  34.295  38.854  1.00  0.00    -0.200 F 
ENDBRANCH  58  82
BRANCH  70  93
ATOM     93  C   UNL A   1      44.925  27.886  34.699  1.00  0.00     0.064 A 
ATOM     94  C   UNL A   1      46.062  28.695  34.843  1.00  0.00     0.173 A 
ATOM     95  C   UNL A   1      44.862  26.702  35.451  1.00  0.00     0.173 A 
ATOM     96  F   UNL A   1      46.176  29.832  34.141  1.00  0.00    -0.203 F 
ATOM     97  C   UNL A   1      47.106  28.317  35.684  1.00  0.00     0.198 A 
ATOM     98  C   UNL A   1      45.893  26.344  36.315  1.00  0.00     0.198 A 
ATOM     99  F   UNL A   1      43.792  25.898  35.359  1.00  0.00    -0.203 F 
ATOM    100  F   UNL A   1      48.204  29.079  35.769  1.00  0.00    -0.200 F 
ATOM    101  C   UNL A   1      47.017  27.147  36.424  1.00  0.00     0.200 A 
ATOM    102  F   UNL A   1      45.796  25.222  37.043  1.00  0.00    -0.200 F 
ATOM    103  F   UNL A   1      48.019  26.790  37.240  1.00  0.00    -0.200 F 
ENDBRANCH  70  93
ENDBRANCH  44  45
ENDBRANCH  37  39
ENDBRANCH  36  37
ENDBRANCH  35  36
ENDBRANCH  34  35
ENDBRANCH  33  34
ENDBRANCH  32  33
ENDBRANCH   1  32
TORSDOF 21
ENDMDL
MODEL 3
REMARK VINA RESULT:      -9.9      9.096     15.210
REMARK SMILES COc1ccc([C@@H]2[NH2+][C@H](C(=O)OCCOCCOCCOC(=O)c3ccc(-c4c5nc(c(-c6c(F)c(F)c(F)c(F)c6F)c6ccc([nH]6)c(-c6c(F)c(F)c(F)c(F)c6F)c6nc(c(-c7c(F)c(F)c(F)c(F)c7F)c7ccc4[nH]7)C=C6)C=C5)cc3)CS2)cc1Cn1nc(C)c(Br)c1C
REMARK SMILES IDX 16 1 15 2 14 3 13 4 12 5 10 6 11 7 9 8 7 9 8 10 88 11 87 14
REMARK SMILES IDX 6 15 3 16 4 17 90 18 5 19 89 20 2 21 1 22 91 23 92 24 93 25
REMARK SMILES IDX 98 26 94 27 96 28 99 29 95 30 97 31 17 32 18 33 19 34 20 35
REMARK SMILES IDX 21 36 22 37 23 38 24 39 25 40 86 41 26 42 85 43 27 44 28 45
REMARK SMILES IDX 29 46 79 47 30 48 84 49 78 50 80 51 31 52 83 53 77 54 76 55
REMARK SMILES IDX 32 57 64 58 44 59 63 60 45 61 48 62 62 63 81 64 46 65 47 66
REMARK SMILES IDX 61 68 82 69 49 70 33 71 34 72 42 73 35 74 36 75 40 76 43 77
REMARK SMILES IDX 37 78 38 79 41 80 39 81 65 82 66 83 74 84 67 85 68 86 72 87
REMARK SMILES IDX 75 88 69 89 70 90 73 91 71 92 50 93 51 94 59 95 52 96 53 97
REMARK SMILES IDX 57 98 60 99 54 100 55 101 58 102 56 103
REMARK H PARENT 8 12 8 13 80 56 48 67
REMARK Flexibility Score: inf
ROOT
ATOM      1  C   UNL A   1      49.277  19.479  38.858  1.00  0.00     0.188 C 
ENDROOT
BRANCH   1   2
ATOM      2  O   UNL A   1      50.270  19.397  39.868  1.00  0.00    -0.376 OA
BRANCH   2   3
ATOM      3  C   UNL A   1      50.055  18.428  40.883  1.00  0.00     0.202 C 
BRANCH   3   4
ATOM      4  C   UNL A   1      48.867  18.655  41.818  1.00  0.00     0.261 C 
BRANCH   4   5
ATOM      5  O   UNL A   1      49.016  18.268  43.191  1.00  0.00    -0.459 OA
BRANCH   5   6
ATOM      6  C   UNL A   1      47.929  17.766  43.825  1.00  0.00     0.365 C 
ATOM      7  O   UNL A   1      47.566  16.594  43.760  1.00  0.00    -0.245 OA
BRANCH   6   8
ATOM      8  C   UNL A   1      47.173  18.788  44.683  1.00  0.00     0.304 C 
ATOM      9  C   UNL A   1      44.811  19.088  44.240  1.00  0.00     0.274 C 
ATOM     10  N   UNL A   1      46.153  19.599  43.966  1.00  0.00    -0.319 N 
ATOM     11  S   UNL A   1      44.816  18.445  45.920  1.00  0.00    -0.087 SA
ATOM     12  H   UNL A   1      46.213  20.569  44.280  1.00  0.00     0.348 HD
ATOM     13  H   UNL A   1      46.330  19.544  42.964  1.00  0.00     0.348 HD
ATOM     14  C   UNL A   1      46.585  18.087  45.906  1.00  0.00     0.153 C 
BRANCH   9  15
ATOM     15  C   UNL A   1      44.289  18.134  43.177  1.00  0.00     0.021 A 
ATOM     16  C   UNL A   1      43.416  16.379  41.145  1.00  0.00     0.123 A 
ATOM     17  C   UNL A   1      44.383  17.352  40.874  1.00  0.00     0.047 A 
ATOM     18  C   UNL A   1      42.868  16.246  42.431  1.00  0.00     0.016 A 
ATOM     19  C   UNL A   1      44.813  18.222  41.878  1.00  0.00     0.015 A 
ATOM     20  C   UNL A   1      43.318  17.142  43.426  1.00  0.00     0.020 A 
BRANCH  16  21
ATOM     21  O   UNL A   1      43.124  15.525  40.116  1.00  0.00    -0.496 OA
ATOM     22  C   UNL A   1      43.924  15.737  38.956  1.00  0.00     0.278 C 
ENDBRANCH  16  21
BRANCH  18  23
ATOM     23  C   UNL A   1      41.771  15.252  42.753  1.00  0.00     0.184 C 
BRANCH  23  24
ATOM     24  N   UNL A   1      42.208  13.955  43.269  1.00  0.00    -0.264 N 
ATOM     25  N   UNL A   1      42.818  13.906  44.480  1.00  0.00    -0.177 NA
ATOM     26  C   UNL A   1      42.203  12.731  42.624  1.00  0.00     0.050 A 
ATOM     27  C   UNL A   1      43.164  12.622  44.640  1.00  0.00     0.074 A 
ATOM     28  C   UNL A   1      42.845  11.872  43.491  1.00  0.00     0.061 A 
ATOM     29  C   UNL A   1      41.522  12.463  41.335  1.00  0.00     0.067 C 
ATOM     30  C   UNL A   1      43.737  12.156  45.928  1.00  0.00     0.070 C 
ATOM     31  Br  UNL A   1      43.116  10.028  43.291  1.00  0.00    -0.047 Br
ENDBRANCH  23  24
ENDBRANCH  18  23
ENDBRANCH   9  15
ENDBRANCH   6   8
ENDBRANCH   5   6
ENDBRANCH   4   5
ENDBRANCH   3   4
ENDBRANCH   2   3
ENDBRANCH   1   2
BRANCH   1  32
ATOM     32  C   UNL A   1      49.510  20.432  37.664  1.00  0.00     0.188 C 
BRANCH  32  33
ATOM     33  O   UNL A   1      48.669  21.571  37.633  1.00  0.00    -0.376 OA
BRANCH  33  34
ATOM     34  C   UNL A   1      48.493  22.176  36.360  1.00  0.00     0.202 C 
BRANCH  34  35
ATOM     35  C   UNL A   1      48.677  23.702  36.325  1.00  0.00     0.261 C 
BRANCH  35  36
ATOM     36  O   UNL A   1      47.582  24.447  35.759  1.00  0.00    -0.460 OA
BRANCH  36  37
ATOM     37  C   UNL A   1      47.849  25.290  34.736  1.00  0.00     0.338 C 
ATOM     38  O   UNL A   1      48.810  25.260  33.987  1.00  0.00    -0.246 OA
BRANCH  37  39
ATOM     39  C   UNL A   1      46.623  26.094  34.500  1.00  0.00     0.060 A 
ATOM     40  C   UNL A   1      45.370  25.481  34.667  1.00  0.00     0.016 A 
ATOM     41  C   UNL A   1      46.701  27.463  34.225  1.00  0.00     0.016 A 
ATOM     42  C   UNL A   1      44.196  26.226  34.535  1.00  0.00     0.010 A 
ATOM     43  C   UNL A   1      45.526  28.200  34.046  1.00  0.00     0.010 A 
ATOM     44  C   UNL A   1      44.270  27.574  34.159  1.00  0.00    -0.014 A 
BRANCH  44  45
ATOM     45  C   UNL A   1      43.084  28.207  33.532  1.00  0.00     0.031 A 
ATOM     46  C   UNL A   1      42.849  27.891  32.077  1.00  0.00     0.074 A 
ATOM     47  C   UNL A   1      42.233  29.004  34.199  1.00  0.00     0.049 A 
ATOM     48  N   UNL A   1      41.927  28.330  31.261  1.00  0.00    -0.248 NA
ATOM     49  C   UNL A   1      43.793  26.941  31.460  1.00  0.00     0.031 C 
ATOM     50  C   UNL A   1      42.315  29.346  35.616  1.00  0.00     0.029 A 
ATOM     51  N   UNL A   1      41.122  29.679  33.753  1.00  0.00    -0.354 N 
ATOM     52  C   UNL A   1      42.181  27.708  30.045  1.00  0.00     0.074 A 
ATOM     53  C   UNL A   1      43.358  26.890  30.215  1.00  0.00     0.031 C 
ATOM     54  C   UNL A   1      41.302  30.181  35.922  1.00  0.00     0.029 A 
ATOM     55  C   UNL A   1      40.520  30.453  34.716  1.00  0.00     0.049 A 
ATOM     56  H   UNL A   1      40.788  29.614  32.829  1.00  0.00     0.167 HD
ATOM     57  C   UNL A   1      41.490  27.801  28.886  1.00  0.00     0.037 A 
ATOM     58  C   UNL A   1      39.471  31.294  34.618  1.00  0.00     0.037 A 
ATOM     59  C   UNL A   1      40.338  28.635  28.703  1.00  0.00     0.049 A 
ATOM     60  C   UNL A   1      38.774  31.457  33.286  1.00  0.00     0.074 A 
ATOM     61  C   UNL A   1      39.582  28.827  27.562  1.00  0.00     0.029 A 
ATOM     62  N   UNL A   1      39.779  29.426  29.696  1.00  0.00    -0.354 N 
ATOM     63  N   UNL A   1      39.010  30.859  32.143  1.00  0.00    -0.248 NA
ATOM     64  C   UNL A   1      37.658  32.414  33.234  1.00  0.00     0.031 C 
ATOM     65  C   UNL A   1      38.591  29.770  27.850  1.00  0.00     0.029 A 
ATOM     66  C   UNL A   1      38.692  30.118  29.188  1.00  0.00     0.049 A 
ATOM     67  H   UNL A   1      40.106  29.487  30.622  1.00  0.00     0.167 HD
ATOM     68  C   UNL A   1      38.049  31.329  31.255  1.00  0.00     0.074 A 
ATOM     69  C   UNL A   1      37.222  32.259  31.992  1.00  0.00     0.031 C 
ATOM     70  C   UNL A   1      37.861  31.016  29.949  1.00  0.00     0.037 A 
BRANCH  57  71
ATOM     71  C   UNL A   1      41.997  27.000  27.724  1.00  0.00     0.064 A 
ATOM     72  C   UNL A   1      42.907  27.539  26.802  1.00  0.00     0.173 A 
ATOM     73  C   UNL A   1      41.564  25.681  27.527  1.00  0.00     0.173 A 
ATOM     74  F   UNL A   1      43.327  28.807  26.930  1.00  0.00    -0.203 F 
ATOM     75  C   UNL A   1      43.347  26.794  25.711  1.00  0.00     0.198 A 
ATOM     76  C   UNL A   1      42.030  24.929  26.453  1.00  0.00     0.198 A 
ATOM     77  F   UNL A   1      40.688  25.123  28.376  1.00  0.00    -0.203 F 
ATOM     78  F   UNL A   1      44.173  27.348  24.813  1.00  0.00    -0.200 F 
ATOM     79  C   UNL A   1      42.914  25.488  25.542  1.00  0.00     0.200 A 
ATOM     80  F   UNL A   1      41.617  23.663  26.295  1.00  0.00    -0.200 F 
ATOM     81  F   UNL A   1      43.342  24.769  24.495  1.00  0.00    -0.200 F 
ENDBRANCH  57  71
BRANCH  58  82
ATOM     82  C   UNL A   1      39.003  32.065  35.803  1.00  0.00     0.064 A 
ATOM     83  C   UNL A   1      39.421  33.386  36.018  1.00  0.00     0.173 A 
ATOM     84  C   UNL A   1      38.179  31.479  36.775  1.00  0.00     0.173 A 
ATOM     85  F   UNL A   1      40.237  33.983  35.136  1.00  0.00    -0.203 F 
ATOM     86  C   UNL A   1      39.057  34.082  37.171  1.00  0.00     0.198 A 
ATOM     87  C   UNL A   1      37.791  32.185  37.913  1.00  0.00     0.198 A 
ATOM     88  F   UNL A   1      37.760  30.214  36.626  1.00  0.00    -0.203 F 
ATOM     89  F   UNL A   1      39.522  35.320  37.380  1.00  0.00    -0.200 F 
ATOM     90  C   UNL A   1      38.238  33.481  38.116  1.00  0.00     0.200 A 
ATOM     91  F   UNL A   1      36.996  31.602  38.822  1.00  0.00    -0.200 F 
ATOM     92  F   UNL A   1      37.894  34.147  39.227  1.00  0.00    -0.200 F 
ENDBRANCH  58  82
BRANCH  70  93
ATOM     93  C   UNL A   1      36.678  31.618  29.249  1.00  0.00     0.064 A 
ATOM     94  C   UNL A   1      35.545  30.862  28.914  1.00  0.00     0.173 A 
ATOM     95  C   UNL A   1      36.661  32.992  28.953  1.00  0.00     0.173 A 
ATOM     96  F   UNL A   1      35.513  29.546  29.167  1.00  0.00    -0.203 F 
ATOM     97  C   UNL A   1      34.453  31.452  28.283  1.00  0.00     0.198 A 
ATOM     98  C   UNL A   1      35.554  33.583  28.352  1.00  0.00     0.198 A 
ATOM     99  F   UNL A   1      37.714  33.763  29.262  1.00  0.00    -0.203 F 
ATOM    100  F   UNL A   1      33.402  30.701  27.928  1.00  0.00    -0.200 F 
ATOM    101  C   UNL A   1      34.455  32.811  28.009  1.00  0.00     0.200 A 
ATOM    102  F   UNL A   1      35.552  34.901  28.105  1.00  0.00    -0.200 F 
ATOM    103  F   UNL A   1      33.400  33.379  27.409  1.00  0.00    -0.200 F 
ENDBRANCH  70  93
ENDBRANCH  44  45
ENDBRANCH  37  39
ENDBRANCH  36  37
ENDBRANCH  35  36
ENDBRANCH  34  35
ENDBRANCH  33  34
ENDBRANCH  32  33
ENDBRANCH   1  32
TORSDOF 21
ENDMDL
