MODEL 1
REMARK VINA RESULT:     -11.0      0.000      0.000
REMARK SMILES O=Cc1ccc2c(c1)C=C(C(=O)OCCOCCOCCOC(=O)c1ccc(-c3c4nc(c(-c5c(F)c(F)c(F)c(F)c5F)c5ccc([nH]5)c(-c5c(F)c(F)c(F)c(F)c5F)c5nc(c(-c6c(F)c(F)c(F)c(F)c6F)c6ccc3[nH]6)C=C5)C=C4)cc1)[C@H](C(F)(F)F)O2
REMARK SMILES IDX 18 1 17 2 16 3 15 4 14 5 13 6 11 7 12 8 10 9 3 10 4 11 8 12
REMARK SMILES IDX 5 13 7 14 6 15 9 16 93 17 88 18 2 19 1 20 89 21 90 22 91 23
REMARK SMILES IDX 92 24 19 25 20 26 21 27 22 28 23 29 24 30 25 31 26 32 87 33
REMARK SMILES IDX 27 34 86 35 28 36 29 37 30 38 80 39 31 40 85 41 79 42 81 43
REMARK SMILES IDX 32 44 84 45 78 46 77 47 33 49 65 50 45 51 64 52 46 53 49 54
REMARK SMILES IDX 63 55 82 56 47 57 48 58 62 60 83 61 50 62 34 63 35 64 43 65
REMARK SMILES IDX 36 66 37 67 41 68 44 69 38 70 39 71 42 72 40 73 66 74 67 75
REMARK SMILES IDX 75 76 68 77 69 78 73 79 76 80 70 81 71 82 74 83 72 84 51 85
REMARK SMILES IDX 52 86 60 87 53 88 54 89 58 90 61 91 55 92 56 93 59 94 57 95
REMARK H PARENT 81 48 49 59
REMARK Flexibility Score: inf
ROOT
ATOM      1  C   UNL A   1      40.559  21.067  26.834  1.00  0.00     0.188 C 
ENDROOT
BRANCH   1   2
ATOM      2  C   UNL A   1      39.390  21.939  26.325  1.00  0.00     0.188 C 
BRANCH   2   3
ATOM      3  O   UNL A   1      38.433  21.217  25.591  1.00  0.00    -0.376 OA
BRANCH   3   4
ATOM      4  C   UNL A   1      37.268  21.875  25.126  1.00  0.00     0.202 C 
BRANCH   4   5
ATOM      5  C   UNL A   1      35.870  21.651  25.736  1.00  0.00     0.261 C 
BRANCH   5   6
ATOM      6  O   UNL A   1      35.057  22.807  25.973  1.00  0.00    -0.460 OA
BRANCH   6   7
ATOM      7  C   UNL A   1      33.718  22.664  25.828  1.00  0.00     0.338 C 
ATOM      8  O   UNL A   1      33.043  21.746  26.252  1.00  0.00    -0.246 OA
BRANCH   7   9
ATOM      9  C   UNL A   1      33.152  23.866  25.181  1.00  0.00     0.087 C 
ATOM     10  C   UNL A   1      31.776  28.487  25.145  1.00  0.00     0.015 A 
ATOM     11  C   UNL A   1      31.815  28.483  23.747  1.00  0.00     0.015 A 
ATOM     12  C   UNL A   1      32.104  27.335  25.872  1.00  0.00     0.023 A 
ATOM     13  C   UNL A   1      32.179  27.322  23.067  1.00  0.00     0.048 A 
ATOM     14  C   UNL A   1      32.483  26.172  25.192  1.00  0.00     0.018 A 
ATOM     15  C   UNL A   1      32.499  26.174  23.788  1.00  0.00     0.128 A 
ATOM     16  C   UNL A   1      32.971  24.988  25.899  1.00  0.00     0.027 C 
ATOM     17  O   UNL A   1      32.899  25.085  23.060  1.00  0.00    -0.475 OA
ATOM     18  C   UNL A   1      32.724  23.808  23.729  1.00  0.00     0.316 C 
BRANCH  10  19
ATOM     19  C   UNL A   1      31.425  29.729  25.864  1.00  0.00     0.260 C 
ATOM     20  O   UNL A   1      31.147  30.765  25.273  1.00  0.00    -0.298 OA
ENDBRANCH  10  19
BRANCH  18  21
ATOM     21  C   UNL A   1      33.318  22.710  22.832  1.00  0.00     0.430 C 
ATOM     22  F   UNL A   1      32.794  21.497  23.129  1.00  0.00    -0.167 F 
ATOM     23  F   UNL A   1      32.986  22.940  21.533  1.00  0.00    -0.167 F 
ATOM     24  F   UNL A   1      34.660  22.634  22.895  1.00  0.00    -0.167 F 
ENDBRANCH  18  21
ENDBRANCH   7   9
ENDBRANCH   6   7
ENDBRANCH   5   6
ENDBRANCH   4   5
ENDBRANCH   3   4
ENDBRANCH   2   3
ENDBRANCH   1   2
BRANCH   1  25
ATOM     25  O   UNL A   1      41.450  20.459  25.910  1.00  0.00    -0.376 OA
BRANCH  25  26
ATOM     26  C   UNL A   1      42.852  20.545  26.134  1.00  0.00     0.202 C 
BRANCH  26  27
ATOM     27  C   UNL A   1      43.682  21.627  25.422  1.00  0.00     0.261 C 
BRANCH  27  28
ATOM     28  O   UNL A   1      42.969  22.817  25.048  1.00  0.00    -0.460 OA
BRANCH  28  29
ATOM     29  C   UNL A   1      43.703  23.956  25.023  1.00  0.00     0.338 C 
ATOM     30  O   UNL A   1      44.682  24.195  24.340  1.00  0.00    -0.246 OA
BRANCH  29  31
ATOM     31  C   UNL A   1      43.038  24.987  25.845  1.00  0.00     0.060 A 
ATOM     32  C   UNL A   1      43.557  26.291  25.845  1.00  0.00     0.016 A 
ATOM     33  C   UNL A   1      41.962  24.652  26.664  1.00  0.00     0.016 A 
ATOM     34  C   UNL A   1      43.012  27.264  26.683  1.00  0.00     0.010 A 
ATOM     35  C   UNL A   1      41.436  25.619  27.524  1.00  0.00     0.010 A 
ATOM     36  C   UNL A   1      41.978  26.918  27.559  1.00  0.00    -0.014 A 
BRANCH  36  37
ATOM     37  C   UNL A   1      41.589  27.829  28.662  1.00  0.00     0.031 A 
ATOM     38  C   UNL A   1      42.401  27.798  29.926  1.00  0.00     0.074 A 
ATOM     39  C   UNL A   1      40.519  28.634  28.563  1.00  0.00     0.049 A 
ATOM     40  N   UNL A   1      42.165  28.356  31.085  1.00  0.00    -0.248 NA
ATOM     41  C   UNL A   1      43.650  27.019  29.874  1.00  0.00     0.031 C 
ATOM     42  C   UNL A   1      39.690  28.801  27.372  1.00  0.00     0.029 A 
ATOM     43  N   UNL A   1      39.931  29.446  29.503  1.00  0.00    -0.354 N 
ATOM     44  C   UNL A   1      43.220  27.978  31.904  1.00  0.00     0.074 A 
ATOM     45  C   UNL A   1      44.089  27.131  31.118  1.00  0.00     0.031 C 
ATOM     46  C   UNL A   1      38.679  29.639  27.662  1.00  0.00     0.029 A 
ATOM     47  C   UNL A   1      38.766  30.028  29.069  1.00  0.00     0.049 A 
ATOM     48  H   UNL A   1      40.309  29.596  30.400  1.00  0.00     0.167 HD
ATOM     49  C   UNL A   1      43.440  28.308  33.199  1.00  0.00     0.037 A 
ATOM     50  C   UNL A   1      37.855  30.755  29.748  1.00  0.00     0.037 A 
ATOM     51  C   UNL A   1      42.568  29.148  33.976  1.00  0.00     0.049 A 
ATOM     52  C   UNL A   1      38.077  31.040  31.213  1.00  0.00     0.074 A 
ATOM     53  C   UNL A   1      42.704  29.547  35.293  1.00  0.00     0.029 A 
ATOM     54  N   UNL A   1      41.392  29.711  33.504  1.00  0.00    -0.354 N 
ATOM     55  N   UNL A   1      39.075  30.685  31.986  1.00  0.00    -0.248 NA
ATOM     56  C   UNL A   1      37.043  31.826  31.902  1.00  0.00     0.031 C 
ATOM     57  C   UNL A   1      41.581  30.306  35.637  1.00  0.00     0.029 A 
ATOM     58  C   UNL A   1      40.780  30.436  34.513  1.00  0.00     0.049 A 
ATOM     59  H   UNL A   1      41.044  29.610  32.589  1.00  0.00     0.167 HD
ATOM     60  C   UNL A   1      38.812  31.238  33.233  1.00  0.00     0.074 A 
ATOM     61  C   UNL A   1      37.560  31.954  33.115  1.00  0.00     0.031 C 
ATOM     62  C   UNL A   1      39.546  31.168  34.372  1.00  0.00     0.037 A 
BRANCH  49  63
ATOM     63  C   UNL A   1      44.652  27.726  33.866  1.00  0.00     0.064 A 
ATOM     64  C   UNL A   1      44.615  26.484  34.517  1.00  0.00     0.173 A 
ATOM     65  C   UNL A   1      45.876  28.411  33.831  1.00  0.00     0.173 A 
ATOM     66  F   UNL A   1      43.466  25.796  34.595  1.00  0.00    -0.203 F 
ATOM     67  C   UNL A   1      45.751  25.964  35.132  1.00  0.00     0.198 A 
ATOM     68  C   UNL A   1      47.017  27.873  34.417  1.00  0.00     0.198 A 
ATOM     69  F   UNL A   1      45.968  29.601  33.218  1.00  0.00    -0.203 F 
ATOM     70  F   UNL A   1      45.679  24.800  35.794  1.00  0.00    -0.200 F 
ATOM     71  C   UNL A   1      46.953  26.654  35.076  1.00  0.00     0.200 A 
ATOM     72  F   UNL A   1      48.181  28.536  34.350  1.00  0.00    -0.200 F 
ATOM     73  F   UNL A   1      48.046  26.148  35.661  1.00  0.00    -0.200 F 
ENDBRANCH  49  63
BRANCH  50  74
ATOM     74  C   UNL A   1      36.633  31.249  29.059  1.00  0.00     0.064 A 
ATOM     75  C   UNL A   1      35.577  30.379  28.751  1.00  0.00     0.173 A 
ATOM     76  C   UNL A   1      36.507  32.589  28.667  1.00  0.00     0.173 A 
ATOM     77  F   UNL A   1      35.663  29.081  29.078  1.00  0.00    -0.203 F 
ATOM     78  C   UNL A   1      34.452  30.827  28.060  1.00  0.00     0.198 A 
ATOM     79  C   UNL A   1      35.368  33.042  28.003  1.00  0.00     0.198 A 
ATOM     80  F   UNL A   1      37.491  33.462  28.931  1.00  0.00    -0.203 F 
ATOM     81  F   UNL A   1      33.484  29.962  27.731  1.00  0.00    -0.200 F 
ATOM     82  C   UNL A   1      34.346  32.159  27.693  1.00  0.00     0.200 A 
ATOM     83  F   UNL A   1      35.267  34.333  27.657  1.00  0.00    -0.200 F 
ATOM     84  F   UNL A   1      33.266  32.589  27.026  1.00  0.00    -0.200 F 
ENDBRANCH  50  74
BRANCH  62  85
ATOM     85  C   UNL A   1      39.061  31.938  35.567  1.00  0.00     0.064 A 
ATOM     86  C   UNL A   1      38.260  31.351  36.556  1.00  0.00     0.173 A 
ATOM     87  C   UNL A   1      39.465  33.270  35.755  1.00  0.00     0.173 A 
ATOM     88  F   UNL A   1      37.836  30.085  36.419  1.00  0.00    -0.203 F 
ATOM     89  C   UNL A   1      37.866  32.074  37.680  1.00  0.00     0.198 A 
ATOM     90  C   UNL A   1      39.097  33.978  36.894  1.00  0.00     0.198 A 
ATOM     91  F   UNL A   1      40.240  33.876  34.842  1.00  0.00    -0.203 F 
ATOM     92  F   UNL A   1      37.068  31.506  38.594  1.00  0.00    -0.200 F 
ATOM     93  C   UNL A   1      38.293  33.383  37.853  1.00  0.00     0.200 A 
ATOM     94  F   UNL A   1      39.526  35.236  37.066  1.00  0.00    -0.200 F 
ATOM     95  F   UNL A   1      37.927  34.071  38.943  1.00  0.00    -0.200 F 
ENDBRANCH  62  85
ENDBRANCH  36  37
ENDBRANCH  29  31
ENDBRANCH  28  29
ENDBRANCH  27  28
ENDBRANCH  26  27
ENDBRANCH  25  26
ENDBRANCH   1  25
TORSDOF 19
ENDMDL
MODEL 2
REMARK VINA RESULT:     -10.9      2.830      8.484
REMARK SMILES O=Cc1ccc2c(c1)C=C(C(=O)OCCOCCOCCOC(=O)c1ccc(-c3c4nc(c(-c5c(F)c(F)c(F)c(F)c5F)c5ccc([nH]5)c(-c5c(F)c(F)c(F)c(F)c5F)c5nc(c(-c6c(F)c(F)c(F)c(F)c6F)c6ccc3[nH]6)C=C5)C=C4)cc1)[C@H](C(F)(F)F)O2
REMARK SMILES IDX 18 1 17 2 16 3 15 4 14 5 13 6 11 7 12 8 10 9 3 10 4 11 8 12
REMARK SMILES IDX 5 13 7 14 6 15 9 16 93 17 88 18 2 19 1 20 89 21 90 22 91 23
REMARK SMILES IDX 92 24 19 25 20 26 21 27 22 28 23 29 24 30 25 31 26 32 87 33
REMARK SMILES IDX 27 34 86 35 28 36 29 37 30 38 80 39 31 40 85 41 79 42 81 43
REMARK SMILES IDX 32 44 84 45 78 46 77 47 33 49 65 50 45 51 64 52 46 53 49 54
REMARK SMILES IDX 63 55 82 56 47 57 48 58 62 60 83 61 50 62 34 63 35 64 43 65
REMARK SMILES IDX 36 66 37 67 41 68 44 69 38 70 39 71 42 72 40 73 66 74 67 75
REMARK SMILES IDX 75 76 68 77 69 78 73 79 76 80 70 81 71 82 74 83 72 84 51 85
REMARK SMILES IDX 52 86 60 87 53 88 54 89 58 90 61 91 55 92 56 93 59 94 57 95
REMARK H PARENT 81 48 49 59
REMARK Flexibility Score: inf
ROOT
ATOM      1  C   UNL A   1      31.468  27.502  25.954  1.00  0.00     0.188 C 
ENDROOT
BRANCH   1   2
ATOM      2  C   UNL A   1      31.649  25.972  25.840  1.00  0.00     0.188 C 
BRANCH   2   3
ATOM      3  O   UNL A   1      30.862  25.246  26.751  1.00  0.00    -0.376 OA
BRANCH   3   4
ATOM      4  C   UNL A   1      31.039  23.846  26.866  1.00  0.00     0.202 C 
BRANCH   4   5
ATOM      5  C   UNL A   1      32.021  23.043  25.988  1.00  0.00     0.261 C 
BRANCH   5   6
ATOM      6  O   UNL A   1      31.539  22.556  24.729  1.00  0.00    -0.460 OA
BRANCH   6   7
ATOM      7  C   UNL A   1      32.465  22.178  23.815  1.00  0.00     0.338 C 
ATOM      8  O   UNL A   1      32.789  22.797  22.821  1.00  0.00    -0.246 OA
BRANCH   7   9
ATOM      9  C   UNL A   1      33.139  20.942  24.267  1.00  0.00     0.087 C 
ATOM     10  C   UNL A   1      33.319  16.195  25.090  1.00  0.00     0.015 A 
ATOM     11  C   UNL A   1      34.716  16.257  25.120  1.00  0.00     0.015 A 
ATOM     12  C   UNL A   1      32.557  17.349  24.865  1.00  0.00     0.023 A 
ATOM     13  C   UNL A   1      35.359  17.479  24.929  1.00  0.00     0.048 A 
ATOM     14  C   UNL A   1      33.201  18.574  24.658  1.00  0.00     0.018 A 
ATOM     15  C   UNL A   1      34.602  18.629  24.710  1.00  0.00     0.128 A 
ATOM     16  C   UNL A   1      32.463  19.780  24.280  1.00  0.00     0.027 C 
ATOM     17  O   UNL A   1      35.299  19.785  24.477  1.00  0.00    -0.475 OA
ATOM     18  C   UNL A   1      34.566  21.005  24.768  1.00  0.00     0.316 C 
BRANCH  10  19
ATOM     19  C   UNL A   1      32.641  14.893  25.258  1.00  0.00     0.260 C 
ATOM     20  O   UNL A   1      33.249  13.883  25.591  1.00  0.00    -0.298 OA
ENDBRANCH  10  19
BRANCH  18  21
ATOM     21  C   UNL A   1      35.439  22.200  24.352  1.00  0.00     0.430 C 
ATOM     22  F   UNL A   1      36.751  21.953  24.582  1.00  0.00    -0.167 F 
ATOM     23  F   UNL A   1      35.338  22.407  23.012  1.00  0.00    -0.167 F 
ATOM     24  F   UNL A   1      35.099  23.350  24.962  1.00  0.00    -0.167 F 
ENDBRANCH  18  21
ENDBRANCH   7   9
ENDBRANCH   6   7
ENDBRANCH   5   6
ENDBRANCH   4   5
ENDBRANCH   3   4
ENDBRANCH   2   3
ENDBRANCH   1   2
BRANCH   1  25
ATOM     25  O   UNL A   1      31.185  28.274  24.796  1.00  0.00    -0.376 OA
BRANCH  25  26
ATOM     26  C   UNL A   1      31.316  29.690  24.854  1.00  0.00     0.202 C 
BRANCH  26  27
ATOM     27  C   UNL A   1      31.764  30.369  26.159  1.00  0.00     0.261 C 
BRANCH  27  28
ATOM     28  O   UNL A   1      33.184  30.474  26.353  1.00  0.00    -0.460 OA
BRANCH  28  29
ATOM     29  C   UNL A   1      33.586  31.420  27.237  1.00  0.00     0.338 C 
ATOM     30  O   UNL A   1      32.922  32.322  27.714  1.00  0.00    -0.246 OA
BRANCH  29  31
ATOM     31  C   UNL A   1      34.951  31.107  27.705  1.00  0.00     0.060 A 
ATOM     32  C   UNL A   1      35.291  29.769  27.954  1.00  0.00     0.016 A 
ATOM     33  C   UNL A   1      35.860  32.130  27.967  1.00  0.00     0.016 A 
ATOM     34  C   UNL A   1      36.540  29.448  28.487  1.00  0.00     0.010 A 
ATOM     35  C   UNL A   1      37.099  31.812  28.528  1.00  0.00     0.010 A 
ATOM     36  C   UNL A   1      37.432  30.475  28.818  1.00  0.00    -0.014 A 
BRANCH  36  37
ATOM     37  C   UNL A   1      38.622  30.197  29.656  1.00  0.00     0.031 A 
ATOM     38  C   UNL A   1      39.643  29.225  29.136  1.00  0.00     0.074 A 
ATOM     39  C   UNL A   1      38.777  30.761  30.865  1.00  0.00     0.049 A 
ATOM     40  N   UNL A   1      40.666  28.682  29.744  1.00  0.00    -0.248 NA
ATOM     41  C   UNL A   1      39.477  28.798  27.737  1.00  0.00     0.031 C 
ATOM     42  C   UNL A   1      37.893  31.763  31.453  1.00  0.00     0.029 A 
ATOM     43  N   UNL A   1      39.730  30.541  31.831  1.00  0.00    -0.354 N 
ATOM     44  C   UNL A   1      41.250  27.836  28.811  1.00  0.00     0.074 A 
ATOM     45  C   UNL A   1      40.461  27.923  27.602  1.00  0.00     0.031 C 
ATOM     46  C   UNL A   1      38.326  32.050  32.693  1.00  0.00     0.029 A 
ATOM     47  C   UNL A   1      39.488  31.217  33.000  1.00  0.00     0.049 A 
ATOM     48  H   UNL A   1      40.510  29.955  31.695  1.00  0.00     0.167 HD
ATOM     49  C   UNL A   1      42.347  27.056  28.953  1.00  0.00     0.037 A 
ATOM     50  C   UNL A   1      40.113  31.136  34.193  1.00  0.00     0.037 A 
ATOM     51  C   UNL A   1      43.126  26.972  30.161  1.00  0.00     0.049 A 
ATOM     52  C   UNL A   1      41.281  30.196  34.355  1.00  0.00     0.074 A 
ATOM     53  C   UNL A   1      44.257  26.216  30.406  1.00  0.00     0.029 A 
ATOM     54  N   UNL A   1      42.844  27.665  31.328  1.00  0.00    -0.354 N 
ATOM     55  N   UNL A   1      41.834  29.398  33.473  1.00  0.00    -0.248 NA
ATOM     56  C   UNL A   1      41.912  30.141  35.682  1.00  0.00     0.031 C 
ATOM     57  C   UNL A   1      44.629  26.408  31.740  1.00  0.00     0.029 A 
ATOM     58  C   UNL A   1      43.769  27.336  32.306  1.00  0.00     0.049 A 
ATOM     59  H   UNL A   1      42.098  28.297  31.445  1.00  0.00     0.167 HD
ATOM     60  C   UNL A   1      42.899  28.785  34.122  1.00  0.00     0.074 A 
ATOM     61  C   UNL A   1      42.916  29.301  35.474  1.00  0.00     0.031 C 
ATOM     62  C   UNL A   1      43.788  27.881  33.640  1.00  0.00     0.037 A 
BRANCH  49  63
ATOM     63  C   UNL A   1      42.746  26.201  27.786  1.00  0.00     0.064 A 
ATOM     64  C   UNL A   1      42.204  24.923  27.584  1.00  0.00     0.173 A 
ATOM     65  C   UNL A   1      43.668  26.679  26.842  1.00  0.00     0.173 A 
ATOM     66  F   UNL A   1      41.332  24.411  28.466  1.00  0.00    -0.203 F 
ATOM     67  C   UNL A   1      42.590  24.145  26.495  1.00  0.00     0.198 A 
ATOM     68  C   UNL A   1      44.026  25.913  25.737  1.00  0.00     0.198 A 
ATOM     69  F   UNL A   1      44.214  27.895  26.986  1.00  0.00    -0.203 F 
ATOM     70  F   UNL A   1      42.098  22.907  26.351  1.00  0.00    -0.200 F 
ATOM     71  C   UNL A   1      43.494  24.643  25.569  1.00  0.00     0.200 A 
ATOM     72  F   UNL A   1      44.890  26.401  24.836  1.00  0.00    -0.200 F 
ATOM     73  F   UNL A   1      43.859  23.897  24.518  1.00  0.00    -0.200 F 
ENDBRANCH  49  63
BRANCH  50  74
ATOM     74  C   UNL A   1      39.634  31.951  35.341  1.00  0.00     0.064 A 
ATOM     75  C   UNL A   1      38.666  31.453  36.226  1.00  0.00     0.173 A 
ATOM     76  C   UNL A   1      40.108  33.253  35.561  1.00  0.00     0.173 A 
ATOM     77  F   UNL A   1      38.159  30.226  36.040  1.00  0.00    -0.203 F 
ATOM     78  C   UNL A   1      38.178  32.233  37.272  1.00  0.00     0.198 A 
ATOM     79  C   UNL A   1      39.641  34.020  36.626  1.00  0.00     0.198 A 
ATOM     80  F   UNL A   1      41.029  33.780  34.740  1.00  0.00    -0.203 F 
ATOM     81  F   UNL A   1      37.214  31.752  38.069  1.00  0.00    -0.200 F 
ATOM     82  C   UNL A   1      38.670  33.513  37.475  1.00  0.00     0.200 A 
ATOM     83  F   UNL A   1      40.125  35.254  36.823  1.00  0.00    -0.200 F 
ATOM     84  F   UNL A   1      38.198  34.263  38.481  1.00  0.00    -0.200 F 
ENDBRANCH  50  74
BRANCH  62  85
ATOM     85  C   UNL A   1      44.901  27.441  34.547  1.00  0.00     0.064 A 
ATOM     86  C   UNL A   1      44.823  26.264  35.305  1.00  0.00     0.173 A 
ATOM     87  C   UNL A   1      46.094  28.179  34.604  1.00  0.00     0.173 A 
ATOM     88  F   UNL A   1      43.701  25.528  35.296  1.00  0.00    -0.203 F 
ATOM     89  C   UNL A   1      45.891  25.852  36.100  1.00  0.00     0.198 A 
ATOM     90  C   UNL A   1      47.171  27.748  35.373  1.00  0.00     0.198 A 
ATOM     91  F   UNL A   1      46.225  29.309  33.891  1.00  0.00    -0.203 F 
ATOM     92  F   UNL A   1      45.780  24.744  36.845  1.00  0.00    -0.200 F 
ATOM     93  C   UNL A   1      47.066  26.589  36.125  1.00  0.00     0.200 A 
ATOM     94  F   UNL A   1      48.311  28.452  35.382  1.00  0.00    -0.200 F 
ATOM     95  F   UNL A   1      48.098  26.182  36.877  1.00  0.00    -0.200 F 
ENDBRANCH  62  85
ENDBRANCH  36  37
ENDBRANCH  29  31
ENDBRANCH  28  29
ENDBRANCH  27  28
ENDBRANCH  26  27
ENDBRANCH  25  26
ENDBRANCH   1  25
TORSDOF 19
ENDMDL
MODEL 3
REMARK VINA RESULT:     -10.8      4.827      7.234
REMARK SMILES O=Cc1ccc2c(c1)C=C(C(=O)OCCOCCOCCOC(=O)c1ccc(-c3c4nc(c(-c5c(F)c(F)c(F)c(F)c5F)c5ccc([nH]5)c(-c5c(F)c(F)c(F)c(F)c5F)c5nc(c(-c6c(F)c(F)c(F)c(F)c6F)c6ccc3[nH]6)C=C5)C=C4)cc1)[C@H](C(F)(F)F)O2
REMARK SMILES IDX 18 1 17 2 16 3 15 4 14 5 13 6 11 7 12 8 10 9 3 10 4 11 8 12
REMARK SMILES IDX 5 13 7 14 6 15 9 16 93 17 88 18 2 19 1 20 89 21 90 22 91 23
REMARK SMILES IDX 92 24 19 25 20 26 21 27 22 28 23 29 24 30 25 31 26 32 87 33
REMARK SMILES IDX 27 34 86 35 28 36 29 37 30 38 80 39 31 40 85 41 79 42 81 43
REMARK SMILES IDX 32 44 84 45 78 46 77 47 33 49 65 50 45 51 64 52 46 53 49 54
REMARK SMILES IDX 63 55 82 56 47 57 48 58 62 60 83 61 50 62 34 63 35 64 43 65
REMARK SMILES IDX 36 66 37 67 41 68 44 69 38 70 39 71 42 72 40 73 66 74 67 75
REMARK SMILES IDX 75 76 68 77 69 78 73 79 76 80 70 81 71 82 74 83 72 84 51 85
REMARK SMILES IDX 52 86 60 87 53 88 54 89 58 90 61 91 55 92 56 93 59 94 57 95
REMARK H PARENT 81 48 49 59
REMARK Flexibility Score: inf
ROOT
ATOM      1  C   UNL A   1      41.736  21.220  27.292  1.00  0.00     0.188 C 
ENDROOT
BRANCH   1   2
ATOM      2  C   UNL A   1      40.888  21.789  26.133  1.00  0.00     0.188 C 
BRANCH   2   3
ATOM      3  O   UNL A   1      39.516  21.871  26.431  1.00  0.00    -0.376 OA
BRANCH   3   4
ATOM      4  C   UNL A   1      38.930  23.136  26.680  1.00  0.00     0.202 C 
BRANCH   4   5
ATOM      5  C   UNL A   1      37.858  23.765  25.768  1.00  0.00     0.261 C 
BRANCH   5   6
ATOM      6  O   UNL A   1      36.861  22.894  25.218  1.00  0.00    -0.460 OA
BRANCH   6   7
ATOM      7  C   UNL A   1      36.045  23.408  24.267  1.00  0.00     0.338 C 
ATOM      8  O   UNL A   1      36.218  23.354  23.065  1.00  0.00    -0.246 OA
BRANCH   7   9
ATOM      9  C   UNL A   1      34.818  23.944  24.895  1.00  0.00     0.087 C 
ATOM     10  C   UNL A   1      32.087  27.513  26.639  1.00  0.00     0.015 A 
ATOM     11  C   UNL A   1      30.956  26.697  26.526  1.00  0.00     0.015 A 
ATOM     12  C   UNL A   1      33.350  27.041  26.258  1.00  0.00     0.023 A 
ATOM     13  C   UNL A   1      31.085  25.400  26.033  1.00  0.00     0.048 A 
ATOM     14  C   UNL A   1      33.478  25.744  25.749  1.00  0.00     0.018 A 
ATOM     15  C   UNL A   1      32.341  24.927  25.659  1.00  0.00     0.128 A 
ATOM     16  C   UNL A   1      34.743  25.250  25.205  1.00  0.00     0.027 C 
ATOM     17  O   UNL A   1      32.387  23.663  25.133  1.00  0.00    -0.475 OA
ATOM     18  C   UNL A   1      33.679  23.008  25.238  1.00  0.00     0.316 C 
BRANCH  10  19
ATOM     19  C   UNL A   1      31.943  28.899  27.129  1.00  0.00     0.260 C 
ATOM     20  O   UNL A   1      32.895  29.667  27.196  1.00  0.00    -0.298 OA
ENDBRANCH  10  19
BRANCH  18  21
ATOM     21  C   UNL A   1      33.593  21.657  24.510  1.00  0.00     0.430 C 
ATOM     22  F   UNL A   1      32.447  21.004  24.820  1.00  0.00    -0.167 F 
ATOM     23  F   UNL A   1      33.546  21.854  23.165  1.00  0.00    -0.167 F 
ATOM     24  F   UNL A   1      34.638  20.847  24.759  1.00  0.00    -0.167 F 
ENDBRANCH  18  21
ENDBRANCH   7   9
ENDBRANCH   6   7
ENDBRANCH   5   6
ENDBRANCH   4   5
ENDBRANCH   3   4
ENDBRANCH   2   3
ENDBRANCH   1   2
BRANCH   1  25
ATOM     25  O   UNL A   1      42.069  19.839  27.320  1.00  0.00    -0.376 OA
BRANCH  25  26
ATOM     26  C   UNL A   1      42.074  19.100  26.104  1.00  0.00     0.202 C 
BRANCH  26  27
ATOM     27  C   UNL A   1      43.364  18.416  25.622  1.00  0.00     0.261 C 
BRANCH  27  28
ATOM     28  O   UNL A   1      43.814  18.787  24.308  1.00  0.00    -0.460 OA
BRANCH  28  29
ATOM     29  C   UNL A   1      44.989  19.462  24.260  1.00  0.00     0.338 C 
ATOM     30  O   UNL A   1      46.037  19.097  23.760  1.00  0.00    -0.246 OA
BRANCH  29  31
ATOM     31  C   UNL A   1      44.788  20.834  24.768  1.00  0.00     0.060 A 
ATOM     32  C   UNL A   1      44.215  21.793  23.919  1.00  0.00     0.016 A 
ATOM     33  C   UNL A   1      45.231  21.188  26.041  1.00  0.00     0.016 A 
ATOM     34  C   UNL A   1      44.099  23.120  24.334  1.00  0.00     0.010 A 
ATOM     35  C   UNL A   1      45.142  22.522  26.445  1.00  0.00     0.010 A 
ATOM     36  C   UNL A   1      44.605  23.498  25.583  1.00  0.00    -0.014 A 
BRANCH  36  37
ATOM     37  C   UNL A   1      44.776  24.929  25.924  1.00  0.00     0.031 A 
ATOM     38  C   UNL A   1      46.148  25.530  25.794  1.00  0.00     0.074 A 
ATOM     39  C   UNL A   1      43.752  25.671  26.377  1.00  0.00     0.049 A 
ATOM     40  N   UNL A   1      46.592  26.693  26.196  1.00  0.00    -0.248 NA
ATOM     41  C   UNL A   1      47.160  24.694  25.128  1.00  0.00     0.031 C 
ATOM     42  C   UNL A   1      42.366  25.224  26.487  1.00  0.00     0.029 A 
ATOM     43  N   UNL A   1      43.733  26.959  26.856  1.00  0.00    -0.354 N 
ATOM     44  C   UNL A   1      47.937  26.718  25.851  1.00  0.00     0.074 A 
ATOM     45  C   UNL A   1      48.241  25.451  25.224  1.00  0.00     0.031 C 
ATOM     46  C   UNL A   1      41.635  26.212  27.033  1.00  0.00     0.029 A 
ATOM     47  C   UNL A   1      42.511  27.339  27.351  1.00  0.00     0.049 A 
ATOM     48  H   UNL A   1      44.520  27.550  26.846  1.00  0.00     0.167 HD
ATOM     49  C   UNL A   1      48.837  27.711  26.044  1.00  0.00     0.037 A 
ATOM     50  C   UNL A   1      42.156  28.453  28.022  1.00  0.00     0.037 A 
ATOM     51  C   UNL A   1      48.527  28.968  26.673  1.00  0.00     0.049 A 
ATOM     52  C   UNL A   1      43.195  29.511  28.302  1.00  0.00     0.074 A 
ATOM     53  C   UNL A   1      49.365  30.042  26.912  1.00  0.00     0.029 A 
ATOM     54  N   UNL A   1      47.279  29.313  27.170  1.00  0.00    -0.354 N 
ATOM     55  N   UNL A   1      44.464  29.536  27.974  1.00  0.00    -0.248 NA
ATOM     56  C   UNL A   1      42.751  30.698  29.049  1.00  0.00     0.031 C 
ATOM     57  C   UNL A   1      48.639  31.016  27.603  1.00  0.00     0.029 A 
ATOM     58  C   UNL A   1      47.331  30.576  27.736  1.00  0.00     0.049 A 
ATOM     59  H   UNL A   1      46.477  28.745  27.127  1.00  0.00     0.167 HD
ATOM     60  C   UNL A   1      44.957  30.752  28.434  1.00  0.00     0.074 A 
ATOM     61  C   UNL A   1      43.850  31.438  29.065  1.00  0.00     0.031 C 
ATOM     62  C   UNL A   1      46.211  31.258  28.335  1.00  0.00     0.037 A 
BRANCH  49  63
ATOM     63  C   UNL A   1      50.250  27.461  25.605  1.00  0.00     0.064 A 
ATOM     64  C   UNL A   1      50.665  27.681  24.283  1.00  0.00     0.173 A 
ATOM     65  C   UNL A   1      51.209  27.019  26.528  1.00  0.00     0.173 A 
ATOM     66  F   UNL A   1      49.783  28.086  23.357  1.00  0.00    -0.203 F 
ATOM     67  C   UNL A   1      51.981  27.439  23.896  1.00  0.00     0.198 A 
ATOM     68  C   UNL A   1      52.531  26.811  26.146  1.00  0.00     0.198 A 
ATOM     69  F   UNL A   1      50.867  26.796  27.806  1.00  0.00    -0.203 F 
ATOM     70  F   UNL A   1      52.342  27.606  22.616  1.00  0.00    -0.200 F 
ATOM     71  C   UNL A   1      52.914  27.013  24.829  1.00  0.00     0.200 A 
ATOM     72  F   UNL A   1      53.435  26.412  27.052  1.00  0.00    -0.200 F 
ATOM     73  F   UNL A   1      54.181  26.789  24.456  1.00  0.00    -0.200 F 
ENDBRANCH  49  63
BRANCH  50  74
ATOM     74  C   UNL A   1      40.758  28.622  28.500  1.00  0.00     0.064 A 
ATOM     75  C   UNL A   1      40.393  28.259  29.805  1.00  0.00     0.173 A 
ATOM     76  C   UNL A   1      39.753  29.118  27.658  1.00  0.00     0.173 A 
ATOM     77  F   UNL A   1      41.311  27.751  30.639  1.00  0.00    -0.203 F 
ATOM     78  C   UNL A   1      39.073  28.368  30.240  1.00  0.00     0.198 A 
ATOM     79  C   UNL A   1      38.440  29.254  28.104  1.00  0.00     0.198 A 
ATOM     80  F   UNL A   1      40.047  29.473  26.398  1.00  0.00    -0.203 F 
ATOM     81  F   UNL A   1      38.743  27.962  31.474  1.00  0.00    -0.200 F 
ATOM     82  C   UNL A   1      38.100  28.871  29.391  1.00  0.00     0.200 A 
ATOM     83  F   UNL A   1      37.503  29.749  27.282  1.00  0.00    -0.200 F 
ATOM     84  F   UNL A   1      36.830  28.973  29.810  1.00  0.00    -0.200 F 
ENDBRANCH  50  74
BRANCH  62  85
ATOM     85  C   UNL A   1      46.449  32.648  28.853  1.00  0.00     0.064 A 
ATOM     86  C   UNL A   1      46.274  33.783  28.048  1.00  0.00     0.173 A 
ATOM     87  C   UNL A   1      46.793  32.846  30.200  1.00  0.00     0.173 A 
ATOM     88  F   UNL A   1      45.958  33.649  26.751  1.00  0.00    -0.203 F 
ATOM     89  C   UNL A   1      46.453  35.063  28.568  1.00  0.00     0.198 A 
ATOM     90  C   UNL A   1      46.938  34.127  30.724  1.00  0.00     0.198 A 
ATOM     91  F   UNL A   1      46.963  31.794  31.015  1.00  0.00    -0.203 F 
ATOM     92  F   UNL A   1      46.319  36.132  27.771  1.00  0.00    -0.200 F 
ATOM     93  C   UNL A   1      46.774  35.234  29.907  1.00  0.00     0.200 A 
ATOM     94  F   UNL A   1      47.231  34.288  32.021  1.00  0.00    -0.200 F 
ATOM     95  F   UNL A   1      46.929  36.467  30.409  1.00  0.00    -0.200 F 
ENDBRANCH  62  85
ENDBRANCH  36  37
ENDBRANCH  29  31
ENDBRANCH  28  29
ENDBRANCH  27  28
ENDBRANCH  26  27
ENDBRANCH  25  26
ENDBRANCH   1  25
TORSDOF 19
ENDMDL
