MODEL 1
REMARK VINA RESULT:     -11.9      0.000      0.000
REMARK SMILES Cc1ccc([C@H](C)Nc2ccc(C(=O)OCCOCCOCCOC(=O)c3ccc(-c4c5nc(c(-c6c(F)c(F)c(F)c(F)c6F)c6ccc([nH]6)c(-c6c(F)c(F)c(F)c(F)c6F)c6nc(c(-c7c(F)c(F)c(F)c(F)c7F)c7ccc4[nH]7)C=C6)C=C5)cc3)cc2Cl)cc1F
REMARK SMILES IDX 19 1 18 2 17 3 16 4 15 5 13 6 14 7 12 8 9 9 10 10 91 11
REMARK SMILES IDX 11 12 90 13 92 14 8 15 6 17 7 18 5 19 1 20 2 21 3 22 94 23
REMARK SMILES IDX 4 24 93 25 95 26 20 27 21 28 22 29 23 30 24 31 25 32 26 33
REMARK SMILES IDX 27 34 28 35 89 36 29 37 88 38 30 39 31 40 32 41 82 42 33 43
REMARK SMILES IDX 87 44 81 45 83 46 34 47 86 48 80 49 79 50 35 52 67 53 47 54
REMARK SMILES IDX 66 55 48 56 51 57 65 58 84 59 49 60 50 61 64 63 85 64 52 65
REMARK SMILES IDX 36 66 37 67 45 68 38 69 39 70 43 71 46 72 40 73 41 74 44 75
REMARK SMILES IDX 42 76 68 77 69 78 77 79 70 80 71 81 75 82 78 83 72 84 73 85
REMARK SMILES IDX 76 86 74 87 53 88 54 89 62 90 55 91 56 92 60 93 63 94 57 95
REMARK SMILES IDX 58 96 61 97 59 98
REMARK H PARENT 8 16 83 51 51 62
REMARK Flexibility Score: inf
ROOT
ATOM      1  C   UNL A   1      32.909  34.901  29.069  1.00  0.00     0.188 C 
ENDROOT
BRANCH   1   2
ATOM      2  O   UNL A   1      32.543  34.013  28.024  1.00  0.00    -0.376 OA
BRANCH   2   3
ATOM      3  C   UNL A   1      33.511  33.099  27.528  1.00  0.00     0.202 C 
BRANCH   3   4
ATOM      4  C   UNL A   1      33.349  31.597  27.822  1.00  0.00     0.261 C 
BRANCH   4   5
ATOM      5  O   UNL A   1      33.448  30.726  26.681  1.00  0.00    -0.460 OA
BRANCH   5   6
ATOM      6  C   UNL A   1      32.271  30.272  26.177  1.00  0.00     0.338 C 
ATOM      7  O   UNL A   1      31.320  30.941  25.817  1.00  0.00    -0.246 OA
BRANCH   6   8
ATOM      8  C   UNL A   1      32.367  28.815  25.921  1.00  0.00     0.061 A 
ATOM      9  C   UNL A   1      32.608  26.017  25.549  1.00  0.00     0.053 A 
ATOM     10  C   UNL A   1      33.578  26.743  26.260  1.00  0.00     0.028 A 
ATOM     11  C   UNL A   1      31.508  26.738  25.030  1.00  0.00     0.065 A 
ATOM     12  C   UNL A   1      33.471  28.125  26.432  1.00  0.00     0.018 A 
ATOM     13  C   UNL A   1      31.377  28.119  25.232  1.00  0.00     0.038 A 
ATOM     14  Cl  UNL A   1      30.195  25.973  24.199  1.00  0.00    -0.082 Cl
BRANCH   9  15
ATOM     15  N   UNL A   1      32.842  24.657  25.368  1.00  0.00    -0.377 N 
ATOM     16  H   UNL A   1      32.433  24.017  25.995  1.00  0.00     0.161 HD
BRANCH  15  17
ATOM     17  C   UNL A   1      33.674  24.141  24.278  1.00  0.00     0.106 C 
ATOM     18  C   UNL A   1      33.873  25.281  23.267  1.00  0.00     0.036 C 
BRANCH  17  19
ATOM     19  C   UNL A   1      34.955  23.537  24.853  1.00  0.00    -0.023 A 
ATOM     20  C   UNL A   1      38.792  21.770  25.853  1.00  0.00     0.047 C 
ATOM     21  C   UNL A   1      37.454  22.382  25.574  1.00  0.00    -0.015 A 
ATOM     22  C   UNL A   1      37.200  23.736  25.807  1.00  0.00     0.007 A 
ATOM     23  C   UNL A   1      36.443  21.609  25.010  1.00  0.00     0.126 A 
ATOM     24  C   UNL A   1      35.968  24.306  25.450  1.00  0.00     0.006 A 
ATOM     25  C   UNL A   1      35.216  22.166  24.661  1.00  0.00     0.045 A 
ATOM     26  F   UNL A   1      36.655  20.308  24.763  1.00  0.00    -0.207 F 
ENDBRANCH  17  19
ENDBRANCH  15  17
ENDBRANCH   9  15
ENDBRANCH   6   8
ENDBRANCH   5   6
ENDBRANCH   4   5
ENDBRANCH   3   4
ENDBRANCH   2   3
ENDBRANCH   1   2
BRANCH   1  27
ATOM     27  C   UNL A   1      34.298  34.808  29.750  1.00  0.00     0.188 C 
BRANCH  27  28
ATOM     28  O   UNL A   1      34.278  34.569  31.152  1.00  0.00    -0.376 OA
BRANCH  28  29
ATOM     29  C   UNL A   1      35.158  33.553  31.627  1.00  0.00     0.202 C 
BRANCH  29  30
ATOM     30  C   UNL A   1      35.156  32.266  30.791  1.00  0.00     0.261 C 
BRANCH  30  31
ATOM     31  O   UNL A   1      36.462  31.759  30.536  1.00  0.00    -0.460 OA
BRANCH  31  32
ATOM     32  C   UNL A   1      36.754  31.688  29.227  1.00  0.00     0.338 C 
ATOM     33  O   UNL A   1      36.756  32.588  28.404  1.00  0.00    -0.246 OA
BRANCH  32  34
ATOM     34  C   UNL A   1      37.115  30.320  28.881  1.00  0.00     0.060 A 
ATOM     35  C   UNL A   1      36.929  29.344  29.875  1.00  0.00     0.016 A 
ATOM     36  C   UNL A   1      37.996  30.174  27.818  1.00  0.00     0.016 A 
ATOM     37  C   UNL A   1      37.861  28.339  29.988  1.00  0.00     0.010 A 
ATOM     38  C   UNL A   1      38.943  29.198  27.954  1.00  0.00     0.010 A 
ATOM     39  C   UNL A   1      38.933  28.395  29.111  1.00  0.00    -0.014 A 
BRANCH  39  40
ATOM     40  C   UNL A   1      40.237  27.868  29.450  1.00  0.00     0.031 A 
ATOM     41  C   UNL A   1      40.620  26.557  28.935  1.00  0.00     0.074 A 
ATOM     42  C   UNL A   1      41.131  28.776  29.898  1.00  0.00     0.049 A 
ATOM     43  N   UNL A   1      41.766  26.013  29.130  1.00  0.00    -0.248 NA
ATOM     44  C   UNL A   1      39.691  25.717  28.192  1.00  0.00     0.031 C 
ATOM     45  C   UNL A   1      42.576  28.766  29.721  1.00  0.00     0.029 A 
ATOM     46  N   UNL A   1      40.890  29.867  30.754  1.00  0.00    -0.354 N 
ATOM     47  C   UNL A   1      41.844  24.918  28.305  1.00  0.00     0.074 A 
ATOM     48  C   UNL A   1      40.490  24.703  27.856  1.00  0.00     0.031 C 
ATOM     49  C   UNL A   1      43.127  29.604  30.615  1.00  0.00     0.029 A 
ATOM     50  C   UNL A   1      42.069  30.003  31.528  1.00  0.00     0.049 A 
ATOM     51  H   UNL A   1      40.076  30.418  30.804  1.00  0.00     0.167 HD
ATOM     52  C   UNL A   1      43.085  24.431  28.018  1.00  0.00     0.037 A 
ATOM     53  C   UNL A   1      42.052  29.694  32.862  1.00  0.00     0.037 A 
ATOM     54  C   UNL A   1      44.091  25.074  28.873  1.00  0.00     0.049 A 
ATOM     55  C   UNL A   1      42.929  28.519  33.250  1.00  0.00     0.074 A 
ATOM     56  C   UNL A   1      45.010  26.099  28.709  1.00  0.00     0.029 A 
ATOM     57  N   UNL A   1      44.008  24.855  30.235  1.00  0.00    -0.354 N 
ATOM     58  N   UNL A   1      43.516  27.731  32.392  1.00  0.00    -0.248 NA
ATOM     59  C   UNL A   1      43.147  28.087  34.632  1.00  0.00     0.031 C 
ATOM     60  C   UNL A   1      45.440  26.515  30.008  1.00  0.00     0.029 A 
ATOM     61  C   UNL A   1      44.795  25.733  30.949  1.00  0.00     0.049 A 
ATOM     62  H   UNL A   1      43.453  24.155  30.647  1.00  0.00     0.167 HD
ATOM     63  C   UNL A   1      44.122  26.701  33.053  1.00  0.00     0.074 A 
ATOM     64  C   UNL A   1      43.873  26.968  34.457  1.00  0.00     0.031 C 
ATOM     65  C   UNL A   1      44.747  25.682  32.401  1.00  0.00     0.037 A 
BRANCH  52  66
ATOM     66  C   UNL A   1      43.450  23.516  26.868  1.00  0.00     0.064 A 
ATOM     67  C   UNL A   1      43.045  22.161  26.899  1.00  0.00     0.173 A 
ATOM     68  C   UNL A   1      44.240  23.854  25.752  1.00  0.00     0.173 A 
ATOM     69  F   UNL A   1      42.245  21.692  27.867  1.00  0.00    -0.203 F 
ATOM     70  C   UNL A   1      43.450  21.229  25.940  1.00  0.00     0.198 A 
ATOM     71  C   UNL A   1      44.649  22.921  24.795  1.00  0.00     0.198 A 
ATOM     72  F   UNL A   1      44.648  25.097  25.508  1.00  0.00    -0.203 F 
ATOM     73  F   UNL A   1      43.052  19.954  26.046  1.00  0.00    -0.200 F 
ATOM     74  C   UNL A   1      44.264  21.605  24.895  1.00  0.00     0.200 A 
ATOM     75  F   UNL A   1      45.426  23.320  23.776  1.00  0.00    -0.200 F 
ATOM     76  F   UNL A   1      44.666  20.712  23.982  1.00  0.00    -0.200 F 
ENDBRANCH  52  66
BRANCH  53  77
ATOM     77  C   UNL A   1      40.742  30.014  33.495  1.00  0.00     0.064 A 
ATOM     78  C   UNL A   1      40.484  31.347  33.866  1.00  0.00     0.173 A 
ATOM     79  C   UNL A   1      39.644  29.158  33.338  1.00  0.00     0.173 A 
ATOM     80  F   UNL A   1      41.504  32.204  34.035  1.00  0.00    -0.203 F 
ATOM     81  C   UNL A   1      39.181  31.835  33.948  1.00  0.00     0.198 A 
ATOM     82  C   UNL A   1      38.341  29.652  33.422  1.00  0.00     0.198 A 
ATOM     83  F   UNL A   1      39.825  27.878  32.982  1.00  0.00    -0.203 F 
ATOM     84  F   UNL A   1      38.967  33.134  34.202  1.00  0.00    -0.200 F 
ATOM     85  C   UNL A   1      38.112  30.994  33.689  1.00  0.00     0.200 A 
ATOM     86  F   UNL A   1      37.305  28.843  33.154  1.00  0.00    -0.200 F 
ATOM     87  F   UNL A   1      36.862  31.478  33.661  1.00  0.00    -0.200 F 
ENDBRANCH  53  77
BRANCH  65  88
ATOM     88  C   UNL A   1      45.368  24.521  33.106  1.00  0.00     0.064 A 
ATOM     89  C   UNL A   1      44.623  23.400  33.488  1.00  0.00     0.173 A 
ATOM     90  C   UNL A   1      46.706  24.576  33.549  1.00  0.00     0.173 A 
ATOM     91  F   UNL A   1      43.339  23.276  33.118  1.00  0.00    -0.203 F 
ATOM     92  C   UNL A   1      45.185  22.392  34.273  1.00  0.00     0.198 A 
ATOM     93  C   UNL A   1      47.247  23.598  34.377  1.00  0.00     0.198 A 
ATOM     94  F   UNL A   1      47.523  25.571  33.170  1.00  0.00    -0.203 F 
ATOM     95  F   UNL A   1      44.456  21.314  34.593  1.00  0.00    -0.200 F 
ATOM     96  C   UNL A   1      46.487  22.503  34.736  1.00  0.00     0.200 A 
ATOM     97  F   UNL A   1      48.504  23.725  34.823  1.00  0.00    -0.200 F 
ATOM     98  F   UNL A   1      47.011  21.550  35.518  1.00  0.00    -0.200 F 
ENDBRANCH  65  88
ENDBRANCH  39  40
ENDBRANCH  32  34
ENDBRANCH  31  32
ENDBRANCH  30  31
ENDBRANCH  29  30
ENDBRANCH  28  29
ENDBRANCH  27  28
ENDBRANCH   1  27
TORSDOF 20
ENDMDL
MODEL 2
REMARK VINA RESULT:     -11.6      2.013      3.023
REMARK SMILES Cc1ccc([C@H](C)Nc2ccc(C(=O)OCCOCCOCCOC(=O)c3ccc(-c4c5nc(c(-c6c(F)c(F)c(F)c(F)c6F)c6ccc([nH]6)c(-c6c(F)c(F)c(F)c(F)c6F)c6nc(c(-c7c(F)c(F)c(F)c(F)c7F)c7ccc4[nH]7)C=C6)C=C5)cc3)cc2Cl)cc1F
REMARK SMILES IDX 19 1 18 2 17 3 16 4 15 5 13 6 14 7 12 8 9 9 10 10 91 11
REMARK SMILES IDX 11 12 90 13 92 14 8 15 6 17 7 18 5 19 1 20 2 21 3 22 94 23
REMARK SMILES IDX 4 24 93 25 95 26 20 27 21 28 22 29 23 30 24 31 25 32 26 33
REMARK SMILES IDX 27 34 28 35 89 36 29 37 88 38 30 39 31 40 32 41 82 42 33 43
REMARK SMILES IDX 87 44 81 45 83 46 34 47 86 48 80 49 79 50 35 52 67 53 47 54
REMARK SMILES IDX 66 55 48 56 51 57 65 58 84 59 49 60 50 61 64 63 85 64 52 65
REMARK SMILES IDX 36 66 37 67 45 68 38 69 39 70 43 71 46 72 40 73 41 74 44 75
REMARK SMILES IDX 42 76 68 77 69 78 77 79 70 80 71 81 75 82 78 83 72 84 73 85
REMARK SMILES IDX 76 86 74 87 53 88 54 89 62 90 55 91 56 92 60 93 63 94 57 95
REMARK SMILES IDX 58 96 61 97 59 98
REMARK H PARENT 8 16 83 51 51 62
REMARK Flexibility Score: inf
ROOT
ATOM      1  C   UNL A   1      33.271  29.204  25.335  1.00  0.00     0.188 C 
ENDROOT
BRANCH   1   2
ATOM      2  O   UNL A   1      31.857  29.168  25.453  1.00  0.00    -0.376 OA
BRANCH   2   3
ATOM      3  C   UNL A   1      31.066  29.341  24.286  1.00  0.00     0.202 C 
BRANCH   3   4
ATOM      4  C   UNL A   1      31.596  28.831  22.934  1.00  0.00     0.261 C 
BRANCH   4   5
ATOM      5  O   UNL A   1      31.438  27.420  22.696  1.00  0.00    -0.460 OA
BRANCH   5   6
ATOM      6  C   UNL A   1      32.550  26.760  22.284  1.00  0.00     0.338 C 
ATOM      7  O   UNL A   1      33.552  27.244  21.790  1.00  0.00    -0.246 OA
BRANCH   6   8
ATOM      8  C   UNL A   1      32.476  25.342  22.712  1.00  0.00     0.061 A 
ATOM      9  C   UNL A   1      32.463  22.621  23.503  1.00  0.00     0.053 A 
ATOM     10  C   UNL A   1      33.296  23.074  22.467  1.00  0.00     0.028 A 
ATOM     11  C   UNL A   1      31.635  23.577  24.136  1.00  0.00     0.065 A 
ATOM     12  C   UNL A   1      33.294  24.412  22.064  1.00  0.00     0.018 A 
ATOM     13  C   UNL A   1      31.656  24.928  23.759  1.00  0.00     0.038 A 
ATOM     14  Cl  UNL A   1      30.611  23.189  25.478  1.00  0.00    -0.082 Cl
BRANCH   9  15
ATOM     15  N   UNL A   1      32.482  21.258  23.782  1.00  0.00    -0.377 N 
ATOM     16  H   UNL A   1      31.728  20.701  23.478  1.00  0.00     0.161 HD
BRANCH  15  17
ATOM     17  C   UNL A   1      33.581  20.620  24.511  1.00  0.00     0.106 C 
ATOM     18  C   UNL A   1      33.795  21.411  25.811  1.00  0.00     0.036 C 
BRANCH  17  19
ATOM     19  C   UNL A   1      33.285  19.131  24.683  1.00  0.00    -0.023 A 
ATOM     20  C   UNL A   1      33.098  14.836  25.284  1.00  0.00     0.047 C 
ATOM     21  C   UNL A   1      33.096  16.317  25.067  1.00  0.00    -0.015 A 
ATOM     22  C   UNL A   1      32.612  17.203  26.033  1.00  0.00     0.007 A 
ATOM     23  C   UNL A   1      33.643  16.847  23.901  1.00  0.00     0.126 A 
ATOM     24  C   UNL A   1      32.706  18.590  25.844  1.00  0.00     0.006 A 
ATOM     25  C   UNL A   1      33.733  18.221  23.705  1.00  0.00     0.045 A 
ATOM     26  F   UNL A   1      34.127  16.027  22.958  1.00  0.00    -0.207 F 
ENDBRANCH  17  19
ENDBRANCH  15  17
ENDBRANCH   9  15
ENDBRANCH   6   8
ENDBRANCH   5   6
ENDBRANCH   4   5
ENDBRANCH   3   4
ENDBRANCH   2   3
ENDBRANCH   1   2
BRANCH   1  27
ATOM     27  C   UNL A   1      34.166  29.607  26.534  1.00  0.00     0.188 C 
BRANCH  27  28
ATOM     28  O   UNL A   1      33.491  30.231  27.619  1.00  0.00    -0.376 OA
BRANCH  28  29
ATOM     29  C   UNL A   1      33.434  31.655  27.586  1.00  0.00     0.202 C 
BRANCH  29  30
ATOM     30  C   UNL A   1      34.752  32.354  27.947  1.00  0.00     0.261 C 
BRANCH  30  31
ATOM     31  O   UNL A   1      35.430  31.745  29.042  1.00  0.00    -0.460 OA
BRANCH  31  32
ATOM     32  C   UNL A   1      36.757  31.652  28.854  1.00  0.00     0.338 C 
ATOM     33  O   UNL A   1      37.589  32.543  28.889  1.00  0.00    -0.246 OA
BRANCH  32  34
ATOM     34  C   UNL A   1      37.118  30.263  28.605  1.00  0.00     0.060 A 
ATOM     35  C   UNL A   1      36.960  29.365  29.675  1.00  0.00     0.016 A 
ATOM     36  C   UNL A   1      37.977  30.039  27.538  1.00  0.00     0.016 A 
ATOM     37  C   UNL A   1      37.901  28.375  29.844  1.00  0.00     0.010 A 
ATOM     38  C   UNL A   1      38.932  29.081  27.726  1.00  0.00     0.010 A 
ATOM     39  C   UNL A   1      38.953  28.369  28.942  1.00  0.00    -0.014 A 
BRANCH  39  40
ATOM     40  C   UNL A   1      40.266  27.875  29.291  1.00  0.00     0.031 A 
ATOM     41  C   UNL A   1      40.675  26.560  28.805  1.00  0.00     0.074 A 
ATOM     42  C   UNL A   1      41.143  28.810  29.717  1.00  0.00     0.049 A 
ATOM     43  N   UNL A   1      41.831  26.043  29.010  1.00  0.00    -0.248 NA
ATOM     44  C   UNL A   1      39.761  25.686  28.083  1.00  0.00     0.031 C 
ATOM     45  C   UNL A   1      42.589  28.824  29.537  1.00  0.00     0.029 A 
ATOM     46  N   UNL A   1      40.883  29.915  30.548  1.00  0.00    -0.354 N 
ATOM     47  C   UNL A   1      41.929  24.931  28.211  1.00  0.00     0.074 A 
ATOM     48  C   UNL A   1      40.579  24.680  27.769  1.00  0.00     0.031 C 
ATOM     49  C   UNL A   1      43.124  29.693  30.411  1.00  0.00     0.029 A 
ATOM     50  C   UNL A   1      42.060  30.091  31.316  1.00  0.00     0.049 A 
ATOM     51  H   UNL A   1      40.058  30.452  30.586  1.00  0.00     0.167 HD
ATOM     52  C   UNL A   1      43.179  24.461  27.933  1.00  0.00     0.037 A 
ATOM     53  C   UNL A   1      42.050  29.813  32.657  1.00  0.00     0.037 A 
ATOM     54  C   UNL A   1      44.173  25.143  28.771  1.00  0.00     0.049 A 
ATOM     55  C   UNL A   1      42.950  28.664  33.070  1.00  0.00     0.074 A 
ATOM     56  C   UNL A   1      45.072  26.182  28.583  1.00  0.00     0.029 A 
ATOM     57  N   UNL A   1      44.096  24.954  30.138  1.00  0.00    -0.354 N 
ATOM     58  N   UNL A   1      43.551  27.868  32.230  1.00  0.00    -0.248 NA
ATOM     59  C   UNL A   1      43.177  28.269  34.462  1.00  0.00     0.031 C 
ATOM     60  C   UNL A   1      45.496  26.636  29.871  1.00  0.00     0.029 A 
ATOM     61  C   UNL A   1      44.867  25.863  30.831  1.00  0.00     0.049 A 
ATOM     62  H   UNL A   1      43.555  24.253  30.567  1.00  0.00     0.167 HD
ATOM     63  C   UNL A   1      44.178  26.866  32.913  1.00  0.00     0.074 A 
ATOM     64  C   UNL A   1      43.924  27.160  34.311  1.00  0.00     0.031 C 
ATOM     65  C   UNL A   1      44.821  25.844  32.284  1.00  0.00     0.037 A 
BRANCH  52  66
ATOM     66  C   UNL A   1      43.560  23.527  26.804  1.00  0.00     0.064 A 
ATOM     67  C   UNL A   1      43.167  22.171  26.858  1.00  0.00     0.173 A 
ATOM     68  C   UNL A   1      44.356  23.851  25.688  1.00  0.00     0.173 A 
ATOM     69  F   UNL A   1      42.363  21.713  27.829  1.00  0.00    -0.203 F 
ATOM     70  C   UNL A   1      43.587  21.223  25.921  1.00  0.00     0.198 A 
ATOM     71  C   UNL A   1      44.780  22.904  24.752  1.00  0.00     0.198 A 
ATOM     72  F   UNL A   1      44.755  25.093  25.422  1.00  0.00    -0.203 F 
ATOM     73  F   UNL A   1      43.198  19.947  26.048  1.00  0.00    -0.200 F 
ATOM     74  C   UNL A   1      44.405  21.586  24.874  1.00  0.00     0.200 A 
ATOM     75  F   UNL A   1      45.561  23.289  23.731  1.00  0.00    -0.200 F 
ATOM     76  F   UNL A   1      44.822  20.679  23.982  1.00  0.00    -0.200 F 
ENDBRANCH  52  66
BRANCH  53  77
ATOM     77  C   UNL A   1      40.735  30.122  33.284  1.00  0.00     0.064 A 
ATOM     78  C   UNL A   1      40.434  31.464  33.586  1.00  0.00     0.173 A 
ATOM     79  C   UNL A   1      39.665  29.223  33.184  1.00  0.00     0.173 A 
ATOM     80  F   UNL A   1      41.425  32.363  33.699  1.00  0.00    -0.203 F 
ATOM     81  C   UNL A   1      39.116  31.911  33.654  1.00  0.00     0.198 A 
ATOM     82  C   UNL A   1      38.347  29.675  33.254  1.00  0.00     0.198 A 
ATOM     83  F   UNL A   1      39.887  27.932  32.896  1.00  0.00    -0.203 F 
ATOM     84  F   UNL A   1      38.859  33.214  33.840  1.00  0.00    -0.200 F 
ATOM     85  C   UNL A   1      38.074  31.022  33.451  1.00  0.00     0.200 A 
ATOM     86  F   UNL A   1      37.337  28.819  33.039  1.00  0.00    -0.200 F 
ATOM     87  F   UNL A   1      36.808  31.461  33.409  1.00  0.00    -0.200 F 
ENDBRANCH  53  77
BRANCH  65  88
ATOM     88  C   UNL A   1      45.465  24.712  33.015  1.00  0.00     0.064 A 
ATOM     89  C   UNL A   1      44.760  23.552  33.355  1.00  0.00     0.173 A 
ATOM     90  C   UNL A   1      46.775  24.832  33.523  1.00  0.00     0.173 A 
ATOM     91  F   UNL A   1      43.504  23.366  32.921  1.00  0.00    -0.203 F 
ATOM     92  C   UNL A   1      45.334  22.568  34.163  1.00  0.00     0.198 A 
ATOM     93  C   UNL A   1      47.324  23.878  34.373  1.00  0.00     0.198 A 
ATOM     94  F   UNL A   1      47.558  25.869  33.189  1.00  0.00    -0.203 F 
ATOM     95  F   UNL A   1      44.646  21.453  34.442  1.00  0.00    -0.200 F 
ATOM     96  C   UNL A   1      46.604  22.742  34.690  1.00  0.00     0.200 A 
ATOM     97  F   UNL A   1      48.550  24.066  34.881  1.00  0.00    -0.200 F 
ATOM     98  F   UNL A   1      47.137  21.813  35.493  1.00  0.00    -0.200 F 
ENDBRANCH  65  88
ENDBRANCH  39  40
ENDBRANCH  32  34
ENDBRANCH  31  32
ENDBRANCH  30  31
ENDBRANCH  29  30
ENDBRANCH  28  29
ENDBRANCH  27  28
ENDBRANCH   1  27
TORSDOF 20
ENDMDL
MODEL 3
REMARK VINA RESULT:     -11.4      1.209      2.060
REMARK SMILES Cc1ccc([C@H](C)Nc2ccc(C(=O)OCCOCCOCCOC(=O)c3ccc(-c4c5nc(c(-c6c(F)c(F)c(F)c(F)c6F)c6ccc([nH]6)c(-c6c(F)c(F)c(F)c(F)c6F)c6nc(c(-c7c(F)c(F)c(F)c(F)c7F)c7ccc4[nH]7)C=C6)C=C5)cc3)cc2Cl)cc1F
REMARK SMILES IDX 19 1 18 2 17 3 16 4 15 5 13 6 14 7 12 8 9 9 10 10 91 11
REMARK SMILES IDX 11 12 90 13 92 14 8 15 6 17 7 18 5 19 1 20 2 21 3 22 94 23
REMARK SMILES IDX 4 24 93 25 95 26 20 27 21 28 22 29 23 30 24 31 25 32 26 33
REMARK SMILES IDX 27 34 28 35 89 36 29 37 88 38 30 39 31 40 32 41 82 42 33 43
REMARK SMILES IDX 87 44 81 45 83 46 34 47 86 48 80 49 79 50 35 52 67 53 47 54
REMARK SMILES IDX 66 55 48 56 51 57 65 58 84 59 49 60 50 61 64 63 85 64 52 65
REMARK SMILES IDX 36 66 37 67 45 68 38 69 39 70 43 71 46 72 40 73 41 74 44 75
REMARK SMILES IDX 42 76 68 77 69 78 77 79 70 80 71 81 75 82 78 83 72 84 73 85
REMARK SMILES IDX 76 86 74 87 53 88 54 89 62 90 55 91 56 92 60 93 63 94 57 95
REMARK SMILES IDX 58 96 61 97 59 98
REMARK H PARENT 8 16 83 51 51 62
REMARK Flexibility Score: inf
ROOT
ATOM      1  C   UNL A   1      32.420  29.948  25.339  1.00  0.00     0.188 C 
ENDROOT
BRANCH   1   2
ATOM      2  O   UNL A   1      31.069  30.248  25.653  1.00  0.00    -0.376 OA
BRANCH   2   3
ATOM      3  C   UNL A   1      30.472  31.405  25.085  1.00  0.00     0.202 C 
BRANCH   3   4
ATOM      4  C   UNL A   1      29.617  31.265  23.812  1.00  0.00     0.261 C 
BRANCH   4   5
ATOM      5  O   UNL A   1      28.841  30.057  23.714  1.00  0.00    -0.460 OA
BRANCH   5   6
ATOM      6  C   UNL A   1      29.084  29.282  22.626  1.00  0.00     0.338 C 
ATOM      7  O   UNL A   1      28.770  29.515  21.474  1.00  0.00    -0.246 OA
BRANCH   6   8
ATOM      8  C   UNL A   1      29.990  28.169  22.998  1.00  0.00     0.061 A 
ATOM      9  C   UNL A   1      31.826  26.121  23.680  1.00  0.00     0.053 A 
ATOM     10  C   UNL A   1      32.103  27.034  22.648  1.00  0.00     0.028 A 
ATOM     11  C   UNL A   1      30.597  26.268  24.364  1.00  0.00     0.065 A 
ATOM     12  C   UNL A   1      31.194  28.035  22.299  1.00  0.00     0.018 A 
ATOM     13  C   UNL A   1      29.698  27.295  24.042  1.00  0.00     0.038 A 
ATOM     14  Cl  UNL A   1      30.148  25.271  25.707  1.00  0.00    -0.082 Cl
BRANCH   9  15
ATOM     15  N   UNL A   1      32.760  25.114  23.903  1.00  0.00    -0.377 N 
ATOM     16  H   UNL A   1      32.514  24.184  23.692  1.00  0.00     0.161 HD
BRANCH  15  17
ATOM     17  C   UNL A   1      34.095  25.386  24.441  1.00  0.00     0.106 C 
ATOM     18  C   UNL A   1      33.921  26.261  25.692  1.00  0.00     0.036 C 
BRANCH  17  19
ATOM     19  C   UNL A   1      34.840  24.068  24.653  1.00  0.00    -0.023 A 
ATOM     20  C   UNL A   1      36.421  20.038  24.971  1.00  0.00     0.047 C 
ATOM     21  C   UNL A   1      35.932  21.451  24.891  1.00  0.00    -0.015 A 
ATOM     22  C   UNL A   1      36.445  22.356  23.959  1.00  0.00     0.007 A 
ATOM     23  C   UNL A   1      34.896  21.873  25.719  1.00  0.00     0.126 A 
ATOM     24  C   UNL A   1      35.906  23.647  23.841  1.00  0.00     0.006 A 
ATOM     25  C   UNL A   1      34.361  23.153  25.611  1.00  0.00     0.045 A 
ATOM     26  F   UNL A   1      34.371  21.027  26.617  1.00  0.00    -0.207 F 
ENDBRANCH  17  19
ENDBRANCH  15  17
ENDBRANCH   9  15
ENDBRANCH   6   8
ENDBRANCH   5   6
ENDBRANCH   4   5
ENDBRANCH   3   4
ENDBRANCH   2   3
ENDBRANCH   1   2
BRANCH   1  27
ATOM     27  C   UNL A   1      33.525  29.997  26.424  1.00  0.00     0.188 C 
BRANCH  27  28
ATOM     28  O   UNL A   1      33.182  30.690  27.617  1.00  0.00    -0.376 OA
BRANCH  28  29
ATOM     29  C   UNL A   1      33.444  32.091  27.626  1.00  0.00     0.202 C 
BRANCH  29  30
ATOM     30  C   UNL A   1      34.912  32.463  27.874  1.00  0.00     0.261 C 
BRANCH  30  31
ATOM     31  O   UNL A   1      35.488  31.775  28.981  1.00  0.00    -0.460 OA
BRANCH  31  32
ATOM     32  C   UNL A   1      36.822  31.649  28.887  1.00  0.00     0.338 C 
ATOM     33  O   UNL A   1      37.672  32.516  28.999  1.00  0.00    -0.246 OA
BRANCH  32  34
ATOM     34  C   UNL A   1      37.164  30.255  28.639  1.00  0.00     0.060 A 
ATOM     35  C   UNL A   1      36.985  29.358  29.706  1.00  0.00     0.016 A 
ATOM     36  C   UNL A   1      38.026  30.020  27.577  1.00  0.00     0.016 A 
ATOM     37  C   UNL A   1      37.909  28.354  29.879  1.00  0.00     0.010 A 
ATOM     38  C   UNL A   1      38.965  29.047  27.770  1.00  0.00     0.010 A 
ATOM     39  C   UNL A   1      38.967  28.333  28.984  1.00  0.00    -0.014 A 
BRANCH  39  40
ATOM     40  C   UNL A   1      40.271  27.819  29.341  1.00  0.00     0.031 A 
ATOM     41  C   UNL A   1      40.670  26.507  28.841  1.00  0.00     0.074 A 
ATOM     42  C   UNL A   1      41.153  28.738  29.791  1.00  0.00     0.049 A 
ATOM     43  N   UNL A   1      41.818  25.973  29.052  1.00  0.00    -0.248 NA
ATOM     44  C   UNL A   1      39.754  25.654  28.095  1.00  0.00     0.031 C 
ATOM     45  C   UNL A   1      42.601  28.737  29.628  1.00  0.00     0.029 A 
ATOM     46  N   UNL A   1      40.896  29.833  30.635  1.00  0.00    -0.354 N 
ATOM     47  C   UNL A   1      41.912  24.872  28.238  1.00  0.00     0.074 A 
ATOM     48  C   UNL A   1      40.564  24.643  27.777  1.00  0.00     0.031 C 
ATOM     49  C   UNL A   1      43.135  29.587  30.521  1.00  0.00     0.029 A 
ATOM     50  C   UNL A   1      42.066  29.985  31.420  1.00  0.00     0.049 A 
ATOM     51  H   UNL A   1      40.077  30.379  30.672  1.00  0.00     0.167 HD
ATOM     52  C   UNL A   1      43.160  24.392  27.967  1.00  0.00     0.037 A 
ATOM     53  C   UNL A   1      42.037  29.687  32.756  1.00  0.00     0.037 A 
ATOM     54  C   UNL A   1      44.152  25.050  28.827  1.00  0.00     0.049 A 
ATOM     55  C   UNL A   1      42.919  28.521  33.163  1.00  0.00     0.074 A 
ATOM     56  C   UNL A   1      45.065  26.080  28.664  1.00  0.00     0.029 A 
ATOM     57  N   UNL A   1      44.057  24.841  30.190  1.00  0.00    -0.354 N 
ATOM     58  N   UNL A   1      43.521  27.731  32.318  1.00  0.00    -0.248 NA
ATOM     59  C   UNL A   1      43.125  28.103  34.551  1.00  0.00     0.031 C 
ATOM     60  C   UNL A   1      45.478  26.511  29.964  1.00  0.00     0.029 A 
ATOM     61  C   UNL A   1      44.830  25.732  30.905  1.00  0.00     0.049 A 
ATOM     62  H   UNL A   1      43.502  24.141  30.602  1.00  0.00     0.167 HD
ATOM     63  C   UNL A   1      44.128  26.712  32.994  1.00  0.00     0.074 A 
ATOM     64  C   UNL A   1      43.861  26.988  34.393  1.00  0.00     0.031 C 
ATOM     65  C   UNL A   1      44.766  25.692  32.357  1.00  0.00     0.037 A 
BRANCH  52  66
ATOM     66  C   UNL A   1      43.544  23.470  26.829  1.00  0.00     0.064 A 
ATOM     67  C   UNL A   1      43.146  22.114  26.866  1.00  0.00     0.173 A 
ATOM     68  C   UNL A   1      44.346  23.805  25.720  1.00  0.00     0.173 A 
ATOM     69  F   UNL A   1      42.336  21.648  27.826  1.00  0.00    -0.203 F 
ATOM     70  C   UNL A   1      43.568  21.176  25.919  1.00  0.00     0.198 A 
ATOM     71  C   UNL A   1      44.771  22.867  24.776  1.00  0.00     0.198 A 
ATOM     72  F   UNL A   1      44.750  25.048  25.471  1.00  0.00    -0.203 F 
ATOM     73  F   UNL A   1      43.174  19.900  26.029  1.00  0.00    -0.200 F 
ATOM     74  C   UNL A   1      44.392  21.549  24.880  1.00  0.00     0.200 A 
ATOM     75  F   UNL A   1      45.558  23.261  23.763  1.00  0.00    -0.200 F 
ATOM     76  F   UNL A   1      44.810  20.651  23.979  1.00  0.00    -0.200 F 
ENDBRANCH  52  66
BRANCH  53  77
ATOM     77  C   UNL A   1      40.718  30.002  33.373  1.00  0.00     0.064 A 
ATOM     78  C   UNL A   1      40.423  31.344  33.677  1.00  0.00     0.173 A 
ATOM     79  C   UNL A   1      39.643  29.110  33.258  1.00  0.00     0.173 A 
ATOM     80  F   UNL A   1      41.419  32.236  33.804  1.00  0.00    -0.203 F 
ATOM     81  C   UNL A   1      39.108  31.800  33.735  1.00  0.00     0.198 A 
ATOM     82  C   UNL A   1      38.327  29.571  33.319  1.00  0.00     0.198 A 
ATOM     83  F   UNL A   1      39.860  27.819  32.967  1.00  0.00    -0.203 F 
ATOM     84  F   UNL A   1      38.858  33.103  33.925  1.00  0.00    -0.200 F 
ATOM     85  C   UNL A   1      38.062  30.918  33.519  1.00  0.00     0.200 A 
ATOM     86  F   UNL A   1      37.314  28.722  33.091  1.00  0.00    -0.200 F 
ATOM     87  F   UNL A   1      36.799  31.366  33.467  1.00  0.00    -0.200 F 
ENDBRANCH  53  77
BRANCH  65  88
ATOM     88  C   UNL A   1      45.389  24.542  33.078  1.00  0.00     0.064 A 
ATOM     89  C   UNL A   1      44.660  23.396  33.416  1.00  0.00     0.173 A 
ATOM     90  C   UNL A   1      46.704  24.629  33.579  1.00  0.00     0.173 A 
ATOM     91  F   UNL A   1      43.397  23.241  32.990  1.00  0.00    -0.203 F 
ATOM     92  C   UNL A   1      45.216  22.396  34.217  1.00  0.00     0.198 A 
ATOM     93  C   UNL A   1      47.236  23.659  34.422  1.00  0.00     0.198 A 
ATOM     94  F   UNL A   1      47.509  25.651  33.246  1.00  0.00    -0.203 F 
ATOM     95  F   UNL A   1      44.504  21.295  34.494  1.00  0.00    -0.200 F 
ATOM     96  C   UNL A   1      46.492  22.539  34.737  1.00  0.00     0.200 A 
ATOM     97  F   UNL A   1      48.468  23.817  34.924  1.00  0.00    -0.200 F 
ATOM     98  F   UNL A   1      47.009  21.593  35.533  1.00  0.00    -0.200 F 
ENDBRANCH  65  88
ENDBRANCH  39  40
ENDBRANCH  32  34
ENDBRANCH  31  32
ENDBRANCH  30  31
ENDBRANCH  29  30
ENDBRANCH  28  29
ENDBRANCH  27  28
ENDBRANCH   1  27
TORSDOF 20
ENDMDL
