MODEL 1
REMARK VINA RESULT:     -11.7      0.000      0.000
REMARK SMILES Cc1cc(C(=O)N[C@@H]2C(=O)N3C(C(=O)OCCOCCOCCOC(=O)c4ccc(-c5c6nc(c(-c7c(F)c(F)c(F)c(F)c7F)c7ccc([nH]7)c(-c7c(F)c(F)c(F)c(F)c7F)c7nc(c(-c8c(F)c(F)c(F)c(F)c8F)c8ccc5[nH]8)C=C7)C=C6)cc4)=C(CSc4nnc(C)s4)CS[C@H]23)n(C)n1
REMARK SMILES IDX 19 1 18 2 17 3 16 4 15 5 13 6 14 7 12 8 8 9 9 10 101 11
REMARK SMILES IDX 10 12 11 13 100 14 99 15 90 16 7 17 5 18 6 19 4 21 1 22 2 23
REMARK SMILES IDX 3 24 104 25 102 26 103 27 91 28 92 29 93 30 94 31 98 32
REMARK SMILES IDX 95 33 96 34 97 35 20 36 21 37 22 38 23 39 24 40 25 41 26 42
REMARK SMILES IDX 27 43 28 44 89 45 29 46 88 47 30 48 31 49 32 50 82 51 33 52
REMARK SMILES IDX 87 53 81 54 83 55 34 56 86 57 80 58 79 59 35 61 67 62 47 63
REMARK SMILES IDX 66 64 48 65 51 66 65 67 84 68 49 69 50 70 64 72 85 73 52 74
REMARK SMILES IDX 36 75 37 76 45 77 38 78 39 79 43 80 46 81 40 82 41 83 44 84
REMARK SMILES IDX 42 85 68 86 69 87 77 88 70 89 71 90 75 91 78 92 72 93 73 94
REMARK SMILES IDX 76 95 74 96 53 97 54 98 62 99 55 100 56 101 60 102 63 103
REMARK SMILES IDX 57 104 58 105 61 106 59 107
REMARK H PARENT 7 20 83 60 51 71
REMARK Flexibility Score: inf
ROOT
ATOM      1  C   UNL A   1      33.750  31.464  27.626  1.00  0.00     0.188 C 
ENDROOT
BRANCH   1   2
ATOM      2  O   UNL A   1      32.506  31.314  26.967  1.00  0.00    -0.376 OA
BRANCH   2   3
ATOM      3  C   UNL A   1      32.105  30.020  26.536  1.00  0.00     0.202 C 
BRANCH   3   4
ATOM      4  C   UNL A   1      31.921  29.667  25.050  1.00  0.00     0.261 C 
BRANCH   4   5
ATOM      5  O   UNL A   1      33.122  29.278  24.363  1.00  0.00    -0.459 OA
BRANCH   5   6
ATOM      6  C   UNL A   1      32.990  28.274  23.465  1.00  0.00     0.355 C 
ATOM      7  O   UNL A   1      33.559  28.202  22.383  1.00  0.00    -0.244 OA
BRANCH   6   8
ATOM      8  C   UNL A   1      32.099  27.161  23.943  1.00  0.00     0.132 C 
ATOM      9  C   UNL A   1      33.479  24.692  25.871  1.00  0.00     0.206 C 
ATOM     10  C   UNL A   1      33.557  26.239  25.828  1.00  0.00     0.253 C 
ATOM     11  C   UNL A   1      32.347  24.877  24.817  1.00  0.00     0.181 C 
ATOM     12  O   UNL A   1      34.135  27.093  26.468  1.00  0.00    -0.272 OA
ATOM     13  N   UNL A   1      32.702  26.266  24.782  1.00  0.00    -0.289 N 
ATOM     14  S   UNL A   1      30.627  24.818  25.359  1.00  0.00    -0.129 SA
ATOM     15  C   UNL A   1      30.074  25.634  23.838  1.00  0.00     0.106 C 
ATOM     16  C   UNL A   1      30.829  26.928  23.511  1.00  0.00    -0.019 C 
BRANCH   9  17
ATOM     17  N   UNL A   1      33.151  23.945  27.109  1.00  0.00    -0.336 N 
ATOM     18  C   UNL A   1      33.066  22.566  27.250  1.00  0.00     0.270 C 
ATOM     19  O   UNL A   1      32.732  22.122  28.347  1.00  0.00    -0.268 OA
ATOM     20  H   UNL A   1      32.976  24.482  27.915  1.00  0.00     0.164 HD
BRANCH  18  21
ATOM     21  C   UNL A   1      33.294  21.737  26.082  1.00  0.00     0.126 A 
ATOM     22  C   UNL A   1      32.507  18.881  23.972  1.00  0.00     0.069 C 
ATOM     23  C   UNL A   1      33.096  20.068  24.636  1.00  0.00     0.060 A 
ATOM     24  C   UNL A   1      32.415  21.185  25.161  1.00  0.00     0.059 A 
ATOM     25  N   UNL A   1      34.401  20.144  24.897  1.00  0.00    -0.178 NA
ATOM     26  N   UNL A   1      34.515  21.264  25.651  1.00  0.00    -0.263 N 
ATOM     27  C   UNL A   1      35.839  21.791  25.876  1.00  0.00     0.174 C 
ENDBRANCH  18  21
ENDBRANCH   9  17
BRANCH  16  28
ATOM     28  C   UNL A   1      30.053  27.793  22.549  1.00  0.00     0.111 C 
BRANCH  28  29
ATOM     29  S   UNL A   1      28.333  28.203  22.912  1.00  0.00    -0.089 SA
BRANCH  29  30
ATOM     30  C   UNL A   1      28.119  29.931  23.028  1.00  0.00     0.174 A 
ATOM     31  N   UNL A   1      27.131  30.532  23.646  1.00  0.00    -0.132 NA
ATOM     32  S   UNL A   1      29.247  31.034  22.331  1.00  0.00    -0.091 S 
ATOM     33  N   UNL A   1      27.276  31.904  23.692  1.00  0.00    -0.143 NA
ATOM     34  C   UNL A   1      28.382  32.302  23.102  1.00  0.00     0.115 A 
ATOM     35  C   UNL A   1      28.882  33.702  23.078  1.00  0.00     0.081 C 
ENDBRANCH  29  30
ENDBRANCH  28  29
ENDBRANCH  16  28
ENDBRANCH   6   8
ENDBRANCH   5   6
ENDBRANCH   4   5
ENDBRANCH   3   4
ENDBRANCH   2   3
ENDBRANCH   1   2
BRANCH   1  36
ATOM     36  C   UNL A   1      34.180  32.866  28.094  1.00  0.00     0.188 C 
BRANCH  36  37
ATOM     37  O   UNL A   1      33.543  33.433  29.212  1.00  0.00    -0.376 OA
BRANCH  37  38
ATOM     38  C   UNL A   1      34.186  34.433  29.978  1.00  0.00     0.202 C 
BRANCH  38  39
ATOM     39  C   UNL A   1      35.640  34.370  30.476  1.00  0.00     0.261 C 
BRANCH  39  40
ATOM     40  O   UNL A   1      35.884  33.848  31.785  1.00  0.00    -0.460 OA
BRANCH  40  41
ATOM     41  C   UNL A   1      35.619  32.526  31.948  1.00  0.00     0.338 C 
ATOM     42  O   UNL A   1      34.573  32.022  32.316  1.00  0.00    -0.246 OA
BRANCH  41  43
ATOM     43  C   UNL A   1      36.759  31.753  31.413  1.00  0.00     0.060 A 
ATOM     44  C   UNL A   1      37.823  31.423  32.266  1.00  0.00     0.016 A 
ATOM     45  C   UNL A   1      36.781  31.365  30.073  1.00  0.00     0.016 A 
ATOM     46  C   UNL A   1      38.922  30.719  31.772  1.00  0.00     0.010 A 
ATOM     47  C   UNL A   1      37.893  30.681  29.576  1.00  0.00     0.010 A 
ATOM     48  C   UNL A   1      38.979  30.376  30.415  1.00  0.00    -0.014 A 
BRANCH  48  49
ATOM     49  C   UNL A   1      40.244  29.865  29.831  1.00  0.00     0.031 A 
ATOM     50  C   UNL A   1      41.397  30.817  29.676  1.00  0.00     0.074 A 
ATOM     51  C   UNL A   1      40.375  28.585  29.440  1.00  0.00     0.049 A 
ATOM     52  N   UNL A   1      42.566  30.633  29.115  1.00  0.00    -0.248 NA
ATOM     53  C   UNL A   1      41.197  32.169  30.225  1.00  0.00     0.031 C 
ATOM     54  C   UNL A   1      39.354  27.549  29.579  1.00  0.00     0.029 A 
ATOM     55  N   UNL A   1      41.426  27.948  28.827  1.00  0.00    -0.354 N 
ATOM     56  C   UNL A   1      43.235  31.843  29.237  1.00  0.00     0.074 A 
ATOM     57  C   UNL A   1      42.332  32.764  29.892  1.00  0.00     0.031 C 
ATOM     58  C   UNL A   1      39.822  26.408  29.041  1.00  0.00     0.029 A 
ATOM     59  C   UNL A   1      41.158  26.644  28.491  1.00  0.00     0.049 A 
ATOM     60  H   UNL A   1      42.290  28.384  28.645  1.00  0.00     0.167 HD
ATOM     61  C   UNL A   1      44.493  32.158  28.845  1.00  0.00     0.037 A 
ATOM     62  C   UNL A   1      41.895  25.756  27.795  1.00  0.00     0.037 A 
ATOM     63  C   UNL A   1      45.388  31.244  28.183  1.00  0.00     0.049 A 
ATOM     64  C   UNL A   1      43.260  26.157  27.285  1.00  0.00     0.074 A 
ATOM     65  C   UNL A   1      46.687  31.462  27.762  1.00  0.00     0.029 A 
ATOM     66  N   UNL A   1      45.069  29.939  27.834  1.00  0.00    -0.354 N 
ATOM     67  N   UNL A   1      43.901  27.291  27.425  1.00  0.00    -0.248 NA
ATOM     68  C   UNL A   1      44.005  25.144  26.521  1.00  0.00     0.031 C 
ATOM     69  C   UNL A   1      47.130  30.316  27.093  1.00  0.00     0.029 A 
ATOM     70  C   UNL A   1      46.136  29.355  27.169  1.00  0.00     0.049 A 
ATOM     71  H   UNL A   1      44.213  29.494  28.030  1.00  0.00     0.167 HD
ATOM     72  C   UNL A   1      45.132  27.119  26.803  1.00  0.00     0.074 A 
ATOM     73  C   UNL A   1      45.154  25.764  26.293  1.00  0.00     0.031 C 
ATOM     74  C   UNL A   1      46.154  28.001  26.670  1.00  0.00     0.037 A 
BRANCH  61  75
ATOM     75  C   UNL A   1      44.959  33.566  29.082  1.00  0.00     0.064 A 
ATOM     76  C   UNL A   1      44.809  34.571  28.114  1.00  0.00     0.173 A 
ATOM     77  C   UNL A   1      45.549  33.918  30.306  1.00  0.00     0.173 A 
ATOM     78  F   UNL A   1      44.264  34.287  26.922  1.00  0.00    -0.203 F 
ATOM     79  C   UNL A   1      45.265  35.866  28.350  1.00  0.00     0.198 A 
ATOM     80  C   UNL A   1      45.970  35.222  30.551  1.00  0.00     0.198 A 
ATOM     81  F   UNL A   1      45.713  32.998  31.268  1.00  0.00    -0.203 F 
ATOM     82  F   UNL A   1      45.167  36.795  27.389  1.00  0.00    -0.200 F 
ATOM     83  C   UNL A   1      45.838  36.192  29.570  1.00  0.00     0.200 A 
ATOM     84  F   UNL A   1      46.509  35.538  31.737  1.00  0.00    -0.200 F 
ATOM     85  F   UNL A   1      46.271  37.440  29.797  1.00  0.00    -0.200 F 
ENDBRANCH  61  75
BRANCH  62  86
ATOM     86  C   UNL A   1      41.357  24.397  27.517  1.00  0.00     0.064 A 
ATOM     87  C   UNL A   1      40.303  24.207  26.612  1.00  0.00     0.173 A 
ATOM     88  C   UNL A   1      41.864  23.264  28.172  1.00  0.00     0.173 A 
ATOM     89  F   UNL A   1      39.762  25.261  25.983  1.00  0.00    -0.203 F 
ATOM     90  C   UNL A   1      39.764  22.941  26.390  1.00  0.00     0.198 A 
ATOM     91  C   UNL A   1      41.347  21.995  27.924  1.00  0.00     0.198 A 
ATOM     92  F   UNL A   1      42.866  23.391  29.054  1.00  0.00    -0.203 F 
ATOM     93  F   UNL A   1      38.719  22.796  25.562  1.00  0.00    -0.200 F 
ATOM     94  C   UNL A   1      40.290  21.835  27.040  1.00  0.00     0.200 A 
ATOM     95  F   UNL A   1      41.865  20.928  28.547  1.00  0.00    -0.200 F 
ATOM     96  F   UNL A   1      39.773  20.619  26.824  1.00  0.00    -0.200 F 
ENDBRANCH  62  86
BRANCH  74  97
ATOM     97  C   UNL A   1      47.407  27.523  25.988  1.00  0.00     0.064 A 
ATOM     98  C   UNL A   1      47.594  27.641  24.602  1.00  0.00     0.173 A 
ATOM     99  C   UNL A   1      48.458  26.976  26.744  1.00  0.00     0.173 A 
ATOM    100  F   UNL A   1      46.620  28.146  23.830  1.00  0.00    -0.203 F 
ATOM    101  C   UNL A   1      48.769  27.201  23.996  1.00  0.00     0.198 A 
ATOM    102  C   UNL A   1      49.647  26.573  26.139  1.00  0.00     0.198 A 
ATOM    103  F   UNL A   1      48.341  26.849  28.073  1.00  0.00    -0.203 F 
ATOM    104  F   UNL A   1      48.901  27.273  22.664  1.00  0.00    -0.200 F 
ATOM    105  C   UNL A   1      49.798  26.676  24.766  1.00  0.00     0.200 A 
ATOM    106  F   UNL A   1      50.646  26.084  26.887  1.00  0.00    -0.200 F 
ATOM    107  F   UNL A   1      50.930  26.263  24.181  1.00  0.00    -0.200 F 
ENDBRANCH  74  97
ENDBRANCH  48  49
ENDBRANCH  41  43
ENDBRANCH  40  41
ENDBRANCH  39  40
ENDBRANCH  38  39
ENDBRANCH  37  38
ENDBRANCH  36  37
ENDBRANCH   1  36
TORSDOF 22
ENDMDL
MODEL 2
REMARK VINA RESULT:     -11.1      4.886      8.792
REMARK SMILES Cc1cc(C(=O)N[C@@H]2C(=O)N3C(C(=O)OCCOCCOCCOC(=O)c4ccc(-c5c6nc(c(-c7c(F)c(F)c(F)c(F)c7F)c7ccc([nH]7)c(-c7c(F)c(F)c(F)c(F)c7F)c7nc(c(-c8c(F)c(F)c(F)c(F)c8F)c8ccc5[nH]8)C=C7)C=C6)cc4)=C(CSc4nnc(C)s4)CS[C@H]23)n(C)n1
REMARK SMILES IDX 19 1 18 2 17 3 16 4 15 5 13 6 14 7 12 8 8 9 9 10 101 11
REMARK SMILES IDX 10 12 11 13 100 14 99 15 90 16 7 17 5 18 6 19 4 21 1 22 2 23
REMARK SMILES IDX 3 24 104 25 102 26 103 27 91 28 92 29 93 30 94 31 98 32
REMARK SMILES IDX 95 33 96 34 97 35 20 36 21 37 22 38 23 39 24 40 25 41 26 42
REMARK SMILES IDX 27 43 28 44 89 45 29 46 88 47 30 48 31 49 32 50 82 51 33 52
REMARK SMILES IDX 87 53 81 54 83 55 34 56 86 57 80 58 79 59 35 61 67 62 47 63
REMARK SMILES IDX 66 64 48 65 51 66 65 67 84 68 49 69 50 70 64 72 85 73 52 74
REMARK SMILES IDX 36 75 37 76 45 77 38 78 39 79 43 80 46 81 40 82 41 83 44 84
REMARK SMILES IDX 42 85 68 86 69 87 77 88 70 89 71 90 75 91 78 92 72 93 73 94
REMARK SMILES IDX 76 95 74 96 53 97 54 98 62 99 55 100 56 101 60 102 63 103
REMARK SMILES IDX 57 104 58 105 61 106 59 107
REMARK H PARENT 7 20 83 60 51 71
REMARK Flexibility Score: inf
ROOT
ATOM      1  C   UNL A   1      33.348  31.115  27.450  1.00  0.00     0.188 C 
ENDROOT
BRANCH   1   2
ATOM      2  O   UNL A   1      33.603  29.727  27.341  1.00  0.00    -0.376 OA
BRANCH   2   3
ATOM      3  C   UNL A   1      34.126  29.215  26.122  1.00  0.00     0.202 C 
BRANCH   3   4
ATOM      4  C   UNL A   1      33.270  29.077  24.851  1.00  0.00     0.261 C 
BRANCH   4   5
ATOM      5  O   UNL A   1      33.951  28.516  23.716  1.00  0.00    -0.459 OA
BRANCH   5   6
ATOM      6  C   UNL A   1      33.258  27.593  23.010  1.00  0.00     0.355 C 
ATOM      7  O   UNL A   1      33.527  27.208  21.878  1.00  0.00    -0.244 OA
BRANCH   6   8
ATOM      8  C   UNL A   1      32.112  26.993  23.775  1.00  0.00     0.132 C 
ATOM      9  C   UNL A   1      32.617  24.011  25.378  1.00  0.00     0.206 C 
ATOM     10  C   UNL A   1      33.405  25.337  25.230  1.00  0.00     0.253 C 
ATOM     11  C   UNL A   1      31.472  24.794  24.671  1.00  0.00     0.181 C 
ATOM     12  O   UNL A   1      34.466  25.761  25.637  1.00  0.00    -0.272 OA
ATOM     13  N   UNL A   1      32.419  25.851  24.463  1.00  0.00    -0.289 N 
ATOM     14  S   UNL A   1      30.149  25.504  25.671  1.00  0.00    -0.129 SA
ATOM     15  C   UNL A   1      29.662  26.611  24.320  1.00  0.00     0.106 C 
ATOM     16  C   UNL A   1      30.821  27.421  23.726  1.00  0.00    -0.019 C 
BRANCH   9  17
ATOM     17  N   UNL A   1      32.321  23.402  26.698  1.00  0.00    -0.336 N 
ATOM     18  C   UNL A   1      32.974  22.324  27.281  1.00  0.00     0.270 C 
ATOM     19  O   UNL A   1      32.559  21.921  28.365  1.00  0.00    -0.268 OA
ATOM     20  H   UNL A   1      31.587  23.805  27.215  1.00  0.00     0.164 HD
BRANCH  18  21
ATOM     21  C   UNL A   1      34.048  21.686  26.543  1.00  0.00     0.126 A 
ATOM     22  C   UNL A   1      37.078  21.814  24.535  1.00  0.00     0.069 C 
ATOM     23  C   UNL A   1      35.848  21.440  25.271  1.00  0.00     0.060 A 
ATOM     24  C   UNL A   1      35.416  21.921  26.524  1.00  0.00     0.059 A 
ATOM     25  N   UNL A   1      34.934  20.633  24.734  1.00  0.00    -0.178 NA
ATOM     26  N   UNL A   1      33.905  20.678  25.614  1.00  0.00    -0.263 N 
ATOM     27  C   UNL A   1      32.855  19.697  25.473  1.00  0.00     0.174 C 
ENDBRANCH  18  21
ENDBRANCH   9  17
BRANCH  16  28
ATOM     28  C   UNL A   1      30.321  28.628  22.970  1.00  0.00     0.111 C 
BRANCH  28  29
ATOM     29  S   UNL A   1      29.869  30.120  23.879  1.00  0.00    -0.089 SA
BRANCH  29  30
ATOM     30  C   UNL A   1      29.006  31.235  22.850  1.00  0.00     0.174 A 
ATOM     31  N   UNL A   1      28.682  32.465  23.169  1.00  0.00    -0.132 NA
ATOM     32  S   UNL A   1      28.507  30.800  21.258  1.00  0.00    -0.091 S 
ATOM     33  N   UNL A   1      28.116  33.165  22.123  1.00  0.00    -0.143 NA
ATOM     34  C   UNL A   1      28.029  32.434  21.033  1.00  0.00     0.115 A 
ATOM     35  C   UNL A   1      27.570  32.927  19.707  1.00  0.00     0.081 C 
ENDBRANCH  29  30
ENDBRANCH  28  29
ENDBRANCH  16  28
ENDBRANCH   6   8
ENDBRANCH   5   6
ENDBRANCH   4   5
ENDBRANCH   3   4
ENDBRANCH   2   3
ENDBRANCH   1   2
BRANCH   1  36
ATOM     36  C   UNL A   1      34.326  31.991  28.255  1.00  0.00     0.188 C 
BRANCH  36  37
ATOM     37  O   UNL A   1      34.861  33.142  27.648  1.00  0.00    -0.376 OA
BRANCH  37  38
ATOM     38  C   UNL A   1      34.868  34.379  28.332  1.00  0.00     0.202 C 
BRANCH  38  39
ATOM     39  C   UNL A   1      33.618  35.132  28.817  1.00  0.00     0.261 C 
BRANCH  39  40
ATOM     40  O   UNL A   1      32.874  34.579  29.906  1.00  0.00    -0.460 OA
BRANCH  40  41
ATOM     41  C   UNL A   1      33.023  35.211  31.098  1.00  0.00     0.338 C 
ATOM     42  O   UNL A   1      32.261  36.012  31.611  1.00  0.00    -0.246 OA
BRANCH  41  43
ATOM     43  C   UNL A   1      34.184  34.620  31.797  1.00  0.00     0.060 A 
ATOM     44  C   UNL A   1      35.246  35.452  32.181  1.00  0.00     0.016 A 
ATOM     45  C   UNL A   1      34.226  33.252  32.062  1.00  0.00     0.016 A 
ATOM     46  C   UNL A   1      36.364  34.909  32.815  1.00  0.00     0.010 A 
ATOM     47  C   UNL A   1      35.356  32.707  32.675  1.00  0.00     0.010 A 
ATOM     48  C   UNL A   1      36.442  33.528  33.033  1.00  0.00    -0.014 A 
BRANCH  48  49
ATOM     49  C   UNL A   1      37.722  32.913  33.464  1.00  0.00     0.031 A 
ATOM     50  C   UNL A   1      38.349  31.873  32.579  1.00  0.00     0.074 A 
ATOM     51  C   UNL A   1      38.321  33.263  34.615  1.00  0.00     0.049 A 
ATOM     52  N   UNL A   1      39.411  31.133  32.778  1.00  0.00    -0.248 NA
ATOM     53  C   UNL A   1      37.678  31.630  31.291  1.00  0.00     0.031 C 
ATOM     54  C   UNL A   1      37.845  34.290  35.539  1.00  0.00     0.029 A 
ATOM     55  N   UNL A   1      39.457  32.770  35.210  1.00  0.00    -0.354 N 
ATOM     56  C   UNL A   1      39.530  30.334  31.649  1.00  0.00     0.074 A 
ATOM     57  C   UNL A   1      38.415  30.653  30.784  1.00  0.00     0.031 C 
ATOM     58  C   UNL A   1      38.673  34.333  36.600  1.00  0.00     0.029 A 
ATOM     59  C   UNL A   1      39.712  33.316  36.444  1.00  0.00     0.049 A 
ATOM     60  H   UNL A   1      40.034  32.090  34.791  1.00  0.00     0.167 HD
ATOM     61  C   UNL A   1      40.487  29.421  31.355  1.00  0.00     0.037 A 
ATOM     62  C   UNL A   1      40.659  33.006  37.352  1.00  0.00     0.037 A 
ATOM     63  C   UNL A   1      41.591  29.097  32.221  1.00  0.00     0.049 A 
ATOM     64  C   UNL A   1      41.662  31.918  37.043  1.00  0.00     0.074 A 
ATOM     65  C   UNL A   1      42.621  28.199  32.006  1.00  0.00     0.029 A 
ATOM     66  N   UNL A   1      41.799  29.650  33.477  1.00  0.00    -0.354 N 
ATOM     67  N   UNL A   1      41.789  31.185  35.965  1.00  0.00    -0.248 NA
ATOM     68  C   UNL A   1      42.659  31.622  38.084  1.00  0.00     0.031 C 
ATOM     69  C   UNL A   1      43.411  28.154  33.159  1.00  0.00     0.029 A 
ATOM     70  C   UNL A   1      42.921  29.083  34.062  1.00  0.00     0.049 A 
ATOM     71  H   UNL A   1      41.235  30.342  33.891  1.00  0.00     0.167 HD
ATOM     72  C   UNL A   1      42.895  30.370  36.179  1.00  0.00     0.074 A 
ATOM     73  C   UNL A   1      43.411  30.708  37.489  1.00  0.00     0.031 C 
ATOM     74  C   UNL A   1      43.435  29.430  35.364  1.00  0.00     0.037 A 
BRANCH  61  75
ATOM     75  C   UNL A   1      40.355  28.675  30.058  1.00  0.00     0.064 A 
ATOM     76  C   UNL A   1      39.634  27.475  29.962  1.00  0.00     0.173 A 
ATOM     77  C   UNL A   1      40.944  29.180  28.889  1.00  0.00     0.173 A 
ATOM     78  F   UNL A   1      39.061  26.940  31.051  1.00  0.00    -0.203 F 
ATOM     79  C   UNL A   1      39.540  26.791  28.753  1.00  0.00     0.198 A 
ATOM     80  C   UNL A   1      40.816  28.512  27.674  1.00  0.00     0.198 A 
ATOM     81  F   UNL A   1      41.641  30.326  28.923  1.00  0.00    -0.203 F 
ATOM     82  F   UNL A   1      38.898  25.616  28.697  1.00  0.00    -0.200 F 
ATOM     83  C   UNL A   1      40.125  27.313  27.609  1.00  0.00     0.200 A 
ATOM     84  F   UNL A   1      41.369  29.028  26.567  1.00  0.00    -0.200 F 
ATOM     85  F   UNL A   1      40.028  26.656  26.445  1.00  0.00    -0.200 F 
ENDBRANCH  61  75
BRANCH  62  86
ATOM     86  C   UNL A   1      40.701  33.720  38.656  1.00  0.00     0.064 A 
ATOM     87  C   UNL A   1      39.861  33.345  39.715  1.00  0.00     0.173 A 
ATOM     88  C   UNL A   1      41.560  34.810  38.863  1.00  0.00     0.173 A 
ATOM     89  F   UNL A   1      38.999  32.329  39.557  1.00  0.00    -0.203 F 
ATOM     90  C   UNL A   1      39.862  34.046  40.919  1.00  0.00     0.198 A 
ATOM     91  C   UNL A   1      41.585  35.489  40.079  1.00  0.00     0.198 A 
ATOM     92  F   UNL A   1      42.378  35.216  37.881  1.00  0.00    -0.203 F 
ATOM     93  F   UNL A   1      39.008  33.702  41.893  1.00  0.00    -0.200 F 
ATOM     94  C   UNL A   1      40.729  35.112  41.103  1.00  0.00     0.200 A 
ATOM     95  F   UNL A   1      42.430  36.513  40.256  1.00  0.00    -0.200 F 
ATOM     96  F   UNL A   1      40.732  35.784  42.262  1.00  0.00    -0.200 F 
ENDBRANCH  62  86
BRANCH  74  97
ATOM     97  C   UNL A   1      44.680  28.728  35.835  1.00  0.00     0.064 A 
ATOM     98  C   UNL A   1      44.630  27.524  36.554  1.00  0.00     0.173 A 
ATOM     99  C   UNL A   1      45.947  29.248  35.522  1.00  0.00     0.173 A 
ATOM    100  F   UNL A   1      43.448  26.986  36.890  1.00  0.00    -0.203 F 
ATOM    101  C   UNL A   1      45.798  26.886  36.970  1.00  0.00     0.198 A 
ATOM    102  C   UNL A   1      47.112  28.588  35.906  1.00  0.00     0.198 A 
ATOM    103  F   UNL A   1      46.057  30.390  34.827  1.00  0.00    -0.203 F 
ATOM    104  F   UNL A   1      45.723  25.767  37.703  1.00  0.00    -0.200 F 
ATOM    105  C   UNL A   1      47.038  27.414  36.637  1.00  0.00     0.200 A 
ATOM    106  F   UNL A   1      48.308  29.090  35.566  1.00  0.00    -0.200 F 
ATOM    107  F   UNL A   1      48.158  26.793  37.029  1.00  0.00    -0.200 F 
ENDBRANCH  74  97
ENDBRANCH  48  49
ENDBRANCH  41  43
ENDBRANCH  40  41
ENDBRANCH  39  40
ENDBRANCH  38  39
ENDBRANCH  37  38
ENDBRANCH  36  37
ENDBRANCH   1  36
TORSDOF 22
ENDMDL
MODEL 3
REMARK VINA RESULT:     -11.1      4.804      6.884
REMARK SMILES Cc1cc(C(=O)N[C@@H]2C(=O)N3C(C(=O)OCCOCCOCCOC(=O)c4ccc(-c5c6nc(c(-c7c(F)c(F)c(F)c(F)c7F)c7ccc([nH]7)c(-c7c(F)c(F)c(F)c(F)c7F)c7nc(c(-c8c(F)c(F)c(F)c(F)c8F)c8ccc5[nH]8)C=C7)C=C6)cc4)=C(CSc4nnc(C)s4)CS[C@H]23)n(C)n1
REMARK SMILES IDX 19 1 18 2 17 3 16 4 15 5 13 6 14 7 12 8 8 9 9 10 101 11
REMARK SMILES IDX 10 12 11 13 100 14 99 15 90 16 7 17 5 18 6 19 4 21 1 22 2 23
REMARK SMILES IDX 3 24 104 25 102 26 103 27 91 28 92 29 93 30 94 31 98 32
REMARK SMILES IDX 95 33 96 34 97 35 20 36 21 37 22 38 23 39 24 40 25 41 26 42
REMARK SMILES IDX 27 43 28 44 89 45 29 46 88 47 30 48 31 49 32 50 82 51 33 52
REMARK SMILES IDX 87 53 81 54 83 55 34 56 86 57 80 58 79 59 35 61 67 62 47 63
REMARK SMILES IDX 66 64 48 65 51 66 65 67 84 68 49 69 50 70 64 72 85 73 52 74
REMARK SMILES IDX 36 75 37 76 45 77 38 78 39 79 43 80 46 81 40 82 41 83 44 84
REMARK SMILES IDX 42 85 68 86 69 87 77 88 70 89 71 90 75 91 78 92 72 93 73 94
REMARK SMILES IDX 76 95 74 96 53 97 54 98 62 99 55 100 56 101 60 102 63 103
REMARK SMILES IDX 57 104 58 105 61 106 59 107
REMARK H PARENT 7 20 83 60 51 71
REMARK Flexibility Score: inf
ROOT
ATOM      1  C   UNL A   1      33.565  31.963  27.312  1.00  0.00     0.188 C 
ENDROOT
BRANCH   1   2
ATOM      2  O   UNL A   1      33.079  30.698  27.720  1.00  0.00    -0.376 OA
BRANCH   2   3
ATOM      3  C   UNL A   1      33.070  29.628  26.785  1.00  0.00     0.202 C 
BRANCH   3   4
ATOM      4  C   UNL A   1      32.856  29.850  25.278  1.00  0.00     0.261 C 
BRANCH   4   5
ATOM      5  O   UNL A   1      33.670  29.033  24.420  1.00  0.00    -0.459 OA
BRANCH   5   6
ATOM      6  C   UNL A   1      33.001  28.274  23.521  1.00  0.00     0.355 C 
ATOM      7  O   UNL A   1      33.206  28.248  22.313  1.00  0.00    -0.244 OA
BRANCH   6   8
ATOM      8  C   UNL A   1      31.980  27.367  24.148  1.00  0.00     0.132 C 
ATOM      9  C   UNL A   1      33.075  24.523  25.707  1.00  0.00     0.206 C 
ATOM     10  C   UNL A   1      33.512  26.009  25.679  1.00  0.00     0.253 C 
ATOM     11  C   UNL A   1      31.839  25.033  24.910  1.00  0.00     0.181 C 
ATOM     12  O   UNL A   1      34.389  26.663  26.203  1.00  0.00    -0.272 OA
ATOM     13  N   UNL A   1      32.502  26.303  24.830  1.00  0.00    -0.289 N 
ATOM     14  S   UNL A   1      30.293  25.336  25.790  1.00  0.00    -0.129 SA
ATOM     15  C   UNL A   1      29.668  26.358  24.429  1.00  0.00     0.106 C 
ATOM     16  C   UNL A   1      30.633  27.462  23.980  1.00  0.00    -0.019 C 
BRANCH   9  17
ATOM     17  N   UNL A   1      32.825  23.790  26.971  1.00  0.00    -0.336 N 
ATOM     18  C   UNL A   1      32.858  22.414  27.155  1.00  0.00     0.270 C 
ATOM     19  O   UNL A   1      32.574  21.978  28.269  1.00  0.00    -0.268 OA
ATOM     20  H   UNL A   1      32.613  24.336  27.763  1.00  0.00     0.164 HD
BRANCH  18  21
ATOM     21  C   UNL A   1      33.144  21.571  26.010  1.00  0.00     0.126 A 
ATOM     22  C   UNL A   1      32.487  18.666  23.922  1.00  0.00     0.069 C 
ATOM     23  C   UNL A   1      33.029  19.875  24.587  1.00  0.00     0.060 A 
ATOM     24  C   UNL A   1      32.308  20.987  25.068  1.00  0.00     0.059 A 
ATOM     25  N   UNL A   1      34.322  19.981  24.892  1.00  0.00    -0.178 NA
ATOM     26  N   UNL A   1      34.388  21.115  25.631  1.00  0.00    -0.263 N 
ATOM     27  C   UNL A   1      35.693  21.671  25.894  1.00  0.00     0.174 C 
ENDBRANCH  18  21
ENDBRANCH   9  17
BRANCH  16  28
ATOM     28  C   UNL A   1      29.914  28.545  23.213  1.00  0.00     0.111 C 
BRANCH  28  29
ATOM     29  S   UNL A   1      29.661  30.158  23.980  1.00  0.00    -0.089 SA
BRANCH  29  30
ATOM     30  C   UNL A   1      28.879  31.256  22.872  1.00  0.00     0.174 A 
ATOM     31  N   UNL A   1      28.624  32.520  23.110  1.00  0.00    -0.132 NA
ATOM     32  S   UNL A   1      28.378  30.754  21.300  1.00  0.00    -0.091 S 
ATOM     33  N   UNL A   1      28.115  33.187  22.014  1.00  0.00    -0.143 NA
ATOM     34  C   UNL A   1      28.000  32.396  20.968  1.00  0.00     0.115 A 
ATOM     35  C   UNL A   1      27.589  32.833  19.608  1.00  0.00     0.081 C 
ENDBRANCH  29  30
ENDBRANCH  28  29
ENDBRANCH  16  28
ENDBRANCH   6   8
ENDBRANCH   5   6
ENDBRANCH   4   5
ENDBRANCH   3   4
ENDBRANCH   2   3
ENDBRANCH   1   2
BRANCH   1  36
ATOM     36  C   UNL A   1      33.873  33.024  28.384  1.00  0.00     0.188 C 
BRANCH  36  37
ATOM     37  O   UNL A   1      34.616  34.161  28.019  1.00  0.00    -0.376 OA
BRANCH  37  38
ATOM     38  C   UNL A   1      34.197  35.453  28.415  1.00  0.00     0.202 C 
BRANCH  38  39
ATOM     39  C   UNL A   1      32.908  35.767  29.193  1.00  0.00     0.261 C 
BRANCH  39  40
ATOM     40  O   UNL A   1      32.592  34.963  30.331  1.00  0.00    -0.460 OA
BRANCH  40  41
ATOM     41  C   UNL A   1      32.844  35.529  31.539  1.00  0.00     0.338 C 
ATOM     42  O   UNL A   1      32.150  36.331  32.140  1.00  0.00    -0.246 OA
BRANCH  41  43
ATOM     43  C   UNL A   1      34.025  34.863  32.128  1.00  0.00     0.060 A 
ATOM     44  C   UNL A   1      35.301  35.392  31.884  1.00  0.00     0.016 A 
ATOM     45  C   UNL A   1      33.872  33.717  32.908  1.00  0.00     0.016 A 
ATOM     46  C   UNL A   1      36.431  34.761  32.407  1.00  0.00     0.010 A 
ATOM     47  C   UNL A   1      35.006  33.074  33.410  1.00  0.00     0.010 A 
ATOM     48  C   UNL A   1      36.292  33.578  33.142  1.00  0.00    -0.014 A 
BRANCH  48  49
ATOM     49  C   UNL A   1      37.488  32.765  33.476  1.00  0.00     0.031 A 
ATOM     50  C   UNL A   1      38.204  33.044  34.768  1.00  0.00     0.074 A 
ATOM     51  C   UNL A   1      37.938  31.801  32.655  1.00  0.00     0.049 A 
ATOM     52  N   UNL A   1      39.314  32.534  35.237  1.00  0.00    -0.248 NA
ATOM     53  C   UNL A   1      37.580  34.045  35.650  1.00  0.00     0.031 C 
ATOM     54  C   UNL A   1      37.312  31.397  31.399  1.00  0.00     0.029 A 
ATOM     55  N   UNL A   1      39.049  30.998  32.755  1.00  0.00    -0.354 N 
ATOM     56  C   UNL A   1      39.526  33.156  36.461  1.00  0.00     0.074 A 
ATOM     57  C   UNL A   1      38.449  34.104  36.647  1.00  0.00     0.031 C 
ATOM     58  C   UNL A   1      38.063  30.436  30.831  1.00  0.00     0.029 A 
ATOM     59  C   UNL A   1      39.238  30.184  31.666  1.00  0.00     0.049 A 
ATOM     60  H   UNL A   1      39.652  31.005  33.534  1.00  0.00     0.167 HD
ATOM     61  C   UNL A   1      40.524  32.949  37.354  1.00  0.00     0.037 A 
ATOM     62  C   UNL A   1      40.259  29.354  31.367  1.00  0.00     0.037 A 
ATOM     63  C   UNL A   1      41.600  32.012  37.164  1.00  0.00     0.049 A 
ATOM     64  C   UNL A   1      41.409  29.209  32.335  1.00  0.00     0.074 A 
ATOM     65  C   UNL A   1      42.649  31.719  38.017  1.00  0.00     0.029 A 
ATOM     66  N   UNL A   1      41.774  31.227  36.033  1.00  0.00    -0.354 N 
ATOM     67  N   UNL A   1      41.593  29.775  33.502  1.00  0.00    -0.248 NA
ATOM     68  C   UNL A   1      42.495  28.298  31.940  1.00  0.00     0.031 C 
ATOM     69  C   UNL A   1      43.496  30.811  37.374  1.00  0.00     0.029 A 
ATOM     70  C   UNL A   1      42.934  30.477  36.153  1.00  0.00     0.049 A 
ATOM     71  H   UNL A   1      41.164  31.204  35.261  1.00  0.00     0.167 HD
ATOM     72  C   UNL A   1      42.788  29.267  33.996  1.00  0.00     0.074 A 
ATOM     73  C   UNL A   1      43.283  28.334  33.005  1.00  0.00     0.031 C 
ATOM     74  C   UNL A   1      43.417  29.544  35.165  1.00  0.00     0.037 A 
BRANCH  61  75
ATOM     75  C   UNL A   1      40.520  33.788  38.600  1.00  0.00     0.064 A 
ATOM     76  C   UNL A   1      41.273  34.967  38.705  1.00  0.00     0.173 A 
ATOM     77  C   UNL A   1      39.733  33.414  39.701  1.00  0.00     0.173 A 
ATOM     78  F   UNL A   1      42.052  35.365  37.688  1.00  0.00    -0.203 F 
ATOM     79  C   UNL A   1      41.268  35.719  39.877  1.00  0.00     0.198 A 
ATOM     80  C   UNL A   1      39.702  34.188  40.857  1.00  0.00     0.198 A 
ATOM     81  F   UNL A   1      38.989  32.298  39.654  1.00  0.00    -0.203 F 
ATOM     82  F   UNL A   1      42.042  36.808  39.976  1.00  0.00    -0.200 F 
ATOM     83  C   UNL A   1      40.477  35.333  40.949  1.00  0.00     0.200 A 
ATOM     84  F   UNL A   1      38.924  33.822  41.886  1.00  0.00    -0.200 F 
ATOM     85  F   UNL A   1      40.469  36.061  42.074  1.00  0.00    -0.200 F 
ENDBRANCH  61  75
BRANCH  62  86
ATOM     86  C   UNL A   1      40.255  28.604  30.082  1.00  0.00     0.064 A 
ATOM     87  C   UNL A   1      40.879  29.123  28.939  1.00  0.00     0.173 A 
ATOM     88  C   UNL A   1      39.603  27.367  29.962  1.00  0.00     0.173 A 
ATOM     89  F   UNL A   1      41.489  30.317  28.993  1.00  0.00    -0.203 F 
ATOM     90  C   UNL A   1      40.833  28.446  27.722  1.00  0.00     0.198 A 
ATOM     91  C   UNL A   1      39.586  26.675  28.754  1.00  0.00     0.198 A 
ATOM     92  F   UNL A   1      38.983  26.829  31.023  1.00  0.00    -0.203 F 
ATOM     93  F   UNL A   1      41.389  28.992  26.632  1.00  0.00    -0.200 F 
ATOM     94  C   UNL A   1      40.193  27.219  27.632  1.00  0.00     0.200 A 
ATOM     95  F   UNL A   1      38.975  25.485  28.674  1.00  0.00    -0.200 F 
ATOM     96  F   UNL A   1      40.151  26.567  26.463  1.00  0.00    -0.200 F 
ENDBRANCH  62  86
BRANCH  74  97
ATOM     97  C   UNL A   1      44.688  28.797  35.470  1.00  0.00     0.064 A 
ATOM     98  C   UNL A   1      45.945  29.262  35.054  1.00  0.00     0.173 A 
ATOM     99  C   UNL A   1      44.649  27.616  36.232  1.00  0.00     0.173 A 
ATOM    100  F   UNL A   1      46.041  30.378  34.316  1.00  0.00    -0.203 F 
ATOM    101  C   UNL A   1      47.108  28.558  35.359  1.00  0.00     0.198 A 
ATOM    102  C   UNL A   1      45.817  26.936  36.567  1.00  0.00     0.198 A 
ATOM    103  F   UNL A   1      43.477  27.130  36.666  1.00  0.00    -0.203 F 
ATOM    104  F   UNL A   1      48.290  28.993  34.902  1.00  0.00    -0.200 F 
ATOM    105  C   UNL A   1      47.044  27.401  36.123  1.00  0.00     0.200 A 
ATOM    106  F   UNL A   1      45.754  25.830  37.322  1.00  0.00    -0.200 F 
ATOM    107  F   UNL A   1      48.165  26.732  36.423  1.00  0.00    -0.200 F 
ENDBRANCH  74  97
ENDBRANCH  48  49
ENDBRANCH  41  43
ENDBRANCH  40  41
ENDBRANCH  39  40
ENDBRANCH  38  39
ENDBRANCH  37  38
ENDBRANCH  36  37
ENDBRANCH   1  36
TORSDOF 22
ENDMDL
