MODEL 1
REMARK VINA RESULT:     -11.0      0.000      0.000
REMARK SMILES O=C(OCCOCCOCCOC(=O)c1ncc2ccccc2n1)c1ccc(-c2c3nc(c(-c4c(F)c(F)c(F)c(F)c4F)c4ccc([nH]4)c(-c4c(F)c(F)c(F)c(F)c4F)c4nc(c(-c5c(F)c(F)c(F)c(F)c5F)c5ccc2[nH]5)C=C4)C=C3)cc1
REMARK SMILES IDX 7 1 6 2 5 3 4 4 3 5 2 6 1 7 25 8 26 9 87 10 27 11 86 12
REMARK SMILES IDX 28 13 29 14 30 15 80 16 31 17 85 18 79 19 81 20 32 21 84 22
REMARK SMILES IDX 78 23 77 24 33 26 65 27 45 28 64 29 46 30 49 31 63 32 82 33
REMARK SMILES IDX 47 34 48 35 62 37 83 38 50 39 34 40 35 41 43 42 36 43 37 44
REMARK SMILES IDX 41 45 44 46 38 47 39 48 42 49 40 50 66 51 67 52 75 53 68 54
REMARK SMILES IDX 69 55 73 56 76 57 70 58 71 59 74 60 72 61 51 62 52 63 60 64
REMARK SMILES IDX 53 65 54 66 58 67 61 68 55 69 56 70 59 71 57 72 8 73 9 74
REMARK SMILES IDX 10 75 11 76 12 77 13 78 14 79 15 80 16 81 24 82 17 83 23 84
REMARK SMILES IDX 18 85 22 86 19 87 21 88 20 89
REMARK H PARENT 81 25 49 36
REMARK Flexibility Score: inf
ROOT
ATOM      1  C   UNL A   1      44.604  18.826  24.863  1.00  0.00     0.188 C 
ENDROOT
BRANCH   1   2
ATOM      2  O   UNL A   1      44.577  20.168  24.354  1.00  0.00    -0.376 OA
BRANCH   2   3
ATOM      3  C   UNL A   1      45.403  21.079  25.086  1.00  0.00     0.202 C 
BRANCH   3   4
ATOM      4  C   UNL A   1      44.636  22.064  25.978  1.00  0.00     0.261 C 
BRANCH   4   5
ATOM      5  O   UNL A   1      43.928  23.055  25.216  1.00  0.00    -0.460 OA
BRANCH   5   6
ATOM      6  C   UNL A   1      44.106  24.399  25.222  1.00  0.00     0.338 C 
ATOM      7  O   UNL A   1      44.826  24.901  24.359  1.00  0.00    -0.246 OA
BRANCH   6   8
ATOM      8  C   UNL A   1      43.441  25.325  26.192  1.00  0.00     0.060 A 
ATOM      9  C   UNL A   1      43.691  26.693  26.301  1.00  0.00     0.016 A 
ATOM     10  C   UNL A   1      42.452  24.774  27.027  1.00  0.00     0.016 A 
ATOM     11  C   UNL A   1      43.095  27.463  27.294  1.00  0.00     0.010 A 
ATOM     12  C   UNL A   1      41.796  25.555  27.986  1.00  0.00     0.010 A 
ATOM     13  C   UNL A   1      42.155  26.898  28.154  1.00  0.00    -0.014 A 
BRANCH  13  14
ATOM     14  C   UNL A   1      41.669  27.698  29.296  1.00  0.00     0.031 A 
ATOM     15  C   UNL A   1      42.446  27.666  30.580  1.00  0.00     0.074 A 
ATOM     16  C   UNL A   1      40.623  28.530  29.146  1.00  0.00     0.049 A 
ATOM     17  N   UNL A   1      42.197  28.261  31.716  1.00  0.00    -0.248 NA
ATOM     18  C   UNL A   1      43.682  26.867  30.575  1.00  0.00     0.031 C 
ATOM     19  C   UNL A   1      39.869  28.723  27.908  1.00  0.00     0.029 A 
ATOM     20  N   UNL A   1      40.030  29.385  30.035  1.00  0.00    -0.354 N 
ATOM     21  C   UNL A   1      43.234  27.896  32.564  1.00  0.00     0.074 A 
ATOM     22  C   UNL A   1      44.106  27.014  31.822  1.00  0.00     0.031 C 
ATOM     23  C   UNL A   1      38.909  29.640  28.114  1.00  0.00     0.029 A 
ATOM     24  C   UNL A   1      38.961  30.067  29.507  1.00  0.00     0.049 A 
ATOM     25  H   UNL A   1      40.338  29.502  30.963  1.00  0.00     0.167 HD
ATOM     26  C   UNL A   1      43.438  28.271  33.848  1.00  0.00     0.037 A 
ATOM     27  C   UNL A   1      38.107  30.920  30.096  1.00  0.00     0.037 A 
ATOM     28  C   UNL A   1      42.564  29.153  34.572  1.00  0.00     0.049 A 
ATOM     29  C   UNL A   1      38.299  31.245  31.547  1.00  0.00     0.074 A 
ATOM     30  C   UNL A   1      42.645  29.569  35.888  1.00  0.00     0.029 A 
ATOM     31  N   UNL A   1      41.439  29.758  34.027  1.00  0.00    -0.354 N 
ATOM     32  N   UNL A   1      39.235  30.836  32.367  1.00  0.00    -0.248 NA
ATOM     33  C   UNL A   1      37.309  32.143  32.155  1.00  0.00     0.031 C 
ATOM     34  C   UNL A   1      41.546  30.396  36.151  1.00  0.00     0.029 A 
ATOM     35  C   UNL A   1      40.805  30.529  34.986  1.00  0.00     0.049 A 
ATOM     36  H   UNL A   1      41.136  29.653  33.096  1.00  0.00     0.167 HD
ATOM     37  C   UNL A   1      38.952  31.424  33.589  1.00  0.00     0.074 A 
ATOM     38  C   UNL A   1      37.765  32.234  33.396  1.00  0.00     0.031 C 
ATOM     39  C   UNL A   1      39.613  31.306  34.766  1.00  0.00     0.037 A 
BRANCH  26  40
ATOM     40  C   UNL A   1      44.620  27.674  34.551  1.00  0.00     0.064 A 
ATOM     41  C   UNL A   1      44.551  26.431  35.197  1.00  0.00     0.173 A 
ATOM     42  C   UNL A   1      45.834  28.375  34.606  1.00  0.00     0.173 A 
ATOM     43  F   UNL A   1      43.404  25.734  35.198  1.00  0.00    -0.203 F 
ATOM     44  C   UNL A   1      45.643  25.927  35.900  1.00  0.00     0.198 A 
ATOM     45  C   UNL A   1      46.932  27.857  35.287  1.00  0.00     0.198 A 
ATOM     46  F   UNL A   1      45.952  29.572  34.010  1.00  0.00    -0.203 F 
ATOM     47  F   UNL A   1      45.534  24.766  36.562  1.00  0.00    -0.200 F 
ATOM     48  C   UNL A   1      46.832  26.639  35.942  1.00  0.00     0.200 A 
ATOM     49  F   UNL A   1      48.081  28.546  35.326  1.00  0.00    -0.200 F 
ATOM     50  F   UNL A   1      47.879  26.159  36.628  1.00  0.00    -0.200 F 
ENDBRANCH  26  40
BRANCH  27  51
ATOM     51  C   UNL A   1      36.958  31.472  29.342  1.00  0.00     0.064 A 
ATOM     52  C   UNL A   1      36.888  32.829  29.002  1.00  0.00     0.173 A 
ATOM     53  C   UNL A   1      35.881  30.649  28.988  1.00  0.00     0.173 A 
ATOM     54  F   UNL A   1      37.884  33.657  29.348  1.00  0.00    -0.203 F 
ATOM     55  C   UNL A   1      35.773  33.346  28.344  1.00  0.00     0.198 A 
ATOM     56  C   UNL A   1      34.771  31.166  28.325  1.00  0.00     0.198 A 
ATOM     57  F   UNL A   1      35.901  29.345  29.299  1.00  0.00    -0.203 F 
ATOM     58  F   UNL A   1      35.711  34.654  28.061  1.00  0.00    -0.200 F 
ATOM     59  C   UNL A   1      34.717  32.513  28.005  1.00  0.00     0.200 A 
ATOM     60  F   UNL A   1      33.750  30.359  28.002  1.00  0.00    -0.200 F 
ATOM     61  F   UNL A   1      33.639  33.011  27.383  1.00  0.00    -0.200 F 
ENDBRANCH  27  51
BRANCH  39  62
ATOM     62  C   UNL A   1      39.060  32.077  35.923  1.00  0.00     0.064 A 
ATOM     63  C   UNL A   1      38.214  31.473  36.865  1.00  0.00     0.173 A 
ATOM     64  C   UNL A   1      39.398  33.425  36.101  1.00  0.00     0.173 A 
ATOM     65  F   UNL A   1      37.848  30.191  36.720  1.00  0.00    -0.203 F 
ATOM     66  C   UNL A   1      37.709  32.203  37.936  1.00  0.00     0.198 A 
ATOM     67  C   UNL A   1      38.910  34.144  37.187  1.00  0.00     0.198 A 
ATOM     68  F   UNL A   1      40.204  34.042  35.223  1.00  0.00    -0.203 F 
ATOM     69  F   UNL A   1      36.866  31.622  38.801  1.00  0.00    -0.200 F 
ATOM     70  C   UNL A   1      38.062  33.534  38.100  1.00  0.00     0.200 A 
ATOM     71  F   UNL A   1      39.257  35.428  37.347  1.00  0.00    -0.200 F 
ATOM     72  F   UNL A   1      37.575  34.235  39.133  1.00  0.00    -0.200 F 
ENDBRANCH  39  62
ENDBRANCH  13  14
ENDBRANCH   6   8
ENDBRANCH   5   6
ENDBRANCH   4   5
ENDBRANCH   3   4
ENDBRANCH   2   3
ENDBRANCH   1   2
BRANCH   1  73
ATOM     73  C   UNL A   1      43.318  18.486  25.621  1.00  0.00     0.188 C 
BRANCH  73  74
ATOM     74  O   UNL A   1      42.206  19.346  25.358  1.00  0.00    -0.376 OA
BRANCH  74  75
ATOM     75  C   UNL A   1      41.504  19.859  26.486  1.00  0.00     0.202 C 
BRANCH  75  76
ATOM     76  C   UNL A   1      40.856  21.236  26.316  1.00  0.00     0.261 C 
BRANCH  76  77
ATOM     77  O   UNL A   1      39.443  21.193  26.056  1.00  0.00    -0.457 OA
BRANCH  77  78
ATOM     78  C   UNL A   1      38.827  22.406  26.077  1.00  0.00     0.376 C 
ATOM     79  O   UNL A   1      39.224  23.405  26.674  1.00  0.00    -0.242 OA
BRANCH  78  80
ATOM     80  C   UNL A   1      37.534  22.384  25.332  1.00  0.00     0.239 A 
ATOM     81  N   UNL A   1      37.042  23.542  24.842  1.00  0.00    -0.230 NA
ATOM     82  N   UNL A   1      36.887  21.200  25.359  1.00  0.00    -0.222 NA
ATOM     83  C   UNL A   1      35.768  23.478  24.397  1.00  0.00     0.124 A 
ATOM     84  C   UNL A   1      35.637  21.179  24.903  1.00  0.00     0.075 A 
ATOM     85  C   UNL A   1      34.996  22.320  24.405  1.00  0.00     0.019 A 
ATOM     86  C   UNL A   1      34.939  19.982  24.937  1.00  0.00     0.029 A 
ATOM     87  C   UNL A   1      33.662  22.245  23.953  1.00  0.00     0.012 A 
ATOM     88  C   UNL A   1      33.617  19.900  24.501  1.00  0.00     0.002 A 
ATOM     89  C   UNL A   1      32.978  21.031  24.003  1.00  0.00     0.001 A 
ENDBRANCH  78  80
ENDBRANCH  77  78
ENDBRANCH  76  77
ENDBRANCH  75  76
ENDBRANCH  74  75
ENDBRANCH  73  74
ENDBRANCH   1  73
TORSDOF 17
ENDMDL
MODEL 2
REMARK VINA RESULT:     -10.9      3.952      9.172
REMARK SMILES O=C(OCCOCCOCCOC(=O)c1ncc2ccccc2n1)c1ccc(-c2c3nc(c(-c4c(F)c(F)c(F)c(F)c4F)c4ccc([nH]4)c(-c4c(F)c(F)c(F)c(F)c4F)c4nc(c(-c5c(F)c(F)c(F)c(F)c5F)c5ccc2[nH]5)C=C4)C=C3)cc1
REMARK SMILES IDX 7 1 6 2 5 3 4 4 3 5 2 6 1 7 25 8 26 9 87 10 27 11 86 12
REMARK SMILES IDX 28 13 29 14 30 15 80 16 31 17 85 18 79 19 81 20 32 21 84 22
REMARK SMILES IDX 78 23 77 24 33 26 65 27 45 28 64 29 46 30 49 31 63 32 82 33
REMARK SMILES IDX 47 34 48 35 62 37 83 38 50 39 34 40 35 41 43 42 36 43 37 44
REMARK SMILES IDX 41 45 44 46 38 47 39 48 42 49 40 50 66 51 67 52 75 53 68 54
REMARK SMILES IDX 69 55 73 56 76 57 70 58 71 59 74 60 72 61 51 62 52 63 60 64
REMARK SMILES IDX 53 65 54 66 58 67 61 68 55 69 56 70 59 71 57 72 8 73 9 74
REMARK SMILES IDX 10 75 11 76 12 77 13 78 14 79 15 80 16 81 24 82 17 83 23 84
REMARK SMILES IDX 18 85 22 86 19 87 21 88 20 89
REMARK H PARENT 81 25 49 36
REMARK Flexibility Score: inf
ROOT
ATOM      1  C   UNL A   1      32.451  29.473  26.582  1.00  0.00     0.188 C 
ENDROOT
BRANCH   1   2
ATOM      2  O   UNL A   1      32.608  30.778  27.157  1.00  0.00    -0.376 OA
BRANCH   2   3
ATOM      3  C   UNL A   1      31.582  31.701  26.781  1.00  0.00     0.202 C 
BRANCH   3   4
ATOM      4  C   UNL A   1      32.032  33.167  26.711  1.00  0.00     0.261 C 
BRANCH   4   5
ATOM      5  O   UNL A   1      32.435  33.677  27.992  1.00  0.00    -0.460 OA
BRANCH   5   6
ATOM      6  C   UNL A   1      33.650  34.157  28.355  1.00  0.00     0.338 C 
ATOM      7  O   UNL A   1      33.824  35.375  28.362  1.00  0.00    -0.246 OA
BRANCH   6   8
ATOM      8  C   UNL A   1      34.791  33.293  28.797  1.00  0.00     0.060 A 
ATOM      9  C   UNL A   1      34.673  31.995  29.294  1.00  0.00     0.016 A 
ATOM     10  C   UNL A   1      36.086  33.823  28.654  1.00  0.00     0.016 A 
ATOM     11  C   UNL A   1      35.777  31.297  29.770  1.00  0.00     0.010 A 
ATOM     12  C   UNL A   1      37.212  33.101  29.068  1.00  0.00     0.010 A 
ATOM     13  C   UNL A   1      37.053  31.850  29.676  1.00  0.00    -0.014 A 
BRANCH  13  14
ATOM     14  C   UNL A   1      38.176  31.156  30.338  1.00  0.00     0.031 A 
ATOM     15  C   UNL A   1      38.421  31.415  31.796  1.00  0.00     0.074 A 
ATOM     16  C   UNL A   1      38.883  30.224  29.677  1.00  0.00     0.049 A 
ATOM     17  N   UNL A   1      39.358  30.944  32.576  1.00  0.00    -0.248 NA
ATOM     18  C   UNL A   1      37.470  32.314  32.469  1.00  0.00     0.031 C 
ATOM     19  C   UNL A   1      38.652  29.813  28.292  1.00  0.00     0.029 A 
ATOM     20  N   UNL A   1      39.923  29.434  30.088  1.00  0.00    -0.354 N 
ATOM     21  C   UNL A   1      39.119  31.502  33.825  1.00  0.00     0.074 A 
ATOM     22  C   UNL A   1      37.962  32.358  33.698  1.00  0.00     0.031 C 
ATOM     23  C   UNL A   1      39.526  28.848  27.965  1.00  0.00     0.029 A 
ATOM     24  C   UNL A   1      40.399  28.601  29.106  1.00  0.00     0.049 A 
ATOM     25  H   UNL A   1      40.294  29.461  31.000  1.00  0.00     0.167 HD
ATOM     26  C   UNL A   1      39.805  31.306  34.975  1.00  0.00     0.037 A 
ATOM     27  C   UNL A   1      41.441  27.754  29.126  1.00  0.00     0.037 A 
ATOM     28  C   UNL A   1      40.951  30.446  35.086  1.00  0.00     0.049 A 
ATOM     29  C   UNL A   1      42.245  27.628  30.386  1.00  0.00     0.074 A 
ATOM     30  C   UNL A   1      41.751  30.204  36.188  1.00  0.00     0.029 A 
ATOM     31  N   UNL A   1      41.458  29.682  34.044  1.00  0.00    -0.354 N 
ATOM     32  N   UNL A   1      42.063  28.217  31.542  1.00  0.00    -0.248 NA
ATOM     33  C   UNL A   1      43.403  26.728  30.337  1.00  0.00     0.031 C 
ATOM     34  C   UNL A   1      42.767  29.322  35.800  1.00  0.00     0.029 A 
ATOM     35  C   UNL A   1      42.573  28.981  34.470  1.00  0.00     0.049 A 
ATOM     36  H   UNL A   1      41.080  29.644  33.136  1.00  0.00     0.167 HD
ATOM     37  C   UNL A   1      43.081  27.761  32.363  1.00  0.00     0.074 A 
ATOM     38  C   UNL A   1      43.867  26.831  31.575  1.00  0.00     0.031 C 
ATOM     39  C   UNL A   1      43.345  28.081  33.653  1.00  0.00     0.037 A 
BRANCH  26  40
ATOM     40  C   UNL A   1      39.357  32.088  36.174  1.00  0.00     0.064 A 
ATOM     41  C   UNL A   1      38.337  31.630  37.021  1.00  0.00     0.173 A 
ATOM     42  C   UNL A   1      39.936  33.333  36.458  1.00  0.00     0.173 A 
ATOM     43  F   UNL A   1      37.731  30.458  36.775  1.00  0.00    -0.203 F 
ATOM     44  C   UNL A   1      37.891  32.405  38.090  1.00  0.00     0.198 A 
ATOM     45  C   UNL A   1      39.507  34.094  37.542  1.00  0.00     0.198 A 
ATOM     46  F   UNL A   1      40.911  33.821  35.675  1.00  0.00    -0.203 F 
ATOM     47  F   UNL A   1      36.874  31.975  38.849  1.00  0.00    -0.200 F 
ATOM     48  C   UNL A   1      38.479  33.634  38.351  1.00  0.00     0.200 A 
ATOM     49  F   UNL A   1      40.077  35.281  37.793  1.00  0.00    -0.200 F 
ATOM     50  F   UNL A   1      38.042  34.384  39.372  1.00  0.00    -0.200 F 
ENDBRANCH  26  40
BRANCH  27  51
ATOM     51  C   UNL A   1      41.830  27.014  27.902  1.00  0.00     0.064 A 
ATOM     52  C   UNL A   1      42.696  27.572  26.953  1.00  0.00     0.173 A 
ATOM     53  C   UNL A   1      41.298  25.745  27.642  1.00  0.00     0.173 A 
ATOM     54  F   UNL A   1      43.204  28.798  27.150  1.00  0.00    -0.203 F 
ATOM     55  C   UNL A   1      43.007  26.890  25.779  1.00  0.00     0.198 A 
ATOM     56  C   UNL A   1      41.615  25.061  26.471  1.00  0.00     0.198 A 
ATOM     57  F   UNL A   1      40.460  25.174  28.519  1.00  0.00    -0.203 F 
ATOM     58  F   UNL A   1      43.808  27.458  24.868  1.00  0.00    -0.200 F 
ATOM     59  C   UNL A   1      42.467  25.634  25.540  1.00  0.00     0.200 A 
ATOM     60  F   UNL A   1      41.089  23.850  26.242  1.00  0.00    -0.200 F 
ATOM     61  F   UNL A   1      42.755  24.981  24.405  1.00  0.00    -0.200 F 
ENDBRANCH  27  51
BRANCH  39  62
ATOM     62  C   UNL A   1      44.528  27.412  34.279  1.00  0.00     0.064 A 
ATOM     63  C   UNL A   1      45.795  28.011  34.269  1.00  0.00     0.173 A 
ATOM     64  C   UNL A   1      44.384  26.170  34.914  1.00  0.00     0.173 A 
ATOM     65  F   UNL A   1      45.981  29.189  33.653  1.00  0.00    -0.203 F 
ATOM     66  C   UNL A   1      46.885  27.378  34.856  1.00  0.00     0.198 A 
ATOM     67  C   UNL A   1      45.472  25.552  35.521  1.00  0.00     0.198 A 
ATOM     68  F   UNL A   1      43.189  25.561  34.946  1.00  0.00    -0.203 F 
ATOM     69  F   UNL A   1      48.098  27.944  34.798  1.00  0.00    -0.200 F 
ATOM     70  C   UNL A   1      46.722  26.153  35.487  1.00  0.00     0.200 A 
ATOM     71  F   UNL A   1      45.311  24.372  36.136  1.00  0.00    -0.200 F 
ATOM     72  F   UNL A   1      47.773  25.545  36.054  1.00  0.00    -0.200 F 
ENDBRANCH  39  62
ENDBRANCH  13  14
ENDBRANCH   6   8
ENDBRANCH   5   6
ENDBRANCH   4   5
ENDBRANCH   3   4
ENDBRANCH   2   3
ENDBRANCH   1   2
BRANCH   1  73
ATOM     73  C   UNL A   1      32.399  29.536  25.052  1.00  0.00     0.188 C 
BRANCH  73  74
ATOM     74  O   UNL A   1      31.542  28.575  24.429  1.00  0.00    -0.376 OA
BRANCH  74  75
ATOM     75  C   UNL A   1      32.162  27.602  23.592  1.00  0.00     0.202 C 
BRANCH  75  76
ATOM     76  C   UNL A   1      31.284  26.989  22.497  1.00  0.00     0.261 C 
BRANCH  76  77
ATOM     77  O   UNL A   1      31.494  25.582  22.296  1.00  0.00    -0.457 OA
BRANCH  77  78
ATOM     78  C   UNL A   1      32.742  25.251  21.868  1.00  0.00     0.376 C 
ATOM     79  O   UNL A   1      33.378  25.829  20.987  1.00  0.00    -0.242 OA
BRANCH  78  80
ATOM     80  C   UNL A   1      33.256  24.027  22.549  1.00  0.00     0.239 A 
ATOM     81  N   UNL A   1      32.384  23.225  23.199  1.00  0.00    -0.230 NA
ATOM     82  N   UNL A   1      34.601  23.923  22.586  1.00  0.00    -0.222 NA
ATOM     83  C   UNL A   1      32.950  22.282  23.982  1.00  0.00     0.124 A 
ATOM     84  C   UNL A   1      35.117  22.975  23.363  1.00  0.00     0.075 A 
ATOM     85  C   UNL A   1      34.324  22.103  24.119  1.00  0.00     0.019 A 
ATOM     86  C   UNL A   1      36.496  22.856  23.436  1.00  0.00     0.029 A 
ATOM     87  C   UNL A   1      34.925  21.129  24.942  1.00  0.00     0.012 A 
ATOM     88  C   UNL A   1      37.101  21.902  24.255  1.00  0.00     0.002 A 
ATOM     89  C   UNL A   1      36.315  21.033  25.005  1.00  0.00     0.001 A 
ENDBRANCH  78  80
ENDBRANCH  77  78
ENDBRANCH  76  77
ENDBRANCH  75  76
ENDBRANCH  74  75
ENDBRANCH  73  74
ENDBRANCH   1  73
TORSDOF 17
ENDMDL
MODEL 3
REMARK VINA RESULT:     -10.9      4.981      7.794
REMARK SMILES O=C(OCCOCCOCCOC(=O)c1ncc2ccccc2n1)c1ccc(-c2c3nc(c(-c4c(F)c(F)c(F)c(F)c4F)c4ccc([nH]4)c(-c4c(F)c(F)c(F)c(F)c4F)c4nc(c(-c5c(F)c(F)c(F)c(F)c5F)c5ccc2[nH]5)C=C4)C=C3)cc1
REMARK SMILES IDX 7 1 6 2 5 3 4 4 3 5 2 6 1 7 25 8 26 9 87 10 27 11 86 12
REMARK SMILES IDX 28 13 29 14 30 15 80 16 31 17 85 18 79 19 81 20 32 21 84 22
REMARK SMILES IDX 78 23 77 24 33 26 65 27 45 28 64 29 46 30 49 31 63 32 82 33
REMARK SMILES IDX 47 34 48 35 62 37 83 38 50 39 34 40 35 41 43 42 36 43 37 44
REMARK SMILES IDX 41 45 44 46 38 47 39 48 42 49 40 50 66 51 67 52 75 53 68 54
REMARK SMILES IDX 69 55 73 56 76 57 70 58 71 59 74 60 72 61 51 62 52 63 60 64
REMARK SMILES IDX 53 65 54 66 58 67 61 68 55 69 56 70 59 71 57 72 8 73 9 74
REMARK SMILES IDX 10 75 11 76 12 77 13 78 14 79 15 80 16 81 24 82 17 83 23 84
REMARK SMILES IDX 18 85 22 86 19 87 21 88 20 89
REMARK H PARENT 81 25 49 36
REMARK Flexibility Score: inf
ROOT
ATOM      1  C   UNL A   1      36.796  22.256  24.822  1.00  0.00     0.188 C 
ENDROOT
BRANCH   1   2
ATOM      2  O   UNL A   1      37.702  21.409  25.543  1.00  0.00    -0.376 OA
BRANCH   2   3
ATOM      3  C   UNL A   1      37.937  20.147  24.912  1.00  0.00     0.202 C 
BRANCH   3   4
ATOM      4  C   UNL A   1      38.935  19.239  25.644  1.00  0.00     0.261 C 
BRANCH   4   5
ATOM      5  O   UNL A   1      40.237  19.836  25.755  1.00  0.00    -0.460 OA
BRANCH   5   6
ATOM      6  C   UNL A   1      40.851  20.298  26.872  1.00  0.00     0.338 C 
ATOM      7  O   UNL A   1      41.304  19.482  27.675  1.00  0.00    -0.246 OA
BRANCH   6   8
ATOM      8  C   UNL A   1      41.057  21.751  27.172  1.00  0.00     0.060 A 
ATOM      9  C   UNL A   1      40.550  22.809  26.418  1.00  0.00     0.016 A 
ATOM     10  C   UNL A   1      41.784  22.066  28.335  1.00  0.00     0.016 A 
ATOM     11  C   UNL A   1      40.868  24.129  26.715  1.00  0.00     0.010 A 
ATOM     12  C   UNL A   1      42.052  23.396  28.681  1.00  0.00     0.010 A 
ATOM     13  C   UNL A   1      41.635  24.433  27.839  1.00  0.00    -0.014 A 
BRANCH  13  14
ATOM     14  C   UNL A   1      42.091  25.825  28.029  1.00  0.00     0.031 A 
ATOM     15  C   UNL A   1      43.406  26.238  27.438  1.00  0.00     0.074 A 
ATOM     16  C   UNL A   1      41.285  26.728  28.615  1.00  0.00     0.049 A 
ATOM     17  N   UNL A   1      44.019  27.391  27.501  1.00  0.00    -0.248 NA
ATOM     18  C   UNL A   1      44.121  25.217  26.656  1.00  0.00     0.031 C 
ATOM     19  C   UNL A   1      39.940  26.459  29.122  1.00  0.00     0.029 A 
ATOM     20  N   UNL A   1      41.471  28.062  28.861  1.00  0.00    -0.354 N 
ATOM     21  C   UNL A   1      45.195  27.228  26.781  1.00  0.00     0.074 A 
ATOM     22  C   UNL A   1      45.222  25.864  26.306  1.00  0.00     0.031 C 
ATOM     23  C   UNL A   1      39.420  27.591  29.621  1.00  0.00     0.029 A 
ATOM     24  C   UNL A   1      40.410  28.653  29.501  1.00  0.00     0.049 A 
ATOM     25  H   UNL A   1      42.287  28.551  28.603  1.00  0.00     0.167 HD
ATOM     26  C   UNL A   1      46.161  28.144  26.537  1.00  0.00     0.037 A 
ATOM     27  C   UNL A   1      40.272  29.909  29.959  1.00  0.00     0.037 A 
ATOM     28  C   UNL A   1      46.117  29.499  27.013  1.00  0.00     0.049 A 
ATOM     29  C   UNL A   1      41.399  30.878  29.760  1.00  0.00     0.074 A 
ATOM     30  C   UNL A   1      47.057  30.502  26.865  1.00  0.00     0.029 A 
ATOM     31  N   UNL A   1      45.061  30.039  27.735  1.00  0.00    -0.354 N 
ATOM     32  N   UNL A   1      42.543  30.697  29.149  1.00  0.00    -0.248 NA
ATOM     33  C   UNL A   1      41.216  32.220  30.326  1.00  0.00     0.031 C 
ATOM     34  C   UNL A   1      46.586  31.640  27.533  1.00  0.00     0.029 A 
ATOM     35  C   UNL A   1      45.334  31.357  28.058  1.00  0.00     0.049 A 
ATOM     36  H   UNL A   1      44.240  29.556  27.981  1.00  0.00     0.167 HD
ATOM     37  C   UNL A   1      43.221  31.901  29.251  1.00  0.00     0.074 A 
ATOM     38  C   UNL A   1      42.349  32.810  29.970  1.00  0.00     0.031 C 
ATOM     39  C   UNL A   1      44.453  32.227  28.793  1.00  0.00     0.037 A 
BRANCH  26  40
ATOM     40  C   UNL A   1      47.363  27.675  25.772  1.00  0.00     0.064 A 
ATOM     41  C   UNL A   1      48.532  27.243  26.416  1.00  0.00     0.173 A 
ATOM     42  C   UNL A   1      47.354  27.691  24.369  1.00  0.00     0.173 A 
ATOM     43  F   UNL A   1      48.600  27.236  27.756  1.00  0.00    -0.203 F 
ATOM     44  C   UNL A   1      49.659  26.876  25.684  1.00  0.00     0.198 A 
ATOM     45  C   UNL A   1      48.473  27.299  23.641  1.00  0.00     0.198 A 
ATOM     46  F   UNL A   1      46.263  28.103  23.704  1.00  0.00    -0.203 F 
ATOM     47  F   UNL A   1      50.785  26.525  26.321  1.00  0.00    -0.200 F 
ATOM     48  C   UNL A   1      49.627  26.902  24.298  1.00  0.00     0.200 A 
ATOM     49  F   UNL A   1      48.440  27.324  22.301  1.00  0.00    -0.200 F 
ATOM     50  F   UNL A   1      50.716  26.559  23.595  1.00  0.00    -0.200 F 
ENDBRANCH  26  40
BRANCH  27  51
ATOM     51  C   UNL A   1      39.057  30.303  30.710  1.00  0.00     0.064 A 
ATOM     52  C   UNL A   1      37.962  30.896  30.071  1.00  0.00     0.173 A 
ATOM     53  C   UNL A   1      38.995  30.132  32.099  1.00  0.00     0.173 A 
ATOM     54  F   UNL A   1      37.993  31.104  28.746  1.00  0.00    -0.203 F 
ATOM     55  C   UNL A   1      36.849  31.316  30.798  1.00  0.00     0.198 A 
ATOM     56  C   UNL A   1      37.880  30.547  32.823  1.00  0.00     0.198 A 
ATOM     57  F   UNL A   1      40.023  29.576  32.755  1.00  0.00    -0.203 F 
ATOM     58  F   UNL A   1      35.827  31.914  30.170  1.00  0.00    -0.200 F 
ATOM     59  C   UNL A   1      36.810  31.140  32.173  1.00  0.00     0.200 A 
ATOM     60  F   UNL A   1      37.847  30.378  34.153  1.00  0.00    -0.200 F 
ATOM     61  F   UNL A   1      35.746  31.554  32.875  1.00  0.00    -0.200 F 
ENDBRANCH  27  51
BRANCH  39  62
ATOM     62  C   UNL A   1      44.917  33.625  29.058  1.00  0.00     0.064 A 
ATOM     63  C   UNL A   1      44.634  34.670  28.166  1.00  0.00     0.173 A 
ATOM     64  C   UNL A   1      45.631  33.924  30.226  1.00  0.00     0.173 A 
ATOM     65  F   UNL A   1      43.973  34.422  27.025  1.00  0.00    -0.203 F 
ATOM     66  C   UNL A   1      45.071  35.964  28.426  1.00  0.00     0.198 A 
ATOM     67  C   UNL A   1      46.045  35.225  30.495  1.00  0.00     0.198 A 
ATOM     68  F   UNL A   1      45.923  32.955  31.107  1.00  0.00    -0.203 F 
ATOM     69  F   UNL A   1      44.831  36.941  27.541  1.00  0.00    -0.200 F 
ATOM     70  C   UNL A   1      45.769  36.242  29.592  1.00  0.00     0.200 A 
ATOM     71  F   UNL A   1      46.713  35.493  31.625  1.00  0.00    -0.200 F 
ATOM     72  F   UNL A   1      46.188  37.490  29.842  1.00  0.00    -0.200 F 
ENDBRANCH  39  62
ENDBRANCH  13  14
ENDBRANCH   6   8
ENDBRANCH   5   6
ENDBRANCH   4   5
ENDBRANCH   3   4
ENDBRANCH   2   3
ENDBRANCH   1   2
BRANCH   1  73
ATOM     73  C   UNL A   1      36.310  23.424  25.685  1.00  0.00     0.188 C 
BRANCH  73  74
ATOM     74  O   UNL A   1      35.042  23.231  26.317  1.00  0.00    -0.376 OA
BRANCH  74  75
ATOM     75  C   UNL A   1      33.891  23.240  25.476  1.00  0.00     0.202 C 
BRANCH  75  76
ATOM     76  C   UNL A   1      32.698  22.405  25.947  1.00  0.00     0.261 C 
BRANCH  76  77
ATOM     77  O   UNL A   1      31.425  22.886  25.486  1.00  0.00    -0.457 OA
BRANCH  77  78
ATOM     78  C   UNL A   1      30.759  23.668  26.378  1.00  0.00     0.376 C 
ATOM     79  O   UNL A   1      30.192  23.277  27.397  1.00  0.00    -0.242 OA
BRANCH  78  80
ATOM     80  C   UNL A   1      30.723  25.096  25.944  1.00  0.00     0.239 A 
ATOM     81  N   UNL A   1      30.475  25.379  24.646  1.00  0.00    -0.230 NA
ATOM     82  N   UNL A   1      31.110  25.983  26.885  1.00  0.00    -0.222 NA
ATOM     83  C   UNL A   1      30.695  26.663  24.291  1.00  0.00     0.124 A 
ATOM     84  C   UNL A   1      31.306  27.239  26.494  1.00  0.00     0.075 A 
ATOM     85  C   UNL A   1      31.123  27.655  25.170  1.00  0.00     0.019 A 
ATOM     86  C   UNL A   1      31.723  28.168  27.434  1.00  0.00     0.029 A 
ATOM     87  C   UNL A   1      31.365  28.995  24.806  1.00  0.00     0.012 A 
ATOM     88  C   UNL A   1      31.975  29.494  27.082  1.00  0.00     0.002 A 
ATOM     89  C   UNL A   1      31.791  29.911  25.768  1.00  0.00     0.001 A 
ENDBRANCH  78  80
ENDBRANCH  77  78
ENDBRANCH  76  77
ENDBRANCH  75  76
ENDBRANCH  74  75
ENDBRANCH  73  74
ENDBRANCH   1  73
TORSDOF 17
ENDMDL
