MODEL 1
REMARK VINA RESULT:     -10.3      0.000      0.000
REMARK SMILES CCNC(=O)NC(=O)[C@@H](C)[NH2+][C@](C)(C(=O)OCCOCCOCCOC(=O)c1ccc(-c2c3nc(c(-c4c(F)c(F)c(F)c(F)c4F)c4ccc([nH]4)c(-c4c(F)c(F)c(F)c(F)c4F)c4nc(c(-c5c(F)c(F)c(F)c(F)c5F)c5ccc2[nH]5)C=C4)C=C3)cc1)C(F)(F)F
REMARK SMILES IDX 20 1 19 2 18 3 17 4 16 5 14 6 15 7 12 8 13 9 11 10 9 13
REMARK SMILES IDX 10 14 7 15 3 16 4 17 5 19 6 20 8 22 2 23 1 24 91 25 92 26
REMARK SMILES IDX 93 27 94 28 21 29 22 30 23 31 24 32 25 33 26 34 27 35 28 36
REMARK SMILES IDX 29 37 90 38 30 39 89 40 31 41 32 42 33 43 83 44 34 45 88 46
REMARK SMILES IDX 82 47 84 48 35 49 87 50 81 51 80 52 36 54 68 55 48 56 67 57
REMARK SMILES IDX 49 58 52 59 66 60 85 61 50 62 51 63 65 65 86 66 53 67 37 68
REMARK SMILES IDX 38 69 46 70 39 71 40 72 44 73 47 74 41 75 42 76 45 77 43 78
REMARK SMILES IDX 69 79 70 80 78 81 71 82 72 83 76 84 79 85 73 86 74 87 77 88
REMARK SMILES IDX 75 89 54 90 55 91 63 92 56 93 57 94 61 95 64 96 58 97 59 98
REMARK SMILES IDX 62 99 60 100
REMARK H PARENT 11 11 11 12 3 18 6 21 84 53 52 64
REMARK Flexibility Score: inf
ROOT
ATOM      1  C   UNL A   1      40.565  20.631  26.793  1.00  0.00     0.188 C 
ENDROOT
BRANCH   1   2
ATOM      2  O   UNL A   1      39.709  21.740  26.579  1.00  0.00    -0.376 OA
BRANCH   2   3
ATOM      3  C   UNL A   1      38.499  21.487  25.867  1.00  0.00     0.202 C 
BRANCH   3   4
ATOM      4  C   UNL A   1      37.969  22.612  24.960  1.00  0.00     0.261 C 
BRANCH   4   5
ATOM      5  O   UNL A   1      36.583  22.949  25.173  1.00  0.00    -0.458 OA
BRANCH   5   6
ATOM      6  C   UNL A   1      35.774  22.926  24.070  1.00  0.00     0.377 C 
ATOM      7  O   UNL A   1      36.202  22.886  22.923  1.00  0.00    -0.244 OA
BRANCH   6   8
ATOM      8  C   UNL A   1      34.273  22.956  24.431  1.00  0.00     0.287 C 
ATOM      9  C   UNL A   1      33.936  23.731  25.732  1.00  0.00     0.103 C 
BRANCH   8  10
ATOM     10  N   UNL A   1      33.481  23.408  23.255  1.00  0.00    -0.315 N 
ATOM     11  H   UNL A   1      34.140  23.913  22.661  1.00  0.00     0.348 HD
ATOM     12  H   UNL A   1      33.065  22.525  22.962  1.00  0.00     0.348 HD
BRANCH  10  13
ATOM     13  C   UNL A   1      32.295  24.249  23.322  1.00  0.00     0.271 C 
ATOM     14  C   UNL A   1      30.864  23.704  23.351  1.00  0.00     0.086 C 
BRANCH  13  15
ATOM     15  C   UNL A   1      32.361  25.243  22.154  1.00  0.00     0.285 C 
ATOM     16  N   UNL A   1      30.473  27.516  23.967  1.00  0.00    -0.338 N 
ATOM     17  C   UNL A   1      30.857  27.415  22.694  1.00  0.00     0.321 C 
ATOM     18  H   UNL A   1      29.875  28.286  24.102  1.00  0.00     0.165 HD
ATOM     19  O   UNL A   1      30.432  28.290  21.931  1.00  0.00    -0.248 OA
ATOM     20  N   UNL A   1      31.666  26.461  22.129  1.00  0.00    -0.273 N 
ATOM     21  H   UNL A   1      31.860  26.821  21.234  1.00  0.00     0.175 HD
ATOM     22  O   UNL A   1      33.081  24.996  21.177  1.00  0.00    -0.268 OA
BRANCH  16  23
ATOM     23  C   UNL A   1      30.697  26.803  25.195  1.00  0.00     0.114 C 
ATOM     24  C   UNL A   1      31.325  27.620  26.303  1.00  0.00     0.027 C 
ENDBRANCH  16  23
ENDBRANCH  13  15
ENDBRANCH  10  13
ENDBRANCH   8  10
BRANCH   8  25
ATOM     25  C   UNL A   1      33.932  21.453  24.721  1.00  0.00     0.455 C 
ATOM     26  F   UNL A   1      33.491  21.243  25.982  1.00  0.00    -0.164 F 
ATOM     27  F   UNL A   1      32.906  21.070  23.903  1.00  0.00    -0.164 F 
ATOM     28  F   UNL A   1      34.934  20.587  24.476  1.00  0.00    -0.164 F 
ENDBRANCH   8  25
ENDBRANCH   6   8
ENDBRANCH   5   6
ENDBRANCH   4   5
ENDBRANCH   3   4
ENDBRANCH   2   3
ENDBRANCH   1   2
BRANCH   1  29
ATOM     29  C   UNL A   1      42.067  20.881  26.721  1.00  0.00     0.188 C 
BRANCH  29  30
ATOM     30  O   UNL A   1      42.675  20.673  25.454  1.00  0.00    -0.376 OA
BRANCH  30  31
ATOM     31  C   UNL A   1      43.979  21.248  25.292  1.00  0.00     0.202 C 
BRANCH  31  32
ATOM     32  C   UNL A   1      44.088  22.520  24.421  1.00  0.00     0.261 C 
BRANCH  32  33
ATOM     33  O   UNL A   1      43.459  23.710  24.960  1.00  0.00    -0.460 OA
BRANCH  33  34
ATOM     34  C   UNL A   1      44.238  24.793  25.211  1.00  0.00     0.338 C 
ATOM     35  O   UNL A   1      45.168  25.180  24.535  1.00  0.00    -0.246 OA
BRANCH  34  36
ATOM     36  C   UNL A   1      43.592  25.608  26.289  1.00  0.00     0.060 A 
ATOM     37  C   UNL A   1      43.910  26.975  26.359  1.00  0.00     0.016 A 
ATOM     38  C   UNL A   1      42.622  25.090  27.155  1.00  0.00     0.016 A 
ATOM     39  C   UNL A   1      43.286  27.810  27.297  1.00  0.00     0.010 A 
ATOM     40  C   UNL A   1      42.011  25.925  28.106  1.00  0.00     0.010 A 
ATOM     41  C   UNL A   1      42.352  27.287  28.200  1.00  0.00    -0.014 A 
BRANCH  41  42
ATOM     42  C   UNL A   1      41.841  28.118  29.329  1.00  0.00     0.031 A 
ATOM     43  C   UNL A   1      42.572  28.084  30.646  1.00  0.00     0.074 A 
ATOM     44  C   UNL A   1      40.756  28.908  29.208  1.00  0.00     0.049 A 
ATOM     45  N   UNL A   1      42.271  28.654  31.787  1.00  0.00    -0.248 NA
ATOM     46  C   UNL A   1      43.817  27.301  30.676  1.00  0.00     0.031 C 
ATOM     47  C   UNL A   1      39.981  29.101  27.986  1.00  0.00     0.029 A 
ATOM     48  N   UNL A   1      40.114  29.692  30.141  1.00  0.00    -0.354 N 
ATOM     49  C   UNL A   1      43.283  28.295  32.668  1.00  0.00     0.074 A 
ATOM     50  C   UNL A   1      44.193  27.440  31.937  1.00  0.00     0.031 C 
ATOM     51  C   UNL A   1      38.956  29.933  28.249  1.00  0.00     0.029 A 
ATOM     52  C   UNL A   1      38.976  30.299  29.666  1.00  0.00     0.049 A 
ATOM     53  H   UNL A   1      40.441  29.805  31.064  1.00  0.00     0.167 HD
ATOM     54  C   UNL A   1      43.445  28.650  33.967  1.00  0.00     0.037 A 
ATOM     55  C   UNL A   1      38.041  31.033  30.304  1.00  0.00     0.037 A 
ATOM     56  C   UNL A   1      42.546  29.498  34.706  1.00  0.00     0.049 A 
ATOM     57  C   UNL A   1      38.180  31.315  31.784  1.00  0.00     0.074 A 
ATOM     58  C   UNL A   1      42.649  29.925  36.019  1.00  0.00     0.029 A 
ATOM     59  N   UNL A   1      41.371  30.035  34.206  1.00  0.00    -0.354 N 
ATOM     60  N   UNL A   1      39.150  30.992  32.604  1.00  0.00    -0.248 NA
ATOM     61  C   UNL A   1      37.082  32.058  32.426  1.00  0.00     0.031 C 
ATOM     62  C   UNL A   1      41.504  30.663  36.333  1.00  0.00     0.029 A 
ATOM     63  C   UNL A   1      40.717  30.750  35.198  1.00  0.00     0.049 A 
ATOM     64  H   UNL A   1      41.048  29.925  33.282  1.00  0.00     0.167 HD
ATOM     65  C   UNL A   1      38.792  31.508  33.845  1.00  0.00     0.074 A 
ATOM     66  C   UNL A   1      37.525  32.184  33.670  1.00  0.00     0.031 C 
ATOM     67  C   UNL A   1      39.454  31.422  35.025  1.00  0.00     0.037 A 
BRANCH  54  68
ATOM     68  C   UNL A   1      44.632  28.087  34.696  1.00  0.00     0.064 A 
ATOM     69  C   UNL A   1      45.853  28.774  34.765  1.00  0.00     0.173 A 
ATOM     70  C   UNL A   1      44.529  26.861  35.371  1.00  0.00     0.173 A 
ATOM     71  F   UNL A   1      46.007  29.943  34.126  1.00  0.00    -0.203 F 
ATOM     72  C   UNL A   1      46.935  28.241  35.460  1.00  0.00     0.198 A 
ATOM     73  C   UNL A   1      45.602  26.347  36.093  1.00  0.00     0.198 A 
ATOM     74  F   UNL A   1      43.381  26.167  35.343  1.00  0.00    -0.203 F 
ATOM     75  F   UNL A   1      48.107  28.890  35.473  1.00  0.00    -0.200 F 
ATOM     76  C   UNL A   1      46.807  27.033  36.130  1.00  0.00     0.200 A 
ATOM     77  F   UNL A   1      45.471  25.188  36.753  1.00  0.00    -0.200 F 
ATOM     78  F   UNL A   1      47.846  26.526  36.806  1.00  0.00    -0.200 F 
ENDBRANCH  54  68
BRANCH  55  79
ATOM     79  C   UNL A   1      36.846  31.529  29.564  1.00  0.00     0.064 A 
ATOM     80  C   UNL A   1      35.838  30.652  29.139  1.00  0.00     0.173 A 
ATOM     81  C   UNL A   1      36.716  32.884  29.221  1.00  0.00     0.173 A 
ATOM     82  F   UNL A   1      35.937  29.341  29.404  1.00  0.00    -0.203 F 
ATOM     83  C   UNL A   1      34.756  31.107  28.387  1.00  0.00     0.198 A 
ATOM     84  C   UNL A   1      35.618  33.343  28.496  1.00  0.00     0.198 A 
ATOM     85  F   UNL A   1      37.661  33.762  29.584  1.00  0.00    -0.203 F 
ATOM     86  F   UNL A   1      33.840  30.236  27.941  1.00  0.00    -0.200 F 
ATOM     87  C   UNL A   1      34.643  32.452  28.072  1.00  0.00     0.200 A 
ATOM     88  F   UNL A   1      35.513  34.644  28.196  1.00  0.00    -0.200 F 
ATOM     89  F   UNL A   1      33.605  32.888  27.345  1.00  0.00    -0.200 F 
ENDBRANCH  55  79
BRANCH  67  90
ATOM     90  C   UNL A   1      38.838  32.084  36.228  1.00  0.00     0.064 A 
ATOM     91  C   UNL A   1      38.011  31.377  37.113  1.00  0.00     0.173 A 
ATOM     92  C   UNL A   1      39.123  33.425  36.531  1.00  0.00     0.173 A 
ATOM     93  F   UNL A   1      37.694  30.097  36.865  1.00  0.00    -0.203 F 
ATOM     94  C   UNL A   1      37.476  31.992  38.244  1.00  0.00     0.198 A 
ATOM     95  C   UNL A   1      38.613  34.027  37.680  1.00  0.00     0.198 A 
ATOM     96  F   UNL A   1      39.914  34.148  35.725  1.00  0.00    -0.203 F 
ATOM     97  F   UNL A   1      36.655  31.307  39.052  1.00  0.00    -0.200 F 
ATOM     98  C   UNL A   1      37.785  33.313  38.532  1.00  0.00     0.200 A 
ATOM     99  F   UNL A   1      38.927  35.299  37.964  1.00  0.00    -0.200 F 
ATOM    100  F   UNL A   1      37.282  33.898  39.627  1.00  0.00    -0.200 F 
ENDBRANCH  67  90
ENDBRANCH  41  42
ENDBRANCH  34  36
ENDBRANCH  33  34
ENDBRANCH  32  33
ENDBRANCH  31  32
ENDBRANCH  30  31
ENDBRANCH  29  30
ENDBRANCH   1  29
TORSDOF 22
ENDMDL
MODEL 2
REMARK VINA RESULT:     -10.2      3.616      8.988
REMARK SMILES CCNC(=O)NC(=O)[C@@H](C)[NH2+][C@](C)(C(=O)OCCOCCOCCOC(=O)c1ccc(-c2c3nc(c(-c4c(F)c(F)c(F)c(F)c4F)c4ccc([nH]4)c(-c4c(F)c(F)c(F)c(F)c4F)c4nc(c(-c5c(F)c(F)c(F)c(F)c5F)c5ccc2[nH]5)C=C4)C=C3)cc1)C(F)(F)F
REMARK SMILES IDX 20 1 19 2 18 3 17 4 16 5 14 6 15 7 12 8 13 9 11 10 9 13
REMARK SMILES IDX 10 14 7 15 3 16 4 17 5 19 6 20 8 22 2 23 1 24 91 25 92 26
REMARK SMILES IDX 93 27 94 28 21 29 22 30 23 31 24 32 25 33 26 34 27 35 28 36
REMARK SMILES IDX 29 37 90 38 30 39 89 40 31 41 32 42 33 43 83 44 34 45 88 46
REMARK SMILES IDX 82 47 84 48 35 49 87 50 81 51 80 52 36 54 68 55 48 56 67 57
REMARK SMILES IDX 49 58 52 59 66 60 85 61 50 62 51 63 65 65 86 66 53 67 37 68
REMARK SMILES IDX 38 69 46 70 39 71 40 72 44 73 47 74 41 75 42 76 45 77 43 78
REMARK SMILES IDX 69 79 70 80 78 81 71 82 72 83 76 84 79 85 73 86 74 87 77 88
REMARK SMILES IDX 75 89 54 90 55 91 63 92 56 93 57 94 61 95 64 96 58 97 59 98
REMARK SMILES IDX 62 99 60 100
REMARK H PARENT 11 11 11 12 3 18 6 21 84 53 52 64
REMARK Flexibility Score: inf
ROOT
ATOM      1  C   UNL A   1      30.518  29.502  23.937  1.00  0.00     0.188 C 
ENDROOT
BRANCH   1   2
ATOM      2  O   UNL A   1      31.120  28.733  22.909  1.00  0.00    -0.376 OA
BRANCH   2   3
ATOM      3  C   UNL A   1      30.445  27.537  22.525  1.00  0.00     0.202 C 
BRANCH   3   4
ATOM      4  C   UNL A   1      29.601  26.830  23.600  1.00  0.00     0.261 C 
BRANCH   4   5
ATOM      5  O   UNL A   1      30.190  25.623  24.126  1.00  0.00    -0.458 OA
BRANCH   5   6
ATOM      6  C   UNL A   1      30.863  25.740  25.311  1.00  0.00     0.377 C 
ATOM      7  O   UNL A   1      30.424  26.355  26.275  1.00  0.00    -0.244 OA
BRANCH   6   8
ATOM      8  C   UNL A   1      32.226  25.015  25.297  1.00  0.00     0.287 C 
ATOM      9  C   UNL A   1      32.598  24.310  26.628  1.00  0.00     0.103 C 
BRANCH   8  10
ATOM     10  N   UNL A   1      32.306  24.118  24.112  1.00  0.00    -0.315 N 
ATOM     11  H   UNL A   1      31.361  23.758  23.979  1.00  0.00     0.348 HD
ATOM     12  H   UNL A   1      32.741  24.745  23.435  1.00  0.00     0.348 HD
BRANCH  10  13
ATOM     13  C   UNL A   1      33.183  22.961  24.001  1.00  0.00     0.271 C 
ATOM     14  C   UNL A   1      34.452  22.932  23.145  1.00  0.00     0.086 C 
BRANCH  13  15
ATOM     15  C   UNL A   1      32.326  21.769  23.554  1.00  0.00     0.285 C 
ATOM     16  N   UNL A   1      33.239  20.029  26.410  1.00  0.00    -0.338 N 
ATOM     17  C   UNL A   1      32.635  19.708  25.266  1.00  0.00     0.321 C 
ATOM     18  H   UNL A   1      33.387  19.236  26.974  1.00  0.00     0.165 HD
ATOM     19  O   UNL A   1      32.350  18.513  25.122  1.00  0.00    -0.248 OA
ATOM     20  N   UNL A   1      32.289  20.540  24.231  1.00  0.00    -0.273 N 
ATOM     21  H   UNL A   1      31.713  19.979  23.663  1.00  0.00     0.175 HD
ATOM     22  O   UNL A   1      31.594  21.875  22.560  1.00  0.00    -0.268 OA
BRANCH  16  23
ATOM     23  C   UNL A   1      33.733  21.222  27.043  1.00  0.00     0.114 C 
ATOM     24  C   UNL A   1      35.114  21.655  26.602  1.00  0.00     0.027 C 
ENDBRANCH  16  23
ENDBRANCH  13  15
ENDBRANCH  10  13
ENDBRANCH   8  10
BRANCH   8  25
ATOM     25  C   UNL A   1      33.263  26.178  25.120  1.00  0.00     0.455 C 
ATOM     26  F   UNL A   1      32.990  27.255  25.892  1.00  0.00    -0.164 F 
ATOM     27  F   UNL A   1      34.492  25.737  25.524  1.00  0.00    -0.164 F 
ATOM     28  F   UNL A   1      33.429  26.602  23.852  1.00  0.00    -0.164 F 
ENDBRANCH   8  25
ENDBRANCH   6   8
ENDBRANCH   5   6
ENDBRANCH   4   5
ENDBRANCH   3   4
ENDBRANCH   2   3
ENDBRANCH   1   2
BRANCH   1  29
ATOM     29  C   UNL A   1      31.414  29.972  25.076  1.00  0.00     0.188 C 
BRANCH  29  30
ATOM     30  O   UNL A   1      31.062  31.209  25.680  1.00  0.00    -0.376 OA
BRANCH  30  31
ATOM     31  C   UNL A   1      31.849  31.587  26.819  1.00  0.00     0.202 C 
BRANCH  31  32
ATOM     32  C   UNL A   1      31.826  33.077  27.230  1.00  0.00     0.261 C 
BRANCH  32  33
ATOM     33  O   UNL A   1      33.121  33.707  27.393  1.00  0.00    -0.460 OA
BRANCH  33  34
ATOM     34  C   UNL A   1      33.307  34.531  28.455  1.00  0.00     0.338 C 
ATOM     35  O   UNL A   1      32.552  35.407  28.825  1.00  0.00    -0.246 OA
BRANCH  34  36
ATOM     36  C   UNL A   1      34.443  34.005  29.278  1.00  0.00     0.060 A 
ATOM     37  C   UNL A   1      35.750  34.311  28.866  1.00  0.00     0.016 A 
ATOM     38  C   UNL A   1      34.253  33.315  30.480  1.00  0.00     0.016 A 
ATOM     39  C   UNL A   1      36.856  33.912  29.630  1.00  0.00     0.010 A 
ATOM     40  C   UNL A   1      35.362  32.900  31.236  1.00  0.00     0.010 A 
ATOM     41  C   UNL A   1      36.675  33.176  30.808  1.00  0.00    -0.014 A 
BRANCH  41  42
ATOM     42  C   UNL A   1      37.843  32.573  31.514  1.00  0.00     0.031 A 
ATOM     43  C   UNL A   1      38.527  31.380  30.898  1.00  0.00     0.074 A 
ATOM     44  C   UNL A   1      38.315  33.066  32.676  1.00  0.00     0.049 A 
ATOM     45  N   UNL A   1      39.504  30.641  31.363  1.00  0.00    -0.248 NA
ATOM     46  C   UNL A   1      38.043  30.969  29.571  1.00  0.00     0.031 C 
ATOM     47  C   UNL A   1      37.807  34.249  33.363  1.00  0.00     0.029 A 
ATOM     48  N   UNL A   1      39.332  32.615  33.488  1.00  0.00    -0.354 N 
ATOM     49  C   UNL A   1      39.747  29.678  30.393  1.00  0.00     0.074 A 
ATOM     50  C   UNL A   1      38.800  29.912  29.323  1.00  0.00     0.031 C 
ATOM     51  C   UNL A   1      38.501  34.420  34.504  1.00  0.00     0.029 A 
ATOM     52  C   UNL A   1      39.474  33.337  34.649  1.00  0.00     0.049 A 
ATOM     53  H   UNL A   1      39.904  31.847  33.257  1.00  0.00     0.167 HD
ATOM     54  C   UNL A   1      40.677  28.691  30.387  1.00  0.00     0.037 A 
ATOM     55  C   UNL A   1      40.269  33.129  35.720  1.00  0.00     0.037 A 
ATOM     56  C   UNL A   1      41.622  28.447  31.445  1.00  0.00     0.049 A 
ATOM     57  C   UNL A   1      41.214  31.950  35.744  1.00  0.00     0.074 A 
ATOM     58  C   UNL A   1      42.614  27.483  31.508  1.00  0.00     0.029 A 
ATOM     59  N   UNL A   1      41.686  29.159  32.632  1.00  0.00    -0.354 N 
ATOM     60  N   UNL A   1      41.454  31.058  34.813  1.00  0.00    -0.248 NA
ATOM     61  C   UNL A   1      41.994  31.745  36.977  1.00  0.00     0.031 C 
ATOM     62  C   UNL A   1      43.232  27.567  32.759  1.00  0.00     0.029 A 
ATOM     63  C   UNL A   1      42.668  28.625  33.453  1.00  0.00     0.049 A 
ATOM     64  H   UNL A   1      41.117  29.931  32.860  1.00  0.00     0.167 HD
ATOM     65  C   UNL A   1      42.421  30.205  35.337  1.00  0.00     0.074 A 
ATOM     66  C   UNL A   1      42.741  30.696  36.659  1.00  0.00     0.031 C 
ATOM     67  C   UNL A   1      42.987  29.111  34.771  1.00  0.00     0.037 A 
BRANCH  54  68
ATOM     68  C   UNL A   1      40.697  27.766  29.204  1.00  0.00     0.064 A 
ATOM     69  C   UNL A   1      41.600  27.937  28.145  1.00  0.00     0.173 A 
ATOM     70  C   UNL A   1      39.827  26.665  29.155  1.00  0.00     0.173 A 
ATOM     71  F   UNL A   1      42.444  28.980  28.139  1.00  0.00    -0.203 F 
ATOM     72  C   UNL A   1      41.614  27.057  27.067  1.00  0.00     0.198 A 
ATOM     73  C   UNL A   1      39.866  25.769  28.091  1.00  0.00     0.198 A 
ATOM     74  F   UNL A   1      38.949  26.452  30.145  1.00  0.00    -0.203 F 
ATOM     75  F   UNL A   1      42.451  27.266  26.042  1.00  0.00    -0.200 F 
ATOM     76  C   UNL A   1      40.753  25.969  27.044  1.00  0.00     0.200 A 
ATOM     77  F   UNL A   1      39.044  24.710  28.079  1.00  0.00    -0.200 F 
ATOM     78  F   UNL A   1      40.773  25.118  26.010  1.00  0.00    -0.200 F 
ENDBRANCH  54  68
BRANCH  55  79
ATOM     79  C   UNL A   1      40.182  34.034  36.902  1.00  0.00     0.064 A 
ATOM     80  C   UNL A   1      39.278  33.786  37.944  1.00  0.00     0.173 A 
ATOM     81  C   UNL A   1      40.967  35.195  36.984  1.00  0.00     0.173 A 
ATOM     82  F   UNL A   1      38.475  32.713  37.892  1.00  0.00    -0.203 F 
ATOM     83  C   UNL A   1      39.150  34.670  39.013  1.00  0.00     0.198 A 
ATOM     84  C   UNL A   1      40.860  36.062  38.070  1.00  0.00     0.198 A 
ATOM     85  F   UNL A   1      41.833  35.491  36.005  1.00  0.00    -0.203 F 
ATOM     86  F   UNL A   1      38.234  34.440  39.964  1.00  0.00    -0.200 F 
ATOM     87  C   UNL A   1      39.946  35.804  39.080  1.00  0.00     0.200 A 
ATOM     88  F   UNL A   1      41.633  37.155  38.129  1.00  0.00    -0.200 F 
ATOM     89  F   UNL A   1      39.819  36.656  40.106  1.00  0.00    -0.200 F 
ENDBRANCH  55  79
BRANCH  67  90
ATOM     90  C   UNL A   1      44.025  28.365  35.565  1.00  0.00     0.064 A 
ATOM     91  C   UNL A   1      43.672  27.342  36.457  1.00  0.00     0.173 A 
ATOM     92  C   UNL A   1      45.391  28.637  35.391  1.00  0.00     0.173 A 
ATOM     93  F   UNL A   1      42.381  27.048  36.673  1.00  0.00    -0.203 F 
ATOM     94  C   UNL A   1      44.646  26.633  37.159  1.00  0.00     0.198 A 
ATOM     95  C   UNL A   1      46.363  27.906  36.070  1.00  0.00     0.198 A 
ATOM     96  F   UNL A   1      45.787  29.599  34.545  1.00  0.00    -0.203 F 
ATOM     97  F   UNL A   1      44.282  25.688  38.037  1.00  0.00    -0.200 F 
ATOM     98  C   UNL A   1      45.990  26.908  36.958  1.00  0.00     0.200 A 
ATOM     99  F   UNL A   1      47.662  28.163  35.861  1.00  0.00    -0.200 F 
ATOM    100  F   UNL A   1      46.925  26.217  37.623  1.00  0.00    -0.200 F 
ENDBRANCH  67  90
ENDBRANCH  41  42
ENDBRANCH  34  36
ENDBRANCH  33  34
ENDBRANCH  32  33
ENDBRANCH  31  32
ENDBRANCH  30  31
ENDBRANCH  29  30
ENDBRANCH   1  29
TORSDOF 22
ENDMDL
MODEL 3
REMARK VINA RESULT:     -10.1      0.922      2.202
REMARK SMILES CCNC(=O)NC(=O)[C@@H](C)[NH2+][C@](C)(C(=O)OCCOCCOCCOC(=O)c1ccc(-c2c3nc(c(-c4c(F)c(F)c(F)c(F)c4F)c4ccc([nH]4)c(-c4c(F)c(F)c(F)c(F)c4F)c4nc(c(-c5c(F)c(F)c(F)c(F)c5F)c5ccc2[nH]5)C=C4)C=C3)cc1)C(F)(F)F
REMARK SMILES IDX 20 1 19 2 18 3 17 4 16 5 14 6 15 7 12 8 13 9 11 10 9 13
REMARK SMILES IDX 10 14 7 15 3 16 4 17 5 19 6 20 8 22 2 23 1 24 91 25 92 26
REMARK SMILES IDX 93 27 94 28 21 29 22 30 23 31 24 32 25 33 26 34 27 35 28 36
REMARK SMILES IDX 29 37 90 38 30 39 89 40 31 41 32 42 33 43 83 44 34 45 88 46
REMARK SMILES IDX 82 47 84 48 35 49 87 50 81 51 80 52 36 54 68 55 48 56 67 57
REMARK SMILES IDX 49 58 52 59 66 60 85 61 50 62 51 63 65 65 86 66 53 67 37 68
REMARK SMILES IDX 38 69 46 70 39 71 40 72 44 73 47 74 41 75 42 76 45 77 43 78
REMARK SMILES IDX 69 79 70 80 78 81 71 82 72 83 76 84 79 85 73 86 74 87 77 88
REMARK SMILES IDX 75 89 54 90 55 91 63 92 56 93 57 94 61 95 64 96 58 97 59 98
REMARK SMILES IDX 62 99 60 100
REMARK H PARENT 11 11 11 12 3 18 6 21 84 53 52 64
REMARK Flexibility Score: inf
ROOT
ATOM      1  C   UNL A   1      40.000  20.289  26.071  1.00  0.00     0.188 C 
ENDROOT
BRANCH   1   2
ATOM      2  O   UNL A   1      38.770  20.046  25.408  1.00  0.00    -0.376 OA
BRANCH   2   3
ATOM      3  C   UNL A   1      38.048  21.190  24.957  1.00  0.00     0.202 C 
BRANCH   3   4
ATOM      4  C   UNL A   1      36.608  21.360  25.474  1.00  0.00     0.261 C 
BRANCH   4   5
ATOM      5  O   UNL A   1      35.823  22.329  24.749  1.00  0.00    -0.458 OA
BRANCH   5   6
ATOM      6  C   UNL A   1      35.733  23.577  25.301  1.00  0.00     0.377 C 
ATOM      7  O   UNL A   1      36.698  24.185  25.748  1.00  0.00    -0.244 OA
BRANCH   6   8
ATOM      8  C   UNL A   1      34.291  24.128  25.297  1.00  0.00     0.287 C 
ATOM      9  C   UNL A   1      34.175  25.641  25.626  1.00  0.00     0.103 C 
BRANCH   8  10
ATOM     10  N   UNL A   1      33.610  23.747  24.031  1.00  0.00    -0.315 N 
ATOM     11  H   UNL A   1      34.207  24.101  23.283  1.00  0.00     0.348 HD
ATOM     12  H   UNL A   1      33.480  22.747  24.184  1.00  0.00     0.348 HD
BRANCH  10  13
ATOM     13  C   UNL A   1      32.255  24.135  23.663  1.00  0.00     0.271 C 
ATOM     14  C   UNL A   1      31.119  23.138  23.421  1.00  0.00     0.086 C 
BRANCH  13  15
ATOM     15  C   UNL A   1      32.347  25.009  22.405  1.00  0.00     0.285 C 
ATOM     16  N   UNL A   1      30.558  27.512  24.003  1.00  0.00    -0.338 N 
ATOM     17  C   UNL A   1      30.926  27.277  22.744  1.00  0.00     0.321 C 
ATOM     18  H   UNL A   1      29.990  28.313  24.068  1.00  0.00     0.165 HD
ATOM     19  O   UNL A   1      30.526  28.090  21.902  1.00  0.00    -0.248 OA
ATOM     20  N   UNL A   1      31.695  26.244  22.268  1.00  0.00    -0.273 N 
ATOM     21  H   UNL A   1      31.894  26.510  21.341  1.00  0.00     0.175 HD
ATOM     22  O   UNL A   1      33.048  24.644  21.452  1.00  0.00    -0.268 OA
BRANCH  16  23
ATOM     23  C   UNL A   1      30.768  26.912  25.292  1.00  0.00     0.114 C 
ATOM     24  C   UNL A   1      29.826  25.777  25.630  1.00  0.00     0.027 C 
ENDBRANCH  16  23
ENDBRANCH  13  15
ENDBRANCH  10  13
ENDBRANCH   8  10
BRANCH   8  25
ATOM     25  C   UNL A   1      33.602  23.374  26.487  1.00  0.00     0.455 C 
ATOM     26  F   UNL A   1      32.547  24.045  27.002  1.00  0.00    -0.164 F 
ATOM     27  F   UNL A   1      33.097  22.191  26.023  1.00  0.00    -0.164 F 
ATOM     28  F   UNL A   1      34.425  23.043  27.501  1.00  0.00    -0.164 F 
ENDBRANCH   8  25
ENDBRANCH   6   8
ENDBRANCH   5   6
ENDBRANCH   4   5
ENDBRANCH   3   4
ENDBRANCH   2   3
ENDBRANCH   1   2
BRANCH   1  29
ATOM     29  C   UNL A   1      41.069  19.207  25.982  1.00  0.00     0.188 C 
BRANCH  29  30
ATOM     30  O   UNL A   1      42.327  19.613  25.461  1.00  0.00    -0.376 OA
BRANCH  30  31
ATOM     31  C   UNL A   1      42.739  20.943  25.807  1.00  0.00     0.202 C 
BRANCH  31  32
ATOM     32  C   UNL A   1      44.191  21.346  25.461  1.00  0.00     0.261 C 
BRANCH  32  33
ATOM     33  O   UNL A   1      44.678  22.558  26.091  1.00  0.00    -0.460 OA
BRANCH  33  34
ATOM     34  C   UNL A   1      44.415  23.746  25.491  1.00  0.00     0.338 C 
ATOM     35  O   UNL A   1      44.437  23.968  24.298  1.00  0.00    -0.246 OA
BRANCH  34  36
ATOM     36  C   UNL A   1      43.804  24.669  26.501  1.00  0.00     0.060 A 
ATOM     37  C   UNL A   1      44.236  26.005  26.515  1.00  0.00     0.016 A 
ATOM     38  C   UNL A   1      42.764  24.281  27.352  1.00  0.00     0.016 A 
ATOM     39  C   UNL A   1      43.654  26.938  27.385  1.00  0.00     0.010 A 
ATOM     40  C   UNL A   1      42.193  25.213  28.236  1.00  0.00     0.010 A 
ATOM     41  C   UNL A   1      42.647  26.545  28.275  1.00  0.00    -0.014 A 
BRANCH  41  42
ATOM     42  C   UNL A   1      42.170  27.474  29.341  1.00  0.00     0.031 A 
ATOM     43  C   UNL A   1      42.892  27.496  30.663  1.00  0.00     0.074 A 
ATOM     44  C   UNL A   1      41.124  28.304  29.157  1.00  0.00     0.049 A 
ATOM     45  N   UNL A   1      42.613  28.157  31.760  1.00  0.00    -0.248 NA
ATOM     46  C   UNL A   1      44.099  26.660  30.756  1.00  0.00     0.031 C 
ATOM     47  C   UNL A   1      40.365  28.448  27.918  1.00  0.00     0.029 A 
ATOM     48  N   UNL A   1      40.515  29.179  30.029  1.00  0.00    -0.354 N 
ATOM     49  C   UNL A   1      43.602  27.813  32.672  1.00  0.00     0.074 A 
ATOM     50  C   UNL A   1      44.475  26.868  32.008  1.00  0.00     0.031 C 
ATOM     51  C   UNL A   1      39.379  29.344  28.115  1.00  0.00     0.029 A 
ATOM     52  C   UNL A   1      39.410  29.804  29.504  1.00  0.00     0.049 A 
ATOM     53  H   UNL A   1      40.842  29.340  30.944  1.00  0.00     0.167 HD
ATOM     54  C   UNL A   1      43.775  28.248  33.945  1.00  0.00     0.037 A 
ATOM     55  C   UNL A   1      38.507  30.624  30.083  1.00  0.00     0.037 A 
ATOM     56  C   UNL A   1      42.912  29.186  34.616  1.00  0.00     0.049 A 
ATOM     57  C   UNL A   1      38.651  31.000  31.541  1.00  0.00     0.074 A 
ATOM     58  C   UNL A   1      43.029  29.697  35.898  1.00  0.00     0.029 A 
ATOM     59  N   UNL A   1      41.766  29.741  34.071  1.00  0.00    -0.354 N 
ATOM     60  N   UNL A   1      39.601  30.689  32.389  1.00  0.00    -0.248 NA
ATOM     61  C   UNL A   1      37.587  31.835  32.122  1.00  0.00     0.031 C 
ATOM     62  C   UNL A   1      41.919  30.508  36.151  1.00  0.00     0.029 A 
ATOM     63  C   UNL A   1      41.142  30.553  35.006  1.00  0.00     0.049 A 
ATOM     64  H   UNL A   1      41.443  29.583  33.154  1.00  0.00     0.167 HD
ATOM     65  C   UNL A   1      39.261  31.305  33.589  1.00  0.00     0.074 A 
ATOM     66  C   UNL A   1      38.029  32.026  33.357  1.00  0.00     0.031 C 
ATOM     67  C   UNL A   1      39.913  31.270  34.778  1.00  0.00     0.037 A 
BRANCH  54  68
ATOM     68  C   UNL A   1      44.930  27.681  34.719  1.00  0.00     0.064 A 
ATOM     69  C   UNL A   1      44.801  26.523  35.499  1.00  0.00     0.173 A 
ATOM     70  C   UNL A   1      46.195  28.285  34.642  1.00  0.00     0.173 A 
ATOM     71  F   UNL A   1      43.611  25.915  35.615  1.00  0.00    -0.203 F 
ATOM     72  C   UNL A   1      45.890  26.005  36.195  1.00  0.00     0.198 A 
ATOM     73  C   UNL A   1      47.288  27.746  35.313  1.00  0.00     0.198 A 
ATOM     74  F   UNL A   1      46.374  29.390  33.904  1.00  0.00    -0.203 F 
ATOM     75  F   UNL A   1      45.734  24.926  36.974  1.00  0.00    -0.200 F 
ATOM     76  C   UNL A   1      47.134  26.611  36.096  1.00  0.00     0.200 A 
ATOM     77  F   UNL A   1      48.492  28.323  35.203  1.00  0.00    -0.200 F 
ATOM     78  F   UNL A   1      48.182  26.107  36.759  1.00  0.00    -0.200 F 
ENDBRANCH  54  68
BRANCH  55  79
ATOM     79  C   UNL A   1      37.340  31.122  29.301  1.00  0.00     0.064 A 
ATOM     80  C   UNL A   1      37.251  32.462  28.900  1.00  0.00     0.173 A 
ATOM     81  C   UNL A   1      36.264  30.277  28.987  1.00  0.00     0.173 A 
ATOM     82  F   UNL A   1      38.233  33.320  29.213  1.00  0.00    -0.203 F 
ATOM     83  C   UNL A   1      36.127  32.942  28.230  1.00  0.00     0.198 A 
ATOM     84  C   UNL A   1      35.154  30.750  28.289  1.00  0.00     0.198 A 
ATOM     85  F   UNL A   1      36.287  28.991  29.366  1.00  0.00    -0.203 F 
ATOM     86  F   UNL A   1      36.042  34.241  27.913  1.00  0.00    -0.200 F 
ATOM     87  C   UNL A   1      35.082  32.084  27.918  1.00  0.00     0.200 A 
ATOM     88  F   UNL A   1      34.149  29.917  27.990  1.00  0.00    -0.200 F 
ATOM     89  F   UNL A   1      34.000  32.547  27.278  1.00  0.00    -0.200 F 
ENDBRANCH  55  79
BRANCH  67  90
ATOM     90  C   UNL A   1      39.323  32.040  35.927  1.00  0.00     0.064 A 
ATOM     91  C   UNL A   1      39.649  33.386  36.155  1.00  0.00     0.173 A 
ATOM     92  C   UNL A   1      38.378  31.445  36.777  1.00  0.00     0.173 A 
ATOM     93  F   UNL A   1      40.556  34.001  35.381  1.00  0.00    -0.203 F 
ATOM     94  C   UNL A   1      39.066  34.100  37.201  1.00  0.00     0.198 A 
ATOM     95  C   UNL A   1      37.774  32.171  37.803  1.00  0.00     0.198 A 
ATOM     96  F   UNL A   1      38.022  30.164  36.603  1.00  0.00    -0.203 F 
ATOM     97  F   UNL A   1      39.425  35.372  37.423  1.00  0.00    -0.200 F 
ATOM     98  C   UNL A   1      38.123  33.495  38.017  1.00  0.00     0.200 A 
ATOM     99  F   UNL A   1      36.850  31.589  38.580  1.00  0.00    -0.200 F 
ATOM    100  F   UNL A   1      37.554  34.187  39.014  1.00  0.00    -0.200 F 
ENDBRANCH  67  90
ENDBRANCH  41  42
ENDBRANCH  34  36
ENDBRANCH  33  34
ENDBRANCH  32  33
ENDBRANCH  31  32
ENDBRANCH  30  31
ENDBRANCH  29  30
ENDBRANCH   1  29
TORSDOF 22
ENDMDL
