MODEL 1
REMARK VINA RESULT:     -11.1      0.000      0.000
REMARK SMILES O=C(CCCN1C(=O)C(=O)/C(=C(\[O-])c2ccccc2)[C@H]1c1ccc([N+](=O)[O-])cc1)OCCOCCOCCOC(=O)c1ccc(-c2c3nc(c(-c4c(F)c(F)c(F)c(F)c4F)c4ccc([nH]4)c(-c4c(F)c(F)c(F)c(F)c4F)c4nc(c(-c5c(F)c(F)c(F)c(F)c5F)c5ccc2[nH]5)C=C4)C=C3)cc1
REMARK SMILES IDX 33 1 32 2 31 3 30 4 2 5 1 6 3 7 4 8 5 9 6 10 7 11 20 12 8 13
REMARK SMILES IDX 9 14 11 15 10 16 12 17 13 18 21 19 22 20 29 21 23 22 28 23
REMARK SMILES IDX 24 24 25 25 26 26 27 27 14 28 15 29 19 30 16 31 18 32 17 33
REMARK SMILES IDX 34 34 35 35 36 36 37 37 38 38 39 39 40 40 41 41 42 42 43 43
REMARK SMILES IDX 104 44 44 45 103 46 45 47 46 48 47 49 97 50 48 51 102 52
REMARK SMILES IDX 96 53 98 54 49 55 101 56 95 57 94 58 50 60 82 61 62 62 81 63
REMARK SMILES IDX 63 64 66 65 80 66 99 67 64 68 65 69 79 71 100 72 67 73 51 74
REMARK SMILES IDX 52 75 60 76 53 77 54 78 58 79 61 80 55 81 56 82 59 83 57 84
REMARK SMILES IDX 83 85 84 86 92 87 85 88 86 89 90 90 93 91 87 92 88 93 91 94
REMARK SMILES IDX 89 95 68 96 69 97 77 98 70 99 71 100 75 101 78 102 72 103
REMARK SMILES IDX 73 104 76 105 74 106
REMARK H PARENT 98 59 66 70
REMARK Flexibility Score: inf
ROOT
ATOM      1  O   UNL A   1      35.262  21.156  24.295  1.00  0.00    -0.376 OA
ENDROOT
BRANCH   1   2
ATOM      2  C   UNL A   1      35.502  22.512  24.586  1.00  0.00     0.202 C 
BRANCH   2   3
ATOM      3  C   UNL A   1      35.404  23.561  23.487  1.00  0.00     0.261 C 
BRANCH   3   4
ATOM      4  O   UNL A   1      34.453  23.376  22.448  1.00  0.00    -0.463 OA
BRANCH   4   5
ATOM      5  C   UNL A   1      33.155  23.707  22.452  1.00  0.00     0.305 C 
ATOM      6  O   UNL A   1      32.382  23.021  23.122  1.00  0.00    -0.252 OA
BRANCH   5   7
ATOM      7  C   UNL A   1      32.645  24.885  21.652  1.00  0.00     0.124 C 
BRANCH   7   8
ATOM      8  C   UNL A   1      31.650  25.841  22.310  1.00  0.00     0.033 C 
BRANCH   8   9
ATOM      9  C   UNL A   1      31.624  27.337  21.917  1.00  0.00     0.121 C 
BRANCH   9  10
ATOM     10  N   UNL A   1      31.278  28.337  22.932  1.00  0.00    -0.325 N 
ATOM     11  C   UNL A   1      30.164  29.152  22.826  1.00  0.00     0.295 C 
ATOM     12  C   UNL A   1      31.999  28.519  24.210  1.00  0.00     0.150 C 
ATOM     13  O   UNL A   1      29.314  29.182  21.969  1.00  0.00    -0.265 OA
ATOM     14  C   UNL A   1      30.217  30.121  24.006  1.00  0.00     0.248 C 
ATOM     15  C   UNL A   1      31.418  29.787  24.803  1.00  0.00     0.025 C 
ATOM     16  O   UNL A   1      29.448  31.031  24.232  1.00  0.00    -0.283 OA
ATOM     17  C   UNL A   1      31.817  30.594  25.806  1.00  0.00    -0.092 C 
ATOM     18  O   UNL A   1      31.115  31.732  26.173  1.00  0.00    -0.872 OA
BRANCH  12  19
ATOM     19  C   UNL A   1      32.084  27.320  25.149  1.00  0.00    -0.020 A 
ATOM     20  C   UNL A   1      33.230  26.505  25.235  1.00  0.00     0.013 A 
ATOM     21  C   UNL A   1      30.907  26.865  25.779  1.00  0.00     0.013 A 
ATOM     22  C   UNL A   1      33.170  25.235  25.819  1.00  0.00     0.086 A 
ATOM     23  C   UNL A   1      30.849  25.616  26.399  1.00  0.00     0.086 A 
ATOM     24  C   UNL A   1      31.973  24.787  26.383  1.00  0.00     0.269 A 
BRANCH  24  25
ATOM     25  N   UNL A   1      31.877  23.422  26.913  1.00  0.00     0.062 N 
ATOM     26  O   UNL A   1      32.826  22.655  26.702  1.00  0.00    -0.258 OA
ATOM     27  O   UNL A   1      30.845  23.117  27.527  1.00  0.00    -0.258 OA
ENDBRANCH  24  25
ENDBRANCH  12  19
BRANCH  17  28
ATOM     28  C   UNL A   1      32.999  30.377  26.668  1.00  0.00    -0.033 A 
ATOM     29  C   UNL A   1      33.507  31.456  27.412  1.00  0.00     0.007 A 
ATOM     30  C   UNL A   1      33.692  29.161  26.711  1.00  0.00     0.007 A 
ATOM     31  C   UNL A   1      34.677  31.325  28.166  1.00  0.00     0.001 A 
ATOM     32  C   UNL A   1      34.875  29.035  27.448  1.00  0.00     0.001 A 
ATOM     33  C   UNL A   1      35.366  30.116  28.175  1.00  0.00     0.000 A 
ENDBRANCH  17  28
ENDBRANCH   9  10
ENDBRANCH   8   9
ENDBRANCH   7   8
ENDBRANCH   5   7
ENDBRANCH   4   5
ENDBRANCH   3   4
ENDBRANCH   2   3
ENDBRANCH   1   2
BRANCH   1  34
ATOM     34  C   UNL A   1      35.681  20.262  25.307  1.00  0.00     0.188 C 
BRANCH  34  35
ATOM     35  C   UNL A   1      36.678  19.171  24.872  1.00  0.00     0.188 C 
BRANCH  35  36
ATOM     36  O   UNL A   1      38.042  19.523  24.707  1.00  0.00    -0.376 OA
BRANCH  36  37
ATOM     37  C   UNL A   1      39.045  19.162  25.659  1.00  0.00     0.202 C 
BRANCH  37  38
ATOM     38  C   UNL A   1      40.243  20.023  26.079  1.00  0.00     0.261 C 
BRANCH  38  39
ATOM     39  O   UNL A   1      39.955  21.068  27.008  1.00  0.00    -0.460 OA
BRANCH  39  40
ATOM     40  C   UNL A   1      39.357  22.139  26.433  1.00  0.00     0.338 C 
ATOM     41  O   UNL A   1      38.466  22.144  25.601  1.00  0.00    -0.246 OA
BRANCH  40  42
ATOM     42  C   UNL A   1      39.822  23.374  27.062  1.00  0.00     0.060 A 
ATOM     43  C   UNL A   1      39.335  24.590  26.570  1.00  0.00     0.016 A 
ATOM     44  C   UNL A   1      40.868  23.329  27.983  1.00  0.00     0.016 A 
ATOM     45  C   UNL A   1      39.911  25.779  26.986  1.00  0.00     0.010 A 
ATOM     46  C   UNL A   1      41.462  24.524  28.382  1.00  0.00     0.010 A 
ATOM     47  C   UNL A   1      41.006  25.745  27.854  1.00  0.00    -0.014 A 
BRANCH  47  48
ATOM     48  C   UNL A   1      41.781  26.982  28.059  1.00  0.00     0.031 A 
ATOM     49  C   UNL A   1      41.136  28.118  28.796  1.00  0.00     0.074 A 
ATOM     50  C   UNL A   1      43.050  27.056  27.632  1.00  0.00     0.049 A 
ATOM     51  N   UNL A   1      41.610  29.307  29.065  1.00  0.00    -0.248 NA
ATOM     52  C   UNL A   1      39.775  27.881  29.307  1.00  0.00     0.031 C 
ATOM     53  C   UNL A   1      43.779  25.978  26.965  1.00  0.00     0.029 A 
ATOM     54  N   UNL A   1      43.948  28.089  27.693  1.00  0.00    -0.354 N 
ATOM     55  C   UNL A   1      40.606  29.959  29.769  1.00  0.00     0.074 A 
ATOM     56  C   UNL A   1      39.490  29.046  29.870  1.00  0.00     0.031 C 
ATOM     57  C   UNL A   1      45.011  26.416  26.657  1.00  0.00     0.029 A 
ATOM     58  C   UNL A   1      45.139  27.811  27.072  1.00  0.00     0.049 A 
ATOM     59  H   UNL A   1      43.758  28.945  28.140  1.00  0.00     0.167 HD
ATOM     60  C   UNL A   1      40.625  31.211  30.283  1.00  0.00     0.037 A 
ATOM     61  C   UNL A   1      46.194  28.613  26.839  1.00  0.00     0.037 A 
ATOM     62  C   UNL A   1      41.743  32.108  30.161  1.00  0.00     0.049 A 
ATOM     63  C   UNL A   1      46.147  30.034  27.343  1.00  0.00     0.074 A 
ATOM     64  C   UNL A   1      41.873  33.396  30.648  1.00  0.00     0.029 A 
ATOM     65  N   UNL A   1      42.921  31.811  29.488  1.00  0.00    -0.354 N 
ATOM     66  N   UNL A   1      45.209  30.643  28.028  1.00  0.00    -0.248 NA
ATOM     67  C   UNL A   1      47.311  30.878  27.044  1.00  0.00     0.031 C 
ATOM     68  C   UNL A   1      43.102  33.903  30.214  1.00  0.00     0.029 A 
ATOM     69  C   UNL A   1      43.770  32.905  29.519  1.00  0.00     0.049 A 
ATOM     70  H   UNL A   1      43.123  30.952  29.053  1.00  0.00     0.167 HD
ATOM     71  C   UNL A   1      45.682  31.926  28.270  1.00  0.00     0.074 A 
ATOM     72  C   UNL A   1      46.999  32.001  27.674  1.00  0.00     0.031 C 
ATOM     73  C   UNL A   1      45.082  32.952  28.926  1.00  0.00     0.037 A 
BRANCH  60  74
ATOM     74  C   UNL A   1      39.391  31.698  30.986  1.00  0.00     0.064 A 
ATOM     75  C   UNL A   1      39.257  31.634  32.380  1.00  0.00     0.173 A 
ATOM     76  C   UNL A   1      38.348  32.284  30.253  1.00  0.00     0.173 A 
ATOM     77  F   UNL A   1      40.218  31.069  33.127  1.00  0.00    -0.203 F 
ATOM     78  C   UNL A   1      38.117  32.124  33.013  1.00  0.00     0.198 A 
ATOM     79  C   UNL A   1      37.224  32.801  30.892  1.00  0.00     0.198 A 
ATOM     80  F   UNL A   1      38.425  32.371  28.917  1.00  0.00    -0.203 F 
ATOM     81  F   UNL A   1      37.993  32.017  34.344  1.00  0.00    -0.200 F 
ATOM     82  C   UNL A   1      37.107  32.716  32.271  1.00  0.00     0.200 A 
ATOM     83  F   UNL A   1      36.256  33.386  30.172  1.00  0.00    -0.200 F 
ATOM     84  F   UNL A   1      36.019  33.202  32.882  1.00  0.00    -0.200 F 
ENDBRANCH  60  74
BRANCH  61  85
ATOM     85  C   UNL A   1      47.363  28.110  26.071  1.00  0.00     0.064 A 
ATOM     86  C   UNL A   1      47.302  27.946  24.681  1.00  0.00     0.173 A 
ATOM     87  C   UNL A   1      48.555  27.746  26.718  1.00  0.00     0.173 A 
ATOM     88  F   UNL A   1      46.178  28.257  24.018  1.00  0.00    -0.203 F 
ATOM     89  C   UNL A   1      48.373  27.406  23.972  1.00  0.00     0.198 A 
ATOM     90  C   UNL A   1      49.638  27.241  26.004  1.00  0.00     0.198 A 
ATOM     91  F   UNL A   1      48.667  27.880  28.048  1.00  0.00    -0.203 F 
ATOM     92  F   UNL A   1      48.263  27.197  22.653  1.00  0.00    -0.200 F 
ATOM     93  C   UNL A   1      49.542  27.058  24.633  1.00  0.00     0.200 A 
ATOM     94  F   UNL A   1      50.769  26.918  26.645  1.00  0.00    -0.200 F 
ATOM     95  F   UNL A   1      50.569  26.533  23.952  1.00  0.00    -0.200 F 
ENDBRANCH  61  85
BRANCH  73  96
ATOM     96  C   UNL A   1      45.866  34.225  29.074  1.00  0.00     0.064 A 
ATOM     97  C   UNL A   1      45.760  35.273  28.148  1.00  0.00     0.173 A 
ATOM     98  C   UNL A   1      46.706  34.413  30.184  1.00  0.00     0.173 A 
ATOM     99  F   UNL A   1      44.981  35.139  27.064  1.00  0.00    -0.203 F 
ATOM    100  C   UNL A   1      46.490  36.448  28.309  1.00  0.00     0.198 A 
ATOM    101  C   UNL A   1      47.403  35.604  30.362  1.00  0.00     0.198 A 
ATOM    102  F   UNL A   1      46.835  33.448  31.106  1.00  0.00    -0.203 F 
ATOM    103  F   UNL A   1      46.417  37.411  27.381  1.00  0.00    -0.200 F 
ATOM    104  C   UNL A   1      47.303  36.615  29.420  1.00  0.00     0.200 A 
ATOM    105  F   UNL A   1      48.173  35.772  31.447  1.00  0.00    -0.200 F 
ATOM    106  F   UNL A   1      47.997  37.750  29.578  1.00  0.00    -0.200 F 
ENDBRANCH  73  96
ENDBRANCH  47  48
ENDBRANCH  40  42
ENDBRANCH  39  40
ENDBRANCH  38  39
ENDBRANCH  37  38
ENDBRANCH  36  37
ENDBRANCH  35  36
ENDBRANCH  34  35
ENDBRANCH   1  34
TORSDOF 23
ENDMDL
MODEL 2
REMARK VINA RESULT:     -11.0      3.142      7.817
REMARK SMILES O=C(CCCN1C(=O)C(=O)/C(=C(\[O-])c2ccccc2)[C@H]1c1ccc([N+](=O)[O-])cc1)OCCOCCOCCOC(=O)c1ccc(-c2c3nc(c(-c4c(F)c(F)c(F)c(F)c4F)c4ccc([nH]4)c(-c4c(F)c(F)c(F)c(F)c4F)c4nc(c(-c5c(F)c(F)c(F)c(F)c5F)c5ccc2[nH]5)C=C4)C=C3)cc1
REMARK SMILES IDX 33 1 32 2 31 3 30 4 2 5 1 6 3 7 4 8 5 9 6 10 7 11 20 12 8 13
REMARK SMILES IDX 9 14 11 15 10 16 12 17 13 18 21 19 22 20 29 21 23 22 28 23
REMARK SMILES IDX 24 24 25 25 26 26 27 27 14 28 15 29 19 30 16 31 18 32 17 33
REMARK SMILES IDX 34 34 35 35 36 36 37 37 38 38 39 39 40 40 41 41 42 42 43 43
REMARK SMILES IDX 104 44 44 45 103 46 45 47 46 48 47 49 97 50 48 51 102 52
REMARK SMILES IDX 96 53 98 54 49 55 101 56 95 57 94 58 50 60 82 61 62 62 81 63
REMARK SMILES IDX 63 64 66 65 80 66 99 67 64 68 65 69 79 71 100 72 67 73 51 74
REMARK SMILES IDX 52 75 60 76 53 77 54 78 58 79 61 80 55 81 56 82 59 83 57 84
REMARK SMILES IDX 83 85 84 86 92 87 85 88 86 89 90 90 93 91 87 92 88 93 91 94
REMARK SMILES IDX 89 95 68 96 69 97 77 98 70 99 71 100 75 101 78 102 72 103
REMARK SMILES IDX 73 104 76 105 74 106
REMARK H PARENT 98 59 66 70
REMARK Flexibility Score: inf
ROOT
ATOM      1  O   UNL A   1      34.139  22.142  24.819  1.00  0.00    -0.376 OA
ENDROOT
BRANCH   1   2
ATOM      2  C   UNL A   1      33.182  21.211  24.372  1.00  0.00     0.202 C 
BRANCH   2   3
ATOM      3  C   UNL A   1      31.806  21.154  25.021  1.00  0.00     0.261 C 
BRANCH   3   4
ATOM      4  O   UNL A   1      31.583  21.887  26.217  1.00  0.00    -0.463 OA
BRANCH   4   5
ATOM      5  C   UNL A   1      31.040  23.105  26.346  1.00  0.00     0.305 C 
ATOM      6  O   UNL A   1      30.260  23.298  27.280  1.00  0.00    -0.252 OA
BRANCH   5   7
ATOM      7  C   UNL A   1      31.366  24.215  25.370  1.00  0.00     0.124 C 
BRANCH   7   8
ATOM      8  C   UNL A   1      32.290  25.343  25.827  1.00  0.00     0.033 C 
BRANCH   8   9
ATOM      9  C   UNL A   1      31.794  26.400  26.842  1.00  0.00     0.121 C 
BRANCH   9  10
ATOM     10  N   UNL A   1      31.795  27.815  26.458  1.00  0.00    -0.325 N 
ATOM     11  C   UNL A   1      32.524  28.773  27.142  1.00  0.00     0.295 C 
ATOM     12  C   UNL A   1      31.119  28.360  25.261  1.00  0.00     0.150 C 
ATOM     13  O   UNL A   1      33.261  28.644  28.089  1.00  0.00    -0.265 OA
ATOM     14  C   UNL A   1      32.174  30.121  26.513  1.00  0.00     0.248 C 
ATOM     15  C   UNL A   1      31.219  29.865  25.413  1.00  0.00     0.025 C 
ATOM     16  O   UNL A   1      32.562  31.212  26.874  1.00  0.00    -0.283 OA
ATOM     17  C   UNL A   1      30.598  30.889  24.795  1.00  0.00    -0.092 C 
ATOM     18  O   UNL A   1      30.848  32.216  25.115  1.00  0.00    -0.872 OA
BRANCH  12  19
ATOM     19  C   UNL A   1      31.526  27.797  23.903  1.00  0.00    -0.020 A 
ATOM     20  C   UNL A   1      30.641  27.057  23.094  1.00  0.00     0.013 A 
ATOM     21  C   UNL A   1      32.889  27.808  23.544  1.00  0.00     0.013 A 
ATOM     22  C   UNL A   1      31.116  26.263  22.043  1.00  0.00     0.086 A 
ATOM     23  C   UNL A   1      33.367  27.051  22.472  1.00  0.00     0.086 A 
ATOM     24  C   UNL A   1      32.482  26.249  21.748  1.00  0.00     0.269 A 
BRANCH  24  25
ATOM     25  N   UNL A   1      32.999  25.349  20.711  1.00  0.00     0.062 N 
ATOM     26  O   UNL A   1      33.015  25.765  19.544  1.00  0.00    -0.258 OA
ATOM     27  O   UNL A   1      33.374  24.223  21.065  1.00  0.00    -0.258 OA
ENDBRANCH  24  25
ENDBRANCH  12  19
BRANCH  17  28
ATOM     28  C   UNL A   1      29.622  30.767  23.691  1.00  0.00    -0.033 A 
ATOM     29  C   UNL A   1      28.253  30.907  23.973  1.00  0.00     0.007 A 
ATOM     30  C   UNL A   1      29.995  30.428  22.385  1.00  0.00     0.007 A 
ATOM     31  C   UNL A   1      27.288  30.705  22.983  1.00  0.00     0.001 A 
ATOM     32  C   UNL A   1      29.029  30.205  21.398  1.00  0.00     0.001 A 
ATOM     33  C   UNL A   1      27.677  30.343  21.697  1.00  0.00     0.000 A 
ENDBRANCH  17  28
ENDBRANCH   9  10
ENDBRANCH   8   9
ENDBRANCH   7   8
ENDBRANCH   5   7
ENDBRANCH   4   5
ENDBRANCH   3   4
ENDBRANCH   2   3
ENDBRANCH   1   2
BRANCH   1  34
ATOM     34  C   UNL A   1      35.025  22.593  23.814  1.00  0.00     0.188 C 
BRANCH  34  35
ATOM     35  C   UNL A   1      36.518  22.293  24.047  1.00  0.00     0.188 C 
BRANCH  35  36
ATOM     36  O   UNL A   1      36.874  21.093  24.714  1.00  0.00    -0.376 OA
BRANCH  36  37
ATOM     37  C   UNL A   1      38.229  20.772  25.038  1.00  0.00     0.202 C 
BRANCH  37  38
ATOM     38  C   UNL A   1      39.064  21.402  26.159  1.00  0.00     0.261 C 
BRANCH  38  39
ATOM     39  O   UNL A   1      39.038  22.828  26.218  1.00  0.00    -0.460 OA
BRANCH  39  40
ATOM     40  C   UNL A   1      40.262  23.374  26.420  1.00  0.00     0.338 C 
ATOM     41  O   UNL A   1      41.345  22.933  26.076  1.00  0.00    -0.246 OA
BRANCH  40  42
ATOM     42  C   UNL A   1      40.129  24.707  27.005  1.00  0.00     0.060 A 
ATOM     43  C   UNL A   1      40.789  25.771  26.379  1.00  0.00     0.016 A 
ATOM     44  C   UNL A   1      39.528  24.857  28.253  1.00  0.00     0.016 A 
ATOM     45  C   UNL A   1      40.870  26.998  27.016  1.00  0.00     0.010 A 
ATOM     46  C   UNL A   1      39.632  26.084  28.904  1.00  0.00     0.010 A 
ATOM     47  C   UNL A   1      40.334  27.142  28.300  1.00  0.00    -0.014 A 
BRANCH  47  48
ATOM     48  C   UNL A   1      40.675  28.350  29.073  1.00  0.00     0.031 A 
ATOM     49  C   UNL A   1      42.052  28.463  29.656  1.00  0.00     0.074 A 
ATOM     50  C   UNL A   1      39.777  29.339  29.202  1.00  0.00     0.049 A 
ATOM     51  N   UNL A   1      42.564  29.413  30.395  1.00  0.00    -0.248 NA
ATOM     52  C   UNL A   1      42.982  27.361  29.361  1.00  0.00     0.031 C 
ATOM     53  C   UNL A   1      38.439  29.343  28.614  1.00  0.00     0.029 A 
ATOM     54  N   UNL A   1      39.858  30.529  29.875  1.00  0.00    -0.354 N 
ATOM     55  C   UNL A   1      43.870  29.021  30.657  1.00  0.00     0.074 A 
ATOM     56  C   UNL A   1      44.069  27.740  30.017  1.00  0.00     0.031 C 
ATOM     57  C   UNL A   1      37.813  30.476  28.972  1.00  0.00     0.029 A 
ATOM     58  C   UNL A   1      38.693  31.253  29.842  1.00  0.00     0.049 A 
ATOM     59  H   UNL A   1      40.673  30.835  30.336  1.00  0.00     0.167 HD
ATOM     60  C   UNL A   1      44.813  29.680  31.369  1.00  0.00     0.037 A 
ATOM     61  C   UNL A   1      38.375  32.396  30.476  1.00  0.00     0.037 A 
ATOM     62  C   UNL A   1      44.589  30.950  32.008  1.00  0.00     0.049 A 
ATOM     63  C   UNL A   1      39.417  33.059  31.340  1.00  0.00     0.074 A 
ATOM     64  C   UNL A   1      45.475  31.711  32.749  1.00  0.00     0.029 A 
ATOM     65  N   UNL A   1      43.383  31.638  31.991  1.00  0.00    -0.354 N 
ATOM     66  N   UNL A   1      40.659  32.701  31.569  1.00  0.00    -0.248 NA
ATOM     67  C   UNL A   1      39.015  34.291  32.031  1.00  0.00     0.031 C 
ATOM     68  C   UNL A   1      44.787  32.826  33.237  1.00  0.00     0.029 A 
ATOM     69  C   UNL A   1      43.493  32.799  32.738  1.00  0.00     0.049 A 
ATOM     70  H   UNL A   1      42.571  31.345  31.519  1.00  0.00     0.167 HD
ATOM     71  C   UNL A   1      41.194  33.677  32.399  1.00  0.00     0.074 A 
ATOM     72  C   UNL A   1      40.146  34.652  32.619  1.00  0.00     0.031 C 
ATOM     73  C   UNL A   1      42.438  33.761  32.933  1.00  0.00     0.037 A 
BRANCH  60  74
ATOM     74  C   UNL A   1      46.154  29.026  31.530  1.00  0.00     0.064 A 
ATOM     75  C   UNL A   1      46.425  28.140  32.583  1.00  0.00     0.173 A 
ATOM     76  C   UNL A   1      47.167  29.251  30.586  1.00  0.00     0.173 A 
ATOM     77  F   UNL A   1      45.497  27.902  33.523  1.00  0.00    -0.203 F 
ATOM     78  C   UNL A   1      47.666  27.517  32.694  1.00  0.00     0.198 A 
ATOM     79  C   UNL A   1      48.395  28.602  30.682  1.00  0.00     0.198 A 
ATOM     80  F   UNL A   1      46.961  30.088  29.559  1.00  0.00    -0.203 F 
ATOM     81  F   UNL A   1      47.917  26.704  33.731  1.00  0.00    -0.200 F 
ATOM     82  C   UNL A   1      48.645  27.740  31.738  1.00  0.00     0.200 A 
ATOM     83  F   UNL A   1      49.334  28.809  29.748  1.00  0.00    -0.200 F 
ATOM     84  F   UNL A   1      49.833  27.128  31.836  1.00  0.00    -0.200 F 
ENDBRANCH  60  74
BRANCH  61  85
ATOM     85  C   UNL A   1      37.008  32.967  30.349  1.00  0.00     0.064 A 
ATOM     86  C   UNL A   1      36.053  32.797  31.359  1.00  0.00     0.173 A 
ATOM     87  C   UNL A   1      36.617  33.664  29.194  1.00  0.00     0.173 A 
ATOM     88  F   UNL A   1      36.369  32.118  32.473  1.00  0.00    -0.203 F 
ATOM     89  C   UNL A   1      34.751  33.270  31.207  1.00  0.00     0.198 A 
ATOM     90  C   UNL A   1      35.327  34.169  29.058  1.00  0.00     0.198 A 
ATOM     91  F   UNL A   1      37.491  33.854  28.195  1.00  0.00    -0.203 F 
ATOM     92  F   UNL A   1      33.839  33.034  32.160  1.00  0.00    -0.200 F 
ATOM     93  C   UNL A   1      34.390  33.959  30.059  1.00  0.00     0.200 A 
ATOM     94  F   UNL A   1      34.986  34.845  27.954  1.00  0.00    -0.200 F 
ATOM     95  F   UNL A   1      33.137  34.408  29.911  1.00  0.00    -0.200 F 
ENDBRANCH  61  85
BRANCH  73  96
ATOM     96  C   UNL A   1      42.748  34.972  33.767  1.00  0.00     0.064 A 
ATOM     97  C   UNL A   1      42.650  34.954  35.166  1.00  0.00     0.173 A 
ATOM     98  C   UNL A   1      43.189  36.157  33.155  1.00  0.00     0.173 A 
ATOM     99  F   UNL A   1      42.221  33.852  35.799  1.00  0.00    -0.203 F 
ATOM    100  C   UNL A   1      42.950  36.086  35.919  1.00  0.00     0.198 A 
ATOM    101  C   UNL A   1      43.526  37.273  33.914  1.00  0.00     0.198 A 
ATOM    102  F   UNL A   1      43.312  36.225  31.821  1.00  0.00    -0.203 F 
ATOM    103  F   UNL A   1      42.793  36.064  37.249  1.00  0.00    -0.200 F 
ATOM    104  C   UNL A   1      43.396  37.241  35.293  1.00  0.00     0.200 A 
ATOM    105  F   UNL A   1      43.977  38.381  33.309  1.00  0.00    -0.200 F 
ATOM    106  F   UNL A   1      43.694  38.326  36.021  1.00  0.00    -0.200 F 
ENDBRANCH  73  96
ENDBRANCH  47  48
ENDBRANCH  40  42
ENDBRANCH  39  40
ENDBRANCH  38  39
ENDBRANCH  37  38
ENDBRANCH  36  37
ENDBRANCH  35  36
ENDBRANCH  34  35
ENDBRANCH   1  34
TORSDOF 23
ENDMDL
MODEL 3
REMARK VINA RESULT:     -10.2      9.612     17.105
REMARK SMILES O=C(CCCN1C(=O)C(=O)/C(=C(\[O-])c2ccccc2)[C@H]1c1ccc([N+](=O)[O-])cc1)OCCOCCOCCOC(=O)c1ccc(-c2c3nc(c(-c4c(F)c(F)c(F)c(F)c4F)c4ccc([nH]4)c(-c4c(F)c(F)c(F)c(F)c4F)c4nc(c(-c5c(F)c(F)c(F)c(F)c5F)c5ccc2[nH]5)C=C4)C=C3)cc1
REMARK SMILES IDX 33 1 32 2 31 3 30 4 2 5 1 6 3 7 4 8 5 9 6 10 7 11 20 12 8 13
REMARK SMILES IDX 9 14 11 15 10 16 12 17 13 18 21 19 22 20 29 21 23 22 28 23
REMARK SMILES IDX 24 24 25 25 26 26 27 27 14 28 15 29 19 30 16 31 18 32 17 33
REMARK SMILES IDX 34 34 35 35 36 36 37 37 38 38 39 39 40 40 41 41 42 42 43 43
REMARK SMILES IDX 104 44 44 45 103 46 45 47 46 48 47 49 97 50 48 51 102 52
REMARK SMILES IDX 96 53 98 54 49 55 101 56 95 57 94 58 50 60 82 61 62 62 81 63
REMARK SMILES IDX 63 64 66 65 80 66 99 67 64 68 65 69 79 71 100 72 67 73 51 74
REMARK SMILES IDX 52 75 60 76 53 77 54 78 58 79 61 80 55 81 56 82 59 83 57 84
REMARK SMILES IDX 83 85 84 86 92 87 85 88 86 89 90 90 93 91 87 92 88 93 91 94
REMARK SMILES IDX 89 95 68 96 69 97 77 98 70 99 71 100 75 101 78 102 72 103
REMARK SMILES IDX 73 104 76 105 74 106
REMARK H PARENT 98 59 66 70
REMARK Flexibility Score: inf
ROOT
ATOM      1  O   UNL A   1      46.456  41.986  25.307  1.00  0.00    -0.376 OA
ENDROOT
BRANCH   1   2
ATOM      2  C   UNL A   1      45.507  43.025  25.281  1.00  0.00     0.202 C 
BRANCH   2   3
ATOM      3  C   UNL A   1      45.113  43.672  23.960  1.00  0.00     0.261 C 
BRANCH   3   4
ATOM      4  O   UNL A   1      43.738  43.726  23.609  1.00  0.00    -0.463 OA
BRANCH   4   5
ATOM      5  C   UNL A   1      43.124  43.109  22.590  1.00  0.00     0.305 C 
ATOM      6  O   UNL A   1      42.534  42.052  22.821  1.00  0.00    -0.252 OA
BRANCH   5   7
ATOM      7  C   UNL A   1      43.156  43.685  21.192  1.00  0.00     0.124 C 
BRANCH   7   8
ATOM      8  C   UNL A   1      42.588  42.851  20.043  1.00  0.00     0.033 C 
BRANCH   8   9
ATOM      9  C   UNL A   1      42.844  43.263  18.574  1.00  0.00     0.121 C 
BRANCH   9  10
ATOM     10  N   UNL A   1      42.878  44.687  18.227  1.00  0.00    -0.325 N 
ATOM     11  C   UNL A   1      41.732  45.459  18.131  1.00  0.00     0.295 C 
ATOM     12  C   UNL A   1      44.114  45.478  18.047  1.00  0.00     0.150 C 
ATOM     13  O   UNL A   1      40.581  45.149  18.323  1.00  0.00    -0.265 OA
ATOM     14  C   UNL A   1      42.173  46.838  17.644  1.00  0.00     0.248 C 
ATOM     15  C   UNL A   1      43.644  46.808  17.494  1.00  0.00     0.025 C 
ATOM     16  O   UNL A   1      41.453  47.777  17.378  1.00  0.00    -0.283 OA
ATOM     17  C   UNL A   1      44.291  47.834  16.906  1.00  0.00    -0.092 C 
ATOM     18  O   UNL A   1      43.636  48.973  16.460  1.00  0.00    -0.872 OA
BRANCH  12  19
ATOM     19  C   UNL A   1      45.085  45.548  19.222  1.00  0.00    -0.020 A 
ATOM     20  C   UNL A   1      45.111  46.632  20.120  1.00  0.00     0.013 A 
ATOM     21  C   UNL A   1      46.147  44.622  19.281  1.00  0.00     0.013 A 
ATOM     22  C   UNL A   1      46.211  46.850  20.958  1.00  0.00     0.086 A 
ATOM     23  C   UNL A   1      47.230  44.809  20.142  1.00  0.00     0.086 A 
ATOM     24  C   UNL A   1      47.276  45.946  20.952  1.00  0.00     0.269 A 
BRANCH  24  25
ATOM     25  N   UNL A   1      48.473  46.217  21.756  1.00  0.00     0.062 N 
ATOM     26  O   UNL A   1      49.536  46.423  21.155  1.00  0.00    -0.258 OA
ATOM     27  O   UNL A   1      48.348  46.208  22.989  1.00  0.00    -0.258 OA
ENDBRANCH  24  25
ENDBRANCH  12  19
BRANCH  17  28
ATOM     28  C   UNL A   1      45.751  47.923  16.691  1.00  0.00    -0.033 A 
ATOM     29  C   UNL A   1      46.466  46.754  16.378  1.00  0.00     0.007 A 
ATOM     30  C   UNL A   1      46.473  49.109  16.871  1.00  0.00     0.007 A 
ATOM     31  C   UNL A   1      47.859  46.770  16.260  1.00  0.00     0.001 A 
ATOM     32  C   UNL A   1      47.869  49.122  16.775  1.00  0.00     0.001 A 
ATOM     33  C   UNL A   1      48.561  47.953  16.470  1.00  0.00     0.000 A 
ENDBRANCH  17  28
ENDBRANCH   9  10
ENDBRANCH   8   9
ENDBRANCH   7   8
ENDBRANCH   5   7
ENDBRANCH   4   5
ENDBRANCH   3   4
ENDBRANCH   2   3
ENDBRANCH   1   2
BRANCH   1  34
ATOM     34  C   UNL A   1      46.050  40.847  26.039  1.00  0.00     0.188 C 
BRANCH  34  35
ATOM     35  C   UNL A   1      46.190  40.945  27.571  1.00  0.00     0.188 C 
BRANCH  35  36
ATOM     36  O   UNL A   1      45.013  41.000  28.358  1.00  0.00    -0.376 OA
BRANCH  36  37
ATOM     37  C   UNL A   1      43.912  40.111  28.152  1.00  0.00     0.202 C 
BRANCH  37  38
ATOM     38  C   UNL A   1      43.920  38.596  28.386  1.00  0.00     0.261 C 
BRANCH  38  39
ATOM     39  O   UNL A   1      45.046  37.896  27.857  1.00  0.00    -0.460 OA
BRANCH  39  40
ATOM     40  C   UNL A   1      45.767  37.254  28.808  1.00  0.00     0.338 C 
ATOM     41  O   UNL A   1      46.299  37.731  29.795  1.00  0.00    -0.246 OA
BRANCH  40  42
ATOM     42  C   UNL A   1      45.717  35.810  28.588  1.00  0.00     0.060 A 
ATOM     43  C   UNL A   1      45.207  35.346  27.370  1.00  0.00     0.016 A 
ATOM     44  C   UNL A   1      45.984  34.940  29.644  1.00  0.00     0.016 A 
ATOM     45  C   UNL A   1      44.940  33.996  27.208  1.00  0.00     0.010 A 
ATOM     46  C   UNL A   1      45.692  33.587  29.489  1.00  0.00     0.010 A 
ATOM     47  C   UNL A   1      45.136  33.123  28.283  1.00  0.00    -0.014 A 
BRANCH  47  48
ATOM     48  C   UNL A   1      44.584  31.759  28.192  1.00  0.00     0.031 A 
ATOM     49  C   UNL A   1      45.352  30.724  27.425  1.00  0.00     0.074 A 
ATOM     50  C   UNL A   1      43.442  31.455  28.829  1.00  0.00     0.049 A 
ATOM     51  N   UNL A   1      45.047  29.475  27.185  1.00  0.00    -0.248 NA
ATOM     52  C   UNL A   1      46.642  31.150  26.858  1.00  0.00     0.031 C 
ATOM     53  C   UNL A   1      42.664  32.380  29.651  1.00  0.00     0.029 A 
ATOM     54  N   UNL A   1      42.739  30.281  28.876  1.00  0.00    -0.354 N 
ATOM     55  C   UNL A   1      46.102  28.970  26.436  1.00  0.00     0.074 A 
ATOM     56  C   UNL A   1      47.045  30.049  26.243  1.00  0.00     0.031 C 
ATOM     57  C   UNL A   1      41.573  31.741  30.105  1.00  0.00     0.029 A 
ATOM     58  C   UNL A   1      41.562  30.380  29.574  1.00  0.00     0.049 A 
ATOM     59  H   UNL A   1      43.048  29.448  28.452  1.00  0.00     0.167 HD
ATOM     60  C   UNL A   1      46.260  27.715  25.958  1.00  0.00     0.037 A 
ATOM     61  C   UNL A   1      40.578  29.475  29.731  1.00  0.00     0.037 A 
ATOM     62  C   UNL A   1      45.302  26.659  26.151  1.00  0.00     0.049 A 
ATOM     63  C   UNL A   1      40.741  28.113  29.105  1.00  0.00     0.074 A 
ATOM     64  C   UNL A   1      45.363  25.347  25.716  1.00  0.00     0.029 A 
ATOM     65  N   UNL A   1      44.098  26.803  26.829  1.00  0.00    -0.354 N 
ATOM     66  N   UNL A   1      41.748  27.629  28.417  1.00  0.00    -0.248 NA
ATOM     67  C   UNL A   1      39.630  27.169  29.282  1.00  0.00     0.031 C 
ATOM     68  C   UNL A   1      44.168  24.716  26.072  1.00  0.00     0.029 A 
ATOM     69  C   UNL A   1      43.393  25.611  26.794  1.00  0.00     0.049 A 
ATOM     70  H   UNL A   1      43.792  27.628  27.268  1.00  0.00     0.167 HD
ATOM     71  C   UNL A   1      41.407  26.318  28.110  1.00  0.00     0.074 A 
ATOM     72  C   UNL A   1      40.108  26.078  28.703  1.00  0.00     0.031 C 
ATOM     73  C   UNL A   1      42.105  25.394  27.402  1.00  0.00     0.037 A 
BRANCH  60  74
ATOM     74  C   UNL A   1      47.488  27.424  25.145  1.00  0.00     0.064 A 
ATOM     75  C   UNL A   1      48.625  26.824  25.707  1.00  0.00     0.173 A 
ATOM     76  C   UNL A   1      47.508  27.707  23.771  1.00  0.00     0.173 A 
ATOM     77  F   UNL A   1      48.665  26.548  27.020  1.00  0.00    -0.203 F 
ATOM     78  C   UNL A   1      49.741  26.533  24.926  1.00  0.00     0.198 A 
ATOM     79  C   UNL A   1      48.613  27.385  22.988  1.00  0.00     0.198 A 
ATOM     80  F   UNL A   1      46.448  28.280  23.183  1.00  0.00    -0.203 F 
ATOM     81  F   UNL A   1      50.831  25.995  25.492  1.00  0.00    -0.200 F 
ATOM     82  C   UNL A   1      49.730  26.803  23.566  1.00  0.00     0.200 A 
ATOM     83  F   UNL A   1      48.594  27.635  21.671  1.00  0.00    -0.200 F 
ATOM     84  F   UNL A   1      50.798  26.508  22.813  1.00  0.00    -0.200 F 
ENDBRANCH  60  74
BRANCH  61  85
ATOM     85  C   UNL A   1      39.344  29.833  30.479  1.00  0.00     0.064 A 
ATOM     86  C   UNL A   1      39.255  29.646  31.864  1.00  0.00     0.173 A 
ATOM     87  C   UNL A   1      38.212  30.334  29.816  1.00  0.00     0.173 A 
ATOM     88  F   UNL A   1      40.301  29.149  32.542  1.00  0.00    -0.203 F 
ATOM     89  C   UNL A   1      38.074  29.914  32.553  1.00  0.00     0.198 A 
ATOM     90  C   UNL A   1      37.044  30.635  30.510  1.00  0.00     0.198 A 
ATOM     91  F   UNL A   1      38.241  30.530  28.489  1.00  0.00    -0.203 F 
ATOM     92  F   UNL A   1      37.995  29.662  33.867  1.00  0.00    -0.200 F 
ATOM     93  C   UNL A   1      36.971  30.412  31.876  1.00  0.00     0.200 A 
ATOM     94  F   UNL A   1      35.985  31.128  29.855  1.00  0.00    -0.200 F 
ATOM     95  F   UNL A   1      35.833  30.663  32.538  1.00  0.00    -0.200 F 
ENDBRANCH  61  85
BRANCH  73  96
ATOM     96  C   UNL A   1      41.497  24.026  27.271  1.00  0.00     0.064 A 
ATOM     97  C   UNL A   1      40.335  23.799  26.520  1.00  0.00     0.173 A 
ATOM     98  C   UNL A   1      42.115  22.918  27.874  1.00  0.00     0.173 A 
ATOM     99  F   UNL A   1      39.698  24.825  25.935  1.00  0.00    -0.203 F 
ATOM    100  C   UNL A   1      39.794  22.521  26.406  1.00  0.00     0.198 A 
ATOM    101  C   UNL A   1      41.593  21.637  27.725  1.00  0.00     0.198 A 
ATOM    102  F   UNL A   1      43.236  23.076  28.593  1.00  0.00    -0.203 F 
ATOM    103  F   UNL A   1      38.650  22.339  25.734  1.00  0.00    -0.200 F 
ATOM    104  C   UNL A   1      40.428  21.441  27.001  1.00  0.00     0.200 A 
ATOM    105  F   UNL A   1      42.220  20.591  28.282  1.00  0.00    -0.200 F 
ATOM    106  F   UNL A   1      39.912  20.211  26.881  1.00  0.00    -0.200 F 
ENDBRANCH  73  96
ENDBRANCH  47  48
ENDBRANCH  40  42
ENDBRANCH  39  40
ENDBRANCH  38  39
ENDBRANCH  37  38
ENDBRANCH  36  37
ENDBRANCH  35  36
ENDBRANCH  34  35
ENDBRANCH   1  34
TORSDOF 23
ENDMDL
