MODEL 1
REMARK VINA RESULT:     -11.0      0.000      0.000
REMARK SMILES C[C@@H](Nc1ccc2c(c1)OCO2)C(=O)OCCOCCOCCOC(=O)c1ccc(-c2c3nc(c(-c4c(F)c(F)c(F)c(F)c4F)c4ccc([nH]4)c(-c4c(F)c(F)c(F)c(F)c4F)c4nc(c(-c5c(F)c(F)c(F)c(F)c5F)c5ccc2[nH]5)C=C4)C=C3)cc1
REMARK SMILES IDX 19 1 18 2 17 3 16 4 15 5 13 6 14 7 2 8 1 9 3 10 4 12 5 13
REMARK SMILES IDX 9 14 6 15 8 16 7 17 10 18 12 19 11 20 20 21 21 22 22 23
REMARK SMILES IDX 23 24 24 25 25 26 26 27 27 28 28 29 89 30 29 31 88 32 30 33
REMARK SMILES IDX 31 34 32 35 82 36 33 37 87 38 81 39 83 40 34 41 86 42 80 43
REMARK SMILES IDX 79 44 35 46 67 47 47 48 66 49 48 50 51 51 65 52 84 53 49 54
REMARK SMILES IDX 50 55 64 57 85 58 52 59 36 60 37 61 45 62 38 63 39 64 43 65
REMARK SMILES IDX 46 66 40 67 41 68 44 69 42 70 68 71 69 72 77 73 70 74 71 75
REMARK SMILES IDX 75 76 78 77 72 78 73 79 76 80 74 81 53 82 54 83 62 84 55 85
REMARK SMILES IDX 56 86 60 87 63 88 57 89 58 90 61 91 59 92
REMARK H PARENT 3 11 83 45 51 56
REMARK Flexibility Score: inf
ROOT
ATOM      1  C   UNL A   1      43.668  18.832  25.796  1.00  0.00     0.188 C 
ENDROOT
BRANCH   1   2
ATOM      2  O   UNL A   1      42.406  19.318  25.381  1.00  0.00    -0.376 OA
BRANCH   2   3
ATOM      3  C   UNL A   1      41.449  19.736  26.339  1.00  0.00     0.202 C 
BRANCH   3   4
ATOM      4  C   UNL A   1      40.794  21.123  26.253  1.00  0.00     0.261 C 
BRANCH   4   5
ATOM      5  O   UNL A   1      39.564  21.227  25.511  1.00  0.00    -0.462 OA
BRANCH   5   6
ATOM      6  C   UNL A   1      38.657  22.135  25.979  1.00  0.00     0.328 C 
ATOM      7  O   UNL A   1      38.939  23.049  26.752  1.00  0.00    -0.250 OA
BRANCH   6   8
ATOM      8  C   UNL A   1      37.205  21.862  25.510  1.00  0.00     0.186 C 
ATOM      9  C   UNL A   1      36.952  20.463  24.943  1.00  0.00     0.043 C 
BRANCH   8  10
ATOM     10  N   UNL A   1      36.168  22.170  26.525  1.00  0.00    -0.372 N 
ATOM     11  H   UNL A   1      36.245  21.814  27.439  1.00  0.00     0.161 HD
BRANCH  10  12
ATOM     12  C   UNL A   1      35.086  22.970  26.171  1.00  0.00     0.039 A 
ATOM     13  C   UNL A   1      35.250  24.022  25.244  1.00  0.00     0.030 A 
ATOM     14  C   UNL A   1      33.874  22.840  26.855  1.00  0.00     0.076 A 
ATOM     15  C   UNL A   1      34.260  24.986  25.050  1.00  0.00     0.053 A 
ATOM     16  C   UNL A   1      32.899  23.784  26.622  1.00  0.00     0.167 A 
ATOM     17  C   UNL A   1      33.094  24.839  25.760  1.00  0.00     0.165 A 
ATOM     18  O   UNL A   1      31.677  23.823  27.218  1.00  0.00    -0.454 OA
ATOM     19  O   UNL A   1      32.030  25.682  25.721  1.00  0.00    -0.454 OA
ATOM     20  C   UNL A   1      31.105  24.983  26.579  1.00  0.00     0.468 C 
ENDBRANCH  10  12
ENDBRANCH   8  10
ENDBRANCH   6   8
ENDBRANCH   5   6
ENDBRANCH   4   5
ENDBRANCH   3   4
ENDBRANCH   2   3
ENDBRANCH   1   2
BRANCH   1  21
ATOM     21  C   UNL A   1      44.923  19.140  24.964  1.00  0.00     0.188 C 
BRANCH  21  22
ATOM     22  O   UNL A   1      44.975  20.352  24.265  1.00  0.00    -0.376 OA
BRANCH  22  23
ATOM     23  C   UNL A   1      45.875  21.370  24.656  1.00  0.00     0.202 C 
BRANCH  23  24
ATOM     24  C   UNL A   1      45.587  22.496  25.673  1.00  0.00     0.261 C 
BRANCH  24  25
ATOM     25  O   UNL A   1      45.043  23.735  25.206  1.00  0.00    -0.460 OA
BRANCH  25  26
ATOM     26  C   UNL A   1      43.710  23.770  24.969  1.00  0.00     0.338 C 
ATOM     27  O   UNL A   1      43.074  23.029  24.234  1.00  0.00    -0.246 OA
BRANCH  26  28
ATOM     28  C   UNL A   1      43.084  24.715  25.923  1.00  0.00     0.060 A 
ATOM     29  C   UNL A   1      43.518  26.049  25.937  1.00  0.00     0.016 A 
ATOM     30  C   UNL A   1      42.080  24.298  26.798  1.00  0.00     0.016 A 
ATOM     31  C   UNL A   1      42.968  26.962  26.838  1.00  0.00     0.010 A 
ATOM     32  C   UNL A   1      41.550  25.208  27.722  1.00  0.00     0.010 A 
ATOM     33  C   UNL A   1      42.010  26.538  27.768  1.00  0.00    -0.014 A 
BRANCH  33  34
ATOM     34  C   UNL A   1      41.627  27.429  28.895  1.00  0.00     0.031 A 
ATOM     35  C   UNL A   1      42.412  27.345  30.177  1.00  0.00     0.074 A 
ATOM     36  C   UNL A   1      40.625  28.320  28.783  1.00  0.00     0.049 A 
ATOM     37  N   UNL A   1      42.229  27.973  31.312  1.00  0.00    -0.248 NA
ATOM     38  C   UNL A   1      43.560  26.425  30.180  1.00  0.00     0.031 C 
ATOM     39  C   UNL A   1      39.818  28.542  27.586  1.00  0.00     0.029 A 
ATOM     40  N   UNL A   1      40.109  29.201  29.705  1.00  0.00    -0.354 N 
ATOM     41  C   UNL A   1      43.232  27.521  32.160  1.00  0.00     0.074 A 
ATOM     42  C   UNL A   1      44.001  26.542  31.422  1.00  0.00     0.031 C 
ATOM     43  C   UNL A   1      38.895  29.484  27.851  1.00  0.00     0.029 A 
ATOM     44  C   UNL A   1      39.024  29.907  29.245  1.00  0.00     0.049 A 
ATOM     45  H   UNL A   1      40.482  29.315  30.608  1.00  0.00     0.167 HD
ATOM     46  C   UNL A   1      43.496  27.894  33.435  1.00  0.00     0.037 A 
ATOM     47  C   UNL A   1      38.211  30.771  29.887  1.00  0.00     0.037 A 
ATOM     48  C   UNL A   1      42.731  28.865  34.174  1.00  0.00     0.049 A 
ATOM     49  C   UNL A   1      38.475  31.102  31.337  1.00  0.00     0.074 A 
ATOM     50  C   UNL A   1      42.927  29.314  35.469  1.00  0.00     0.029 A 
ATOM     51  N   UNL A   1      41.618  29.533  33.685  1.00  0.00    -0.354 N 
ATOM     52  N   UNL A   1      39.436  30.687  32.125  1.00  0.00    -0.248 NA
ATOM     53  C   UNL A   1      37.534  32.031  31.986  1.00  0.00     0.031 C 
ATOM     54  C   UNL A   1      41.899  30.207  35.784  1.00  0.00     0.029 A 
ATOM     55  C   UNL A   1      41.101  30.369  34.663  1.00  0.00     0.049 A 
ATOM     56  H   UNL A   1      41.249  29.429  32.778  1.00  0.00     0.167 HD
ATOM     57  C   UNL A   1      39.238  31.327  33.344  1.00  0.00     0.074 A 
ATOM     58  C   UNL A   1      38.077  32.175  33.186  1.00  0.00     0.031 C 
ATOM     59  C   UNL A   1      39.951  31.219  34.493  1.00  0.00     0.037 A 
BRANCH  46  60
ATOM     60  C   UNL A   1      44.651  27.233  34.131  1.00  0.00     0.064 A 
ATOM     61  C   UNL A   1      45.937  27.792  34.118  1.00  0.00     0.173 A 
ATOM     62  C   UNL A   1      44.455  26.055  34.868  1.00  0.00     0.173 A 
ATOM     63  F   UNL A   1      46.182  28.910  33.417  1.00  0.00    -0.203 F 
ATOM     64  C   UNL A   1      46.989  27.187  34.803  1.00  0.00     0.198 A 
ATOM     65  C   UNL A   1      45.500  25.470  35.577  1.00  0.00     0.198 A 
ATOM     66  F   UNL A   1      43.244  25.481  34.917  1.00  0.00    -0.203 F 
ATOM     67  F   UNL A   1      48.218  27.716  34.744  1.00  0.00    -0.200 F 
ATOM     68  C   UNL A   1      46.767  26.033  35.539  1.00  0.00     0.200 A 
ATOM     69  F   UNL A   1      45.281  24.364  36.302  1.00  0.00    -0.200 F 
ATOM     70  F   UNL A   1      47.776  25.461  36.211  1.00  0.00    -0.200 F 
ENDBRANCH  46  60
BRANCH  47  71
ATOM     71  C   UNL A   1      37.044  31.373  29.183  1.00  0.00     0.064 A 
ATOM     72  C   UNL A   1      37.015  32.736  28.858  1.00  0.00     0.173 A 
ATOM     73  C   UNL A   1      35.906  30.610  28.880  1.00  0.00     0.173 A 
ATOM     74  F   UNL A   1      38.063  33.519  29.157  1.00  0.00    -0.203 F 
ATOM     75  C   UNL A   1      35.883  33.319  28.290  1.00  0.00     0.198 A 
ATOM     76  C   UNL A   1      34.789  31.186  28.278  1.00  0.00     0.198 A 
ATOM     77  F   UNL A   1      35.874  29.302  29.177  1.00  0.00    -0.203 F 
ATOM     78  F   UNL A   1      35.857  34.640  28.059  1.00  0.00    -0.200 F 
ATOM     79  C   UNL A   1      34.773  32.543  27.996  1.00  0.00     0.200 A 
ATOM     80  F   UNL A   1      33.722  30.429  27.988  1.00  0.00    -0.200 F 
ATOM     81  F   UNL A   1      33.682  33.105  27.457  1.00  0.00    -0.200 F 
ENDBRANCH  47  71
BRANCH  59  82
ATOM     82  C   UNL A   1      39.526  32.073  35.656  1.00  0.00     0.064 A 
ATOM     83  C   UNL A   1      38.507  31.675  36.536  1.00  0.00     0.173 A 
ATOM     84  C   UNL A   1      40.163  33.299  35.908  1.00  0.00     0.173 A 
ATOM     85  F   UNL A   1      37.857  30.519  36.338  1.00  0.00    -0.203 F 
ATOM     86  C   UNL A   1      38.116  32.490  37.596  1.00  0.00     0.198 A 
ATOM     87  C   UNL A   1      39.795  34.092  36.991  1.00  0.00     0.198 A 
ATOM     88  F   UNL A   1      41.152  33.724  35.107  1.00  0.00    -0.203 F 
ATOM     89  F   UNL A   1      37.097  32.117  38.384  1.00  0.00    -0.200 F 
ATOM     90  C   UNL A   1      38.764  33.694  37.827  1.00  0.00     0.200 A 
ATOM     91  F   UNL A   1      40.438  35.246  37.223  1.00  0.00    -0.200 F 
ATOM     92  F   UNL A   1      38.389  34.475  38.850  1.00  0.00    -0.200 F 
ENDBRANCH  59  82
ENDBRANCH  33  34
ENDBRANCH  26  28
ENDBRANCH  25  26
ENDBRANCH  24  25
ENDBRANCH  23  24
ENDBRANCH  22  23
ENDBRANCH  21  22
ENDBRANCH   1  21
TORSDOF 19
ENDMDL
MODEL 2
REMARK VINA RESULT:     -10.6      1.985      3.092
REMARK SMILES C[C@@H](Nc1ccc2c(c1)OCO2)C(=O)OCCOCCOCCOC(=O)c1ccc(-c2c3nc(c(-c4c(F)c(F)c(F)c(F)c4F)c4ccc([nH]4)c(-c4c(F)c(F)c(F)c(F)c4F)c4nc(c(-c5c(F)c(F)c(F)c(F)c5F)c5ccc2[nH]5)C=C4)C=C3)cc1
REMARK SMILES IDX 19 1 18 2 17 3 16 4 15 5 13 6 14 7 2 8 1 9 3 10 4 12 5 13
REMARK SMILES IDX 9 14 6 15 8 16 7 17 10 18 12 19 11 20 20 21 21 22 22 23
REMARK SMILES IDX 23 24 24 25 25 26 26 27 27 28 28 29 89 30 29 31 88 32 30 33
REMARK SMILES IDX 31 34 32 35 82 36 33 37 87 38 81 39 83 40 34 41 86 42 80 43
REMARK SMILES IDX 79 44 35 46 67 47 47 48 66 49 48 50 51 51 65 52 84 53 49 54
REMARK SMILES IDX 50 55 64 57 85 58 52 59 36 60 37 61 45 62 38 63 39 64 43 65
REMARK SMILES IDX 46 66 40 67 41 68 44 69 42 70 68 71 69 72 77 73 70 74 71 75
REMARK SMILES IDX 75 76 78 77 72 78 73 79 76 80 74 81 53 82 54 83 62 84 55 85
REMARK SMILES IDX 56 86 60 87 63 88 57 89 58 90 61 91 59 92
REMARK H PARENT 3 11 83 45 51 56
REMARK Flexibility Score: inf
ROOT
ATOM      1  C   UNL A   1      39.202  19.594  25.514  1.00  0.00     0.188 C 
ENDROOT
BRANCH   1   2
ATOM      2  O   UNL A   1      37.961  20.055  25.017  1.00  0.00    -0.376 OA
BRANCH   2   3
ATOM      3  C   UNL A   1      37.632  21.433  25.075  1.00  0.00     0.202 C 
BRANCH   3   4
ATOM      4  C   UNL A   1      36.234  21.932  24.683  1.00  0.00     0.261 C 
BRANCH   4   5
ATOM      5  O   UNL A   1      35.303  22.193  25.750  1.00  0.00    -0.462 OA
BRANCH   5   6
ATOM      6  C   UNL A   1      34.099  22.721  25.381  1.00  0.00     0.328 C 
ATOM      7  O   UNL A   1      33.953  23.501  24.441  1.00  0.00    -0.250 OA
BRANCH   6   8
ATOM      8  C   UNL A   1      32.928  22.312  26.310  1.00  0.00     0.186 C 
ATOM      9  C   UNL A   1      32.171  23.472  26.960  1.00  0.00     0.043 C 
BRANCH   8  10
ATOM     10  N   UNL A   1      31.952  21.383  25.689  1.00  0.00    -0.372 N 
ATOM     11  H   UNL A   1      30.986  21.520  25.814  1.00  0.00     0.161 HD
BRANCH  10  12
ATOM     12  C   UNL A   1      32.418  20.316  24.927  1.00  0.00     0.039 A 
ATOM     13  C   UNL A   1      32.232  20.305  23.527  1.00  0.00     0.030 A 
ATOM     14  C   UNL A   1      32.921  19.178  25.562  1.00  0.00     0.076 A 
ATOM     15  C   UNL A   1      32.463  19.157  22.769  1.00  0.00     0.053 A 
ATOM     16  C   UNL A   1      33.175  18.067  24.787  1.00  0.00     0.167 A 
ATOM     17  C   UNL A   1      32.933  18.051  23.433  1.00  0.00     0.165 A 
ATOM     18  O   UNL A   1      33.641  16.873  25.243  1.00  0.00    -0.454 OA
ATOM     19  O   UNL A   1      33.197  16.843  22.872  1.00  0.00    -0.454 OA
ATOM     20  C   UNL A   1      33.728  16.132  24.009  1.00  0.00     0.468 C 
ENDBRANCH  10  12
ENDBRANCH   8  10
ENDBRANCH   6   8
ENDBRANCH   5   6
ENDBRANCH   4   5
ENDBRANCH   3   4
ENDBRANCH   2   3
ENDBRANCH   1   2
BRANCH   1  21
ATOM     21  C   UNL A   1      40.044  20.492  26.433  1.00  0.00     0.188 C 
BRANCH  21  22
ATOM     22  O   UNL A   1      40.989  21.343  25.846  1.00  0.00    -0.376 OA
BRANCH  22  23
ATOM     23  C   UNL A   1      42.372  21.077  25.969  1.00  0.00     0.202 C 
BRANCH  23  24
ATOM     24  C   UNL A   1      43.516  21.929  25.377  1.00  0.00     0.261 C 
BRANCH  24  25
ATOM     25  O   UNL A   1      43.203  23.176  24.748  1.00  0.00    -0.460 OA
BRANCH  25  26
ATOM     26  C   UNL A   1      44.016  24.224  25.023  1.00  0.00     0.338 C 
ATOM     27  O   UNL A   1      45.063  24.509  24.459  1.00  0.00    -0.246 OA
BRANCH  26  28
ATOM     28  C   UNL A   1      43.326  25.123  25.976  1.00  0.00     0.060 A 
ATOM     29  C   UNL A   1      43.795  26.436  26.127  1.00  0.00     0.016 A 
ATOM     30  C   UNL A   1      42.226  24.684  26.716  1.00  0.00     0.016 A 
ATOM     31  C   UNL A   1      43.185  27.305  27.034  1.00  0.00     0.010 A 
ATOM     32  C   UNL A   1      41.633  25.548  27.645  1.00  0.00     0.010 A 
ATOM     33  C   UNL A   1      42.127  26.854  27.832  1.00  0.00    -0.014 A 
BRANCH  33  34
ATOM     34  C   UNL A   1      41.659  27.679  28.977  1.00  0.00     0.031 A 
ATOM     35  C   UNL A   1      42.394  27.575  30.287  1.00  0.00     0.074 A 
ATOM     36  C   UNL A   1      40.623  28.530  28.859  1.00  0.00     0.049 A 
ATOM     37  N   UNL A   1      42.138  28.146  31.438  1.00  0.00    -0.248 NA
ATOM     38  C   UNL A   1      43.581  26.705  30.301  1.00  0.00     0.031 C 
ATOM     39  C   UNL A   1      39.856  28.768  27.639  1.00  0.00     0.029 A 
ATOM     40  N   UNL A   1      40.031  29.348  29.793  1.00  0.00    -0.354 N 
ATOM     41  C   UNL A   1      43.125  27.701  32.308  1.00  0.00     0.074 A 
ATOM     42  C   UNL A   1      43.966  26.789  31.565  1.00  0.00     0.031 C 
ATOM     43  C   UNL A   1      38.882  29.658  27.903  1.00  0.00     0.029 A 
ATOM     44  C   UNL A   1      38.935  30.025  29.317  1.00  0.00     0.049 A 
ATOM     45  H   UNL A   1      40.362  29.440  30.716  1.00  0.00     0.167 HD
ATOM     46  C   UNL A   1      43.320  28.032  33.607  1.00  0.00     0.037 A 
ATOM     47  C   UNL A   1      38.059  30.826  29.958  1.00  0.00     0.037 A 
ATOM     48  C   UNL A   1      42.483  28.937  34.352  1.00  0.00     0.049 A 
ATOM     49  C   UNL A   1      38.249  31.107  31.431  1.00  0.00     0.074 A 
ATOM     50  C   UNL A   1      42.606  29.339  35.671  1.00  0.00     0.029 A 
ATOM     51  N   UNL A   1      41.362  29.576  33.844  1.00  0.00    -0.354 N 
ATOM     52  N   UNL A   1      39.196  30.701  32.241  1.00  0.00    -0.248 NA
ATOM     53  C   UNL A   1      37.243  31.966  32.076  1.00  0.00     0.031 C 
ATOM     54  C   UNL A   1      41.528  30.172  35.979  1.00  0.00     0.029 A 
ATOM     55  C   UNL A   1      40.770  30.347  34.832  1.00  0.00     0.049 A 
ATOM     56  H   UNL A   1      41.035  29.495  32.919  1.00  0.00     0.167 HD
ATOM     57  C   UNL A   1      38.920  31.279  33.475  1.00  0.00     0.074 A 
ATOM     58  C   UNL A   1      37.729  32.083  33.303  1.00  0.00     0.031 C 
ATOM     59  C   UNL A   1      39.590  31.153  34.648  1.00  0.00     0.037 A 
BRANCH  46  60
ATOM     60  C   UNL A   1      44.475  27.392  34.324  1.00  0.00     0.064 A 
ATOM     61  C   UNL A   1      44.349  26.150  34.963  1.00  0.00     0.173 A 
ATOM     62  C   UNL A   1      45.737  28.004  34.322  1.00  0.00     0.173 A 
ATOM     63  F   UNL A   1      43.161  25.529  35.006  1.00  0.00    -0.203 F 
ATOM     64  C   UNL A   1      45.441  25.552  35.588  1.00  0.00     0.198 A 
ATOM     65  C   UNL A   1      46.834  27.390  34.920  1.00  0.00     0.198 A 
ATOM     66  F   UNL A   1      45.913  29.191  33.721  1.00  0.00    -0.203 F 
ATOM     67  F   UNL A   1      45.289  24.384  36.227  1.00  0.00    -0.200 F 
ATOM     68  C   UNL A   1      46.684  26.167  35.557  1.00  0.00     0.200 A 
ATOM     69  F   UNL A   1      48.037  27.977  34.875  1.00  0.00    -0.200 F 
ATOM     70  F   UNL A   1      47.737  25.583  36.145  1.00  0.00    -0.200 F 
ENDBRANCH  46  60
BRANCH  47  71
ATOM     71  C   UNL A   1      36.896  31.407  29.231  1.00  0.00     0.064 A 
ATOM     72  C   UNL A   1      36.829  32.777  28.942  1.00  0.00     0.173 A 
ATOM     73  C   UNL A   1      35.797  30.613  28.868  1.00  0.00     0.173 A 
ATOM     74  F   UNL A   1      37.838  33.587  29.298  1.00  0.00    -0.203 F 
ATOM     75  C   UNL A   1      35.697  33.336  28.351  1.00  0.00     0.198 A 
ATOM     76  C   UNL A   1      34.681  31.167  28.243  1.00  0.00     0.198 A 
ATOM     77  F   UNL A   1      35.802  29.297  29.128  1.00  0.00    -0.203 F 
ATOM     78  F   UNL A   1      35.631  34.660  28.155  1.00  0.00    -0.200 F 
ATOM     79  C   UNL A   1      34.626  32.530  27.997  1.00  0.00     0.200 A 
ATOM     80  F   UNL A   1      33.652  30.381  27.896  1.00  0.00    -0.200 F 
ATOM     81  F   UNL A   1      33.535  33.068  27.437  1.00  0.00    -0.200 F 
ENDBRANCH  47  71
BRANCH  59  82
ATOM     82  C   UNL A   1      39.081  31.938  35.826  1.00  0.00     0.064 A 
ATOM     83  C   UNL A   1      38.210  31.376  36.773  1.00  0.00     0.173 A 
ATOM     84  C   UNL A   1      39.488  33.267  36.024  1.00  0.00     0.173 A 
ATOM     85  F   UNL A   1      37.779  30.114  36.629  1.00  0.00    -0.203 F 
ATOM     86  C   UNL A   1      37.735  32.126  37.846  1.00  0.00     0.198 A 
ATOM     87  C   UNL A   1      39.041  34.002  37.119  1.00  0.00     0.198 A 
ATOM     88  F   UNL A   1      40.329  33.853  35.158  1.00  0.00    -0.203 F 
ATOM     89  F   UNL A   1      36.854  31.587  38.699  1.00  0.00    -0.200 F 
ATOM     90  C   UNL A   1      38.156  33.436  38.022  1.00  0.00     0.200 A 
ATOM     91  F   UNL A   1      39.466  35.261  37.297  1.00  0.00    -0.200 F 
ATOM     92  F   UNL A   1      37.701  34.155  39.057  1.00  0.00    -0.200 F 
ENDBRANCH  59  82
ENDBRANCH  33  34
ENDBRANCH  26  28
ENDBRANCH  25  26
ENDBRANCH  24  25
ENDBRANCH  23  24
ENDBRANCH  22  23
ENDBRANCH  21  22
ENDBRANCH   1  21
TORSDOF 19
ENDMDL
MODEL 3
REMARK VINA RESULT:     -10.3      1.262      2.078
REMARK SMILES C[C@@H](Nc1ccc2c(c1)OCO2)C(=O)OCCOCCOCCOC(=O)c1ccc(-c2c3nc(c(-c4c(F)c(F)c(F)c(F)c4F)c4ccc([nH]4)c(-c4c(F)c(F)c(F)c(F)c4F)c4nc(c(-c5c(F)c(F)c(F)c(F)c5F)c5ccc2[nH]5)C=C4)C=C3)cc1
REMARK SMILES IDX 19 1 18 2 17 3 16 4 15 5 13 6 14 7 2 8 1 9 3 10 4 12 5 13
REMARK SMILES IDX 9 14 6 15 8 16 7 17 10 18 12 19 11 20 20 21 21 22 22 23
REMARK SMILES IDX 23 24 24 25 25 26 26 27 27 28 28 29 89 30 29 31 88 32 30 33
REMARK SMILES IDX 31 34 32 35 82 36 33 37 87 38 81 39 83 40 34 41 86 42 80 43
REMARK SMILES IDX 79 44 35 46 67 47 47 48 66 49 48 50 51 51 65 52 84 53 49 54
REMARK SMILES IDX 50 55 64 57 85 58 52 59 36 60 37 61 45 62 38 63 39 64 43 65
REMARK SMILES IDX 46 66 40 67 41 68 44 69 42 70 68 71 69 72 77 73 70 74 71 75
REMARK SMILES IDX 75 76 78 77 72 78 73 79 76 80 74 81 53 82 54 83 62 84 55 85
REMARK SMILES IDX 56 86 60 87 63 88 57 89 58 90 61 91 59 92
REMARK H PARENT 3 11 83 45 51 56
REMARK Flexibility Score: inf
ROOT
ATOM      1  C   UNL A   1      39.855  21.971  26.864  1.00  0.00     0.188 C 
ENDROOT
BRANCH   1   2
ATOM      2  O   UNL A   1      38.669  22.335  26.185  1.00  0.00    -0.376 OA
BRANCH   2   3
ATOM      3  C   UNL A   1      38.122  21.485  25.192  1.00  0.00     0.202 C 
BRANCH   3   4
ATOM      4  C   UNL A   1      36.803  21.834  24.487  1.00  0.00     0.261 C 
BRANCH   4   5
ATOM      5  O   UNL A   1      35.655  22.083  25.320  1.00  0.00    -0.462 OA
BRANCH   5   6
ATOM      6  C   UNL A   1      34.539  21.346  25.040  1.00  0.00     0.328 C 
ATOM      7  O   UNL A   1      34.567  20.166  24.696  1.00  0.00    -0.250 OA
BRANCH   6   8
ATOM      8  C   UNL A   1      33.222  22.158  25.115  1.00  0.00     0.186 C 
ATOM      9  C   UNL A   1      31.937  21.338  24.968  1.00  0.00     0.043 C 
BRANCH   8  10
ATOM     10  N   UNL A   1      33.108  23.029  26.310  1.00  0.00    -0.372 N 
ATOM     11  H   UNL A   1      33.245  22.657  27.211  1.00  0.00     0.161 HD
BRANCH  10  12
ATOM     12  C   UNL A   1      32.808  24.377  26.145  1.00  0.00     0.039 A 
ATOM     13  C   UNL A   1      31.531  24.871  26.491  1.00  0.00     0.030 A 
ATOM     14  C   UNL A   1      33.711  25.212  25.482  1.00  0.00     0.076 A 
ATOM     15  C   UNL A   1      31.118  26.150  26.117  1.00  0.00     0.053 A 
ATOM     16  C   UNL A   1      33.292  26.482  25.153  1.00  0.00     0.167 A 
ATOM     17  C   UNL A   1      32.024  26.931  25.444  1.00  0.00     0.165 A 
ATOM     18  O   UNL A   1      34.029  27.413  24.488  1.00  0.00    -0.454 OA
ATOM     19  O   UNL A   1      31.798  28.188  24.983  1.00  0.00    -0.454 OA
ATOM     20  C   UNL A   1      33.101  28.516  24.458  1.00  0.00     0.468 C 
ENDBRANCH  10  12
ENDBRANCH   8  10
ENDBRANCH   6   8
ENDBRANCH   5   6
ENDBRANCH   4   5
ENDBRANCH   3   4
ENDBRANCH   2   3
ENDBRANCH   1   2
BRANCH   1  21
ATOM     21  C   UNL A   1      40.690  20.780  26.370  1.00  0.00     0.188 C 
BRANCH  21  22
ATOM     22  O   UNL A   1      42.043  20.723  26.731  1.00  0.00    -0.376 OA
BRANCH  22  23
ATOM     23  C   UNL A   1      43.034  20.442  25.762  1.00  0.00     0.202 C 
BRANCH  23  24
ATOM     24  C   UNL A   1      44.117  21.423  25.262  1.00  0.00     0.261 C 
BRANCH  24  25
ATOM     25  O   UNL A   1      44.417  22.587  26.039  1.00  0.00    -0.460 OA
BRANCH  25  26
ATOM     26  C   UNL A   1      44.301  23.785  25.420  1.00  0.00     0.338 C 
ATOM     27  O   UNL A   1      44.555  24.036  24.251  1.00  0.00    -0.246 OA
BRANCH  26  28
ATOM     28  C   UNL A   1      43.592  24.720  26.324  1.00  0.00     0.060 A 
ATOM     29  C   UNL A   1      44.031  26.051  26.400  1.00  0.00     0.016 A 
ATOM     30  C   UNL A   1      42.506  24.298  27.092  1.00  0.00     0.016 A 
ATOM     31  C   UNL A   1      43.404  26.954  27.259  1.00  0.00     0.010 A 
ATOM     32  C   UNL A   1      41.895  25.199  27.975  1.00  0.00     0.010 A 
ATOM     33  C   UNL A   1      42.358  26.524  28.086  1.00  0.00    -0.014 A 
BRANCH  33  34
ATOM     34  C   UNL A   1      41.874  27.401  29.185  1.00  0.00     0.031 A 
ATOM     35  C   UNL A   1      42.595  27.363  30.506  1.00  0.00     0.074 A 
ATOM     36  C   UNL A   1      40.837  28.241  29.014  1.00  0.00     0.049 A 
ATOM     37  N   UNL A   1      42.323  27.986  31.625  1.00  0.00    -0.248 NA
ATOM     38  C   UNL A   1      43.785  26.499  30.575  1.00  0.00     0.031 C 
ATOM     39  C   UNL A   1      40.083  28.417  27.776  1.00  0.00     0.029 A 
ATOM     40  N   UNL A   1      40.231  29.100  29.902  1.00  0.00    -0.354 N 
ATOM     41  C   UNL A   1      43.302  27.588  32.527  1.00  0.00     0.074 A 
ATOM     42  C   UNL A   1      44.155  26.645  31.837  1.00  0.00     0.031 C 
ATOM     43  C   UNL A   1      39.103  29.314  27.987  1.00  0.00     0.029 A 
ATOM     44  C   UNL A   1      39.138  29.749  29.382  1.00  0.00     0.049 A 
ATOM     45  H   UNL A   1      40.551  29.237  30.823  1.00  0.00     0.167 HD
ATOM     46  C   UNL A   1      43.481  27.981  33.811  1.00  0.00     0.037 A 
ATOM     47  C   UNL A   1      38.252  30.576  29.974  1.00  0.00     0.037 A 
ATOM     48  C   UNL A   1      42.633  28.917  34.502  1.00  0.00     0.049 A 
ATOM     49  C   UNL A   1      38.424  30.927  31.434  1.00  0.00     0.074 A 
ATOM     50  C   UNL A   1      42.739  29.382  35.801  1.00  0.00     0.029 A 
ATOM     51  N   UNL A   1      41.515  29.527  33.952  1.00  0.00    -0.354 N 
ATOM     52  N   UNL A   1      39.363  30.564  32.273  1.00  0.00    -0.248 NA
ATOM     53  C   UNL A   1      37.408  31.812  32.026  1.00  0.00     0.031 C 
ATOM     54  C   UNL A   1      41.654  30.225  36.057  1.00  0.00     0.029 A 
ATOM     55  C   UNL A   1      40.909  30.341  34.895  1.00  0.00     0.049 A 
ATOM     56  H   UNL A   1      41.199  29.400  33.028  1.00  0.00     0.167 HD
ATOM     57  C   UNL A   1      39.071  31.200  33.475  1.00  0.00     0.074 A 
ATOM     58  C   UNL A   1      37.880  31.989  33.251  1.00  0.00     0.031 C 
ATOM     59  C   UNL A   1      39.728  31.133  34.660  1.00  0.00     0.037 A 
BRANCH  46  60
ATOM     60  C   UNL A   1      44.630  27.381  34.570  1.00  0.00     0.064 A 
ATOM     61  C   UNL A   1      45.889  27.998  34.612  1.00  0.00     0.173 A 
ATOM     62  C   UNL A   1      44.452  26.204  35.312  1.00  0.00     0.173 A 
ATOM     63  F   UNL A   1      46.116  29.118  33.908  1.00  0.00    -0.203 F 
ATOM     64  C   UNL A   1      46.932  27.449  35.354  1.00  0.00     0.198 A 
ATOM     65  C   UNL A   1      45.487  25.675  36.079  1.00  0.00     0.198 A 
ATOM     66  F   UNL A   1      43.266  25.575  35.311  1.00  0.00    -0.203 F 
ATOM     67  F   UNL A   1      48.138  28.034  35.347  1.00  0.00    -0.200 F 
ATOM     68  C   UNL A   1      46.727  26.295  36.095  1.00  0.00     0.200 A 
ATOM     69  F   UNL A   1      45.282  24.569  36.807  1.00  0.00    -0.200 F 
ATOM     70  F   UNL A   1      47.727  25.777  36.821  1.00  0.00    -0.200 F 
ENDBRANCH  46  60
BRANCH  47  71
ATOM     71  C   UNL A   1      37.095  31.116  29.207  1.00  0.00     0.064 A 
ATOM     72  C   UNL A   1      37.040  32.465  28.828  1.00  0.00     0.173 A 
ATOM     73  C   UNL A   1      35.990  30.309  28.895  1.00  0.00     0.173 A 
ATOM     74  F   UNL A   1      38.055  33.288  29.131  1.00  0.00    -0.203 F 
ATOM     75  C   UNL A   1      35.913  32.992  28.197  1.00  0.00     0.198 A 
ATOM     76  C   UNL A   1      34.880  30.829  28.232  1.00  0.00     0.198 A 
ATOM     77  F   UNL A   1      35.984  29.013  29.242  1.00  0.00    -0.203 F 
ATOM     78  F   UNL A   1      35.859  34.301  27.914  1.00  0.00    -0.200 F 
ATOM     79  C   UNL A   1      34.837  32.173  27.896  1.00  0.00     0.200 A 
ATOM     80  F   UNL A   1      33.846  30.031  27.935  1.00  0.00    -0.200 F 
ATOM     81  F   UNL A   1      33.751  32.682  27.298  1.00  0.00    -0.200 F 
ENDBRANCH  47  71
BRANCH  59  82
ATOM     82  C   UNL A   1      39.203  31.971  35.793  1.00  0.00     0.064 A 
ATOM     83  C   UNL A   1      38.268  31.473  36.714  1.00  0.00     0.173 A 
ATOM     84  C   UNL A   1      39.658  33.287  35.975  1.00  0.00     0.173 A 
ATOM     85  F   UNL A   1      37.790  30.226  36.584  1.00  0.00    -0.203 F 
ATOM     86  C   UNL A   1      37.780  32.272  37.745  1.00  0.00     0.198 A 
ATOM     87  C   UNL A   1      39.197  34.070  37.029  1.00  0.00     0.198 A 
ATOM     88  F   UNL A   1      40.561  33.813  35.132  1.00  0.00    -0.203 F 
ATOM     89  F   UNL A   1      36.839  31.794  38.572  1.00  0.00    -0.200 F 
ATOM     90  C   UNL A   1      38.249  33.567  37.906  1.00  0.00     0.200 A 
ATOM     91  F   UNL A   1      39.668  35.315  37.193  1.00  0.00    -0.200 F 
ATOM     92  F   UNL A   1      37.781  34.333  38.901  1.00  0.00    -0.200 F 
ENDBRANCH  59  82
ENDBRANCH  33  34
ENDBRANCH  26  28
ENDBRANCH  25  26
ENDBRANCH  24  25
ENDBRANCH  23  24
ENDBRANCH  22  23
ENDBRANCH  21  22
ENDBRANCH   1  21
TORSDOF 19
ENDMDL
