MODEL 1
REMARK VINA RESULT:     -10.1      0.000      0.000
REMARK SMILES C[NH2+][C@]1(C(=O)OCCOCCOCCOC(=O)c2ccc(-c3c4nc(c(-c5c(F)c(F)c(F)c(F)c5F)c5ccc([nH]5)c(-c5c(F)c(F)c(F)c(F)c5F)c5nc(c(-c6c(F)c(F)c(F)c(F)c6F)c6ccc3[nH]6)C=C5)C=C4)cc2)CCCCC1(C)C
REMARK SMILES IDX 11 1 10 2 9 3 8 4 7 5 6 6 4 7 5 8 3 9 81 10 85 11 82 12
REMARK SMILES IDX 84 13 86 14 87 15 83 16 2 17 1 18 12 21 13 22 14 23 15 24
REMARK SMILES IDX 16 25 17 26 18 27 19 28 80 29 20 30 79 31 21 32 22 33 23 34
REMARK SMILES IDX 73 35 24 36 78 37 72 38 74 39 25 40 77 41 71 42 70 43 26 45
REMARK SMILES IDX 58 46 38 47 57 48 39 49 42 50 56 51 75 52 40 53 41 54 55 56
REMARK SMILES IDX 76 57 43 58 27 59 28 60 36 61 29 62 30 63 34 64 37 65 31 66
REMARK SMILES IDX 32 67 35 68 33 69 59 70 60 71 68 72 61 73 62 74 66 75 69 76
REMARK SMILES IDX 63 77 64 78 67 79 65 80 44 81 45 82 53 83 46 84 47 85 51 86
REMARK SMILES IDX 54 87 48 88 49 89 52 90 50 91
REMARK H PARENT 2 19 2 20 74 44 42 55
REMARK Flexibility Score: inf
ROOT
ATOM      1  C   UNL A   1      32.787  29.604  27.339  1.00  0.00     0.188 C 
ENDROOT
BRANCH   1   2
ATOM      2  C   UNL A   1      31.715  28.604  26.905  1.00  0.00     0.188 C 
BRANCH   2   3
ATOM      3  O   UNL A   1      31.811  28.077  25.594  1.00  0.00    -0.376 OA
BRANCH   3   4
ATOM      4  C   UNL A   1      33.101  27.616  25.207  1.00  0.00     0.202 C 
BRANCH   4   5
ATOM      5  C   UNL A   1      33.708  26.404  25.944  1.00  0.00     0.261 C 
BRANCH   5   6
ATOM      6  O   UNL A   1      32.849  25.268  26.228  1.00  0.00    -0.459 OA
BRANCH   6   7
ATOM      7  C   UNL A   1      33.440  24.045  26.091  1.00  0.00     0.368 C 
ATOM      8  O   UNL A   1      34.626  23.865  26.374  1.00  0.00    -0.245 OA
BRANCH   7   9
ATOM      9  C   UNL A   1      32.562  22.911  25.365  1.00  0.00     0.199 C 
ATOM     10  C   UNL A   1      31.733  23.729  24.308  1.00  0.00     0.082 C 
ATOM     11  C   UNL A   1      33.313  21.729  24.590  1.00  0.00     0.031 C 
ATOM     12  C   UNL A   1      32.602  24.270  23.166  1.00  0.00     0.007 C 
ATOM     13  C   UNL A   1      34.098  22.256  23.362  1.00  0.00     0.013 C 
ATOM     14  C   UNL A   1      34.277  20.911  25.480  1.00  0.00     0.018 C 
ATOM     15  C   UNL A   1      32.316  20.668  24.017  1.00  0.00     0.018 C 
ATOM     16  C   UNL A   1      33.297  23.147  22.421  1.00  0.00     0.001 C 
BRANCH   9  17
ATOM     17  N   UNL A   1      31.728  22.329  26.470  1.00  0.00    -0.334 N 
ATOM     18  C   UNL A   1      30.355  22.799  26.582  1.00  0.00     0.331 C 
ATOM     19  H   UNL A   1      31.697  21.318  26.332  1.00  0.00     0.347 HD
ATOM     20  H   UNL A   1      32.182  22.633  27.331  1.00  0.00     0.347 HD
ENDBRANCH   9  17
ENDBRANCH   7   9
ENDBRANCH   6   7
ENDBRANCH   5   6
ENDBRANCH   4   5
ENDBRANCH   3   4
ENDBRANCH   2   3
ENDBRANCH   1   2
BRANCH   1  21
ATOM     21  O   UNL A   1      32.869  30.814  26.606  1.00  0.00    -0.376 OA
BRANCH  21  22
ATOM     22  C   UNL A   1      31.750  31.696  26.726  1.00  0.00     0.202 C 
BRANCH  22  23
ATOM     23  C   UNL A   1      32.038  33.207  26.891  1.00  0.00     0.261 C 
BRANCH  23  24
ATOM     24  O   UNL A   1      32.379  33.660  28.225  1.00  0.00    -0.460 OA
BRANCH  24  25
ATOM     25  C   UNL A   1      33.472  34.444  28.358  1.00  0.00     0.338 C 
ATOM     26  O   UNL A   1      33.477  35.665  28.403  1.00  0.00    -0.246 OA
BRANCH  25  27
ATOM     27  C   UNL A   1      34.651  33.601  28.718  1.00  0.00     0.060 A 
ATOM     28  C   UNL A   1      34.400  32.408  29.409  1.00  0.00     0.016 A 
ATOM     29  C   UNL A   1      35.969  33.922  28.375  1.00  0.00     0.016 A 
ATOM     30  C   UNL A   1      35.443  31.550  29.776  1.00  0.00     0.010 A 
ATOM     31  C   UNL A   1      37.022  33.076  28.774  1.00  0.00     0.010 A 
ATOM     32  C   UNL A   1      36.770  31.892  29.499  1.00  0.00    -0.014 A 
BRANCH  32  33
ATOM     33  C   UNL A   1      37.877  31.133  30.153  1.00  0.00     0.031 A 
ATOM     34  C   UNL A   1      38.154  31.390  31.612  1.00  0.00     0.074 A 
ATOM     35  C   UNL A   1      38.580  30.174  29.518  1.00  0.00     0.049 A 
ATOM     36  N   UNL A   1      39.106  30.926  32.383  1.00  0.00    -0.248 NA
ATOM     37  C   UNL A   1      37.212  32.288  32.298  1.00  0.00     0.031 C 
ATOM     38  C   UNL A   1      38.359  29.726  28.147  1.00  0.00     0.029 A 
ATOM     39  N   UNL A   1      39.633  29.401  29.957  1.00  0.00    -0.354 N 
ATOM     40  C   UNL A   1      38.889  31.489  33.634  1.00  0.00     0.074 A 
ATOM     41  C   UNL A   1      37.722  32.337  33.518  1.00  0.00     0.031 C 
ATOM     42  C   UNL A   1      39.255  28.767  27.851  1.00  0.00     0.029 A 
ATOM     43  C   UNL A   1      40.149  28.567  28.993  1.00  0.00     0.049 A 
ATOM     44  H   UNL A   1      39.982  29.440  30.876  1.00  0.00     0.167 HD
ATOM     45  C   UNL A   1      39.593  31.317  34.779  1.00  0.00     0.037 A 
ATOM     46  C   UNL A   1      41.238  27.768  29.015  1.00  0.00     0.037 A 
ATOM     47  C   UNL A   1      40.751  30.471  34.906  1.00  0.00     0.049 A 
ATOM     48  C   UNL A   1      42.084  27.687  30.267  1.00  0.00     0.074 A 
ATOM     49  C   UNL A   1      41.544  30.256  36.021  1.00  0.00     0.029 A 
ATOM     50  N   UNL A   1      41.284  29.702  33.884  1.00  0.00    -0.354 N 
ATOM     51  N   UNL A   1      41.896  28.252  31.435  1.00  0.00    -0.248 NA
ATOM     52  C   UNL A   1      43.300  26.861  30.197  1.00  0.00     0.031 C 
ATOM     53  C   UNL A   1      42.590  29.404  35.657  1.00  0.00     0.029 A 
ATOM     54  C   UNL A   1      42.411  29.032  34.335  1.00  0.00     0.049 A 
ATOM     55  H   UNL A   1      40.916  29.639  32.973  1.00  0.00     0.167 HD
ATOM     56  C   UNL A   1      42.946  27.825  32.242  1.00  0.00     0.074 A 
ATOM     57  C   UNL A   1      43.761  26.942  31.438  1.00  0.00     0.031 C 
ATOM     58  C   UNL A   1      43.209  28.138  33.535  1.00  0.00     0.037 A 
BRANCH  45  59
ATOM     59  C   UNL A   1      39.161  32.110  35.979  1.00  0.00     0.064 A 
ATOM     60  C   UNL A   1      39.642  33.403  36.229  1.00  0.00     0.173 A 
ATOM     61  C   UNL A   1      38.234  31.568  36.883  1.00  0.00     0.173 A 
ATOM     62  F   UNL A   1      40.542  33.961  35.404  1.00  0.00    -0.203 F 
ATOM     63  C   UNL A   1      39.236  34.111  37.358  1.00  0.00     0.198 A 
ATOM     64  C   UNL A   1      37.806  32.291  37.992  1.00  0.00     0.198 A 
ATOM     65  F   UNL A   1      37.740  30.336  36.688  1.00  0.00    -0.203 F 
ATOM     66  F   UNL A   1      39.751  35.323  37.608  1.00  0.00    -0.200 F 
ATOM     67  C   UNL A   1      38.314  33.558  38.234  1.00  0.00     0.200 A 
ATOM     68  F   UNL A   1      36.906  31.758  38.829  1.00  0.00    -0.200 F 
ATOM     69  F   UNL A   1      37.923  34.241  39.319  1.00  0.00    -0.200 F 
ENDBRANCH  45  59
BRANCH  46  70
ATOM     70  C   UNL A   1      41.645  27.011  27.796  1.00  0.00     0.064 A 
ATOM     71  C   UNL A   1      41.303  25.661  27.626  1.00  0.00     0.173 A 
ATOM     72  C   UNL A   1      42.445  27.605  26.808  1.00  0.00     0.173 A 
ATOM     73  F   UNL A   1      40.574  25.031  28.559  1.00  0.00    -0.203 F 
ATOM     74  C   UNL A   1      41.766  24.931  26.531  1.00  0.00     0.198 A 
ATOM     75  C   UNL A   1      42.878  26.884  25.696  1.00  0.00     0.198 A 
ATOM     76  F   UNL A   1      42.818  28.887  26.928  1.00  0.00    -0.203 F 
ATOM     77  F   UNL A   1      41.479  23.626  26.429  1.00  0.00    -0.200 F 
ATOM     78  C   UNL A   1      42.547  25.545  25.564  1.00  0.00     0.200 A 
ATOM     79  F   UNL A   1      43.628  27.485  24.762  1.00  0.00    -0.200 F 
ATOM     80  F   UNL A   1      42.996  24.842  24.514  1.00  0.00    -0.200 F 
ENDBRANCH  46  70
BRANCH  58  81
ATOM     81  C   UNL A   1      44.397  27.486  34.189  1.00  0.00     0.064 A 
ATOM     82  C   UNL A   1      45.636  28.133  34.296  1.00  0.00     0.173 A 
ATOM     83  C   UNL A   1      44.275  26.211  34.767  1.00  0.00     0.173 A 
ATOM     84  F   UNL A   1      45.813  29.347  33.753  1.00  0.00    -0.203 F 
ATOM     85  C   UNL A   1      46.714  27.520  34.934  1.00  0.00     0.198 A 
ATOM     86  C   UNL A   1      45.343  25.616  35.432  1.00  0.00     0.198 A 
ATOM     87  F   UNL A   1      43.109  25.549  34.704  1.00  0.00    -0.203 F 
ATOM     88  F   UNL A   1      47.902  28.140  34.982  1.00  0.00    -0.200 F 
ATOM     89  C   UNL A   1      46.564  26.267  35.507  1.00  0.00     0.200 A 
ATOM     90  F   UNL A   1      45.190  24.412  36.002  1.00  0.00    -0.200 F 
ATOM     91  F   UNL A   1      47.599  25.685  36.130  1.00  0.00    -0.200 F 
ENDBRANCH  58  81
ENDBRANCH  32  33
ENDBRANCH  25  27
ENDBRANCH  24  25
ENDBRANCH  23  24
ENDBRANCH  22  23
ENDBRANCH  21  22
ENDBRANCH   1  21
TORSDOF 18
ENDMDL
MODEL 2
REMARK VINA RESULT:     -10.1      1.388      7.658
REMARK SMILES C[NH2+][C@]1(C(=O)OCCOCCOCCOC(=O)c2ccc(-c3c4nc(c(-c5c(F)c(F)c(F)c(F)c5F)c5ccc([nH]5)c(-c5c(F)c(F)c(F)c(F)c5F)c5nc(c(-c6c(F)c(F)c(F)c(F)c6F)c6ccc3[nH]6)C=C5)C=C4)cc2)CCCCC1(C)C
REMARK SMILES IDX 11 1 10 2 9 3 8 4 7 5 6 6 4 7 5 8 3 9 81 10 85 11 82 12
REMARK SMILES IDX 84 13 86 14 87 15 83 16 2 17 1 18 12 21 13 22 14 23 15 24
REMARK SMILES IDX 16 25 17 26 18 27 19 28 80 29 20 30 79 31 21 32 22 33 23 34
REMARK SMILES IDX 73 35 24 36 78 37 72 38 74 39 25 40 77 41 71 42 70 43 26 45
REMARK SMILES IDX 58 46 38 47 57 48 39 49 42 50 56 51 75 52 40 53 41 54 55 56
REMARK SMILES IDX 76 57 43 58 27 59 28 60 36 61 29 62 30 63 34 64 37 65 31 66
REMARK SMILES IDX 32 67 35 68 33 69 59 70 60 71 68 72 61 73 62 74 66 75 69 76
REMARK SMILES IDX 63 77 64 78 67 79 65 80 44 81 45 82 53 83 46 84 47 85 51 86
REMARK SMILES IDX 54 87 48 88 49 89 52 90 50 91
REMARK H PARENT 2 19 2 20 74 44 42 55
REMARK Flexibility Score: inf
ROOT
ATOM      1  C   UNL A   1      33.738  27.498  24.218  1.00  0.00     0.188 C 
ENDROOT
BRANCH   1   2
ATOM      2  C   UNL A   1      33.518  27.782  22.732  1.00  0.00     0.188 C 
BRANCH   2   3
ATOM      3  O   UNL A   1      33.711  26.707  21.830  1.00  0.00    -0.376 OA
BRANCH   3   4
ATOM      4  C   UNL A   1      32.538  25.991  21.462  1.00  0.00     0.202 C 
BRANCH   4   5
ATOM      5  C   UNL A   1      32.090  24.800  22.335  1.00  0.00     0.261 C 
BRANCH   5   6
ATOM      6  O   UNL A   1      32.936  24.402  23.446  1.00  0.00    -0.459 OA
BRANCH   6   7
ATOM      7  C   UNL A   1      33.803  23.382  23.178  1.00  0.00     0.368 C 
ATOM      8  O   UNL A   1      34.130  23.099  22.024  1.00  0.00    -0.245 OA
BRANCH   7   9
ATOM      9  C   UNL A   1      34.219  22.459  24.427  1.00  0.00     0.199 C 
ATOM     10  C   UNL A   1      35.699  22.051  24.086  1.00  0.00     0.082 C 
ATOM     11  C   UNL A   1      34.212  23.096  25.895  1.00  0.00     0.031 C 
ATOM     12  C   UNL A   1      36.675  23.229  24.192  1.00  0.00     0.007 C 
ATOM     13  C   UNL A   1      35.280  24.208  26.043  1.00  0.00     0.013 C 
ATOM     14  C   UNL A   1      32.840  23.667  26.323  1.00  0.00     0.018 C 
ATOM     15  C   UNL A   1      34.556  22.043  26.999  1.00  0.00     0.018 C 
ATOM     16  C   UNL A   1      36.682  23.818  25.589  1.00  0.00     0.001 C 
BRANCH   9  17
ATOM     17  N   UNL A   1      33.248  21.314  24.377  1.00  0.00    -0.334 N 
ATOM     18  C   UNL A   1      33.787  19.979  24.592  1.00  0.00     0.331 C 
ATOM     19  H   UNL A   1      32.541  21.479  25.093  1.00  0.00     0.347 HD
ATOM     20  H   UNL A   1      32.899  21.306  23.419  1.00  0.00     0.347 HD
ENDBRANCH   9  17
ENDBRANCH   7   9
ENDBRANCH   6   7
ENDBRANCH   5   6
ENDBRANCH   4   5
ENDBRANCH   3   4
ENDBRANCH   2   3
ENDBRANCH   1   2
BRANCH   1  21
ATOM     21  O   UNL A   1      32.898  28.182  25.132  1.00  0.00    -0.376 OA
BRANCH  21  22
ATOM     22  C   UNL A   1      32.606  29.546  24.814  1.00  0.00     0.202 C 
BRANCH  22  23
ATOM     23  C   UNL A   1      31.870  30.393  25.880  1.00  0.00     0.261 C 
BRANCH  23  24
ATOM     24  O   UNL A   1      32.557  30.585  27.141  1.00  0.00    -0.460 OA
BRANCH  24  25
ATOM     25  C   UNL A   1      33.259  31.729  27.302  1.00  0.00     0.338 C 
ATOM     26  O   UNL A   1      32.815  32.863  27.198  1.00  0.00    -0.246 OA
BRANCH  25  27
ATOM     27  C   UNL A   1      34.594  31.419  27.895  1.00  0.00     0.060 A 
ATOM     28  C   UNL A   1      34.849  30.084  28.237  1.00  0.00     0.016 A 
ATOM     29  C   UNL A   1      35.598  32.372  28.090  1.00  0.00     0.016 A 
ATOM     30  C   UNL A   1      36.077  29.697  28.787  1.00  0.00     0.010 A 
ATOM     31  C   UNL A   1      36.822  31.990  28.675  1.00  0.00     0.010 A 
ATOM     32  C   UNL A   1      37.064  30.652  29.050  1.00  0.00    -0.014 A 
BRANCH  32  33
ATOM     33  C   UNL A   1      38.233  30.286  29.903  1.00  0.00     0.031 A 
ATOM     34  C   UNL A   1      39.265  29.345  29.334  1.00  0.00     0.074 A 
ATOM     35  C   UNL A   1      38.446  30.823  31.121  1.00  0.00     0.049 A 
ATOM     36  N   UNL A   1      40.319  28.811  29.899  1.00  0.00    -0.248 NA
ATOM     37  C   UNL A   1      39.084  28.968  27.924  1.00  0.00     0.031 C 
ATOM     38  C   UNL A   1      37.608  31.832  31.763  1.00  0.00     0.029 A 
ATOM     39  N   UNL A   1      39.446  30.587  32.038  1.00  0.00    -0.354 N 
ATOM     40  C   UNL A   1      40.914  28.023  28.923  1.00  0.00     0.074 A 
ATOM     41  C   UNL A   1      40.098  28.139  27.733  1.00  0.00     0.031 C 
ATOM     42  C   UNL A   1      38.120  32.118  32.974  1.00  0.00     0.029 A 
ATOM     43  C   UNL A   1      39.293  31.278  33.218  1.00  0.00     0.049 A 
ATOM     44  H   UNL A   1      40.203  29.981  31.865  1.00  0.00     0.167 HD
ATOM     45  C   UNL A   1      42.038  27.270  29.003  1.00  0.00     0.037 A 
ATOM     46  C   UNL A   1      39.992  31.209  34.371  1.00  0.00     0.037 A 
ATOM     47  C   UNL A   1      42.859  27.152  30.180  1.00  0.00     0.049 A 
ATOM     48  C   UNL A   1      41.170  30.267  34.481  1.00  0.00     0.074 A 
ATOM     49  C   UNL A   1      44.001  26.392  30.362  1.00  0.00     0.029 A 
ATOM     50  N   UNL A   1      42.625  27.812  31.376  1.00  0.00    -0.354 N 
ATOM     51  N   UNL A   1      41.704  29.495  33.567  1.00  0.00    -0.248 NA
ATOM     52  C   UNL A   1      41.838  30.183  35.790  1.00  0.00     0.031 C 
ATOM     53  C   UNL A   1      44.424  26.545  31.686  1.00  0.00     0.029 A 
ATOM     54  C   UNL A   1      43.586  27.454  32.309  1.00  0.00     0.049 A 
ATOM     55  H   UNL A   1      41.886  28.442  31.539  1.00  0.00     0.167 HD
ATOM     56  C   UNL A   1      42.783  28.863  34.178  1.00  0.00     0.074 A 
ATOM     57  C   UNL A   1      42.839  29.351  35.538  1.00  0.00     0.031 C 
ATOM     58  C   UNL A   1      43.649  27.958  33.657  1.00  0.00     0.037 A 
BRANCH  45  59
ATOM     59  C   UNL A   1      42.414  26.463  27.795  1.00  0.00     0.064 A 
ATOM     60  C   UNL A   1      43.368  26.908  26.869  1.00  0.00     0.173 A 
ATOM     61  C   UNL A   1      41.817  25.212  27.571  1.00  0.00     0.173 A 
ATOM     62  F   UNL A   1      43.957  28.104  27.028  1.00  0.00    -0.203 F 
ATOM     63  C   UNL A   1      43.688  26.145  25.748  1.00  0.00     0.198 A 
ATOM     64  C   UNL A   1      42.163  24.438  26.467  1.00  0.00     0.198 A 
ATOM     65  F   UNL A   1      40.900  24.736  28.428  1.00  0.00    -0.203 F 
ATOM     66  F   UNL A   1      44.561  26.616  24.846  1.00  0.00    -0.200 F 
ATOM     67  C   UNL A   1      43.090  24.909  25.552  1.00  0.00     0.200 A 
ATOM     68  F   UNL A   1      41.592  23.239  26.288  1.00  0.00    -0.200 F 
ATOM     69  F   UNL A   1      43.400  24.176  24.473  1.00  0.00    -0.200 F 
ENDBRANCH  45  59
BRANCH  46  70
ATOM     70  C   UNL A   1      39.575  32.014  35.556  1.00  0.00     0.064 A 
ATOM     71  C   UNL A   1      38.596  31.550  36.448  1.00  0.00     0.173 A 
ATOM     72  C   UNL A   1      40.098  33.296  35.781  1.00  0.00     0.173 A 
ATOM     73  F   UNL A   1      38.031  30.349  36.257  1.00  0.00    -0.203 F 
ATOM     74  C   UNL A   1      38.141  32.346  37.499  1.00  0.00     0.198 A 
ATOM     75  C   UNL A   1      39.669  34.077  36.854  1.00  0.00     0.198 A 
ATOM     76  F   UNL A   1      41.024  33.799  34.951  1.00  0.00    -0.203 F 
ATOM     77  F   UNL A   1      37.157  31.904  38.294  1.00  0.00    -0.200 F 
ATOM     78  C   UNL A   1      38.682  33.606  37.705  1.00  0.00     0.200 A 
ATOM     79  F   UNL A   1      40.200  35.291  37.051  1.00  0.00    -0.200 F 
ATOM     80  F   UNL A   1      38.242  34.372  38.713  1.00  0.00    -0.200 F 
ENDBRANCH  46  70
BRANCH  58  81
ATOM     81  C   UNL A   1      44.769  27.471  34.535  1.00  0.00     0.064 A 
ATOM     82  C   UNL A   1      44.655  26.306  35.308  1.00  0.00     0.173 A 
ATOM     83  C   UNL A   1      45.997  28.152  34.560  1.00  0.00     0.173 A 
ATOM     84  F   UNL A   1      43.503  25.621  35.331  1.00  0.00    -0.203 F 
ATOM     85  C   UNL A   1      45.718  25.857  36.091  1.00  0.00     0.198 A 
ATOM     86  C   UNL A   1      47.067  27.683  35.317  1.00  0.00     0.198 A 
ATOM     87  F   UNL A   1      46.166  29.268  33.833  1.00  0.00    -0.203 F 
ATOM     88  F   UNL A   1      45.570  24.767  36.857  1.00  0.00    -0.200 F 
ATOM     89  C   UNL A   1      46.924  26.540  36.088  1.00  0.00     0.200 A 
ATOM     90  F   UNL A   1      48.238  28.335  35.298  1.00  0.00    -0.200 F 
ATOM     91  F   UNL A   1      47.949  26.100  36.832  1.00  0.00    -0.200 F 
ENDBRANCH  58  81
ENDBRANCH  32  33
ENDBRANCH  25  27
ENDBRANCH  24  25
ENDBRANCH  23  24
ENDBRANCH  22  23
ENDBRANCH  21  22
ENDBRANCH   1  21
TORSDOF 18
ENDMDL
MODEL 3
REMARK VINA RESULT:     -10.1      0.913      2.108
REMARK SMILES C[NH2+][C@]1(C(=O)OCCOCCOCCOC(=O)c2ccc(-c3c4nc(c(-c5c(F)c(F)c(F)c(F)c5F)c5ccc([nH]5)c(-c5c(F)c(F)c(F)c(F)c5F)c5nc(c(-c6c(F)c(F)c(F)c(F)c6F)c6ccc3[nH]6)C=C5)C=C4)cc2)CCCCC1(C)C
REMARK SMILES IDX 11 1 10 2 9 3 8 4 7 5 6 6 4 7 5 8 3 9 81 10 85 11 82 12
REMARK SMILES IDX 84 13 86 14 87 15 83 16 2 17 1 18 12 21 13 22 14 23 15 24
REMARK SMILES IDX 16 25 17 26 18 27 19 28 80 29 20 30 79 31 21 32 22 33 23 34
REMARK SMILES IDX 73 35 24 36 78 37 72 38 74 39 25 40 77 41 71 42 70 43 26 45
REMARK SMILES IDX 58 46 38 47 57 48 39 49 42 50 56 51 75 52 40 53 41 54 55 56
REMARK SMILES IDX 76 57 43 58 27 59 28 60 36 61 29 62 30 63 34 64 37 65 31 66
REMARK SMILES IDX 32 67 35 68 33 69 59 70 60 71 68 72 61 73 62 74 66 75 69 76
REMARK SMILES IDX 63 77 64 78 67 79 65 80 44 81 45 82 53 83 46 84 47 85 51 86
REMARK SMILES IDX 54 87 48 88 49 89 52 90 50 91
REMARK H PARENT 2 19 2 20 74 44 42 55
REMARK Flexibility Score: inf
ROOT
ATOM      1  C   UNL A   1      32.917  29.591  27.247  1.00  0.00     0.188 C 
ENDROOT
BRANCH   1   2
ATOM      2  C   UNL A   1      32.955  28.224  26.563  1.00  0.00     0.188 C 
BRANCH   2   3
ATOM      3  O   UNL A   1      31.936  27.939  25.623  1.00  0.00    -0.376 OA
BRANCH   3   4
ATOM      4  C   UNL A   1      32.273  28.163  24.258  1.00  0.00     0.202 C 
BRANCH   4   5
ATOM      5  C   UNL A   1      33.372  27.292  23.613  1.00  0.00     0.261 C 
BRANCH   5   6
ATOM      6  O   UNL A   1      33.697  26.020  24.233  1.00  0.00    -0.459 OA
BRANCH   6   7
ATOM      7  C   UNL A   1      33.887  24.984  23.364  1.00  0.00     0.368 C 
ATOM      8  O   UNL A   1      33.896  25.157  22.144  1.00  0.00    -0.245 OA
BRANCH   7   9
ATOM      9  C   UNL A   1      33.905  23.512  24.010  1.00  0.00     0.199 C 
ATOM     10  C   UNL A   1      35.033  22.782  23.193  1.00  0.00     0.082 C 
ATOM     11  C   UNL A   1      34.247  23.355  25.566  1.00  0.00     0.031 C 
ATOM     12  C   UNL A   1      36.435  23.315  23.516  1.00  0.00     0.007 C 
ATOM     13  C   UNL A   1      35.704  23.780  25.878  1.00  0.00     0.013 C 
ATOM     14  C   UNL A   1      33.293  24.135  26.498  1.00  0.00     0.018 C 
ATOM     15  C   UNL A   1      34.138  21.871  26.050  1.00  0.00     0.018 C 
ATOM     16  C   UNL A   1      36.765  23.146  24.986  1.00  0.00     0.001 C 
BRANCH   9  17
ATOM     17  N   UNL A   1      32.526  22.978  23.748  1.00  0.00    -0.334 N 
ATOM     18  C   UNL A   1      32.417  21.830  22.860  1.00  0.00     0.331 C 
ATOM     19  H   UNL A   1      32.124  22.711  24.647  1.00  0.00     0.347 HD
ATOM     20  H   UNL A   1      32.038  23.733  23.265  1.00  0.00     0.347 HD
ENDBRANCH   9  17
ENDBRANCH   7   9
ENDBRANCH   6   7
ENDBRANCH   5   6
ENDBRANCH   4   5
ENDBRANCH   3   4
ENDBRANCH   2   3
ENDBRANCH   1   2
BRANCH   1  21
ATOM     21  O   UNL A   1      32.785  30.724  26.406  1.00  0.00    -0.376 OA
BRANCH  21  22
ATOM     22  C   UNL A   1      31.687  31.593  26.695  1.00  0.00     0.202 C 
BRANCH  22  23
ATOM     23  C   UNL A   1      31.990  33.098  26.890  1.00  0.00     0.261 C 
BRANCH  23  24
ATOM     24  O   UNL A   1      32.389  33.510  28.221  1.00  0.00    -0.460 OA
BRANCH  24  25
ATOM     25  C   UNL A   1      33.463  34.324  28.327  1.00  0.00     0.338 C 
ATOM     26  O   UNL A   1      33.438  35.545  28.345  1.00  0.00    -0.246 OA
BRANCH  25  27
ATOM     27  C   UNL A   1      34.667  33.520  28.695  1.00  0.00     0.060 A 
ATOM     28  C   UNL A   1      34.447  32.233  29.205  1.00  0.00     0.016 A 
ATOM     29  C   UNL A   1      35.981  33.966  28.526  1.00  0.00     0.016 A 
ATOM     30  C   UNL A   1      35.515  31.403  29.564  1.00  0.00     0.010 A 
ATOM     31  C   UNL A   1      37.055  33.145  28.919  1.00  0.00     0.010 A 
ATOM     32  C   UNL A   1      36.831  31.864  29.464  1.00  0.00    -0.014 A 
BRANCH  32  33
ATOM     33  C   UNL A   1      37.930  31.099  30.125  1.00  0.00     0.031 A 
ATOM     34  C   UNL A   1      38.201  31.357  31.585  1.00  0.00     0.074 A 
ATOM     35  C   UNL A   1      38.630  30.134  29.496  1.00  0.00     0.049 A 
ATOM     36  N   UNL A   1      39.146  30.889  32.361  1.00  0.00    -0.248 NA
ATOM     37  C   UNL A   1      37.261  32.262  32.264  1.00  0.00     0.031 C 
ATOM     38  C   UNL A   1      38.413  29.684  28.124  1.00  0.00     0.029 A 
ATOM     39  N   UNL A   1      39.676  29.355  29.941  1.00  0.00    -0.354 N 
ATOM     40  C   UNL A   1      38.926  31.455  33.610  1.00  0.00     0.074 A 
ATOM     41  C   UNL A   1      37.765  32.311  33.487  1.00  0.00     0.031 C 
ATOM     42  C   UNL A   1      39.306  28.720  27.834  1.00  0.00     0.029 A 
ATOM     43  C   UNL A   1      40.192  28.516  28.982  1.00  0.00     0.049 A 
ATOM     44  H   UNL A   1      40.021  29.394  30.863  1.00  0.00     0.167 HD
ATOM     45  C   UNL A   1      39.623  31.281  34.760  1.00  0.00     0.037 A 
ATOM     46  C   UNL A   1      41.276  27.711  29.012  1.00  0.00     0.037 A 
ATOM     47  C   UNL A   1      40.775  30.428  34.895  1.00  0.00     0.049 A 
ATOM     48  C   UNL A   1      42.114  27.627  30.268  1.00  0.00     0.074 A 
ATOM     49  C   UNL A   1      41.561  30.211  36.014  1.00  0.00     0.029 A 
ATOM     50  N   UNL A   1      41.308  29.653  33.877  1.00  0.00    -0.354 N 
ATOM     51  N   UNL A   1      41.924  28.195  31.433  1.00  0.00    -0.248 NA
ATOM     52  C   UNL A   1      43.326  26.793  30.206  1.00  0.00     0.031 C 
ATOM     53  C   UNL A   1      42.604  29.351  35.657  1.00  0.00     0.029 A 
ATOM     54  C   UNL A   1      42.429  28.978  34.335  1.00  0.00     0.049 A 
ATOM     55  H   UNL A   1      40.945  29.591  32.964  1.00  0.00     0.167 HD
ATOM     56  C   UNL A   1      42.967  27.763  32.247  1.00  0.00     0.074 A 
ATOM     57  C   UNL A   1      43.781  26.874  31.449  1.00  0.00     0.031 C 
ATOM     58  C   UNL A   1      43.226  28.077  33.540  1.00  0.00     0.037 A 
BRANCH  45  59
ATOM     59  C   UNL A   1      39.190  32.079  35.956  1.00  0.00     0.064 A 
ATOM     60  C   UNL A   1      38.295  31.569  36.907  1.00  0.00     0.173 A 
ATOM     61  C   UNL A   1      39.696  33.373  36.157  1.00  0.00     0.173 A 
ATOM     62  F   UNL A   1      37.770  30.344  36.752  1.00  0.00    -0.203 F 
ATOM     63  C   UNL A   1      37.898  32.338  38.000  1.00  0.00     0.198 A 
ATOM     64  C   UNL A   1      39.322  34.125  37.268  1.00  0.00     0.198 A 
ATOM     65  F   UNL A   1      40.559  33.907  35.279  1.00  0.00    -0.203 F 
ATOM     66  F   UNL A   1      36.999  31.852  38.867  1.00  0.00    -0.200 F 
ATOM     67  C   UNL A   1      38.417  33.611  38.182  1.00  0.00     0.200 A 
ATOM     68  F   UNL A   1      39.836  35.350  37.447  1.00  0.00    -0.200 F 
ATOM     69  F   UNL A   1      38.035  34.348  39.235  1.00  0.00    -0.200 F 
ENDBRANCH  45  59
BRANCH  46  70
ATOM     70  C   UNL A   1      41.684  26.948  27.796  1.00  0.00     0.064 A 
ATOM     71  C   UNL A   1      41.427  25.574  27.674  1.00  0.00     0.173 A 
ATOM     72  C   UNL A   1      42.403  27.566  26.761  1.00  0.00     0.173 A 
ATOM     73  F   UNL A   1      40.780  24.924  28.651  1.00  0.00    -0.203 F 
ATOM     74  C   UNL A   1      41.894  24.847  26.579  1.00  0.00     0.198 A 
ATOM     75  C   UNL A   1      42.839  26.846  25.650  1.00  0.00     0.198 A 
ATOM     76  F   UNL A   1      42.693  28.873  26.833  1.00  0.00    -0.203 F 
ATOM     77  F   UNL A   1      41.693  23.523  26.522  1.00  0.00    -0.200 F 
ATOM     78  C   UNL A   1      42.594  25.484  25.566  1.00  0.00     0.200 A 
ATOM     79  F   UNL A   1      43.510  27.468  24.672  1.00  0.00    -0.200 F 
ATOM     80  F   UNL A   1      43.047  24.784  24.516  1.00  0.00    -0.200 F 
ENDBRANCH  46  70
BRANCH  58  81
ATOM     81  C   UNL A   1      44.405  27.418  34.202  1.00  0.00     0.064 A 
ATOM     82  C   UNL A   1      44.314  26.149  34.792  1.00  0.00     0.173 A 
ATOM     83  C   UNL A   1      45.662  28.046  34.197  1.00  0.00     0.173 A 
ATOM     84  F   UNL A   1      43.136  25.508  34.835  1.00  0.00    -0.203 F 
ATOM     85  C   UNL A   1      45.428  25.545  35.374  1.00  0.00     0.198 A 
ATOM     86  C   UNL A   1      46.780  27.426  34.749  1.00  0.00     0.198 A 
ATOM     87  F   UNL A   1      45.811  29.257  33.638  1.00  0.00    -0.203 F 
ATOM     88  F   UNL A   1      45.305  24.352  35.973  1.00  0.00    -0.200 F 
ATOM     89  C   UNL A   1      46.660  26.180  35.344  1.00  0.00     0.200 A 
ATOM     90  F   UNL A   1      47.974  28.033  34.703  1.00  0.00    -0.200 F 
ATOM     91  F   UNL A   1      47.732  25.592  35.893  1.00  0.00    -0.200 F 
ENDBRANCH  58  81
ENDBRANCH  32  33
ENDBRANCH  25  27
ENDBRANCH  24  25
ENDBRANCH  23  24
ENDBRANCH  22  23
ENDBRANCH  21  22
ENDBRANCH   1  21
TORSDOF 18
ENDMDL
