MODEL 1
REMARK VINA RESULT:      -9.9      0.000      0.000
REMARK SMILES CC1(C)CC[C@@]2(C(=O)OCCOCCOCCOC(=O)c3ccc(-c4c5nc(c(-c6c(F)c(F)c(F)c(F)c6F)c6ccc([nH]6)c(-c6c(F)c(F)c(F)c(F)c6F)c6nc(c(-c7c(F)c(F)c(F)c(F)c7F)c7ccc4[nH]7)C=C6)C=C5)cc3)CC[C@@]3(C)C(=CC[C@H]4[C@@]5(C)CC[C@H](O)C(C)(C)[C@@H]5CC[C@]43C)[C@@H]2C1
REMARK SMILES IDX 14 1 13 2 12 3 11 4 10 5 9 6 7 7 8 8 6 9 1 10 2 11 3 12 4 13
REMARK SMILES IDX 107 14 5 15 106 16 88 17 84 18 86 19 89 20 85 21 87 22
REMARK SMILES IDX 104 23 90 24 91 25 103 26 105 27 92 28 102 29 93 30 94 31
REMARK SMILES IDX 101 32 95 33 98 34 96 35 99 36 100 37 97 38 15 40 16 41
REMARK SMILES IDX 17 42 18 43 19 44 20 45 21 46 22 47 83 48 23 49 82 50 24 51
REMARK SMILES IDX 25 52 26 53 76 54 27 55 81 56 75 57 77 58 28 59 80 60 74 61
REMARK SMILES IDX 73 62 29 64 61 65 41 66 60 67 42 68 45 69 59 70 78 71 43 72
REMARK SMILES IDX 44 73 58 75 79 76 46 77 30 78 31 79 39 80 32 81 33 82 37 83
REMARK SMILES IDX 40 84 34 85 35 86 38 87 36 88 62 89 63 90 71 91 64 92 65 93
REMARK SMILES IDX 69 94 72 95 66 96 67 97 70 98 68 99 47 100 48 101 56 102
REMARK SMILES IDX 49 103 50 104 54 105 57 106 51 107 52 108 55 109 53 110
REMARK H PARENT 97 39 77 63 45 74
REMARK Flexibility Score: inf
ROOT
ATOM      1  C   UNL A   1      46.517  23.894  25.059  1.00  0.00     0.188 C 
ENDROOT
BRANCH   1   2
ATOM      2  C   UNL A   1      46.069  25.262  25.576  1.00  0.00     0.188 C 
BRANCH   2   3
ATOM      3  O   UNL A   1      46.344  26.323  24.641  1.00  0.00    -0.376 OA
BRANCH   3   4
ATOM      4  C   UNL A   1      46.244  27.673  25.124  1.00  0.00     0.202 C 
BRANCH   4   5
ATOM      5  C   UNL A   1      47.571  28.289  25.533  1.00  0.00     0.261 C 
BRANCH   5   6
ATOM      6  O   UNL A   1      48.546  27.334  25.472  1.00  0.00    -0.463 OA
BRANCH   6   7
ATOM      7  C   UNL A   1      49.703  27.742  25.960  1.00  0.00     0.312 C 
ATOM      8  O   UNL A   1      49.930  28.890  26.325  1.00  0.00    -0.252 OA
BRANCH   7   9
ATOM      9  C   UNL A   1      50.679  26.679  25.792  1.00  0.00     0.075 C 
ATOM     10  C   UNL A   1      53.818  29.102  23.721  1.00  0.00     0.011 C 
ATOM     11  C   UNL A   1      52.573  28.953  24.647  1.00  0.00    -0.035 C 
ATOM     12  C   UNL A   1      52.282  30.483  24.923  1.00  0.00     0.011 C 
ATOM     13  C   UNL A   1      51.532  28.210  23.722  1.00  0.00     0.007 C 
ATOM     14  C   UNL A   1      52.812  28.192  26.090  1.00  0.00     0.015 C 
ATOM     15  C   UNL A   1      51.076  26.792  24.252  1.00  0.00     0.020 C 
ATOM     16  C   UNL A   1      51.698  27.147  26.852  1.00  0.00     0.033 C 
ATOM     17  C   UNL A   1      50.796  27.560  28.275  1.00  0.00    -0.063 C 
ATOM     18  C   UNL A   1      49.906  25.417  26.265  1.00  0.00     0.020 C 
ATOM     19  C   UNL A   1      49.413  26.769  28.770  1.00  0.00    -0.006 C 
ATOM     20  C   UNL A   1      51.043  28.750  28.855  1.00  0.00    -0.027 C 
ATOM     21  C   UNL A   1      48.981  25.603  27.606  1.00  0.00     0.013 C 
ATOM     22  C   UNL A   1      50.022  25.648  29.756  1.00  0.00     0.017 C 
ATOM     23  C   UNL A   1      48.265  27.985  29.732  1.00  0.00    -0.020 C 
ATOM     24  C   UNL A   1      50.092  29.811  29.408  1.00  0.00     0.032 C 
ATOM     25  C   UNL A   1      48.561  29.589  29.498  1.00  0.00     0.006 C 
ATOM     26  C   UNL A   1      46.626  28.116  30.274  1.00  0.00     0.008 C 
ATOM     27  C   UNL A   1      48.838  27.624  31.198  1.00  0.00     0.012 C 
ATOM     28  C   UNL A   1      47.415  30.870  28.929  1.00  0.00    -0.025 C 
ATOM     29  C   UNL A   1      45.626  29.487  30.004  1.00  0.00     0.005 C 
ATOM     30  C   UNL A   1      47.420  32.009  29.976  1.00  0.00     0.012 C 
ATOM     31  C   UNL A   1      47.862  31.646  27.675  1.00  0.00     0.010 C 
ATOM     32  C   UNL A   1      45.939  30.374  28.750  1.00  0.00     0.003 C 
ATOM     33  C   UNL A   1      46.955  32.323  26.651  1.00  0.00     0.033 C 
ATOM     34  C   UNL A   1      44.878  31.342  27.747  1.00  0.00    -0.006 C 
ATOM     35  C   UNL A   1      45.658  31.581  26.406  1.00  0.00     0.120 C 
ATOM     36  C   UNL A   1      44.405  32.749  28.199  1.00  0.00     0.014 C 
ATOM     37  C   UNL A   1      43.558  30.660  27.271  1.00  0.00     0.014 C 
BRANCH  35  38
ATOM     38  O   UNL A   1      44.906  32.238  25.376  1.00  0.00    -0.393 OA
ATOM     39  H   UNL A   1      44.886  33.192  25.549  1.00  0.00     0.210 HD
ENDBRANCH  35  38
ENDBRANCH   7   9
ENDBRANCH   6   7
ENDBRANCH   5   6
ENDBRANCH   4   5
ENDBRANCH   3   4
ENDBRANCH   2   3
ENDBRANCH   1   2
BRANCH   1  40
ATOM     40  O   UNL A   1      45.534  22.862  25.079  1.00  0.00    -0.376 OA
BRANCH  40  41
ATOM     41  C   UNL A   1      45.211  22.384  26.343  1.00  0.00     0.202 C 
BRANCH  41  42
ATOM     42  C   UNL A   1      44.097  22.964  27.143  1.00  0.00     0.261 C 
BRANCH  42  43
ATOM     43  O   UNL A   1      42.854  23.009  26.454  1.00  0.00    -0.460 OA
BRANCH  43  44
ATOM     44  C   UNL A   1      42.596  24.120  25.726  1.00  0.00     0.338 C 
ATOM     45  O   UNL A   1      42.912  24.309  24.566  1.00  0.00    -0.246 OA
BRANCH  44  46
ATOM     46  C   UNL A   1      42.118  25.187  26.580  1.00  0.00     0.060 A 
ATOM     47  C   UNL A   1      42.614  26.489  26.435  1.00  0.00     0.016 A 
ATOM     48  C   UNL A   1      41.019  24.873  27.370  1.00  0.00     0.016 A 
ATOM     49  C   UNL A   1      41.946  27.533  26.998  1.00  0.00     0.010 A 
ATOM     50  C   UNL A   1      40.482  25.883  28.117  1.00  0.00     0.010 A 
ATOM     51  C   UNL A   1      40.993  27.177  27.937  1.00  0.00    -0.014 A 
BRANCH  51  52
ATOM     52  C   UNL A   1      40.839  28.112  29.021  1.00  0.00     0.031 A 
ATOM     53  C   UNL A   1      41.740  27.900  30.188  1.00  0.00     0.074 A 
ATOM     54  C   UNL A   1      39.893  29.034  28.870  1.00  0.00     0.049 A 
ATOM     55  N   UNL A   1      41.694  28.458  31.359  1.00  0.00    -0.248 NA
ATOM     56  C   UNL A   1      42.836  26.917  30.033  1.00  0.00     0.031 C 
ATOM     57  C   UNL A   1      39.093  29.232  27.658  1.00  0.00     0.029 A 
ATOM     58  N   UNL A   1      39.420  29.933  29.759  1.00  0.00    -0.354 N 
ATOM     59  C   UNL A   1      42.736  27.887  32.074  1.00  0.00     0.074 A 
ATOM     60  C   UNL A   1      43.400  26.934  31.227  1.00  0.00     0.031 C 
ATOM     61  C   UNL A   1      38.169  30.170  27.909  1.00  0.00     0.029 A 
ATOM     62  C   UNL A   1      38.306  30.579  29.301  1.00  0.00     0.049 A 
ATOM     63  H   UNL A   1      39.830  30.105  30.638  1.00  0.00     0.167 HD
ATOM     64  C   UNL A   1      43.069  28.155  33.352  1.00  0.00     0.037 A 
ATOM     65  C   UNL A   1      37.478  31.363  29.999  1.00  0.00     0.037 A 
ATOM     66  C   UNL A   1      42.302  29.080  34.137  1.00  0.00     0.049 A 
ATOM     67  C   UNL A   1      37.830  31.582  31.442  1.00  0.00     0.074 A 
ATOM     68  C   UNL A   1      42.475  29.461  35.448  1.00  0.00     0.029 A 
ATOM     69  N   UNL A   1      41.182  29.758  33.654  1.00  0.00    -0.354 N 
ATOM     70  N   UNL A   1      38.818  31.065  32.142  1.00  0.00    -0.248 NA
ATOM     71  C   UNL A   1      36.968  32.493  32.190  1.00  0.00     0.031 C 
ATOM     72  C   UNL A   1      41.423  30.325  35.775  1.00  0.00     0.029 A 
ATOM     73  C   UNL A   1      40.636  30.541  34.649  1.00  0.00     0.049 A 
ATOM     74  H   UNL A   1      40.832  29.688  32.737  1.00  0.00     0.167 HD
ATOM     75  C   UNL A   1      38.721  31.614  33.409  1.00  0.00     0.074 A 
ATOM     76  C   UNL A   1      37.580  32.515  33.365  1.00  0.00     0.031 C 
ATOM     77  C   UNL A   1      39.487  31.408  34.513  1.00  0.00     0.037 A 
BRANCH  64  78
ATOM     78  C   UNL A   1      44.221  27.401  33.941  1.00  0.00     0.064 A 
ATOM     79  C   UNL A   1      44.050  26.163  34.584  1.00  0.00     0.173 A 
ATOM     80  C   UNL A   1      45.515  27.939  33.900  1.00  0.00     0.173 A 
ATOM     81  F   UNL A   1      42.827  25.620  34.689  1.00  0.00    -0.203 F 
ATOM     82  C   UNL A   1      45.125  25.504  35.175  1.00  0.00     0.198 A 
ATOM     83  C   UNL A   1      46.593  27.263  34.464  1.00  0.00     0.198 A 
ATOM     84  F   UNL A   1      45.734  29.130  33.324  1.00  0.00    -0.203 F 
ATOM     85  F   UNL A   1      44.926  24.352  35.830  1.00  0.00    -0.200 F 
ATOM     86  C   UNL A   1      46.398  26.050  35.106  1.00  0.00     0.200 A 
ATOM     87  F   UNL A   1      47.824  27.791  34.395  1.00  0.00    -0.200 F 
ATOM     88  F   UNL A   1      47.434  25.412  35.669  1.00  0.00    -0.200 F 
ENDBRANCH  64  78
BRANCH  65  89
ATOM     89  C   UNL A   1      36.303  31.963  29.335  1.00  0.00     0.064 A 
ATOM     90  C   UNL A   1      36.267  33.335  29.064  1.00  0.00     0.173 A 
ATOM     91  C   UNL A   1      35.221  31.181  28.901  1.00  0.00     0.173 A 
ATOM     92  F   UNL A   1      37.289  34.117  29.444  1.00  0.00    -0.203 F 
ATOM     93  C   UNL A   1      35.177  33.912  28.420  1.00  0.00     0.198 A 
ATOM     94  C   UNL A   1      34.145  31.754  28.228  1.00  0.00     0.198 A 
ATOM     95  F   UNL A   1      35.224  29.854  29.100  1.00  0.00    -0.203 F 
ATOM     96  F   UNL A   1      35.152  35.235  28.211  1.00  0.00    -0.200 F 
ATOM     97  C   UNL A   1      34.119  33.120  28.000  1.00  0.00     0.200 A 
ATOM     98  F   UNL A   1      33.139  30.981  27.794  1.00  0.00    -0.200 F 
ATOM     99  F   UNL A   1      33.072  33.677  27.375  1.00  0.00    -0.200 F 
ENDBRANCH  65  89
BRANCH  77 100
ATOM    100  C   UNL A   1      39.115  32.207  35.721  1.00  0.00     0.064 A 
ATOM    101  C   UNL A   1      38.295  31.679  36.727  1.00  0.00     0.173 A 
ATOM    102  C   UNL A   1      39.620  33.505  35.884  1.00  0.00     0.173 A 
ATOM    103  F   UNL A   1      37.779  30.447  36.602  1.00  0.00    -0.203 F 
ATOM    104  C   UNL A   1      37.957  32.442  37.837  1.00  0.00     0.198 A 
ATOM    105  C   UNL A   1      39.318  34.247  37.018  1.00  0.00     0.198 A 
ATOM    106  F   UNL A   1      40.420  34.044  34.950  1.00  0.00    -0.203 F 
ATOM    107  F   UNL A   1      37.113  31.949  38.753  1.00  0.00    -0.200 F 
ATOM    108  C   UNL A   1      38.478  33.720  37.986  1.00  0.00     0.200 A 
ATOM    109  F   UNL A   1      39.839  35.472  37.172  1.00  0.00    -0.200 F 
ATOM    110  F   UNL A   1      38.158  34.450  39.063  1.00  0.00    -0.200 F 
ENDBRANCH  77 100
ENDBRANCH  51  52
ENDBRANCH  44  46
ENDBRANCH  43  44
ENDBRANCH  42  43
ENDBRANCH  41  42
ENDBRANCH  40  41
ENDBRANCH   1  40
TORSDOF 18
ENDMDL
MODEL 2
REMARK VINA RESULT:      -9.8      5.090     11.187
REMARK SMILES CC1(C)CC[C@@]2(C(=O)OCCOCCOCCOC(=O)c3ccc(-c4c5nc(c(-c6c(F)c(F)c(F)c(F)c6F)c6ccc([nH]6)c(-c6c(F)c(F)c(F)c(F)c6F)c6nc(c(-c7c(F)c(F)c(F)c(F)c7F)c7ccc4[nH]7)C=C6)C=C5)cc3)CC[C@@]3(C)C(=CC[C@H]4[C@@]5(C)CC[C@H](O)C(C)(C)[C@@H]5CC[C@]43C)[C@@H]2C1
REMARK SMILES IDX 14 1 13 2 12 3 11 4 10 5 9 6 7 7 8 8 6 9 1 10 2 11 3 12 4 13
REMARK SMILES IDX 107 14 5 15 106 16 88 17 84 18 86 19 89 20 85 21 87 22
REMARK SMILES IDX 104 23 90 24 91 25 103 26 105 27 92 28 102 29 93 30 94 31
REMARK SMILES IDX 101 32 95 33 98 34 96 35 99 36 100 37 97 38 15 40 16 41
REMARK SMILES IDX 17 42 18 43 19 44 20 45 21 46 22 47 83 48 23 49 82 50 24 51
REMARK SMILES IDX 25 52 26 53 76 54 27 55 81 56 75 57 77 58 28 59 80 60 74 61
REMARK SMILES IDX 73 62 29 64 61 65 41 66 60 67 42 68 45 69 59 70 78 71 43 72
REMARK SMILES IDX 44 73 58 75 79 76 46 77 30 78 31 79 39 80 32 81 33 82 37 83
REMARK SMILES IDX 40 84 34 85 35 86 38 87 36 88 62 89 63 90 71 91 64 92 65 93
REMARK SMILES IDX 69 94 72 95 66 96 67 97 70 98 68 99 47 100 48 101 56 102
REMARK SMILES IDX 49 103 50 104 54 105 57 106 51 107 52 108 55 109 53 110
REMARK H PARENT 97 39 77 63 45 74
REMARK Flexibility Score: inf
ROOT
ATOM      1  C   UNL A   1      42.810  29.282  35.658  1.00  0.00     0.188 C 
ENDROOT
BRANCH   1   2
ATOM      2  C   UNL A   1      42.203  30.626  35.254  1.00  0.00     0.188 C 
BRANCH   2   3
ATOM      3  O   UNL A   1      41.614  30.593  33.940  1.00  0.00    -0.376 OA
BRANCH   3   4
ATOM      4  C   UNL A   1      41.146  29.324  33.456  1.00  0.00     0.202 C 
BRANCH   4   5
ATOM      5  C   UNL A   1      41.345  29.112  31.965  1.00  0.00     0.261 C 
BRANCH   5   6
ATOM      6  O   UNL A   1      42.677  29.195  31.676  1.00  0.00    -0.463 OA
BRANCH   6   7
ATOM      7  C   UNL A   1      42.921  29.808  30.531  1.00  0.00     0.312 C 
ATOM      8  O   UNL A   1      42.073  30.396  29.871  1.00  0.00    -0.252 OA
BRANCH   7   9
ATOM      9  C   UNL A   1      44.276  29.487  30.112  1.00  0.00     0.075 C 
ATOM     10  C   UNL A   1      43.264  27.931  26.041  1.00  0.00     0.011 C 
ATOM     11  C   UNL A   1      42.963  28.788  27.308  1.00  0.00    -0.035 C 
ATOM     12  C   UNL A   1      41.522  29.311  26.921  1.00  0.00     0.011 C 
ATOM     13  C   UNL A   1      43.021  27.726  28.475  1.00  0.00     0.007 C 
ATOM     14  C   UNL A   1      43.944  30.088  27.572  1.00  0.00     0.015 C 
ATOM     15  C   UNL A   1      44.139  27.998  29.559  1.00  0.00     0.020 C 
ATOM     16  C   UNL A   1      44.470  30.634  29.100  1.00  0.00     0.033 C 
ATOM     17  C   UNL A   1      43.899  32.085  29.862  1.00  0.00    -0.063 C 
ATOM     18  C   UNL A   1      45.105  29.721  31.404  1.00  0.00     0.020 C 
ATOM     19  C   UNL A   1      44.042  32.405  31.493  1.00  0.00    -0.006 C 
ATOM     20  C   UNL A   1      43.041  32.863  29.174  1.00  0.00    -0.027 C 
ATOM     21  C   UNL A   1      44.713  31.051  32.279  1.00  0.00     0.013 C 
ATOM     22  C   UNL A   1      45.443  33.203  31.539  1.00  0.00     0.017 C 
ATOM     23  C   UNL A   1      42.587  33.530  32.075  1.00  0.00    -0.020 C 
ATOM     24  C   UNL A   1      41.755  33.563  29.609  1.00  0.00     0.032 C 
ATOM     25  C   UNL A   1      41.273  33.578  31.081  1.00  0.00     0.006 C 
ATOM     26  C   UNL A   1      41.809  34.046  33.533  1.00  0.00     0.008 C 
ATOM     27  C   UNL A   1      43.369  34.928  31.866  1.00  0.00     0.012 C 
ATOM     28  C   UNL A   1      39.548  33.205  31.484  1.00  0.00    -0.025 C 
ATOM     29  C   UNL A   1      40.112  33.987  33.795  1.00  0.00     0.005 C 
ATOM     30  C   UNL A   1      38.692  34.429  31.080  1.00  0.00     0.012 C 
ATOM     31  C   UNL A   1      38.890  32.112  30.621  1.00  0.00     0.010 C 
ATOM     32  C   UNL A   1      39.295  32.910  33.002  1.00  0.00     0.003 C 
ATOM     33  C   UNL A   1      37.741  31.194  31.032  1.00  0.00     0.033 C 
ATOM     34  C   UNL A   1      37.823  32.058  33.425  1.00  0.00    -0.006 C 
ATOM     35  C   UNL A   1      37.776  30.796  32.493  1.00  0.00     0.120 C 
ATOM     36  C   UNL A   1      36.432  32.729  33.271  1.00  0.00     0.014 C 
ATOM     37  C   UNL A   1      37.763  31.442  34.857  1.00  0.00     0.014 C 
BRANCH  35  38
ATOM     38  O   UNL A   1      36.714  29.874  32.774  1.00  0.00    -0.393 OA
ATOM     39  H   UNL A   1      35.860  30.311  32.632  1.00  0.00     0.210 HD
ENDBRANCH  35  38
ENDBRANCH   7   9
ENDBRANCH   6   7
ENDBRANCH   5   6
ENDBRANCH   4   5
ENDBRANCH   3   4
ENDBRANCH   2   3
ENDBRANCH   1   2
BRANCH   1  40
ATOM     40  O   UNL A   1      42.238  28.652  36.801  1.00  0.00    -0.376 OA
BRANCH  40  41
ATOM     41  C   UNL A   1      41.574  27.458  36.543  1.00  0.00     0.202 C 
BRANCH  41  42
ATOM     42  C   UNL A   1      41.751  26.257  37.404  1.00  0.00     0.261 C 
BRANCH  42  43
ATOM     43  O   UNL A   1      42.737  25.347  36.931  1.00  0.00    -0.460 OA
BRANCH  43  44
ATOM     44  C   UNL A   1      42.420  24.612  35.840  1.00  0.00     0.338 C 
ATOM     45  O   UNL A   1      41.639  23.681  35.803  1.00  0.00    -0.246 OA
BRANCH  44  46
ATOM     46  C   UNL A   1      43.333  24.901  34.753  1.00  0.00     0.060 A 
ATOM     47  C   UNL A   1      43.176  26.061  33.984  1.00  0.00     0.016 A 
ATOM     48  C   UNL A   1      44.453  24.082  34.680  1.00  0.00     0.016 A 
ATOM     49  C   UNL A   1      44.198  26.492  33.195  1.00  0.00     0.010 A 
ATOM     50  C   UNL A   1      45.383  24.387  33.726  1.00  0.00     0.010 A 
ATOM     51  C   UNL A   1      45.202  25.562  32.982  1.00  0.00    -0.014 A 
BRANCH  51  52
ATOM     52  C   UNL A   1      45.823  25.633  31.686  1.00  0.00     0.031 A 
ATOM     53  C   UNL A   1      46.916  26.637  31.549  1.00  0.00     0.074 A 
ATOM     54  C   UNL A   1      45.333  24.820  30.756  1.00  0.00     0.049 A 
ATOM     55  N   UNL A   1      47.511  27.043  30.470  1.00  0.00    -0.248 NA
ATOM     56  C   UNL A   1      47.401  27.289  32.786  1.00  0.00     0.031 C 
ATOM     57  C   UNL A   1      44.305  23.799  30.982  1.00  0.00     0.029 A 
ATOM     58  N   UNL A   1      45.601  24.766  29.433  1.00  0.00    -0.354 N 
ATOM     59  C   UNL A   1      48.421  27.999  30.896  1.00  0.00     0.074 A 
ATOM     60  C   UNL A   1      48.307  28.130  32.323  1.00  0.00     0.031 C 
ATOM     61  C   UNL A   1      43.981  23.254  29.801  1.00  0.00     0.029 A 
ATOM     62  C   UNL A   1      44.751  23.931  28.765  1.00  0.00     0.049 A 
ATOM     63  H   UNL A   1      46.327  25.270  29.000  1.00  0.00     0.167 HD
ATOM     64  C   UNL A   1      49.260  28.707  30.116  1.00  0.00     0.037 A 
ATOM     65  C   UNL A   1      44.605  23.811  27.441  1.00  0.00     0.037 A 
ATOM     66  C   UNL A   1      49.254  28.548  28.689  1.00  0.00     0.049 A 
ATOM     67  C   UNL A   1      45.500  24.669  26.595  1.00  0.00     0.074 A 
ATOM     68  C   UNL A   1      50.014  29.190  27.738  1.00  0.00     0.029 A 
ATOM     69  N   UNL A   1      48.402  27.673  28.014  1.00  0.00    -0.354 N 
ATOM     70  N   UNL A   1      46.381  25.572  26.971  1.00  0.00    -0.248 NA
ATOM     71  C   UNL A   1      45.395  24.490  25.149  1.00  0.00     0.031 C 
ATOM     72  C   UNL A   1      49.579  28.745  26.484  1.00  0.00     0.029 A 
ATOM     73  C   UNL A   1      48.600  27.773  26.653  1.00  0.00     0.049 A 
ATOM     74  H   UNL A   1      47.753  27.071  28.446  1.00  0.00     0.167 HD
ATOM     75  C   UNL A   1      46.963  26.051  25.809  1.00  0.00     0.074 A 
ATOM     76  C   UNL A   1      46.337  25.317  24.720  1.00  0.00     0.031 C 
ATOM     77  C   UNL A   1      47.921  27.000  25.638  1.00  0.00     0.037 A 
BRANCH  64  78
ATOM     78  C   UNL A   1      50.146  29.712  30.783  1.00  0.00     0.064 A 
ATOM     79  C   UNL A   1      51.451  29.395  31.199  1.00  0.00     0.173 A 
ATOM     80  C   UNL A   1      49.675  31.005  31.051  1.00  0.00     0.173 A 
ATOM     81  F   UNL A   1      51.941  28.160  31.006  1.00  0.00    -0.203 F 
ATOM     82  C   UNL A   1      52.241  30.327  31.869  1.00  0.00     0.198 A 
ATOM     83  C   UNL A   1      50.478  31.945  31.693  1.00  0.00     0.198 A 
ATOM     84  F   UNL A   1      48.429  31.355  30.703  1.00  0.00    -0.203 F 
ATOM     85  F   UNL A   1      53.460  29.982  32.303  1.00  0.00    -0.200 F 
ATOM     86  C   UNL A   1      51.756  31.604  32.107  1.00  0.00     0.200 A 
ATOM     87  F   UNL A   1      50.008  33.180  31.921  1.00  0.00    -0.200 F 
ATOM     88  F   UNL A   1      52.519  32.503  32.746  1.00  0.00    -0.200 F 
ENDBRANCH  64  78
BRANCH  65  89
ATOM     89  C   UNL A   1      43.612  22.863  26.896  1.00  0.00     0.064 A 
ATOM     90  C   UNL A   1      44.026  21.654  26.327  1.00  0.00     0.173 A 
ATOM     91  C   UNL A   1      42.233  23.109  26.982  1.00  0.00     0.173 A 
ATOM     92  F   UNL A   1      45.335  21.370  26.242  1.00  0.00    -0.203 F 
ATOM     93  C   UNL A   1      43.102  20.741  25.829  1.00  0.00     0.198 A 
ATOM     94  C   UNL A   1      41.307  22.180  26.513  1.00  0.00     0.198 A 
ATOM     95  F   UNL A   1      41.783  24.235  27.555  1.00  0.00    -0.203 F 
ATOM     96  F   UNL A   1      43.528  19.609  25.253  1.00  0.00    -0.200 F 
ATOM     97  C   UNL A   1      41.743  21.004  25.925  1.00  0.00     0.200 A 
ATOM     98  F   UNL A   1      39.995  22.423  26.637  1.00  0.00    -0.200 F 
ATOM     99  F   UNL A   1      40.855  20.121  25.449  1.00  0.00    -0.200 F 
ENDBRANCH  65  89
BRANCH  77 100
ATOM    100  C   UNL A   1      48.349  27.243  24.225  1.00  0.00     0.064 A 
ATOM    101  C   UNL A   1      49.575  26.772  23.738  1.00  0.00     0.173 A 
ATOM    102  C   UNL A   1      47.498  27.928  23.345  1.00  0.00     0.173 A 
ATOM    103  F   UNL A   1      50.424  26.126  24.552  1.00  0.00    -0.203 F 
ATOM    104  C   UNL A   1      49.954  27.016  22.424  1.00  0.00     0.198 A 
ATOM    105  C   UNL A   1      47.861  28.128  22.020  1.00  0.00     0.198 A 
ATOM    106  F   UNL A   1      46.309  28.385  23.768  1.00  0.00    -0.203 F 
ATOM    107  F   UNL A   1      51.161  26.622  21.996  1.00  0.00    -0.200 F 
ATOM    108  C   UNL A   1      49.093  27.684  21.565  1.00  0.00     0.200 A 
ATOM    109  F   UNL A   1      47.020  28.752  21.185  1.00  0.00    -0.200 F 
ATOM    110  F   UNL A   1      49.458  27.908  20.296  1.00  0.00    -0.200 F 
ENDBRANCH  77 100
ENDBRANCH  51  52
ENDBRANCH  44  46
ENDBRANCH  43  44
ENDBRANCH  42  43
ENDBRANCH  41  42
ENDBRANCH  40  41
ENDBRANCH   1  40
TORSDOF 18
ENDMDL
MODEL 3
REMARK VINA RESULT:      -9.5      4.852     11.903
REMARK SMILES CC1(C)CC[C@@]2(C(=O)OCCOCCOCCOC(=O)c3ccc(-c4c5nc(c(-c6c(F)c(F)c(F)c(F)c6F)c6ccc([nH]6)c(-c6c(F)c(F)c(F)c(F)c6F)c6nc(c(-c7c(F)c(F)c(F)c(F)c7F)c7ccc4[nH]7)C=C6)C=C5)cc3)CC[C@@]3(C)C(=CC[C@H]4[C@@]5(C)CC[C@H](O)C(C)(C)[C@@H]5CC[C@]43C)[C@@H]2C1
REMARK SMILES IDX 14 1 13 2 12 3 11 4 10 5 9 6 7 7 8 8 6 9 1 10 2 11 3 12 4 13
REMARK SMILES IDX 107 14 5 15 106 16 88 17 84 18 86 19 89 20 85 21 87 22
REMARK SMILES IDX 104 23 90 24 91 25 103 26 105 27 92 28 102 29 93 30 94 31
REMARK SMILES IDX 101 32 95 33 98 34 96 35 99 36 100 37 97 38 15 40 16 41
REMARK SMILES IDX 17 42 18 43 19 44 20 45 21 46 22 47 83 48 23 49 82 50 24 51
REMARK SMILES IDX 25 52 26 53 76 54 27 55 81 56 75 57 77 58 28 59 80 60 74 61
REMARK SMILES IDX 73 62 29 64 61 65 41 66 60 67 42 68 45 69 59 70 78 71 43 72
REMARK SMILES IDX 44 73 58 75 79 76 46 77 30 78 31 79 39 80 32 81 33 82 37 83
REMARK SMILES IDX 40 84 34 85 35 86 38 87 36 88 62 89 63 90 71 91 64 92 65 93
REMARK SMILES IDX 69 94 72 95 66 96 67 97 70 98 68 99 47 100 48 101 56 102
REMARK SMILES IDX 49 103 50 104 54 105 57 106 51 107 52 108 55 109 53 110
REMARK H PARENT 97 39 77 63 45 74
REMARK Flexibility Score: inf
ROOT
ATOM      1  C   UNL A   1      36.989  33.077  35.337  1.00  0.00     0.188 C 
ENDROOT
BRANCH   1   2
ATOM      2  C   UNL A   1      38.219  33.510  34.539  1.00  0.00     0.188 C 
BRANCH   2   3
ATOM      3  O   UNL A   1      39.282  32.540  34.594  1.00  0.00    -0.376 OA
BRANCH   3   4
ATOM      4  C   UNL A   1      40.286  32.599  33.567  1.00  0.00     0.202 C 
BRANCH   4   5
ATOM      5  C   UNL A   1      41.660  33.019  34.062  1.00  0.00     0.261 C 
BRANCH   5   6
ATOM      6  O   UNL A   1      41.634  34.346  34.383  1.00  0.00    -0.463 OA
BRANCH   6   7
ATOM      7  C   UNL A   1      41.961  34.581  35.641  1.00  0.00     0.312 C 
ATOM      8  O   UNL A   1      42.014  33.720  36.511  1.00  0.00    -0.252 OA
BRANCH   7   9
ATOM      9  C   UNL A   1      42.035  36.019  35.841  1.00  0.00     0.075 C 
ATOM     10  C   UNL A   1      39.281  36.253  39.358  1.00  0.00     0.011 C 
ATOM     11  C   UNL A   1      40.263  35.490  38.420  1.00  0.00    -0.035 C 
ATOM     12  C   UNL A   1      40.145  34.046  39.055  1.00  0.00     0.011 C 
ATOM     13  C   UNL A   1      39.606  35.672  36.996  1.00  0.00     0.007 C 
ATOM     14  C   UNL A   1      41.844  35.958  38.465  1.00  0.00     0.015 C 
ATOM     15  C   UNL A   1      40.503  36.448  35.951  1.00  0.00     0.020 C 
ATOM     16  C   UNL A   1      42.895  36.019  37.122  1.00  0.00     0.033 C 
ATOM     17  C   UNL A   1      44.198  34.904  36.857  1.00  0.00    -0.063 C 
ATOM     18  C   UNL A   1      42.850  36.501  34.609  1.00  0.00     0.020 C 
ATOM     19  C   UNL A   1      44.937  34.659  35.382  1.00  0.00    -0.006 C 
ATOM     20  C   UNL A   1      44.439  33.979  37.807  1.00  0.00    -0.027 C 
ATOM     21  C   UNL A   1      44.133  35.571  34.189  1.00  0.00     0.013 C 
ATOM     22  C   UNL A   1      46.154  35.714  35.456  1.00  0.00     0.017 C 
ATOM     23  C   UNL A   1      45.596  32.850  35.266  1.00  0.00    -0.020 C 
ATOM     24  C   UNL A   1      44.736  32.485  37.696  1.00  0.00     0.032 C 
ATOM     25  C   UNL A   1      44.943  31.777  36.333  1.00  0.00     0.006 C 
ATOM     26  C   UNL A   1      46.152  31.712  34.085  1.00  0.00     0.008 C 
ATOM     27  C   UNL A   1      47.081  33.184  35.806  1.00  0.00     0.012 C 
ATOM     28  C   UNL A   1      44.108  30.210  35.979  1.00  0.00    -0.025 C 
ATOM     29  C   UNL A   1      45.576  30.099  33.954  1.00  0.00     0.005 C 
ATOM     30  C   UNL A   1      44.823  29.100  36.785  1.00  0.00     0.012 C 
ATOM     31  C   UNL A   1      42.679  30.082  36.540  1.00  0.00     0.010 C 
ATOM     32  C   UNL A   1      44.124  29.805  34.465  1.00  0.00     0.003 C 
ATOM     33  C   UNL A   1      41.552  29.221  35.975  1.00  0.00     0.033 C 
ATOM     34  C   UNL A   1      42.948  28.620  33.933  1.00  0.00    -0.006 C 
ATOM     35  C   UNL A   1      41.561  29.127  34.463  1.00  0.00     0.120 C 
ATOM     36  C   UNL A   1      43.039  27.137  34.384  1.00  0.00     0.014 C 
ATOM     37  C   UNL A   1      42.719  28.508  32.394  1.00  0.00     0.014 C 
BRANCH  35  38
ATOM     38  O   UNL A   1      40.427  28.372  34.014  1.00  0.00    -0.393 OA
ATOM     39  H   UNL A   1      39.654  28.594  34.556  1.00  0.00     0.210 HD
ENDBRANCH  35  38
ENDBRANCH   7   9
ENDBRANCH   6   7
ENDBRANCH   5   6
ENDBRANCH   4   5
ENDBRANCH   3   4
ENDBRANCH   2   3
ENDBRANCH   1   2
BRANCH   1  40
ATOM     40  O   UNL A   1      35.730  33.238  34.688  1.00  0.00    -0.376 OA
BRANCH  40  41
ATOM     41  C   UNL A   1      35.600  34.401  33.939  1.00  0.00     0.202 C 
BRANCH  41  42
ATOM     42  C   UNL A   1      35.292  34.370  32.483  1.00  0.00     0.261 C 
BRANCH  42  43
ATOM     43  O   UNL A   1      36.201  33.590  31.716  1.00  0.00    -0.460 OA
BRANCH  43  44
ATOM     44  C   UNL A   1      35.783  32.362  31.332  1.00  0.00     0.338 C 
ATOM     45  O   UNL A   1      34.676  31.890  31.512  1.00  0.00    -0.246 OA
BRANCH  44  46
ATOM     46  C   UNL A   1      36.906  31.555  30.902  1.00  0.00     0.060 A 
ATOM     47  C   UNL A   1      37.739  30.939  31.845  1.00  0.00     0.016 A 
ATOM     48  C   UNL A   1      36.955  31.276  29.542  1.00  0.00     0.016 A 
ATOM     49  C   UNL A   1      38.576  29.939  31.456  1.00  0.00     0.010 A 
ATOM     50  C   UNL A   1      37.947  30.438  29.117  1.00  0.00     0.010 A 
ATOM     51  C   UNL A   1      38.755  29.828  30.087  1.00  0.00    -0.014 A 
BRANCH  51  52
ATOM     52  C   UNL A   1      40.068  29.394  29.685  1.00  0.00     0.031 A 
ATOM     53  C   UNL A   1      41.111  30.456  29.638  1.00  0.00     0.074 A 
ATOM     54  C   UNL A   1      40.189  28.107  29.375  1.00  0.00     0.049 A 
ATOM     55  N   UNL A   1      42.308  30.393  29.140  1.00  0.00    -0.248 NA
ATOM     56  C   UNL A   1      40.767  31.775  30.212  1.00  0.00     0.031 C 
ATOM     57  C   UNL A   1      39.134  27.100  29.520  1.00  0.00     0.029 A 
ATOM     58  N   UNL A   1      41.236  27.450  28.830  1.00  0.00    -0.354 N 
ATOM     59  C   UNL A   1      42.846  31.657  29.328  1.00  0.00     0.074 A 
ATOM     60  C   UNL A   1      41.859  32.479  29.974  1.00  0.00     0.031 C 
ATOM     61  C   UNL A   1      39.578  25.944  29.005  1.00  0.00     0.029 A 
ATOM     62  C   UNL A   1      40.914  26.171  28.470  1.00  0.00     0.049 A 
ATOM     63  H   UNL A   1      42.128  27.846  28.706  1.00  0.00     0.167 HD
ATOM     64  C   UNL A   1      44.074  32.066  28.956  1.00  0.00     0.037 A 
ATOM     65  C   UNL A   1      41.641  25.332  27.725  1.00  0.00     0.037 A 
ATOM     66  C   UNL A   1      44.966  31.185  28.257  1.00  0.00     0.049 A 
ATOM     67  C   UNL A   1      42.973  25.842  27.257  1.00  0.00     0.074 A 
ATOM     68  C   UNL A   1      46.236  31.427  27.783  1.00  0.00     0.029 A 
ATOM     69  N   UNL A   1      44.643  29.871  27.917  1.00  0.00    -0.354 N 
ATOM     70  N   UNL A   1      43.514  27.029  27.432  1.00  0.00    -0.248 NA
ATOM     71  C   UNL A   1      43.800  24.904  26.503  1.00  0.00     0.031 C 
ATOM     72  C   UNL A   1      46.657  30.278  27.105  1.00  0.00     0.029 A 
ATOM     73  C   UNL A   1      45.681  29.293  27.217  1.00  0.00     0.049 A 
ATOM     74  H   UNL A   1      43.797  29.422  28.142  1.00  0.00     0.167 HD
ATOM     75  C   UNL A   1      44.763  26.976  26.838  1.00  0.00     0.074 A 
ATOM     76  C   UNL A   1      44.895  25.626  26.313  1.00  0.00     0.031 C 
ATOM     77  C   UNL A   1      45.720  27.934  26.726  1.00  0.00     0.037 A 
BRANCH  64  78
ATOM     78  C   UNL A   1      44.445  33.490  29.234  1.00  0.00     0.064 A 
ATOM     79  C   UNL A   1      44.140  34.528  28.337  1.00  0.00     0.173 A 
ATOM     80  C   UNL A   1      45.153  33.823  30.398  1.00  0.00     0.173 A 
ATOM     81  F   UNL A   1      43.499  34.262  27.188  1.00  0.00    -0.203 F 
ATOM     82  C   UNL A   1      44.542  35.838  28.588  1.00  0.00     0.198 A 
ATOM     83  C   UNL A   1      45.527  35.138  30.661  1.00  0.00     0.198 A 
ATOM     84  F   UNL A   1      45.496  32.870  31.276  1.00  0.00    -0.203 F 
ATOM     85  F   UNL A   1      44.287  36.800  27.690  1.00  0.00    -0.200 F 
ATOM     86  C   UNL A   1      45.227  36.143  29.753  1.00  0.00     0.200 A 
ATOM     87  F   UNL A   1      46.188  35.432  31.789  1.00  0.00    -0.200 F 
ATOM     88  F   UNL A   1      45.609  37.405  29.997  1.00  0.00    -0.200 F 
ENDBRANCH  64  78
BRANCH  65  89
ATOM     89  C   UNL A   1      41.118  23.985  27.418  1.00  0.00     0.064 A 
ATOM     90  C   UNL A   1      40.059  23.824  26.519  1.00  0.00     0.173 A 
ATOM     91  C   UNL A   1      41.696  22.827  27.963  1.00  0.00     0.173 A 
ATOM     92  F   UNL A   1      39.489  24.903  25.960  1.00  0.00    -0.203 F 
ATOM     93  C   UNL A   1      39.570  22.561  26.203  1.00  0.00     0.198 A 
ATOM     94  C   UNL A   1      41.227  21.561  27.622  1.00  0.00     0.198 A 
ATOM     95  F   UNL A   1      42.740  22.924  28.800  1.00  0.00    -0.203 F 
ATOM     96  F   UNL A   1      38.527  22.440  25.370  1.00  0.00    -0.200 F 
ATOM     97  C   UNL A   1      40.156  21.430  26.753  1.00  0.00     0.200 A 
ATOM     98  F   UNL A   1      41.818  20.470  28.130  1.00  0.00    -0.200 F 
ATOM     99  F   UNL A   1      39.687  20.214  26.444  1.00  0.00    -0.200 F 
ENDBRANCH  65  89
BRANCH  77 100
ATOM    100  C   UNL A   1      46.984  27.514  26.044  1.00  0.00     0.064 A 
ATOM    101  C   UNL A   1      48.090  27.050  26.770  1.00  0.00     0.173 A 
ATOM    102  C   UNL A   1      47.068  27.545  24.645  1.00  0.00     0.173 A 
ATOM    103  F   UNL A   1      48.056  27.020  28.110  1.00  0.00    -0.203 F 
ATOM    104  C   UNL A   1      49.256  26.672  26.116  1.00  0.00     0.198 A 
ATOM    105  C   UNL A   1      48.218  27.121  23.994  1.00  0.00     0.198 A 
ATOM    106  F   UNL A   1      46.026  27.970  23.912  1.00  0.00    -0.203 F 
ATOM    107  F   UNL A   1      50.328  26.301  26.827  1.00  0.00    -0.200 F 
ATOM    108  C   UNL A   1      49.314  26.698  24.729  1.00  0.00     0.200 A 
ATOM    109  F   UNL A   1      48.266  27.124  22.655  1.00  0.00    -0.200 F 
ATOM    110  F   UNL A   1      50.436  26.322  24.101  1.00  0.00    -0.200 F 
ENDBRANCH  77 100
ENDBRANCH  51  52
ENDBRANCH  44  46
ENDBRANCH  43  44
ENDBRANCH  42  43
ENDBRANCH  41  42
ENDBRANCH  40  41
ENDBRANCH   1  40
TORSDOF 18
ENDMDL
