MODEL 1
REMARK VINA RESULT:     -12.0      0.000      0.000
REMARK SMILES O=C(OCCOCCOCCOC(=O)c1ccc(Cl)cc1-c1ccc(O)c(F)c1)c1ccc(-c2c3nc(c(-c4c(F)c(F)c(F)c(F)c4F)c4ccc([nH]4)c(-c4c(F)c(F)c(F)c(F)c4F)c4nc(c(-c5c(F)c(F)c(F)c(F)c5F)c5ccc2[nH]5)C=C4)C=C3)cc1
REMARK SMILES IDX 7 1 6 2 5 3 4 4 3 5 2 6 1 7 30 8 31 9 92 10 32 11 91 12
REMARK SMILES IDX 33 13 34 14 35 15 85 16 36 17 90 18 84 19 86 20 37 21 89 22
REMARK SMILES IDX 83 23 82 24 38 26 70 27 50 28 69 29 51 30 54 31 68 32 87 33
REMARK SMILES IDX 52 34 53 35 67 37 88 38 55 39 39 40 40 41 48 42 41 43 42 44
REMARK SMILES IDX 46 45 49 46 43 47 44 48 47 49 45 50 71 51 72 52 80 53 73 54
REMARK SMILES IDX 74 55 78 56 81 57 75 58 76 59 79 60 77 61 56 62 57 63 65 64
REMARK SMILES IDX 58 65 59 66 63 67 66 68 60 69 61 70 64 71 62 72 8 73 9 74
REMARK SMILES IDX 10 75 11 76 12 77 13 78 14 79 15 80 16 81 21 82 17 83 20 84
REMARK SMILES IDX 18 85 19 86 22 87 23 88 29 89 24 90 27 91 25 92 28 93 26 94
REMARK H PARENT 86 25 54 36 26 95
REMARK Flexibility Score: inf
ROOT
ATOM      1  C   UNL A   1      40.430  20.403  26.448  1.00  0.00     0.188 C 
ENDROOT
BRANCH   1   2
ATOM      2  O   UNL A   1      41.666  20.182  25.769  1.00  0.00    -0.376 OA
BRANCH   2   3
ATOM      3  C   UNL A   1      42.806  20.796  26.358  1.00  0.00     0.202 C 
BRANCH   3   4
ATOM      4  C   UNL A   1      43.690  21.481  25.309  1.00  0.00     0.261 C 
BRANCH   4   5
ATOM      5  O   UNL A   1      43.019  22.643  24.788  1.00  0.00    -0.460 OA
BRANCH   5   6
ATOM      6  C   UNL A   1      43.540  23.890  24.833  1.00  0.00     0.338 C 
ATOM      7  O   UNL A   1      44.639  24.106  24.329  1.00  0.00    -0.246 OA
BRANCH   6   8
ATOM      8  C   UNL A   1      42.938  24.939  25.727  1.00  0.00     0.060 A 
ATOM      9  C   UNL A   1      43.324  26.280  25.792  1.00  0.00     0.016 A 
ATOM     10  C   UNL A   1      41.916  24.511  26.598  1.00  0.00     0.016 A 
ATOM     11  C   UNL A   1      42.760  27.153  26.727  1.00  0.00     0.010 A 
ATOM     12  C   UNL A   1      41.332  25.385  27.524  1.00  0.00     0.010 A 
ATOM     13  C   UNL A   1      41.786  26.703  27.619  1.00  0.00    -0.014 A 
BRANCH  13  14
ATOM     14  C   UNL A   1      41.394  27.569  28.754  1.00  0.00     0.031 A 
ATOM     15  C   UNL A   1      42.204  27.504  30.018  1.00  0.00     0.074 A 
ATOM     16  C   UNL A   1      40.397  28.463  28.636  1.00  0.00     0.049 A 
ATOM     17  N   UNL A   1      42.059  28.175  31.132  1.00  0.00    -0.248 NA
ATOM     18  C   UNL A   1      43.349  26.579  30.018  1.00  0.00     0.031 C 
ATOM     19  C   UNL A   1      39.601  28.685  27.431  1.00  0.00     0.029 A 
ATOM     20  N   UNL A   1      39.889  29.357  29.546  1.00  0.00    -0.354 N 
ATOM     21  C   UNL A   1      43.100  27.765  31.953  1.00  0.00     0.074 A 
ATOM     22  C   UNL A   1      43.851  26.765  31.230  1.00  0.00     0.031 C 
ATOM     23  C   UNL A   1      38.690  29.641  27.685  1.00  0.00     0.029 A 
ATOM     24  C   UNL A   1      38.805  30.058  29.078  1.00  0.00     0.049 A 
ATOM     25  H   UNL A   1      40.265  29.483  30.447  1.00  0.00     0.167 HD
ATOM     26  C   UNL A   1      43.410  28.199  33.197  1.00  0.00     0.037 A 
ATOM     27  C   UNL A   1      37.976  30.908  29.713  1.00  0.00     0.037 A 
ATOM     28  C   UNL A   1      42.660  29.188  33.919  1.00  0.00     0.049 A 
ATOM     29  C   UNL A   1      38.247  31.252  31.151  1.00  0.00     0.074 A 
ATOM     30  C   UNL A   1      42.905  29.713  35.175  1.00  0.00     0.029 A 
ATOM     31  N   UNL A   1      41.503  29.790  33.449  1.00  0.00    -0.354 N 
ATOM     32  N   UNL A   1      39.243  30.876  31.915  1.00  0.00    -0.248 NA
ATOM     33  C   UNL A   1      37.278  32.133  31.818  1.00  0.00     0.031 C 
ATOM     34  C   UNL A   1      41.867  30.598  35.485  1.00  0.00     0.029 A 
ATOM     35  C   UNL A   1      40.996  30.648  34.409  1.00  0.00     0.049 A 
ATOM     36  H   UNL A   1      41.103  29.630  32.564  1.00  0.00     0.167 HD
ATOM     37  C   UNL A   1      39.032  31.484  33.142  1.00  0.00     0.074 A 
ATOM     38  C   UNL A   1      37.818  32.264  33.021  1.00  0.00     0.031 C 
ATOM     39  C   UNL A   1      39.780  31.406  34.270  1.00  0.00     0.037 A 
BRANCH  26  40
ATOM     40  C   UNL A   1      44.600  27.579  33.860  1.00  0.00     0.064 A 
ATOM     41  C   UNL A   1      44.505  26.361  34.548  1.00  0.00     0.173 A 
ATOM     42  C   UNL A   1      45.852  28.205  33.794  1.00  0.00     0.173 A 
ATOM     43  F   UNL A   1      43.323  25.737  34.656  1.00  0.00    -0.203 F 
ATOM     44  C   UNL A   1      45.621  25.799  35.162  1.00  0.00     0.198 A 
ATOM     45  C   UNL A   1      46.969  27.632  34.393  1.00  0.00     0.198 A 
ATOM     46  F   UNL A   1      45.989  29.375  33.151  1.00  0.00    -0.203 F 
ATOM     47  F   UNL A   1      45.503  24.653  35.845  1.00  0.00    -0.200 F 
ATOM     48  C   UNL A   1      46.853  26.432  35.079  1.00  0.00     0.200 A 
ATOM     49  F   UNL A   1      48.160  28.244  34.313  1.00  0.00    -0.200 F 
ATOM     50  F   UNL A   1      47.927  25.891  35.671  1.00  0.00    -0.200 F 
ENDBRANCH  26  40
BRANCH  27  51
ATOM     51  C   UNL A   1      36.763  31.421  29.028  1.00  0.00     0.064 A 
ATOM     52  C   UNL A   1      36.646  32.758  28.629  1.00  0.00     0.173 A 
ATOM     53  C   UNL A   1      35.669  30.573  28.798  1.00  0.00     0.173 A 
ATOM     54  F   UNL A   1      37.650  33.616  28.859  1.00  0.00    -0.203 F 
ATOM     55  C   UNL A   1      35.477  33.227  28.031  1.00  0.00     0.198 A 
ATOM     56  C   UNL A   1      34.514  31.035  28.175  1.00  0.00     0.198 A 
ATOM     57  F   UNL A   1      35.727  29.291  29.185  1.00  0.00    -0.203 F 
ATOM     58  F   UNL A   1      35.372  34.520  27.694  1.00  0.00    -0.200 F 
ATOM     59  C   UNL A   1      34.415  32.365  27.798  1.00  0.00     0.200 A 
ATOM     60  F   UNL A   1      33.498  30.194  27.941  1.00  0.00    -0.200 F 
ATOM     61  F   UNL A   1      33.295  32.817  27.218  1.00  0.00    -0.200 F 
ENDBRANCH  27  51
BRANCH  39  62
ATOM     62  C   UNL A   1      39.305  32.185  35.456  1.00  0.00     0.064 A 
ATOM     63  C   UNL A   1      38.484  31.599  36.429  1.00  0.00     0.173 A 
ATOM     64  C   UNL A   1      39.708  33.515  35.641  1.00  0.00     0.173 A 
ATOM     65  F   UNL A   1      38.058  30.336  36.280  1.00  0.00    -0.203 F 
ATOM     66  C   UNL A   1      38.071  32.324  37.543  1.00  0.00     0.198 A 
ATOM     67  C   UNL A   1      39.312  34.229  36.768  1.00  0.00     0.198 A 
ATOM     68  F   UNL A   1      40.495  34.116  34.736  1.00  0.00    -0.203 F 
ATOM     69  F   UNL A   1      37.257  31.757  38.444  1.00  0.00    -0.200 F 
ATOM     70  C   UNL A   1      38.492  33.635  37.714  1.00  0.00     0.200 A 
ATOM     71  F   UNL A   1      39.725  35.493  36.937  1.00  0.00    -0.200 F 
ATOM     72  F   UNL A   1      38.099  34.328  38.791  1.00  0.00    -0.200 F 
ENDBRANCH  39  62
ENDBRANCH  13  14
ENDBRANCH   6   8
ENDBRANCH   5   6
ENDBRANCH   4   5
ENDBRANCH   3   4
ENDBRANCH   2   3
ENDBRANCH   1   2
BRANCH   1  73
ATOM     73  C   UNL A   1      39.744  21.750  26.194  1.00  0.00     0.188 C 
BRANCH  73  74
ATOM     74  O   UNL A   1      38.509  21.754  25.492  1.00  0.00    -0.376 OA
BRANCH  74  75
ATOM     75  C   UNL A   1      37.648  22.875  25.631  1.00  0.00     0.202 C 
BRANCH  75  76
ATOM     76  C   UNL A   1      36.747  23.215  24.444  1.00  0.00     0.261 C 
BRANCH  76  77
ATOM     77  O   UNL A   1      35.515  22.468  24.393  1.00  0.00    -0.460 OA
BRANCH  77  78
ATOM     78  C   UNL A   1      34.906  22.270  25.584  1.00  0.00     0.338 C 
ATOM     79  O   UNL A   1      35.240  21.496  26.475  1.00  0.00    -0.246 OA
BRANCH  78  80
ATOM     80  C   UNL A   1      33.632  23.005  25.625  1.00  0.00     0.068 A 
ATOM     81  C   UNL A   1      33.681  24.292  26.189  1.00  0.00     0.018 A 
ATOM     82  C   UNL A   1      32.459  22.535  25.004  1.00  0.00    -0.002 A 
ATOM     83  C   UNL A   1      32.566  25.126  26.123  1.00  0.00     0.021 A 
ATOM     84  C   UNL A   1      31.334  23.384  24.990  1.00  0.00     0.030 A 
ATOM     85  C   UNL A   1      31.395  24.667  25.532  1.00  0.00     0.041 A 
ATOM     86  Cl  UNL A   1      30.022  25.694  25.434  1.00  0.00    -0.084 Cl
BRANCH  82  87
ATOM     87  C   UNL A   1      32.349  21.237  24.328  1.00  0.00    -0.014 A 
ATOM     88  C   UNL A   1      32.187  21.166  22.932  1.00  0.00     0.013 A 
ATOM     89  C   UNL A   1      32.496  20.042  25.044  1.00  0.00     0.052 A 
ATOM     90  C   UNL A   1      32.142  19.934  22.270  1.00  0.00     0.050 A 
ATOM     91  C   UNL A   1      32.465  18.818  24.382  1.00  0.00     0.165 A 
ATOM     92  C   UNL A   1      32.278  18.761  23.002  1.00  0.00     0.151 A 
ATOM     93  F   UNL A   1      32.629  17.693  25.092  1.00  0.00    -0.203 F 
BRANCH  92  94
ATOM     94  O   UNL A   1      32.233  17.544  22.387  1.00  0.00    -0.505 OA
ATOM     95  H   UNL A   1      31.734  16.846  22.765  1.00  0.00     0.293 HD
ENDBRANCH  92  94
ENDBRANCH  82  87
ENDBRANCH  78  80
ENDBRANCH  77  78
ENDBRANCH  76  77
ENDBRANCH  75  76
ENDBRANCH  74  75
ENDBRANCH  73  74
ENDBRANCH   1  73
TORSDOF 19
ENDMDL
MODEL 2
REMARK VINA RESULT:     -11.7      4.321      9.267
REMARK SMILES O=C(OCCOCCOCCOC(=O)c1ccc(Cl)cc1-c1ccc(O)c(F)c1)c1ccc(-c2c3nc(c(-c4c(F)c(F)c(F)c(F)c4F)c4ccc([nH]4)c(-c4c(F)c(F)c(F)c(F)c4F)c4nc(c(-c5c(F)c(F)c(F)c(F)c5F)c5ccc2[nH]5)C=C4)C=C3)cc1
REMARK SMILES IDX 7 1 6 2 5 3 4 4 3 5 2 6 1 7 30 8 31 9 92 10 32 11 91 12
REMARK SMILES IDX 33 13 34 14 35 15 85 16 36 17 90 18 84 19 86 20 37 21 89 22
REMARK SMILES IDX 83 23 82 24 38 26 70 27 50 28 69 29 51 30 54 31 68 32 87 33
REMARK SMILES IDX 52 34 53 35 67 37 88 38 55 39 39 40 40 41 48 42 41 43 42 44
REMARK SMILES IDX 46 45 49 46 43 47 44 48 47 49 45 50 71 51 72 52 80 53 73 54
REMARK SMILES IDX 74 55 78 56 81 57 75 58 76 59 79 60 77 61 56 62 57 63 65 64
REMARK SMILES IDX 58 65 59 66 63 67 66 68 60 69 61 70 64 71 62 72 8 73 9 74
REMARK SMILES IDX 10 75 11 76 12 77 13 78 14 79 15 80 16 81 21 82 17 83 20 84
REMARK SMILES IDX 18 85 19 86 22 87 23 88 29 89 24 90 27 91 25 92 28 93 26 94
REMARK H PARENT 86 25 54 36 26 95
REMARK Flexibility Score: inf
ROOT
ATOM      1  C   UNL A   1      31.892  28.867  24.151  1.00  0.00     0.188 C 
ENDROOT
BRANCH   1   2
ATOM      2  O   UNL A   1      31.823  29.803  25.226  1.00  0.00    -0.376 OA
BRANCH   2   3
ATOM      3  C   UNL A   1      31.813  29.237  26.531  1.00  0.00     0.202 C 
BRANCH   3   4
ATOM      4  C   UNL A   1      33.218  29.195  27.144  1.00  0.00     0.261 C 
BRANCH   4   5
ATOM      5  O   UNL A   1      33.749  30.529  27.245  1.00  0.00    -0.460 OA
BRANCH   5   6
ATOM      6  C   UNL A   1      34.563  30.937  28.244  1.00  0.00     0.338 C 
ATOM      7  O   UNL A   1      34.347  32.010  28.801  1.00  0.00    -0.246 OA
BRANCH   6   8
ATOM      8  C   UNL A   1      35.876  30.249  28.491  1.00  0.00     0.060 A 
ATOM      9  C   UNL A   1      36.280  29.660  29.692  1.00  0.00     0.016 A 
ATOM     10  C   UNL A   1      36.788  30.231  27.416  1.00  0.00     0.016 A 
ATOM     11  C   UNL A   1      37.563  29.126  29.843  1.00  0.00     0.010 A 
ATOM     12  C   UNL A   1      38.068  29.679  27.554  1.00  0.00     0.010 A 
ATOM     13  C   UNL A   1      38.475  29.162  28.787  1.00  0.00    -0.014 A 
BRANCH  13  14
ATOM     14  C   UNL A   1      39.893  28.826  29.048  1.00  0.00     0.031 A 
ATOM     15  C   UNL A   1      40.745  29.830  29.771  1.00  0.00     0.074 A 
ATOM     16  C   UNL A   1      40.392  27.619  28.732  1.00  0.00     0.049 A 
ATOM     17  N   UNL A   1      42.004  29.751  30.121  1.00  0.00    -0.248 NA
ATOM     18  C   UNL A   1      40.085  31.080  30.180  1.00  0.00     0.031 C 
ATOM     19  C   UNL A   1      39.639  26.529  28.115  1.00  0.00     0.029 A 
ATOM     20  N   UNL A   1      41.654  27.105  28.897  1.00  0.00    -0.354 N 
ATOM     21  C   UNL A   1      42.277  30.929  30.803  1.00  0.00     0.074 A 
ATOM     22  C   UNL A   1      41.069  31.723  30.790  1.00  0.00     0.031 C 
ATOM     23  C   UNL A   1      40.463  25.483  27.935  1.00  0.00     0.029 A 
ATOM     24  C   UNL A   1      41.805  25.844  28.375  1.00  0.00     0.049 A 
ATOM     25  H   UNL A   1      42.381  27.593  29.347  1.00  0.00     0.167 HD
ATOM     26  C   UNL A   1      43.431  31.307  31.399  1.00  0.00     0.037 A 
ATOM     27  C   UNL A   1      42.909  25.087  28.230  1.00  0.00     0.037 A 
ATOM     28  C   UNL A   1      44.633  30.521  31.406  1.00  0.00     0.049 A 
ATOM     29  C   UNL A   1      44.220  25.600  28.758  1.00  0.00     0.074 A 
ATOM     30  C   UNL A   1      45.849  30.804  32.002  1.00  0.00     0.029 A 
ATOM     31  N   UNL A   1      44.772  29.299  30.766  1.00  0.00    -0.354 N 
ATOM     32  N   UNL A   1      44.466  26.705  29.418  1.00  0.00    -0.248 NA
ATOM     33  C   UNL A   1      45.405  24.764  28.520  1.00  0.00     0.031 C 
ATOM     34  C   UNL A   1      46.739  29.774  31.681  1.00  0.00     0.029 A 
ATOM     35  C   UNL A   1      46.068  28.835  30.915  1.00  0.00     0.049 A 
ATOM     36  H   UNL A   1      44.056  28.831  30.279  1.00  0.00     0.167 HD
ATOM     37  C   UNL A   1      45.826  26.692  29.687  1.00  0.00     0.074 A 
ATOM     38  C   UNL A   1      46.352  25.464  29.130  1.00  0.00     0.031 C 
ATOM     39  C   UNL A   1      46.572  27.615  30.341  1.00  0.00     0.037 A 
BRANCH  26  40
ATOM     40  C   UNL A   1      43.447  32.644  32.071  1.00  0.00     0.064 A 
ATOM     41  C   UNL A   1      43.176  32.780  33.440  1.00  0.00     0.173 A 
ATOM     42  C   UNL A   1      43.750  33.800  31.339  1.00  0.00     0.173 A 
ATOM     43  F   UNL A   1      42.860  31.705  34.176  1.00  0.00    -0.203 F 
ATOM     44  C   UNL A   1      43.193  34.032  34.050  1.00  0.00     0.198 A 
ATOM     45  C   UNL A   1      43.783  35.047  31.955  1.00  0.00     0.198 A 
ATOM     46  F   UNL A   1      44.010  33.718  30.025  1.00  0.00    -0.203 F 
ATOM     47  F   UNL A   1      42.896  34.147  35.351  1.00  0.00    -0.200 F 
ATOM     48  C   UNL A   1      43.501  35.163  33.308  1.00  0.00     0.200 A 
ATOM     49  F   UNL A   1      44.081  36.140  31.237  1.00  0.00    -0.200 F 
ATOM     50  F   UNL A   1      43.515  36.368  33.895  1.00  0.00    -0.200 F 
ENDBRANCH  26  40
BRANCH  27  51
ATOM     51  C   UNL A   1      42.845  23.809  27.477  1.00  0.00     0.064 A 
ATOM     52  C   UNL A   1      42.511  22.598  28.097  1.00  0.00     0.173 A 
ATOM     53  C   UNL A   1      43.165  23.776  26.112  1.00  0.00     0.173 A 
ATOM     54  F   UNL A   1      42.231  22.573  29.408  1.00  0.00    -0.203 F 
ATOM     55  C   UNL A   1      42.505  21.403  27.379  1.00  0.00     0.198 A 
ATOM     56  C   UNL A   1      43.130  22.587  25.389  1.00  0.00     0.198 A 
ATOM     57  F   UNL A   1      43.514  24.906  25.482  1.00  0.00    -0.203 F 
ATOM     58  F   UNL A   1      42.221  20.252  28.003  1.00  0.00    -0.200 F 
ATOM     59  C   UNL A   1      42.808  21.399  26.025  1.00  0.00     0.200 A 
ATOM     60  F   UNL A   1      43.411  22.592  24.079  1.00  0.00    -0.200 F 
ATOM     61  F   UNL A   1      42.796  20.250  25.336  1.00  0.00    -0.200 F 
ENDBRANCH  27  51
BRANCH  39  62
ATOM     62  C   UNL A   1      48.033  27.327  30.489  1.00  0.00     0.064 A 
ATOM     63  C   UNL A   1      48.965  27.802  29.557  1.00  0.00     0.173 A 
ATOM     64  C   UNL A   1      48.508  26.605  31.592  1.00  0.00     0.173 A 
ATOM     65  F   UNL A   1      48.551  28.479  28.474  1.00  0.00    -0.203 F 
ATOM     66  C   UNL A   1      50.324  27.554  29.718  1.00  0.00     0.198 A 
ATOM     67  C   UNL A   1      49.870  26.378  31.763  1.00  0.00     0.198 A 
ATOM     68  F   UNL A   1      47.652  26.132  32.511  1.00  0.00    -0.203 F 
ATOM     69  F   UNL A   1      51.196  27.987  28.797  1.00  0.00    -0.200 F 
ATOM     70  C   UNL A   1      50.776  26.849  30.824  1.00  0.00     0.200 A 
ATOM     71  F   UNL A   1      50.306  25.703  32.836  1.00  0.00    -0.200 F 
ATOM     72  F   UNL A   1      52.085  26.617  30.982  1.00  0.00    -0.200 F 
ENDBRANCH  39  62
ENDBRANCH  13  14
ENDBRANCH   6   8
ENDBRANCH   5   6
ENDBRANCH   4   5
ENDBRANCH   3   4
ENDBRANCH   2   3
ENDBRANCH   1   2
BRANCH   1  73
ATOM     73  C   UNL A   1      33.282  28.609  23.559  1.00  0.00     0.188 C 
BRANCH  73  74
ATOM     74  O   UNL A   1      33.667  27.265  23.305  1.00  0.00    -0.376 OA
BRANCH  74  75
ATOM     75  C   UNL A   1      33.391  26.706  22.029  1.00  0.00     0.202 C 
BRANCH  75  76
ATOM     76  C   UNL A   1      32.634  25.378  21.997  1.00  0.00     0.261 C 
BRANCH  76  77
ATOM     77  O   UNL A   1      33.456  24.226  21.723  1.00  0.00    -0.460 OA
BRANCH  77  78
ATOM     78  C   UNL A   1      33.305  23.188  22.576  1.00  0.00     0.338 C 
ATOM     79  O   UNL A   1      32.365  22.402  22.637  1.00  0.00    -0.246 OA
BRANCH  78  80
ATOM     80  C   UNL A   1      34.373  23.208  23.588  1.00  0.00     0.068 A 
ATOM     81  C   UNL A   1      35.676  22.984  23.112  1.00  0.00     0.018 A 
ATOM     82  C   UNL A   1      34.148  23.582  24.927  1.00  0.00    -0.002 A 
ATOM     83  C   UNL A   1      36.768  23.147  23.964  1.00  0.00     0.021 A 
ATOM     84  C   UNL A   1      35.268  23.697  25.775  1.00  0.00     0.030 A 
ATOM     85  C   UNL A   1      36.560  23.495  25.293  1.00  0.00     0.041 A 
ATOM     86  Cl  UNL A   1      37.901  23.712  26.344  1.00  0.00    -0.084 Cl
BRANCH  82  87
ATOM     87  C   UNL A   1      32.829  23.905  25.482  1.00  0.00    -0.014 A 
ATOM     88  C   UNL A   1      32.412  25.242  25.609  1.00  0.00     0.013 A 
ATOM     89  C   UNL A   1      31.921  22.889  25.809  1.00  0.00     0.052 A 
ATOM     90  C   UNL A   1      31.133  25.561  26.080  1.00  0.00     0.050 A 
ATOM     91  C   UNL A   1      30.645  23.208  26.263  1.00  0.00     0.165 A 
ATOM     92  C   UNL A   1      30.253  24.537  26.409  1.00  0.00     0.151 A 
ATOM     93  F   UNL A   1      29.792  22.213  26.548  1.00  0.00    -0.203 F 
BRANCH  92  94
ATOM     94  O   UNL A   1      29.002  24.814  26.876  1.00  0.00    -0.505 OA
ATOM     95  H   UNL A   1      28.405  24.115  27.062  1.00  0.00     0.293 HD
ENDBRANCH  92  94
ENDBRANCH  82  87
ENDBRANCH  78  80
ENDBRANCH  77  78
ENDBRANCH  76  77
ENDBRANCH  75  76
ENDBRANCH  74  75
ENDBRANCH  73  74
ENDBRANCH   1  73
TORSDOF 19
ENDMDL
MODEL 3
REMARK VINA RESULT:     -11.4      3.312      8.620
REMARK SMILES O=C(OCCOCCOCCOC(=O)c1ccc(Cl)cc1-c1ccc(O)c(F)c1)c1ccc(-c2c3nc(c(-c4c(F)c(F)c(F)c(F)c4F)c4ccc([nH]4)c(-c4c(F)c(F)c(F)c(F)c4F)c4nc(c(-c5c(F)c(F)c(F)c(F)c5F)c5ccc2[nH]5)C=C4)C=C3)cc1
REMARK SMILES IDX 7 1 6 2 5 3 4 4 3 5 2 6 1 7 30 8 31 9 92 10 32 11 91 12
REMARK SMILES IDX 33 13 34 14 35 15 85 16 36 17 90 18 84 19 86 20 37 21 89 22
REMARK SMILES IDX 83 23 82 24 38 26 70 27 50 28 69 29 51 30 54 31 68 32 87 33
REMARK SMILES IDX 52 34 53 35 67 37 88 38 55 39 39 40 40 41 48 42 41 43 42 44
REMARK SMILES IDX 46 45 49 46 43 47 44 48 47 49 45 50 71 51 72 52 80 53 73 54
REMARK SMILES IDX 74 55 78 56 81 57 75 58 76 59 79 60 77 61 56 62 57 63 65 64
REMARK SMILES IDX 58 65 59 66 63 67 66 68 60 69 61 70 64 71 62 72 8 73 9 74
REMARK SMILES IDX 10 75 11 76 12 77 13 78 14 79 15 80 16 81 21 82 17 83 20 84
REMARK SMILES IDX 18 85 19 86 22 87 23 88 29 89 24 90 27 91 25 92 28 93 26 94
REMARK H PARENT 86 25 54 36 26 95
REMARK Flexibility Score: inf
ROOT
ATOM      1  C   UNL A   1      32.393  29.939  25.785  1.00  0.00     0.188 C 
ENDROOT
BRANCH   1   2
ATOM      2  O   UNL A   1      31.860  30.581  26.943  1.00  0.00    -0.376 OA
BRANCH   2   3
ATOM      3  C   UNL A   1      31.095  31.755  26.695  1.00  0.00     0.202 C 
BRANCH   3   4
ATOM      4  C   UNL A   1      31.987  32.992  26.535  1.00  0.00     0.261 C 
BRANCH   4   5
ATOM      5  O   UNL A   1      32.390  33.476  27.829  1.00  0.00    -0.460 OA
BRANCH   5   6
ATOM      6  C   UNL A   1      33.613  33.992  28.086  1.00  0.00     0.338 C 
ATOM      7  O   UNL A   1      33.857  35.155  27.773  1.00  0.00    -0.246 OA
BRANCH   6   8
ATOM      8  C   UNL A   1      34.755  33.098  28.480  1.00  0.00     0.060 A 
ATOM      9  C   UNL A   1      34.647  31.772  28.905  1.00  0.00     0.016 A 
ATOM     10  C   UNL A   1      36.042  33.670  28.444  1.00  0.00     0.016 A 
ATOM     11  C   UNL A   1      35.768  31.056  29.338  1.00  0.00     0.010 A 
ATOM     12  C   UNL A   1      37.173  32.952  28.857  1.00  0.00     0.010 A 
ATOM     13  C   UNL A   1      37.030  31.651  29.348  1.00  0.00    -0.014 A 
BRANCH  13  14
ATOM     14  C   UNL A   1      38.144  30.967  30.043  1.00  0.00     0.031 A 
ATOM     15  C   UNL A   1      38.419  31.321  31.477  1.00  0.00     0.074 A 
ATOM     16  C   UNL A   1      38.839  29.984  29.444  1.00  0.00     0.049 A 
ATOM     17  N   UNL A   1      39.328  30.845  32.289  1.00  0.00    -0.248 NA
ATOM     18  C   UNL A   1      37.534  32.326  32.087  1.00  0.00     0.031 C 
ATOM     19  C   UNL A   1      38.603  29.487  28.090  1.00  0.00     0.029 A 
ATOM     20  N   UNL A   1      39.884  29.223  29.905  1.00  0.00    -0.354 N 
ATOM     21  C   UNL A   1      39.112  31.480  33.504  1.00  0.00     0.074 A 
ATOM     22  C   UNL A   1      38.012  32.399  33.320  1.00  0.00     0.031 C 
ATOM     23  C   UNL A   1      39.494  28.517  27.825  1.00  0.00     0.029 A 
ATOM     24  C   UNL A   1      40.390  28.360  28.965  1.00  0.00     0.049 A 
ATOM     25  H   UNL A   1      40.236  29.289  30.822  1.00  0.00     0.167 HD
ATOM     26  C   UNL A   1      39.766  31.299  34.675  1.00  0.00     0.037 A 
ATOM     27  C   UNL A   1      41.478  27.568  29.005  1.00  0.00     0.037 A 
ATOM     28  C   UNL A   1      40.864  30.391  34.856  1.00  0.00     0.049 A 
ATOM     29  C   UNL A   1      42.289  27.505  30.269  1.00  0.00     0.074 A 
ATOM     30  C   UNL A   1      41.579  30.117  36.008  1.00  0.00     0.029 A 
ATOM     31  N   UNL A   1      41.416  29.620  33.845  1.00  0.00    -0.354 N 
ATOM     32  N   UNL A   1      42.067  28.093  31.419  1.00  0.00    -0.248 NA
ATOM     33  C   UNL A   1      43.501  26.674  30.241  1.00  0.00     0.031 C 
ATOM     34  C   UNL A   1      42.597  29.215  35.682  1.00  0.00     0.029 A 
ATOM     35  C   UNL A   1      42.493  28.902  34.336  1.00  0.00     0.049 A 
ATOM     36  H   UNL A   1      41.090  29.587  32.917  1.00  0.00     0.167 HD
ATOM     37  C   UNL A   1      43.098  27.693  32.255  1.00  0.00     0.074 A 
ATOM     38  C   UNL A   1      43.942  26.803  31.485  1.00  0.00     0.031 C 
ATOM     39  C   UNL A   1      43.325  28.031  33.548  1.00  0.00     0.037 A 
BRANCH  26  40
ATOM     40  C   UNL A   1      39.321  32.124  35.841  1.00  0.00     0.064 A 
ATOM     41  C   UNL A   1      39.839  33.407  36.072  1.00  0.00     0.173 A 
ATOM     42  C   UNL A   1      38.356  31.631  36.729  1.00  0.00     0.173 A 
ATOM     43  F   UNL A   1      40.780  33.912  35.261  1.00  0.00    -0.203 F 
ATOM     44  C   UNL A   1      39.416  34.162  37.163  1.00  0.00     0.198 A 
ATOM     45  C   UNL A   1      37.923  32.395  37.809  1.00  0.00     0.198 A 
ATOM     46  F   UNL A   1      37.837  30.407  36.551  1.00  0.00    -0.203 F 
ATOM     47  F   UNL A   1      39.948  35.370  37.388  1.00  0.00    -0.200 F 
ATOM     48  C   UNL A   1      38.455  33.657  38.027  1.00  0.00     0.200 A 
ATOM     49  F   UNL A   1      36.994  31.907  38.644  1.00  0.00    -0.200 F 
ATOM     50  F   UNL A   1      38.049  34.383  39.078  1.00  0.00    -0.200 F 
ENDBRANCH  26  40
BRANCH  27  51
ATOM     51  C   UNL A   1      41.918  26.841  27.787  1.00  0.00     0.064 A 
ATOM     52  C   UNL A   1      41.482  25.541  27.500  1.00  0.00     0.173 A 
ATOM     53  C   UNL A   1      42.830  27.433  26.902  1.00  0.00     0.173 A 
ATOM     54  F   UNL A   1      40.637  24.919  28.336  1.00  0.00    -0.203 F 
ATOM     55  C   UNL A   1      41.948  24.861  26.376  1.00  0.00     0.198 A 
ATOM     56  C   UNL A   1      43.272  26.764  25.764  1.00  0.00     0.198 A 
ATOM     57  F   UNL A   1      43.294  28.667  27.148  1.00  0.00    -0.203 F 
ATOM     58  F   UNL A   1      41.548  23.603  26.144  1.00  0.00    -0.200 F 
ATOM     59  C   UNL A   1      42.837  25.475  25.505  1.00  0.00     0.200 A 
ATOM     60  F   UNL A   1      44.120  27.368  24.920  1.00  0.00    -0.200 F 
ATOM     61  F   UNL A   1      43.279  24.821  24.422  1.00  0.00    -0.200 F 
ENDBRANCH  27  51
BRANCH  39  62
ATOM     62  C   UNL A   1      44.528  27.433  34.206  1.00  0.00     0.064 A 
ATOM     63  C   UNL A   1      44.476  26.166  34.803  1.00  0.00     0.173 A 
ATOM     64  C   UNL A   1      45.753  28.115  34.203  1.00  0.00     0.173 A 
ATOM     65  F   UNL A   1      43.319  25.489  34.847  1.00  0.00    -0.203 F 
ATOM     66  C   UNL A   1      45.608  25.607  35.387  1.00  0.00     0.198 A 
ATOM     67  C   UNL A   1      46.889  27.542  34.768  1.00  0.00     0.198 A 
ATOM     68  F   UNL A   1      45.851  29.329  33.641  1.00  0.00    -0.203 F 
ATOM     69  F   UNL A   1      45.528  24.410  35.984  1.00  0.00    -0.200 F 
ATOM     70  C   UNL A   1      46.814  26.291  35.362  1.00  0.00     0.200 A 
ATOM     71  F   UNL A   1      48.056  28.201  34.736  1.00  0.00    -0.200 F 
ATOM     72  F   UNL A   1      47.904  25.748  35.918  1.00  0.00    -0.200 F 
ENDBRANCH  39  62
ENDBRANCH  13  14
ENDBRANCH   6   8
ENDBRANCH   5   6
ENDBRANCH   4   5
ENDBRANCH   3   4
ENDBRANCH   2   3
ENDBRANCH   1   2
BRANCH   1  73
ATOM     73  C   UNL A   1      31.416  29.091  24.963  1.00  0.00     0.188 C 
BRANCH  73  74
ATOM     74  O   UNL A   1      31.657  28.947  23.571  1.00  0.00    -0.376 OA
BRANCH  74  75
ATOM     75  C   UNL A   1      33.000  28.891  23.112  1.00  0.00     0.202 C 
BRANCH  75  76
ATOM     76  C   UNL A   1      33.448  27.603  22.421  1.00  0.00     0.261 C 
BRANCH  76  77
ATOM     77  O   UNL A   1      33.981  26.601  23.311  1.00  0.00    -0.460 OA
BRANCH  77  78
ATOM     78  C   UNL A   1      33.613  25.328  23.039  1.00  0.00     0.338 C 
ATOM     79  O   UNL A   1      33.776  24.710  21.993  1.00  0.00    -0.246 OA
BRANCH  78  80
ATOM     80  C   UNL A   1      32.801  24.793  24.144  1.00  0.00     0.068 A 
ATOM     81  C   UNL A   1      31.439  25.141  24.131  1.00  0.00     0.018 A 
ATOM     82  C   UNL A   1      33.299  23.864  25.076  1.00  0.00    -0.002 A 
ATOM     83  C   UNL A   1      30.559  24.551  25.039  1.00  0.00     0.021 A 
ATOM     84  C   UNL A   1      32.395  23.316  26.009  1.00  0.00     0.030 A 
ATOM     85  C   UNL A   1      31.042  23.648  25.979  1.00  0.00     0.041 A 
ATOM     86  Cl  UNL A   1      29.962  22.907  27.089  1.00  0.00    -0.084 Cl
BRANCH  82  87
ATOM     87  C   UNL A   1      34.688  23.393  25.108  1.00  0.00    -0.014 A 
ATOM     88  C   UNL A   1      35.721  24.233  25.563  1.00  0.00     0.013 A 
ATOM     89  C   UNL A   1      35.003  22.069  24.776  1.00  0.00     0.052 A 
ATOM     90  C   UNL A   1      37.040  23.775  25.655  1.00  0.00     0.050 A 
ATOM     91  C   UNL A   1      36.314  21.611  24.882  1.00  0.00     0.165 A 
ATOM     92  C   UNL A   1      37.332  22.461  25.309  1.00  0.00     0.151 A 
ATOM     93  F   UNL A   1      36.580  20.333  24.577  1.00  0.00    -0.203 F 
BRANCH  92  94
ATOM     94  O   UNL A   1      38.608  21.986  25.383  1.00  0.00    -0.505 OA
ATOM     95  H   UNL A   1      39.063  21.739  24.600  1.00  0.00     0.293 HD
ENDBRANCH  92  94
ENDBRANCH  82  87
ENDBRANCH  78  80
ENDBRANCH  77  78
ENDBRANCH  76  77
ENDBRANCH  75  76
ENDBRANCH  74  75
ENDBRANCH  73  74
ENDBRANCH   1  73
TORSDOF 19
ENDMDL
