MODEL 1
REMARK VINA RESULT:     -11.0      0.000      0.000
REMARK SMILES O=C(CCOc1cc(-c2ccncc2)nc(-c2ccc(C(F)(F)F)cc2)n1)OCCOCCOCCOC(=O)c1ccc(-c2c3nc(c(-c4c(F)c(F)c(F)c(F)c4F)c4ccc([nH]4)c(-c4c(F)c(F)c(F)c(F)c4F)c4nc(c(-c5c(F)c(F)c(F)c(F)c5F)c5ccc2[nH]5)C=C4)C=C3)cc1
REMARK SMILES IDX 31 1 30 2 29 3 28 4 2 5 1 6 3 7 4 8 5 9 6 10 7 11 27 12 8 13
REMARK SMILES IDX 16 14 15 15 9 16 10 17 14 18 11 19 13 20 12 21 17 22 18 23
REMARK SMILES IDX 26 24 19 25 25 26 20 27 21 28 22 29 23 30 24 31 32 32 33 33
REMARK SMILES IDX 34 34 35 35 36 36 37 37 38 38 39 39 40 40 41 41 102 42 42 43
REMARK SMILES IDX 101 44 43 45 44 46 45 47 95 48 46 49 100 50 94 51 96 52
REMARK SMILES IDX 47 53 99 54 93 55 92 56 48 58 80 59 60 60 79 61 61 62 64 63
REMARK SMILES IDX 78 64 97 65 62 66 63 67 77 69 98 70 65 71 49 72 50 73 58 74
REMARK SMILES IDX 51 75 52 76 56 77 59 78 53 79 54 80 57 81 55 82 81 83 82 84
REMARK SMILES IDX 90 85 83 86 84 87 88 88 91 89 85 90 86 91 89 92 87 93 66 94
REMARK SMILES IDX 67 95 75 96 68 97 69 98 73 99 76 100 70 101 71 102 74 103
REMARK SMILES IDX 72 104
REMARK H PARENT 96 57 64 68
REMARK Flexibility Score: inf
ROOT
ATOM      1  O   UNL A   1      35.593  23.463  23.444  1.00  0.00    -0.376 OA
ENDROOT
BRANCH   1   2
ATOM      2  C   UNL A   1      34.351  22.895  23.062  1.00  0.00     0.202 C 
BRANCH   2   3
ATOM      3  C   UNL A   1      33.356  23.812  22.352  1.00  0.00     0.261 C 
BRANCH   3   4
ATOM      4  O   UNL A   1      33.813  25.170  22.135  1.00  0.00    -0.463 OA
BRANCH   4   5
ATOM      5  C   UNL A   1      33.153  26.224  21.621  1.00  0.00     0.309 C 
ATOM      6  O   UNL A   1      33.755  27.266  21.366  1.00  0.00    -0.252 OA
BRANCH   5   7
ATOM      7  C   UNL A   1      31.713  26.079  21.277  1.00  0.00     0.164 C 
BRANCH   7   8
ATOM      8  C   UNL A   1      30.913  27.154  21.990  1.00  0.00     0.243 C 
BRANCH   8   9
ATOM      9  O   UNL A   1      30.347  26.706  23.217  1.00  0.00    -0.477 OA
BRANCH   9  10
ATOM     10  C   UNL A   1      31.143  26.417  24.281  1.00  0.00     0.217 A 
ATOM     11  C   UNL A   1      31.215  25.231  24.967  1.00  0.00     0.097 A 
ATOM     12  N   UNL A   1      31.941  27.442  24.572  1.00  0.00    -0.193 NA
ATOM     13  C   UNL A   1      32.321  25.068  25.786  1.00  0.00     0.078 A 
ATOM     14  C   UNL A   1      32.819  27.274  25.573  1.00  0.00     0.163 A 
ATOM     15  N   UNL A   1      33.127  26.094  26.126  1.00  0.00    -0.228 NA
BRANCH  13  16
ATOM     16  C   UNL A   1      32.745  23.731  26.224  1.00  0.00     0.003 A 
ATOM     17  C   UNL A   1      33.942  23.574  26.936  1.00  0.00     0.030 A 
ATOM     18  C   UNL A   1      32.032  22.577  25.886  1.00  0.00     0.030 A 
ATOM     19  C   UNL A   1      34.375  22.299  27.260  1.00  0.00     0.111 A 
ATOM     20  C   UNL A   1      32.540  21.343  26.267  1.00  0.00     0.111 A 
ATOM     21  N   UNL A   1      33.697  21.178  26.943  1.00  0.00    -0.265 NA
ENDBRANCH  13  16
BRANCH  14  22
ATOM     22  C   UNL A   1      33.102  28.490  26.340  1.00  0.00     0.019 A 
ATOM     23  C   UNL A   1      34.403  28.644  26.865  1.00  0.00     0.012 A 
ATOM     24  C   UNL A   1      32.195  29.542  26.508  1.00  0.00     0.012 A 
ATOM     25  C   UNL A   1      34.801  29.807  27.507  1.00  0.00     0.014 A 
ATOM     26  C   UNL A   1      32.588  30.715  27.172  1.00  0.00     0.014 A 
ATOM     27  C   UNL A   1      33.897  30.860  27.661  1.00  0.00     0.056 A 
BRANCH  27  28
ATOM     28  C   UNL A   1      34.377  32.123  28.325  1.00  0.00     0.416 C 
ATOM     29  F   UNL A   1      34.264  32.069  29.682  1.00  0.00    -0.166 F 
ATOM     30  F   UNL A   1      35.694  32.368  28.074  1.00  0.00    -0.166 F 
ATOM     31  F   UNL A   1      33.706  33.240  27.935  1.00  0.00    -0.166 F 
ENDBRANCH  27  28
ENDBRANCH  14  22
ENDBRANCH   9  10
ENDBRANCH   8   9
ENDBRANCH   7   8
ENDBRANCH   5   7
ENDBRANCH   4   5
ENDBRANCH   3   4
ENDBRANCH   2   3
ENDBRANCH   1   2
BRANCH   1  32
ATOM     32  C   UNL A   1      36.693  22.563  23.528  1.00  0.00     0.188 C 
BRANCH  32  33
ATOM     33  C   UNL A   1      37.317  22.519  24.938  1.00  0.00     0.188 C 
BRANCH  33  34
ATOM     34  O   UNL A   1      37.157  21.239  25.550  1.00  0.00    -0.376 OA
BRANCH  34  35
ATOM     35  C   UNL A   1      37.907  20.190  24.938  1.00  0.00     0.202 C 
BRANCH  35  36
ATOM     36  C   UNL A   1      39.219  19.777  25.634  1.00  0.00     0.261 C 
BRANCH  36  37
ATOM     37  O   UNL A   1      40.249  20.784  25.725  1.00  0.00    -0.460 OA
BRANCH  37  38
ATOM     38  C   UNL A   1      41.114  20.750  26.760  1.00  0.00     0.338 C 
ATOM     39  O   UNL A   1      41.832  19.820  27.085  1.00  0.00    -0.246 OA
BRANCH  38  40
ATOM     40  C   UNL A   1      41.236  22.132  27.304  1.00  0.00     0.060 A 
ATOM     41  C   UNL A   1      40.468  23.152  26.724  1.00  0.00     0.016 A 
ATOM     42  C   UNL A   1      42.030  22.412  28.423  1.00  0.00     0.016 A 
ATOM     43  C   UNL A   1      40.548  24.463  27.209  1.00  0.00     0.010 A 
ATOM     44  C   UNL A   1      42.124  23.726  28.900  1.00  0.00     0.010 A 
ATOM     45  C   UNL A   1      41.432  24.768  28.255  1.00  0.00    -0.014 A 
BRANCH  45  46
ATOM     46  C   UNL A   1      41.889  26.174  28.419  1.00  0.00     0.031 A 
ATOM     47  C   UNL A   1      43.209  26.537  27.783  1.00  0.00     0.074 A 
ATOM     48  C   UNL A   1      41.170  27.120  29.050  1.00  0.00     0.049 A 
ATOM     49  N   UNL A   1      43.841  27.683  27.750  1.00  0.00    -0.248 NA
ATOM     50  C   UNL A   1      43.916  25.446  27.090  1.00  0.00     0.031 C 
ATOM     51  C   UNL A   1      39.865  26.924  29.672  1.00  0.00     0.029 A 
ATOM     52  N   UNL A   1      41.450  28.450  29.265  1.00  0.00    -0.354 N 
ATOM     53  C   UNL A   1      45.012  27.444  27.041  1.00  0.00     0.074 A 
ATOM     54  C   UNL A   1      45.027  26.042  26.698  1.00  0.00     0.031 C 
ATOM     55  C   UNL A   1      39.454  28.093  30.200  1.00  0.00     0.029 A 
ATOM     56  C   UNL A   1      40.476  29.115  29.970  1.00  0.00     0.049 A 
ATOM     57  H   UNL A   1      42.272  28.884  28.943  1.00  0.00     0.167 HD
ATOM     58  C   UNL A   1      45.986  28.316  26.689  1.00  0.00     0.037 A 
ATOM     59  C   UNL A   1      40.426  30.399  30.382  1.00  0.00     0.037 A 
ATOM     60  C   UNL A   1      45.978  29.712  27.022  1.00  0.00     0.049 A 
ATOM     61  C   UNL A   1      41.559  31.338  30.037  1.00  0.00     0.074 A 
ATOM     62  C   UNL A   1      46.907  30.682  26.694  1.00  0.00     0.029 A 
ATOM     63  N   UNL A   1      44.992  30.336  27.772  1.00  0.00    -0.354 N 
ATOM     64  N   UNL A   1      42.641  31.114  29.332  1.00  0.00    -0.248 NA
ATOM     65  C   UNL A   1      41.455  32.716  30.545  1.00  0.00     0.031 C 
ATOM     66  C   UNL A   1      46.514  31.882  27.294  1.00  0.00     0.029 A 
ATOM     67  C   UNL A   1      45.306  31.673  27.941  1.00  0.00     0.049 A 
ATOM     68  H   UNL A   1      44.189  29.893  28.130  1.00  0.00     0.167 HD
ATOM     69  C   UNL A   1      43.321  32.327  29.273  1.00  0.00     0.074 A 
ATOM     70  C   UNL A   1      42.526  33.285  30.011  1.00  0.00     0.031 C 
ATOM     71  C   UNL A   1      44.495  32.622  28.662  1.00  0.00     0.037 A 
BRANCH  58  72
ATOM     72  C   UNL A   1      47.158  27.763  25.931  1.00  0.00     0.064 A 
ATOM     73  C   UNL A   1      47.183  27.728  24.528  1.00  0.00     0.173 A 
ATOM     74  C   UNL A   1      48.270  27.261  26.621  1.00  0.00     0.173 A 
ATOM     75  F   UNL A   1      46.134  28.175  23.821  1.00  0.00    -0.203 F 
ATOM     76  C   UNL A   1      48.266  27.179  23.847  1.00  0.00     0.198 A 
ATOM     77  C   UNL A   1      49.365  26.743  25.936  1.00  0.00     0.198 A 
ATOM     78  F   UNL A   1      48.294  27.268  27.963  1.00  0.00    -0.203 F 
ATOM     79  F   UNL A   1      48.243  27.099  22.508  1.00  0.00    -0.200 F 
ATOM     80  C   UNL A   1      49.358  26.694  24.550  1.00  0.00     0.200 A 
ATOM     81  F   UNL A   1      50.423  26.283  26.617  1.00  0.00    -0.200 F 
ATOM     82  F   UNL A   1      50.401  26.168  23.893  1.00  0.00    -0.200 F 
ENDBRANCH  58  72
BRANCH  59  83
ATOM     83  C   UNL A   1      39.257  30.895  31.162  1.00  0.00     0.064 A 
ATOM     84  C   UNL A   1      38.301  31.736  30.575  1.00  0.00     0.173 A 
ATOM     85  C   UNL A   1      39.100  30.581  32.519  1.00  0.00     0.173 A 
ATOM     86  F   UNL A   1      38.422  32.096  29.289  1.00  0.00    -0.203 F 
ATOM     87  C   UNL A   1      37.244  32.260  31.320  1.00  0.00     0.198 A 
ATOM     88  C   UNL A   1      38.028  31.081  33.257  1.00  0.00     0.198 A 
ATOM     89  F   UNL A   1      39.991  29.788  33.134  1.00  0.00    -0.203 F 
ATOM     90  F   UNL A   1      36.376  33.105  30.749  1.00  0.00    -0.200 F 
ATOM     91  C   UNL A   1      37.106  31.928  32.660  1.00  0.00     0.200 A 
ATOM     92  F   UNL A   1      37.893  30.751  34.548  1.00  0.00    -0.200 F 
ATOM     93  F   UNL A   1      36.092  32.430  33.376  1.00  0.00    -0.200 F 
ENDBRANCH  59  83
BRANCH  71  94
ATOM     94  C   UNL A   1      44.967  34.048  28.708  1.00  0.00     0.064 A 
ATOM     95  C   UNL A   1      45.856  34.505  29.692  1.00  0.00     0.173 A 
ATOM     96  C   UNL A   1      44.554  34.960  27.724  1.00  0.00     0.173 A 
ATOM     97  F   UNL A   1      46.275  33.677  30.660  1.00  0.00    -0.203 F 
ATOM     98  C   UNL A   1      46.287  35.830  29.708  1.00  0.00     0.198 A 
ATOM     99  C   UNL A   1      45.012  36.275  27.724  1.00  0.00     0.198 A 
ATOM    100  F   UNL A   1      43.713  34.573  26.752  1.00  0.00    -0.203 F 
ATOM    101  F   UNL A   1      47.092  36.258  30.690  1.00  0.00    -0.200 F 
ATOM    102  C   UNL A   1      45.870  36.711  28.721  1.00  0.00     0.200 A 
ATOM    103  F   UNL A   1      44.623  37.119  26.759  1.00  0.00    -0.200 F 
ATOM    104  F   UNL A   1      46.289  37.984  28.736  1.00  0.00    -0.200 F 
ENDBRANCH  71  94
ENDBRANCH  45  46
ENDBRANCH  38  40
ENDBRANCH  37  38
ENDBRANCH  36  37
ENDBRANCH  35  36
ENDBRANCH  34  35
ENDBRANCH  33  34
ENDBRANCH  32  33
ENDBRANCH   1  32
TORSDOF 23
ENDMDL
MODEL 2
REMARK VINA RESULT:     -10.9      1.736      3.466
REMARK SMILES O=C(CCOc1cc(-c2ccncc2)nc(-c2ccc(C(F)(F)F)cc2)n1)OCCOCCOCCOC(=O)c1ccc(-c2c3nc(c(-c4c(F)c(F)c(F)c(F)c4F)c4ccc([nH]4)c(-c4c(F)c(F)c(F)c(F)c4F)c4nc(c(-c5c(F)c(F)c(F)c(F)c5F)c5ccc2[nH]5)C=C4)C=C3)cc1
REMARK SMILES IDX 31 1 30 2 29 3 28 4 2 5 1 6 3 7 4 8 5 9 6 10 7 11 27 12 8 13
REMARK SMILES IDX 16 14 15 15 9 16 10 17 14 18 11 19 13 20 12 21 17 22 18 23
REMARK SMILES IDX 26 24 19 25 25 26 20 27 21 28 22 29 23 30 24 31 32 32 33 33
REMARK SMILES IDX 34 34 35 35 36 36 37 37 38 38 39 39 40 40 41 41 102 42 42 43
REMARK SMILES IDX 101 44 43 45 44 46 45 47 95 48 46 49 100 50 94 51 96 52
REMARK SMILES IDX 47 53 99 54 93 55 92 56 48 58 80 59 60 60 79 61 61 62 64 63
REMARK SMILES IDX 78 64 97 65 62 66 63 67 77 69 98 70 65 71 49 72 50 73 58 74
REMARK SMILES IDX 51 75 52 76 56 77 59 78 53 79 54 80 57 81 55 82 81 83 82 84
REMARK SMILES IDX 90 85 83 86 84 87 88 88 91 89 85 90 86 91 89 92 87 93 66 94
REMARK SMILES IDX 67 95 75 96 68 97 69 98 73 99 76 100 70 101 71 102 74 103
REMARK SMILES IDX 72 104
REMARK H PARENT 96 57 64 68
REMARK Flexibility Score: inf
ROOT
ATOM      1  O   UNL A   1      34.145  23.599  23.820  1.00  0.00    -0.376 OA
ENDROOT
BRANCH   1   2
ATOM      2  C   UNL A   1      33.770  22.371  23.218  1.00  0.00     0.202 C 
BRANCH   2   3
ATOM      3  C   UNL A   1      32.525  21.678  23.769  1.00  0.00     0.261 C 
BRANCH   3   4
ATOM      4  O   UNL A   1      31.436  22.561  24.133  1.00  0.00    -0.463 OA
BRANCH   4   5
ATOM      5  C   UNL A   1      31.029  22.964  25.351  1.00  0.00     0.309 C 
ATOM      6  O   UNL A   1      30.500  22.165  26.123  1.00  0.00    -0.252 OA
BRANCH   5   7
ATOM      7  C   UNL A   1      31.314  24.359  25.784  1.00  0.00     0.164 C 
BRANCH   7   8
ATOM      8  C   UNL A   1      30.066  25.206  25.609  1.00  0.00     0.243 C 
BRANCH   8   9
ATOM      9  O   UNL A   1      30.018  25.875  24.353  1.00  0.00    -0.477 OA
BRANCH   9  10
ATOM     10  C   UNL A   1      30.297  27.203  24.265  1.00  0.00     0.217 A 
ATOM     11  C   UNL A   1      29.876  28.077  23.296  1.00  0.00     0.097 A 
ATOM     12  N   UNL A   1      31.011  27.611  25.311  1.00  0.00    -0.193 NA
ATOM     13  C   UNL A   1      30.004  29.425  23.594  1.00  0.00     0.078 A 
ATOM     14  C   UNL A   1      31.313  28.917  25.379  1.00  0.00     0.163 A 
ATOM     15  N   UNL A   1      30.750  29.869  24.626  1.00  0.00    -0.228 NA
BRANCH  13  16
ATOM     16  C   UNL A   1      29.224  30.436  22.868  1.00  0.00     0.003 A 
ATOM     17  C   UNL A   1      28.683  30.134  21.611  1.00  0.00     0.030 A 
ATOM     18  C   UNL A   1      29.063  31.738  23.350  1.00  0.00     0.030 A 
ATOM     19  C   UNL A   1      28.031  31.126  20.898  1.00  0.00     0.111 A 
ATOM     20  C   UNL A   1      28.381  32.660  22.568  1.00  0.00     0.111 A 
ATOM     21  N   UNL A   1      27.865  32.385  21.351  1.00  0.00    -0.265 NA
ENDBRANCH  13  16
BRANCH  14  22
ATOM     22  C   UNL A   1      32.607  29.206  26.004  1.00  0.00     0.019 A 
ATOM     23  C   UNL A   1      32.794  30.492  26.552  1.00  0.00     0.012 A 
ATOM     24  C   UNL A   1      33.630  28.265  26.166  1.00  0.00     0.012 A 
ATOM     25  C   UNL A   1      33.939  30.827  27.261  1.00  0.00     0.014 A 
ATOM     26  C   UNL A   1      34.796  28.603  26.869  1.00  0.00     0.014 A 
ATOM     27  C   UNL A   1      34.951  29.880  27.433  1.00  0.00     0.056 A 
BRANCH  27  28
ATOM     28  C   UNL A   1      36.159  30.266  28.245  1.00  0.00     0.416 C 
ATOM     29  F   UNL A   1      37.326  29.926  27.629  1.00  0.00    -0.166 F 
ATOM     30  F   UNL A   1      36.230  31.610  28.455  1.00  0.00    -0.166 F 
ATOM     31  F   UNL A   1      36.203  29.690  29.476  1.00  0.00    -0.166 F 
ENDBRANCH  27  28
ENDBRANCH  14  22
ENDBRANCH   9  10
ENDBRANCH   8   9
ENDBRANCH   7   8
ENDBRANCH   5   7
ENDBRANCH   4   5
ENDBRANCH   3   4
ENDBRANCH   2   3
ENDBRANCH   1   2
BRANCH   1  32
ATOM     32  C   UNL A   1      35.408  23.611  24.479  1.00  0.00     0.188 C 
BRANCH  32  33
ATOM     33  C   UNL A   1      35.420  22.739  25.752  1.00  0.00     0.188 C 
BRANCH  33  34
ATOM     34  O   UNL A   1      35.977  21.449  25.504  1.00  0.00    -0.376 OA
BRANCH  34  35
ATOM     35  C   UNL A   1      37.147  21.452  24.686  1.00  0.00     0.202 C 
BRANCH  35  36
ATOM     36  C   UNL A   1      38.398  20.759  25.259  1.00  0.00     0.261 C 
BRANCH  36  37
ATOM     37  O   UNL A   1      38.949  21.315  26.472  1.00  0.00    -0.460 OA
BRANCH  37  38
ATOM     38  C   UNL A   1      40.288  21.433  26.595  1.00  0.00     0.338 C 
ATOM     39  O   UNL A   1      41.134  20.697  26.118  1.00  0.00    -0.246 OA
BRANCH  38  40
ATOM     40  C   UNL A   1      40.579  22.760  27.206  1.00  0.00     0.060 A 
ATOM     41  C   UNL A   1      39.758  23.848  26.875  1.00  0.00     0.016 A 
ATOM     42  C   UNL A   1      41.593  22.921  28.159  1.00  0.00     0.016 A 
ATOM     43  C   UNL A   1      39.994  25.109  27.433  1.00  0.00     0.010 A 
ATOM     44  C   UNL A   1      41.841  24.186  28.706  1.00  0.00     0.010 A 
ATOM     45  C   UNL A   1      41.082  25.299  28.298  1.00  0.00    -0.014 A 
BRANCH  45  46
ATOM     46  C   UNL A   1      41.626  26.672  28.472  1.00  0.00     0.031 A 
ATOM     47  C   UNL A   1      42.984  26.946  27.871  1.00  0.00     0.074 A 
ATOM     48  C   UNL A   1      40.955  27.665  29.084  1.00  0.00     0.049 A 
ATOM     49  N   UNL A   1      43.690  28.048  27.855  1.00  0.00    -0.248 NA
ATOM     50  C   UNL A   1      43.635  25.809  27.198  1.00  0.00     0.031 C 
ATOM     51  C   UNL A   1      39.624  27.557  29.672  1.00  0.00     0.029 A 
ATOM     52  N   UNL A   1      41.316  28.974  29.306  1.00  0.00    -0.354 N 
ATOM     53  C   UNL A   1      44.861  27.731  27.176  1.00  0.00     0.074 A 
ATOM     54  C   UNL A   1      44.793  26.329  26.835  1.00  0.00     0.031 C 
ATOM     55  C   UNL A   1      39.277  28.752  30.188  1.00  0.00     0.029 A 
ATOM     56  C   UNL A   1      40.371  29.703  29.985  1.00  0.00     0.049 A 
ATOM     57  H   UNL A   1      42.173  29.353  29.005  1.00  0.00     0.167 HD
ATOM     58  C   UNL A   1      45.899  28.535  26.850  1.00  0.00     0.037 A 
ATOM     59  C   UNL A   1      40.394  30.989  30.394  1.00  0.00     0.037 A 
ATOM     60  C   UNL A   1      45.975  29.930  27.182  1.00  0.00     0.049 A 
ATOM     61  C   UNL A   1      41.595  31.850  30.079  1.00  0.00     0.074 A 
ATOM     62  C   UNL A   1      46.975  30.836  26.878  1.00  0.00     0.029 A 
ATOM     63  N   UNL A   1      45.013  30.619  27.905  1.00  0.00    -0.354 N 
ATOM     64  N   UNL A   1      42.679  31.554  29.403  1.00  0.00    -0.248 NA
ATOM     65  C   UNL A   1      41.569  33.233  30.583  1.00  0.00     0.031 C 
ATOM     66  C   UNL A   1      46.645  32.060  27.467  1.00  0.00     0.029 A 
ATOM     67  C   UNL A   1      45.410  31.933  28.082  1.00  0.00     0.049 A 
ATOM     68  H   UNL A   1      44.173  30.231  28.242  1.00  0.00     0.167 HD
ATOM     69  C   UNL A   1      43.438  32.719  29.361  1.00  0.00     0.074 A 
ATOM     70  C   UNL A   1      42.689  33.730  30.076  1.00  0.00     0.031 C 
ATOM     71  C   UNL A   1      44.645  32.934  28.780  1.00  0.00     0.037 A 
BRANCH  58  72
ATOM     72  C   UNL A   1      47.052  27.905  26.123  1.00  0.00     0.064 A 
ATOM     73  C   UNL A   1      47.068  27.780  24.725  1.00  0.00     0.173 A 
ATOM     74  C   UNL A   1      48.155  27.417  26.839  1.00  0.00     0.173 A 
ATOM     75  F   UNL A   1      46.027  28.209  23.996  1.00  0.00    -0.203 F 
ATOM     76  C   UNL A   1      48.132  27.161  24.076  1.00  0.00     0.198 A 
ATOM     77  C   UNL A   1      49.231  26.828  26.183  1.00  0.00     0.198 A 
ATOM     78  F   UNL A   1      48.187  27.509  28.178  1.00  0.00    -0.203 F 
ATOM     79  F   UNL A   1      48.098  26.996  22.745  1.00  0.00    -0.200 F 
ATOM     80  C   UNL A   1      49.215  26.692  24.803  1.00  0.00     0.200 A 
ATOM     81  F   UNL A   1      50.281  26.385  26.887  1.00  0.00    -0.200 F 
ATOM     82  F   UNL A   1      50.239  26.098  24.176  1.00  0.00    -0.200 F 
ENDBRANCH  58  72
BRANCH  59  83
ATOM     83  C   UNL A   1      39.241  31.563  31.142  1.00  0.00     0.064 A 
ATOM     84  C   UNL A   1      39.009  31.224  32.484  1.00  0.00     0.173 A 
ATOM     85  C   UNL A   1      38.320  32.418  30.521  1.00  0.00     0.173 A 
ATOM     86  F   UNL A   1      39.840  30.383  33.116  1.00  0.00    -0.203 F 
ATOM     87  C   UNL A   1      37.891  31.703  33.167  1.00  0.00     0.198 A 
ATOM     88  C   UNL A   1      37.218  32.919  31.212  1.00  0.00     0.198 A 
ATOM     89  F   UNL A   1      38.487  32.767  29.236  1.00  0.00    -0.203 F 
ATOM     90  F   UNL A   1      37.665  31.320  34.431  1.00  0.00    -0.200 F 
ATOM     91  C   UNL A   1      36.999  32.554  32.532  1.00  0.00     0.200 A 
ATOM     92  F   UNL A   1      36.364  33.748  30.598  1.00  0.00    -0.200 F 
ATOM     93  F   UNL A   1      35.926  33.014  33.188  1.00  0.00    -0.200 F 
ENDBRANCH  59  83
BRANCH  71  94
ATOM     94  C   UNL A   1      45.209  34.326  28.838  1.00  0.00     0.064 A 
ATOM     95  C   UNL A   1      46.058  34.742  29.874  1.00  0.00     0.173 A 
ATOM     96  C   UNL A   1      44.926  35.246  27.815  1.00  0.00     0.173 A 
ATOM     97  F   UNL A   1      46.353  33.907  30.881  1.00  0.00    -0.203 F 
ATOM     98  C   UNL A   1      46.575  36.036  29.901  1.00  0.00     0.198 A 
ATOM     99  C   UNL A   1      45.472  36.526  27.827  1.00  0.00     0.198 A 
ATOM    100  F   UNL A   1      44.129  34.897  26.793  1.00  0.00    -0.203 F 
ATOM    101  F   UNL A   1      47.340  36.427  30.929  1.00  0.00    -0.200 F 
ATOM    102  C   UNL A   1      46.287  36.924  28.875  1.00  0.00     0.200 A 
ATOM    103  F   UNL A   1      45.207  37.376  26.825  1.00  0.00    -0.200 F 
ATOM    104  F   UNL A   1      46.790  38.165  28.900  1.00  0.00    -0.200 F 
ENDBRANCH  71  94
ENDBRANCH  45  46
ENDBRANCH  38  40
ENDBRANCH  37  38
ENDBRANCH  36  37
ENDBRANCH  35  36
ENDBRANCH  34  35
ENDBRANCH  33  34
ENDBRANCH  32  33
ENDBRANCH   1  32
TORSDOF 23
ENDMDL
MODEL 3
REMARK VINA RESULT:     -10.7      2.318      3.702
REMARK SMILES O=C(CCOc1cc(-c2ccncc2)nc(-c2ccc(C(F)(F)F)cc2)n1)OCCOCCOCCOC(=O)c1ccc(-c2c3nc(c(-c4c(F)c(F)c(F)c(F)c4F)c4ccc([nH]4)c(-c4c(F)c(F)c(F)c(F)c4F)c4nc(c(-c5c(F)c(F)c(F)c(F)c5F)c5ccc2[nH]5)C=C4)C=C3)cc1
REMARK SMILES IDX 31 1 30 2 29 3 28 4 2 5 1 6 3 7 4 8 5 9 6 10 7 11 27 12 8 13
REMARK SMILES IDX 16 14 15 15 9 16 10 17 14 18 11 19 13 20 12 21 17 22 18 23
REMARK SMILES IDX 26 24 19 25 25 26 20 27 21 28 22 29 23 30 24 31 32 32 33 33
REMARK SMILES IDX 34 34 35 35 36 36 37 37 38 38 39 39 40 40 41 41 102 42 42 43
REMARK SMILES IDX 101 44 43 45 44 46 45 47 95 48 46 49 100 50 94 51 96 52
REMARK SMILES IDX 47 53 99 54 93 55 92 56 48 58 80 59 60 60 79 61 61 62 64 63
REMARK SMILES IDX 78 64 97 65 62 66 63 67 77 69 98 70 65 71 49 72 50 73 58 74
REMARK SMILES IDX 51 75 52 76 56 77 59 78 53 79 54 80 57 81 55 82 81 83 82 84
REMARK SMILES IDX 90 85 83 86 84 87 88 88 91 89 85 90 86 91 89 92 87 93 66 94
REMARK SMILES IDX 67 95 75 96 68 97 69 98 73 99 76 100 70 101 71 102 74 103
REMARK SMILES IDX 72 104
REMARK H PARENT 96 57 64 68
REMARK Flexibility Score: inf
ROOT
ATOM      1  O   UNL A   1      35.419  23.675  23.086  1.00  0.00    -0.376 OA
ENDROOT
BRANCH   1   2
ATOM      2  C   UNL A   1      34.266  22.921  22.751  1.00  0.00     0.202 C 
BRANCH   2   3
ATOM      3  C   UNL A   1      32.947  23.683  22.634  1.00  0.00     0.261 C 
BRANCH   3   4
ATOM      4  O   UNL A   1      33.065  25.127  22.628  1.00  0.00    -0.463 OA
BRANCH   4   5
ATOM      5  C   UNL A   1      32.643  26.018  21.713  1.00  0.00     0.309 C 
ATOM      6  O   UNL A   1      33.405  26.405  20.829  1.00  0.00    -0.252 OA
BRANCH   5   7
ATOM      7  C   UNL A   1      31.219  26.450  21.727  1.00  0.00     0.164 C 
BRANCH   7   8
ATOM      8  C   UNL A   1      31.139  27.907  22.147  1.00  0.00     0.243 C 
BRANCH   8   9
ATOM      9  O   UNL A   1      30.768  28.073  23.512  1.00  0.00    -0.477 OA
BRANCH   9  10
ATOM     10  C   UNL A   1      31.665  27.835  24.507  1.00  0.00     0.217 A 
ATOM     11  C   UNL A   1      32.627  28.690  24.980  1.00  0.00     0.097 A 
ATOM     12  N   UNL A   1      31.462  26.638  25.054  1.00  0.00    -0.193 NA
ATOM     13  C   UNL A   1      33.190  28.357  26.202  1.00  0.00     0.078 A 
ATOM     14  C   UNL A   1      32.246  26.294  26.088  1.00  0.00     0.163 A 
ATOM     15  N   UNL A   1      33.032  27.142  26.764  1.00  0.00    -0.228 NA
BRANCH  13  16
ATOM     16  C   UNL A   1      33.887  29.366  27.011  1.00  0.00     0.003 A 
ATOM     17  C   UNL A   1      33.331  30.643  27.170  1.00  0.00     0.030 A 
ATOM     18  C   UNL A   1      35.144  29.129  27.574  1.00  0.00     0.030 A 
ATOM     19  C   UNL A   1      34.044  31.611  27.857  1.00  0.00     0.111 A 
ATOM     20  C   UNL A   1      35.776  30.160  28.256  1.00  0.00     0.111 A 
ATOM     21  N   UNL A   1      35.256  31.396  28.406  1.00  0.00    -0.265 NA
ENDBRANCH  13  16
BRANCH  14  22
ATOM     22  C   UNL A   1      32.548  24.862  26.167  1.00  0.00     0.019 A 
ATOM     23  C   UNL A   1      31.480  23.959  25.987  1.00  0.00     0.012 A 
ATOM     24  C   UNL A   1      33.836  24.337  26.323  1.00  0.00     0.012 A 
ATOM     25  C   UNL A   1      31.682  22.587  25.932  1.00  0.00     0.014 A 
ATOM     26  C   UNL A   1      34.043  22.950  26.285  1.00  0.00     0.014 A 
ATOM     27  C   UNL A   1      32.970  22.069  26.074  1.00  0.00     0.056 A 
BRANCH  27  28
ATOM     28  C   UNL A   1      33.156  20.578  25.967  1.00  0.00     0.416 C 
ATOM     29  F   UNL A   1      32.158  19.981  25.257  1.00  0.00    -0.166 F 
ATOM     30  F   UNL A   1      34.313  20.249  25.326  1.00  0.00    -0.166 F 
ATOM     31  F   UNL A   1      33.197  19.940  27.168  1.00  0.00    -0.166 F 
ENDBRANCH  27  28
ENDBRANCH  14  22
ENDBRANCH   9  10
ENDBRANCH   8   9
ENDBRANCH   7   8
ENDBRANCH   5   7
ENDBRANCH   4   5
ENDBRANCH   3   4
ENDBRANCH   2   3
ENDBRANCH   1   2
BRANCH   1  32
ATOM     32  C   UNL A   1      36.646  22.953  23.134  1.00  0.00     0.188 C 
BRANCH  32  33
ATOM     33  C   UNL A   1      37.212  22.843  24.565  1.00  0.00     0.188 C 
BRANCH  33  34
ATOM     34  O   UNL A   1      36.950  21.564  25.141  1.00  0.00    -0.376 OA
BRANCH  34  35
ATOM     35  C   UNL A   1      37.896  20.551  24.798  1.00  0.00     0.202 C 
BRANCH  35  36
ATOM     36  C   UNL A   1      38.966  20.212  25.854  1.00  0.00     0.261 C 
BRANCH  36  37
ATOM     37  O   UNL A   1      40.170  21.009  25.837  1.00  0.00    -0.460 OA
BRANCH  37  38
ATOM     38  C   UNL A   1      41.019  20.942  26.883  1.00  0.00     0.338 C 
ATOM     39  O   UNL A   1      41.702  19.988  27.212  1.00  0.00    -0.246 OA
BRANCH  38  40
ATOM     40  C   UNL A   1      41.178  22.317  27.435  1.00  0.00     0.060 A 
ATOM     41  C   UNL A   1      40.340  23.334  26.957  1.00  0.00     0.016 A 
ATOM     42  C   UNL A   1      42.081  22.590  28.471  1.00  0.00     0.016 A 
ATOM     43  C   UNL A   1      40.453  24.637  27.455  1.00  0.00     0.010 A 
ATOM     44  C   UNL A   1      42.206  23.897  28.958  1.00  0.00     0.010 A 
ATOM     45  C   UNL A   1      41.436  24.939  28.408  1.00  0.00    -0.014 A 
BRANCH  45  46
ATOM     46  C   UNL A   1      41.889  26.350  28.548  1.00  0.00     0.031 A 
ATOM     47  C   UNL A   1      43.211  26.705  27.913  1.00  0.00     0.074 A 
ATOM     48  C   UNL A   1      41.164  27.305  29.159  1.00  0.00     0.049 A 
ATOM     49  N   UNL A   1      43.840  27.851  27.863  1.00  0.00    -0.248 NA
ATOM     50  C   UNL A   1      43.924  25.603  27.244  1.00  0.00     0.031 C 
ATOM     51  C   UNL A   1      39.856  27.116  29.778  1.00  0.00     0.029 A 
ATOM     52  N   UNL A   1      41.438  28.639  29.351  1.00  0.00    -0.354 N 
ATOM     53  C   UNL A   1      45.015  27.603  27.164  1.00  0.00     0.074 A 
ATOM     54  C   UNL A   1      45.036  26.194  26.846  1.00  0.00     0.031 C 
ATOM     55  C   UNL A   1      39.439  28.294  30.282  1.00  0.00     0.029 A 
ATOM     56  C   UNL A   1      40.460  29.314  30.038  1.00  0.00     0.049 A 
ATOM     57  H   UNL A   1      42.261  29.070  29.025  1.00  0.00     0.167 HD
ATOM     58  C   UNL A   1      45.988  28.471  26.801  1.00  0.00     0.037 A 
ATOM     59  C   UNL A   1      40.403  30.605  30.426  1.00  0.00     0.037 A 
ATOM     60  C   UNL A   1      45.975  29.873  27.109  1.00  0.00     0.049 A 
ATOM     61  C   UNL A   1      41.536  31.541  30.071  1.00  0.00     0.074 A 
ATOM     62  C   UNL A   1      46.903  30.840  26.768  1.00  0.00     0.029 A 
ATOM     63  N   UNL A   1      44.984  30.508  27.841  1.00  0.00    -0.354 N 
ATOM     64  N   UNL A   1      42.623  31.308  29.375  1.00  0.00    -0.248 NA
ATOM     65  C   UNL A   1      41.425  32.927  30.552  1.00  0.00     0.031 C 
ATOM     66  C   UNL A   1      46.503  32.049  27.344  1.00  0.00     0.029 A 
ATOM     67  C   UNL A   1      45.293  31.849  27.988  1.00  0.00     0.049 A 
ATOM     68  H   UNL A   1      44.180  30.069  28.203  1.00  0.00     0.167 HD
ATOM     69  C   UNL A   1      43.299  32.521  29.298  1.00  0.00     0.074 A 
ATOM     70  C   UNL A   1      42.497  33.490  30.013  1.00  0.00     0.031 C 
ATOM     71  C   UNL A   1      44.476  32.808  28.687  1.00  0.00     0.037 A 
BRANCH  58  72
ATOM     72  C   UNL A   1      47.166  27.908  26.059  1.00  0.00     0.064 A 
ATOM     73  C   UNL A   1      47.183  27.811  24.659  1.00  0.00     0.173 A 
ATOM     74  C   UNL A   1      48.293  27.458  26.763  1.00  0.00     0.173 A 
ATOM     75  F   UNL A   1      46.121  28.205  23.941  1.00  0.00    -0.203 F 
ATOM     76  C   UNL A   1      48.272  27.253  23.995  1.00  0.00     0.198 A 
ATOM     77  C   UNL A   1      49.393  26.931  26.093  1.00  0.00     0.198 A 
ATOM     78  F   UNL A   1      48.325  27.525  28.103  1.00  0.00    -0.203 F 
ATOM     79  F   UNL A   1      48.241  27.113  22.662  1.00  0.00    -0.200 F 
ATOM     80  C   UNL A   1      49.378  26.821  24.711  1.00  0.00     0.200 A 
ATOM     81  F   UNL A   1      50.464  26.523  26.786  1.00  0.00    -0.200 F 
ATOM     82  F   UNL A   1      50.426  26.286  24.070  1.00  0.00    -0.200 F 
ENDBRANCH  58  72
BRANCH  59  83
ATOM     83  C   UNL A   1      39.230  31.112  31.191  1.00  0.00     0.064 A 
ATOM     84  C   UNL A   1      38.231  31.873  30.564  1.00  0.00     0.173 A 
ATOM     85  C   UNL A   1      39.106  30.891  32.570  1.00  0.00     0.173 A 
ATOM     86  F   UNL A   1      38.318  32.142  29.253  1.00  0.00    -0.203 F 
ATOM     87  C   UNL A   1      37.168  32.409  31.289  1.00  0.00     0.198 A 
ATOM     88  C   UNL A   1      38.029  31.403  33.290  1.00  0.00     0.198 A 
ATOM     89  F   UNL A   1      40.037  30.178  33.222  1.00  0.00    -0.203 F 
ATOM     90  F   UNL A   1      36.258  33.177  30.676  1.00  0.00    -0.200 F 
ATOM     91  C   UNL A   1      37.065  32.169  32.652  1.00  0.00     0.200 A 
ATOM     92  F   UNL A   1      37.927  31.162  34.604  1.00  0.00    -0.200 F 
ATOM     93  F   UNL A   1      36.043  32.684  33.349  1.00  0.00    -0.200 F 
ENDBRANCH  59  83
BRANCH  71  94
ATOM     94  C   UNL A   1      44.944  34.236  28.709  1.00  0.00     0.064 A 
ATOM     95  C   UNL A   1      45.836  34.711  29.682  1.00  0.00     0.173 A 
ATOM     96  C   UNL A   1      44.522  35.132  27.714  1.00  0.00     0.173 A 
ATOM     97  F   UNL A   1      46.263  33.898  30.660  1.00  0.00    -0.203 F 
ATOM     98  C   UNL A   1      46.263  36.037  29.676  1.00  0.00     0.198 A 
ATOM     99  C   UNL A   1      44.977  36.448  27.692  1.00  0.00     0.198 A 
ATOM    100  F   UNL A   1      43.678  34.728  26.753  1.00  0.00    -0.203 F 
ATOM    101  F   UNL A   1      47.072  36.482  30.648  1.00  0.00    -0.200 F 
ATOM    102  C   UNL A   1      45.838  36.902  28.679  1.00  0.00     0.200 A 
ATOM    103  F   UNL A   1      44.580  37.277  26.717  1.00  0.00    -0.200 F 
ATOM    104  F   UNL A   1      46.253  38.176  28.672  1.00  0.00    -0.200 F 
ENDBRANCH  71  94
ENDBRANCH  45  46
ENDBRANCH  38  40
ENDBRANCH  37  38
ENDBRANCH  36  37
ENDBRANCH  35  36
ENDBRANCH  34  35
ENDBRANCH  33  34
ENDBRANCH  32  33
ENDBRANCH   1  32
TORSDOF 23
ENDMDL
