MODEL 1
REMARK VINA RESULT:      -9.2      0.000      0.000
REMARK SMILES CC(C)Cc1noc(CCCCC(=O)OCCOCCOCCOC(=O)c2ccc(-c3c4nc(c(-c5c(F)c(F)c(F)c(F)c5F)c5ccc([nH]5)c(-c5c(F)c(F)c(F)c(F)c5F)c5nc(c(-c6c(F)c(F)c(F)c(F)c6F)c6ccc3[nH]6)C=C5)C=C4)cc2)n1
REMARK SMILES IDX 17 1 16 2 15 3 13 4 14 5 12 6 11 7 10 8 9 9 8 10 5 11 6 12
REMARK SMILES IDX 90 13 7 14 4 15 2 16 1 17 3 18 18 19 19 20 20 21 21 22 22 23
REMARK SMILES IDX 23 24 24 25 25 26 26 27 27 28 28 29 89 30 29 31 88 32 30 33
REMARK SMILES IDX 31 34 32 35 82 36 33 37 87 38 81 39 83 40 34 41 86 42 80 43
REMARK SMILES IDX 79 44 35 46 67 47 47 48 66 49 48 50 51 51 65 52 84 53 49 54
REMARK SMILES IDX 50 55 64 57 85 58 52 59 36 60 37 61 45 62 38 63 39 64 43 65
REMARK SMILES IDX 46 66 40 67 41 68 44 69 42 70 68 71 69 72 77 73 70 74 71 75
REMARK SMILES IDX 75 76 78 77 72 78 73 79 76 80 74 81 53 82 54 83 62 84 55 85
REMARK SMILES IDX 56 86 60 87 63 88 57 89 58 90 61 91 59 92
REMARK H PARENT 83 45 51 56
REMARK Flexibility Score: inf
ROOT
ATOM      1  C   UNL A   1      43.788  18.358  26.099  1.00  0.00     0.202 C 
ENDROOT
BRANCH   1   2
ATOM      2  C   UNL A   1      42.926  19.474  25.489  1.00  0.00     0.261 C 
BRANCH   2   3
ATOM      3  O   UNL A   1      41.512  19.288  25.694  1.00  0.00    -0.463 OA
BRANCH   3   4
ATOM      4  C   UNL A   1      40.937  20.052  26.658  1.00  0.00     0.305 C 
ATOM      5  O   UNL A   1      41.370  20.191  27.795  1.00  0.00    -0.252 OA
BRANCH   4   6
ATOM      6  C   UNL A   1      39.729  20.830  26.170  1.00  0.00     0.123 C 
BRANCH   6   7
ATOM      7  C   UNL A   1      39.812  22.354  26.084  1.00  0.00     0.012 C 
BRANCH   7   8
ATOM      8  C   UNL A   1      38.755  23.145  26.864  1.00  0.00     0.010 C 
BRANCH   8   9
ATOM      9  C   UNL A   1      37.888  24.088  26.029  1.00  0.00     0.100 C 
BRANCH   9  10
ATOM     10  C   UNL A   1      36.910  23.357  25.196  1.00  0.00     0.226 A 
ATOM     11  C   UNL A   1      35.355  22.807  23.927  1.00  0.00     0.172 A 
ATOM     12  N   UNL A   1      35.417  21.779  24.783  1.00  0.00    -0.063 NA
ATOM     13  N   UNL A   1      36.309  23.770  24.109  1.00  0.00    -0.196 NA
ATOM     14  O   UNL A   1      36.471  22.140  25.629  1.00  0.00    -0.339 OA
BRANCH  11  15
ATOM     15  C   UNL A   1      34.309  22.947  22.886  1.00  0.00     0.084 C 
BRANCH  15  16
ATOM     16  C   UNL A   1      32.894  23.188  23.458  1.00  0.00    -0.010 C 
ATOM     17  C   UNL A   1      32.203  24.433  22.888  1.00  0.00     0.008 C 
ATOM     18  C   UNL A   1      32.020  21.963  23.183  1.00  0.00     0.008 C 
ENDBRANCH  15  16
ENDBRANCH  11  15
ENDBRANCH   9  10
ENDBRANCH   8   9
ENDBRANCH   7   8
ENDBRANCH   6   7
ENDBRANCH   4   6
ENDBRANCH   3   4
ENDBRANCH   2   3
ENDBRANCH   1   2
BRANCH   1  19
ATOM     19  O   UNL A   1      44.964  17.994  25.375  1.00  0.00    -0.376 OA
BRANCH  19  20
ATOM     20  C   UNL A   1      46.147  18.729  25.665  1.00  0.00     0.188 C 
BRANCH  20  21
ATOM     21  C   UNL A   1      46.799  19.460  24.493  1.00  0.00     0.188 C 
BRANCH  21  22
ATOM     22  O   UNL A   1      46.964  20.862  24.641  1.00  0.00    -0.376 OA
BRANCH  22  23
ATOM     23  C   UNL A   1      45.771  21.618  24.885  1.00  0.00     0.202 C 
BRANCH  23  24
ATOM     24  C   UNL A   1      45.533  22.871  24.009  1.00  0.00     0.261 C 
BRANCH  24  25
ATOM     25  O   UNL A   1      44.953  24.014  24.680  1.00  0.00    -0.460 OA
BRANCH  25  26
ATOM     26  C   UNL A   1      43.637  23.960  24.989  1.00  0.00     0.338 C 
ATOM     27  O   UNL A   1      42.821  23.179  24.529  1.00  0.00    -0.246 OA
BRANCH  26  28
ATOM     28  C   UNL A   1      43.376  24.818  26.183  1.00  0.00     0.060 A 
ATOM     29  C   UNL A   1      42.704  24.235  27.267  1.00  0.00     0.016 A 
ATOM     30  C   UNL A   1      43.826  26.139  26.285  1.00  0.00     0.016 A 
ATOM     31  C   UNL A   1      42.427  24.979  28.417  1.00  0.00     0.010 A 
ATOM     32  C   UNL A   1      43.539  26.890  27.438  1.00  0.00     0.010 A 
ATOM     33  C   UNL A   1      42.799  26.327  28.495  1.00  0.00    -0.014 A 
BRANCH  33  34
ATOM     34  C   UNL A   1      42.237  27.170  29.589  1.00  0.00     0.031 A 
ATOM     35  C   UNL A   1      42.936  27.178  30.926  1.00  0.00     0.074 A 
ATOM     36  C   UNL A   1      41.180  27.982  29.397  1.00  0.00     0.049 A 
ATOM     37  N   UNL A   1      42.678  27.880  32.001  1.00  0.00    -0.248 NA
ATOM     38  C   UNL A   1      44.087  26.272  31.063  1.00  0.00     0.031 C 
ATOM     39  C   UNL A   1      40.422  28.104  28.155  1.00  0.00     0.029 A 
ATOM     40  N   UNL A   1      40.567  28.866  30.254  1.00  0.00    -0.354 N 
ATOM     41  C   UNL A   1      43.633  27.502  32.938  1.00  0.00     0.074 A 
ATOM     42  C   UNL A   1      44.448  26.480  32.320  1.00  0.00     0.031 C 
ATOM     43  C   UNL A   1      39.445  29.014  28.329  1.00  0.00     0.029 A 
ATOM     44  C   UNL A   1      39.495  29.523  29.700  1.00  0.00     0.049 A 
ATOM     45  H   UNL A   1      40.869  29.014  31.179  1.00  0.00     0.167 HD
ATOM     46  C   UNL A   1      43.829  27.973  34.193  1.00  0.00     0.037 A 
ATOM     47  C   UNL A   1      38.648  30.425  30.237  1.00  0.00     0.037 A 
ATOM     48  C   UNL A   1      43.022  28.987  34.822  1.00  0.00     0.049 A 
ATOM     49  C   UNL A   1      38.847  30.886  31.661  1.00  0.00     0.074 A 
ATOM     50  C   UNL A   1      43.160  29.539  36.085  1.00  0.00     0.029 A 
ATOM     51  N   UNL A   1      41.917  29.593  34.244  1.00  0.00    -0.354 N 
ATOM     52  N   UNL A   1      39.778  30.554  32.522  1.00  0.00    -0.248 NA
ATOM     53  C   UNL A   1      37.875  31.862  32.182  1.00  0.00     0.031 C 
ATOM     54  C   UNL A   1      42.103  30.432  36.294  1.00  0.00     0.029 A 
ATOM     55  C   UNL A   1      41.347  30.490  35.135  1.00  0.00     0.049 A 
ATOM     56  H   UNL A   1      41.586  29.413  33.334  1.00  0.00     0.167 HD
ATOM     57  C   UNL A   1      39.523  31.298  33.670  1.00  0.00     0.074 A 
ATOM     58  C   UNL A   1      38.365  32.117  33.387  1.00  0.00     0.031 C 
ATOM     59  C   UNL A   1      40.188  31.300  34.853  1.00  0.00     0.037 A 
BRANCH  46  60
ATOM     60  C   UNL A   1      44.953  27.371  34.989  1.00  0.00     0.064 A 
ATOM     61  C   UNL A   1      46.238  27.935  35.001  1.00  0.00     0.173 A 
ATOM     62  C   UNL A   1      44.733  26.227  35.772  1.00  0.00     0.173 A 
ATOM     63  F   UNL A   1      46.506  29.020  34.257  1.00  0.00    -0.203 F 
ATOM     64  C   UNL A   1      47.267  27.360  35.742  1.00  0.00     0.198 A 
ATOM     65  C   UNL A   1      45.755  25.675  36.539  1.00  0.00     0.198 A 
ATOM     66  F   UNL A   1      43.523  25.649  35.800  1.00  0.00    -0.203 F 
ATOM     67  F   UNL A   1      48.499  27.885  35.694  1.00  0.00    -0.200 F 
ATOM     68  C   UNL A   1      47.023  26.235  36.516  1.00  0.00     0.200 A 
ATOM     69  F   UNL A   1      45.514  24.597  37.297  1.00  0.00    -0.200 F 
ATOM     70  F   UNL A   1      48.012  25.687  37.234  1.00  0.00    -0.200 F 
ENDBRANCH  46  60
BRANCH  47  71
ATOM     71  C   UNL A   1      37.518  30.961  29.429  1.00  0.00     0.064 A 
ATOM     72  C   UNL A   1      37.519  32.283  28.959  1.00  0.00     0.173 A 
ATOM     73  C   UNL A   1      36.391  30.174  29.149  1.00  0.00     0.173 A 
ATOM     74  F   UNL A   1      38.556  33.089  29.231  1.00  0.00    -0.203 F 
ATOM     75  C   UNL A   1      36.430  32.802  28.262  1.00  0.00     0.198 A 
ATOM     76  C   UNL A   1      35.317  30.683  28.422  1.00  0.00     0.198 A 
ATOM     77  F   UNL A   1      36.332  28.908  29.584  1.00  0.00    -0.203 F 
ATOM     78  F   UNL A   1      36.433  34.085  27.878  1.00  0.00    -0.200 F 
ATOM     79  C   UNL A   1      35.333  32.000  27.987  1.00  0.00     0.200 A 
ATOM     80  F   UNL A   1      34.261  29.903  28.154  1.00  0.00    -0.200 F 
ATOM     81  F   UNL A   1      34.285  32.499  27.317  1.00  0.00    -0.200 F 
ENDBRANCH  47  71
BRANCH  59  82
ATOM     82  C   UNL A   1      39.700  32.244  35.920  1.00  0.00     0.064 A 
ATOM     83  C   UNL A   1      38.648  31.905  36.785  1.00  0.00     0.173 A 
ATOM     84  C   UNL A   1      40.296  33.504  36.084  1.00  0.00     0.173 A 
ATOM     85  F   UNL A   1      38.034  30.717  36.670  1.00  0.00    -0.203 F 
ATOM     86  C   UNL A   1      38.179  32.808  37.737  1.00  0.00     0.198 A 
ATOM     87  C   UNL A   1      39.851  34.391  37.062  1.00  0.00     0.198 A 
ATOM     88  F   UNL A   1      41.315  33.879  35.296  1.00  0.00    -0.203 F 
ATOM     89  F   UNL A   1      37.126  32.488  38.501  1.00  0.00    -0.200 F 
ATOM     90  C   UNL A   1      38.783  34.049  37.878  1.00  0.00     0.200 A 
ATOM     91  F   UNL A   1      40.449  35.581  37.208  1.00  0.00    -0.200 F 
ATOM     92  F   UNL A   1      38.329  34.918  38.791  1.00  0.00    -0.200 F 
ENDBRANCH  59  82
ENDBRANCH  33  34
ENDBRANCH  26  28
ENDBRANCH  25  26
ENDBRANCH  24  25
ENDBRANCH  23  24
ENDBRANCH  22  23
ENDBRANCH  21  22
ENDBRANCH  20  21
ENDBRANCH  19  20
ENDBRANCH   1  19
TORSDOF 23
ENDMDL
MODEL 2
REMARK VINA RESULT:      -9.2      4.986      8.060
REMARK SMILES CC(C)Cc1noc(CCCCC(=O)OCCOCCOCCOC(=O)c2ccc(-c3c4nc(c(-c5c(F)c(F)c(F)c(F)c5F)c5ccc([nH]5)c(-c5c(F)c(F)c(F)c(F)c5F)c5nc(c(-c6c(F)c(F)c(F)c(F)c6F)c6ccc3[nH]6)C=C5)C=C4)cc2)n1
REMARK SMILES IDX 17 1 16 2 15 3 13 4 14 5 12 6 11 7 10 8 9 9 8 10 5 11 6 12
REMARK SMILES IDX 90 13 7 14 4 15 2 16 1 17 3 18 18 19 19 20 20 21 21 22 22 23
REMARK SMILES IDX 23 24 24 25 25 26 26 27 27 28 28 29 89 30 29 31 88 32 30 33
REMARK SMILES IDX 31 34 32 35 82 36 33 37 87 38 81 39 83 40 34 41 86 42 80 43
REMARK SMILES IDX 79 44 35 46 67 47 47 48 66 49 48 50 51 51 65 52 84 53 49 54
REMARK SMILES IDX 50 55 64 57 85 58 52 59 36 60 37 61 45 62 38 63 39 64 43 65
REMARK SMILES IDX 46 66 40 67 41 68 44 69 42 70 68 71 69 72 77 73 70 74 71 75
REMARK SMILES IDX 75 76 78 77 72 78 73 79 76 80 74 81 53 82 54 83 62 84 55 85
REMARK SMILES IDX 56 86 60 87 63 88 57 89 58 90 61 91 59 92
REMARK H PARENT 83 45 51 56
REMARK Flexibility Score: inf
ROOT
ATOM      1  C   UNL A   1      34.955  23.376  26.312  1.00  0.00     0.202 C 
ENDROOT
BRANCH   1   2
ATOM      2  C   UNL A   1      34.119  22.089  26.235  1.00  0.00     0.261 C 
BRANCH   2   3
ATOM      3  O   UNL A   1      33.443  21.916  24.975  1.00  0.00    -0.463 OA
BRANCH   3   4
ATOM      4  C   UNL A   1      32.161  21.473  25.035  1.00  0.00     0.305 C 
ATOM      5  O   UNL A   1      31.826  20.320  25.280  1.00  0.00    -0.252 OA
BRANCH   4   6
ATOM      6  C   UNL A   1      31.133  22.578  24.871  1.00  0.00     0.123 C 
BRANCH   6   7
ATOM      7  C   UNL A   1      30.999  23.636  25.966  1.00  0.00     0.012 C 
BRANCH   7   8
ATOM      8  C   UNL A   1      30.722  25.071  25.504  1.00  0.00     0.010 C 
BRANCH   8   9
ATOM      9  C   UNL A   1      30.299  25.223  24.042  1.00  0.00     0.100 C 
BRANCH   9  10
ATOM     10  C   UNL A   1      30.420  26.618  23.568  1.00  0.00     0.226 A 
ATOM     11  C   UNL A   1      30.157  28.645  23.179  1.00  0.00     0.172 A 
ATOM     12  N   UNL A   1      30.716  28.197  22.048  1.00  0.00    -0.063 NA
ATOM     13  N   UNL A   1      30.022  27.711  24.168  1.00  0.00    -0.196 NA
ATOM     14  O   UNL A   1      30.907  26.837  22.312  1.00  0.00    -0.339 OA
BRANCH  11  15
ATOM     15  C   UNL A   1      29.658  30.031  23.356  1.00  0.00     0.084 C 
BRANCH  15  16
ATOM     16  C   UNL A   1      28.154  30.193  23.044  1.00  0.00    -0.010 C 
ATOM     17  C   UNL A   1      27.543  31.482  23.607  1.00  0.00     0.008 C 
ATOM     18  C   UNL A   1      27.945  30.163  21.528  1.00  0.00     0.008 C 
ENDBRANCH  15  16
ENDBRANCH  11  15
ENDBRANCH   9  10
ENDBRANCH   8   9
ENDBRANCH   7   8
ENDBRANCH   6   7
ENDBRANCH   4   6
ENDBRANCH   3   4
ENDBRANCH   2   3
ENDBRANCH   1   2
BRANCH   1  19
ATOM     19  O   UNL A   1      36.374  23.216  26.290  1.00  0.00    -0.376 OA
BRANCH  19  20
ATOM     20  C   UNL A   1      36.997  23.197  25.011  1.00  0.00     0.188 C 
BRANCH  20  21
ATOM     21  C   UNL A   1      37.104  21.836  24.325  1.00  0.00     0.188 C 
BRANCH  21  22
ATOM     22  O   UNL A   1      37.083  20.701  25.177  1.00  0.00    -0.376 OA
BRANCH  22  23
ATOM     23  C   UNL A   1      38.145  19.755  24.999  1.00  0.00     0.202 C 
BRANCH  23  24
ATOM     24  C   UNL A   1      39.472  20.028  25.744  1.00  0.00     0.261 C 
BRANCH  24  25
ATOM     25  O   UNL A   1      40.652  19.395  25.194  1.00  0.00    -0.460 OA
BRANCH  25  26
ATOM     26  C   UNL A   1      41.721  19.244  26.009  1.00  0.00     0.338 C 
ATOM     27  O   UNL A   1      42.275  18.192  26.283  1.00  0.00    -0.246 OA
BRANCH  26  28
ATOM     28  C   UNL A   1      42.301  20.586  26.314  1.00  0.00     0.060 A 
ATOM     29  C   UNL A   1      42.389  20.965  27.661  1.00  0.00     0.016 A 
ATOM     30  C   UNL A   1      42.810  21.438  25.328  1.00  0.00     0.016 A 
ATOM     31  C   UNL A   1      42.921  22.206  28.019  1.00  0.00     0.010 A 
ATOM     32  C   UNL A   1      43.337  22.691  25.687  1.00  0.00     0.010 A 
ATOM     33  C   UNL A   1      43.357  23.101  27.034  1.00  0.00    -0.014 A 
BRANCH  33  34
ATOM     34  C   UNL A   1      43.637  24.515  27.414  1.00  0.00     0.031 A 
ATOM     35  C   UNL A   1      45.031  25.054  27.212  1.00  0.00     0.074 A 
ATOM     36  C   UNL A   1      42.671  25.344  27.852  1.00  0.00     0.049 A 
ATOM     37  N   UNL A   1      45.497  26.263  27.401  1.00  0.00    -0.248 NA
ATOM     38  C   UNL A   1      46.034  24.095  26.725  1.00  0.00     0.031 C 
ATOM     39  C   UNL A   1      41.274  24.977  28.068  1.00  0.00     0.029 A 
ATOM     40  N   UNL A   1      42.724  26.677  28.187  1.00  0.00    -0.354 N 
ATOM     41  C   UNL A   1      46.843  26.210  27.055  1.00  0.00     0.074 A 
ATOM     42  C   UNL A   1      47.128  24.840  26.686  1.00  0.00     0.031 C 
ATOM     43  C   UNL A   1      40.600  26.059  28.498  1.00  0.00     0.029 A 
ATOM     44  C   UNL A   1      41.521  27.191  28.607  1.00  0.00     0.049 A 
ATOM     45  H   UNL A   1      43.548  27.213  28.131  1.00  0.00     0.167 HD
ATOM     46  C   UNL A   1      47.756  27.210  27.028  1.00  0.00     0.037 A 
ATOM     47  C   UNL A   1      41.200  28.430  29.036  1.00  0.00     0.037 A 
ATOM     48  C   UNL A   1      47.486  28.576  27.397  1.00  0.00     0.049 A 
ATOM     49  C   UNL A   1      42.253  29.512  29.060  1.00  0.00     0.074 A 
ATOM     50  C   UNL A   1      48.348  29.660  27.382  1.00  0.00     0.029 A 
ATOM     51  N   UNL A   1      46.267  29.045  27.862  1.00  0.00    -0.354 N 
ATOM     52  N   UNL A   1      43.509  29.460  28.691  1.00  0.00    -0.248 NA
ATOM     53  C   UNL A   1      41.832  30.833  29.554  1.00  0.00     0.031 C 
ATOM     54  C   UNL A   1      47.669  30.770  27.896  1.00  0.00     0.029 A 
ATOM     55  C   UNL A   1      46.363  30.395  28.166  1.00  0.00     0.049 A 
ATOM     56  H   UNL A   1      45.453  28.500  27.962  1.00  0.00     0.167 HD
ATOM     57  C   UNL A   1      44.019  30.742  28.879  1.00  0.00     0.074 A 
ATOM     58  C   UNL A   1      42.928  31.555  29.371  1.00  0.00     0.031 C 
ATOM     59  C   UNL A   1      45.277  31.202  28.663  1.00  0.00     0.037 A 
BRANCH  46  60
ATOM     60  C   UNL A   1      49.155  26.855  26.608  1.00  0.00     0.064 A 
ATOM     61  C   UNL A   1      50.109  26.390  27.527  1.00  0.00     0.173 A 
ATOM     62  C   UNL A   1      49.538  26.955  25.261  1.00  0.00     0.173 A 
ATOM     63  F   UNL A   1      49.800  26.291  28.829  1.00  0.00    -0.203 F 
ATOM     64  C   UNL A   1      51.401  26.070  27.119  1.00  0.00     0.198 A 
ATOM     65  C   UNL A   1      50.819  26.601  24.851  1.00  0.00     0.198 A 
ATOM     66  F   UNL A   1      48.664  27.389  24.341  1.00  0.00    -0.203 F 
ATOM     67  F   UNL A   1      52.311  25.681  28.023  1.00  0.00    -0.200 F 
ATOM     68  C   UNL A   1      51.753  26.168  25.781  1.00  0.00     0.200 A 
ATOM     69  F   UNL A   1      51.154  26.683  23.556  1.00  0.00    -0.200 F 
ATOM     70  F   UNL A   1      52.994  25.852  25.388  1.00  0.00    -0.200 F 
ENDBRANCH  46  60
BRANCH  47  71
ATOM     71  C   UNL A   1      39.813  28.726  29.490  1.00  0.00     0.064 A 
ATOM     72  C   UNL A   1      39.416  28.501  30.816  1.00  0.00     0.173 A 
ATOM     73  C   UNL A   1      38.844  29.199  28.594  1.00  0.00     0.173 A 
ATOM     74  F   UNL A   1      40.295  28.014  31.705  1.00  0.00    -0.203 F 
ATOM     75  C   UNL A   1      38.100  28.715  31.221  1.00  0.00     0.198 A 
ATOM     76  C   UNL A   1      37.537  29.446  29.007  1.00  0.00     0.198 A 
ATOM     77  F   UNL A   1      39.167  29.421  27.312  1.00  0.00    -0.203 F 
ATOM     78  F   UNL A   1      37.734  28.434  32.479  1.00  0.00    -0.200 F 
ATOM     79  C   UNL A   1      37.162  29.195  30.319  1.00  0.00     0.200 A 
ATOM     80  F   UNL A   1      36.636  29.916  28.133  1.00  0.00    -0.200 F 
ATOM     81  F   UNL A   1      35.897  29.401  30.709  1.00  0.00    -0.200 F 
ENDBRANCH  47  71
BRANCH  59  82
ATOM     82  C   UNL A   1      45.535  32.662  28.926  1.00  0.00     0.064 A 
ATOM     83  C   UNL A   1      45.266  33.648  27.964  1.00  0.00     0.173 A 
ATOM     84  C   UNL A   1      46.053  33.082  30.161  1.00  0.00     0.173 A 
ATOM     85  F   UNL A   1      44.778  33.304  26.762  1.00  0.00    -0.203 F 
ATOM     86  C   UNL A   1      45.554  34.989  28.209  1.00  0.00     0.198 A 
ATOM     87  C   UNL A   1      46.304  34.429  30.417  1.00  0.00     0.198 A 
ATOM     88  F   UNL A   1      46.317  32.187  31.125  1.00  0.00    -0.203 F 
ATOM     89  F   UNL A   1      45.357  35.901  27.247  1.00  0.00    -0.200 F 
ATOM     90  C   UNL A   1      46.068  35.379  29.436  1.00  0.00     0.200 A 
ATOM     91  F   UNL A   1      46.783  34.805  31.611  1.00  0.00    -0.200 F 
ATOM     92  F   UNL A   1      46.348  36.669  29.668  1.00  0.00    -0.200 F 
ENDBRANCH  59  82
ENDBRANCH  33  34
ENDBRANCH  26  28
ENDBRANCH  25  26
ENDBRANCH  24  25
ENDBRANCH  23  24
ENDBRANCH  22  23
ENDBRANCH  21  22
ENDBRANCH  20  21
ENDBRANCH  19  20
ENDBRANCH   1  19
TORSDOF 23
ENDMDL
MODEL 3
REMARK VINA RESULT:      -9.0      4.064      9.420
REMARK SMILES CC(C)Cc1noc(CCCCC(=O)OCCOCCOCCOC(=O)c2ccc(-c3c4nc(c(-c5c(F)c(F)c(F)c(F)c5F)c5ccc([nH]5)c(-c5c(F)c(F)c(F)c(F)c5F)c5nc(c(-c6c(F)c(F)c(F)c(F)c6F)c6ccc3[nH]6)C=C5)C=C4)cc2)n1
REMARK SMILES IDX 17 1 16 2 15 3 13 4 14 5 12 6 11 7 10 8 9 9 8 10 5 11 6 12
REMARK SMILES IDX 90 13 7 14 4 15 2 16 1 17 3 18 18 19 19 20 20 21 21 22 22 23
REMARK SMILES IDX 23 24 24 25 25 26 26 27 27 28 28 29 89 30 29 31 88 32 30 33
REMARK SMILES IDX 31 34 32 35 82 36 33 37 87 38 81 39 83 40 34 41 86 42 80 43
REMARK SMILES IDX 79 44 35 46 67 47 47 48 66 49 48 50 51 51 65 52 84 53 49 54
REMARK SMILES IDX 50 55 64 57 85 58 52 59 36 60 37 61 45 62 38 63 39 64 43 65
REMARK SMILES IDX 46 66 40 67 41 68 44 69 42 70 68 71 69 72 77 73 70 74 71 75
REMARK SMILES IDX 75 76 78 77 72 78 73 79 76 80 74 81 53 82 54 83 62 84 55 85
REMARK SMILES IDX 56 86 60 87 63 88 57 89 58 90 61 91 59 92
REMARK H PARENT 83 45 51 56
REMARK Flexibility Score: inf
ROOT
ATOM      1  C   UNL A   1      34.739  24.459  25.663  1.00  0.00     0.202 C 
ENDROOT
BRANCH   1   2
ATOM      2  C   UNL A   1      34.027  23.225  25.085  1.00  0.00     0.261 C 
BRANCH   2   3
ATOM      3  O   UNL A   1      32.947  22.745  25.908  1.00  0.00    -0.463 OA
BRANCH   3   4
ATOM      4  C   UNL A   1      31.745  22.593  25.295  1.00  0.00     0.305 C 
ATOM      5  O   UNL A   1      30.678  22.418  25.871  1.00  0.00    -0.252 OA
BRANCH   4   6
ATOM      6  C   UNL A   1      31.811  22.763  23.788  1.00  0.00     0.123 C 
BRANCH   6   7
ATOM      7  C   UNL A   1      31.015  23.891  23.132  1.00  0.00     0.012 C 
BRANCH   7   8
ATOM      8  C   UNL A   1      31.537  25.316  23.349  1.00  0.00     0.010 C 
BRANCH   8   9
ATOM      9  C   UNL A   1      31.340  26.276  22.174  1.00  0.00     0.100 C 
BRANCH   9  10
ATOM     10  C   UNL A   1      30.726  27.554  22.595  1.00  0.00     0.226 A 
ATOM     11  C   UNL A   1      29.878  29.452  22.678  1.00  0.00     0.172 A 
ATOM     12  N   UNL A   1      30.551  29.378  23.833  1.00  0.00    -0.063 NA
ATOM     13  N   UNL A   1      29.906  28.316  21.917  1.00  0.00    -0.196 NA
ATOM     14  O   UNL A   1      31.111  28.097  23.786  1.00  0.00    -0.339 OA
BRANCH  11  15
ATOM     15  C   UNL A   1      29.191  30.678  22.204  1.00  0.00     0.084 C 
BRANCH  15  16
ATOM     16  C   UNL A   1      28.780  31.636  23.344  1.00  0.00    -0.010 C 
ATOM     17  C   UNL A   1      28.921  33.120  22.982  1.00  0.00     0.008 C 
ATOM     18  C   UNL A   1      27.329  31.356  23.743  1.00  0.00     0.008 C 
ENDBRANCH  15  16
ENDBRANCH  11  15
ENDBRANCH   9  10
ENDBRANCH   8   9
ENDBRANCH   7   8
ENDBRANCH   6   7
ENDBRANCH   4   6
ENDBRANCH   3   4
ENDBRANCH   2   3
ENDBRANCH   1   2
BRANCH   1  19
ATOM     19  O   UNL A   1      34.242  25.732  25.250  1.00  0.00    -0.376 OA
BRANCH  19  20
ATOM     20  C   UNL A   1      33.153  26.266  25.992  1.00  0.00     0.188 C 
BRANCH  20  21
ATOM     21  C   UNL A   1      33.322  27.689  26.522  1.00  0.00     0.188 C 
BRANCH  21  22
ATOM     22  O   UNL A   1      32.544  28.032  27.658  1.00  0.00    -0.376 OA
BRANCH  22  23
ATOM     23  C   UNL A   1      31.825  29.269  27.585  1.00  0.00     0.202 C 
BRANCH  23  24
ATOM     24  C   UNL A   1      32.252  30.275  26.490  1.00  0.00     0.261 C 
BRANCH  24  25
ATOM     25  O   UNL A   1      33.647  30.660  26.491  1.00  0.00    -0.460 OA
BRANCH  25  26
ATOM     26  C   UNL A   1      34.032  31.623  27.360  1.00  0.00     0.338 C 
ATOM     27  O   UNL A   1      33.330  32.520  27.797  1.00  0.00    -0.246 OA
BRANCH  26  28
ATOM     28  C   UNL A   1      35.369  31.272  27.923  1.00  0.00     0.060 A 
ATOM     29  C   UNL A   1      35.759  29.926  27.880  1.00  0.00     0.016 A 
ATOM     30  C   UNL A   1      36.259  32.228  28.425  1.00  0.00     0.016 A 
ATOM     31  C   UNL A   1      36.998  29.526  28.390  1.00  0.00     0.010 A 
ATOM     32  C   UNL A   1      37.501  31.824  28.946  1.00  0.00     0.010 A 
ATOM     33  C   UNL A   1      37.860  30.464  28.971  1.00  0.00    -0.014 A 
BRANCH  33  34
ATOM     34  C   UNL A   1      39.025  29.980  29.765  1.00  0.00     0.031 A 
ATOM     35  C   UNL A   1      39.198  30.486  31.176  1.00  0.00     0.074 A 
ATOM     36  C   UNL A   1      39.876  29.048  29.294  1.00  0.00     0.049 A 
ATOM     37  N   UNL A   1      40.087  30.159  32.080  1.00  0.00    -0.248 NA
ATOM     38  C   UNL A   1      38.230  31.497  31.626  1.00  0.00     0.031 C 
ATOM     39  C   UNL A   1      39.819  28.444  27.966  1.00  0.00     0.029 A 
ATOM     40  N   UNL A   1      40.955  28.442  29.894  1.00  0.00    -0.354 N 
ATOM     41  C   UNL A   1      39.784  30.921  33.202  1.00  0.00     0.074 A 
ATOM     42  C   UNL A   1      38.657  31.757  32.852  1.00  0.00     0.031 C 
ATOM     43  C   UNL A   1      40.818  27.550  27.851  1.00  0.00     0.029 A 
ATOM     44  C   UNL A   1      41.598  27.533  29.089  1.00  0.00     0.049 A 
ATOM     45  H   UNL A   1      41.240  28.640  30.815  1.00  0.00     0.167 HD
ATOM     46  C   UNL A   1      40.376  30.915  34.421  1.00  0.00     0.037 A 
ATOM     47  C   UNL A   1      42.693  26.779  29.320  1.00  0.00     0.037 A 
ATOM     48  C   UNL A   1      41.501  30.092  34.782  1.00  0.00     0.049 A 
ATOM     49  C   UNL A   1      43.376  26.840  30.666  1.00  0.00     0.074 A 
ATOM     50  C   UNL A   1      42.153  30.007  36.001  1.00  0.00     0.029 A 
ATOM     51  N   UNL A   1      42.153  29.220  33.922  1.00  0.00    -0.354 N 
ATOM     52  N   UNL A   1      43.055  27.531  31.732  1.00  0.00    -0.248 NA
ATOM     53  C   UNL A   1      44.572  26.000  30.838  1.00  0.00     0.031 C 
ATOM     54  C   UNL A   1      43.236  29.132  35.861  1.00  0.00     0.029 A 
ATOM     55  C   UNL A   1      43.218  28.617  34.576  1.00  0.00     0.049 A 
ATOM     56  H   UNL A   1      41.897  29.053  32.986  1.00  0.00     0.167 HD
ATOM     57  C   UNL A   1      43.988  27.189  32.707  1.00  0.00     0.074 A 
ATOM     58  C   UNL A   1      44.871  26.209  32.112  1.00  0.00     0.031 C 
ATOM     59  C   UNL A   1      44.101  27.646  33.979  1.00  0.00     0.037 A 
BRANCH  46  60
ATOM     60  C   UNL A   1      39.830  31.858  35.457  1.00  0.00     0.064 A 
ATOM     61  C   UNL A   1      40.327  33.162  35.607  1.00  0.00     0.173 A 
ATOM     62  C   UNL A   1      38.776  31.459  36.293  1.00  0.00     0.173 A 
ATOM     63  F   UNL A   1      41.345  33.589  34.843  1.00  0.00    -0.203 F 
ATOM     64  C   UNL A   1      39.811  34.020  36.575  1.00  0.00     0.198 A 
ATOM     65  C   UNL A   1      38.239  32.330  37.236  1.00  0.00     0.198 A 
ATOM     66  F   UNL A   1      38.261  30.225  36.190  1.00  0.00    -0.203 F 
ATOM     67  F   UNL A   1      40.338  35.241  36.736  1.00  0.00    -0.200 F 
ATOM     68  C   UNL A   1      38.762  33.606  37.383  1.00  0.00     0.200 A 
ATOM     69  F   UNL A   1      37.217  31.934  38.007  1.00  0.00    -0.200 F 
ATOM     70  F   UNL A   1      38.261  34.435  38.309  1.00  0.00    -0.200 F 
ENDBRANCH  46  60
BRANCH  47  71
ATOM     71  C   UNL A   1      43.230  25.895  28.249  1.00  0.00     0.064 A 
ATOM     72  C   UNL A   1      42.770  24.579  28.091  1.00  0.00     0.173 A 
ATOM     73  C   UNL A   1      44.249  26.333  27.390  1.00  0.00     0.173 A 
ATOM     74  F   UNL A   1      41.823  24.099  28.910  1.00  0.00    -0.203 F 
ATOM     75  C   UNL A   1      43.322  23.732  27.132  1.00  0.00     0.198 A 
ATOM     76  C   UNL A   1      44.777  25.497  26.409  1.00  0.00     0.198 A 
ATOM     77  F   UNL A   1      44.734  27.578  27.506  1.00  0.00    -0.203 F 
ATOM     78  F   UNL A   1      42.905  22.462  27.043  1.00  0.00    -0.200 F 
ATOM     79  C   UNL A   1      44.320  24.193  26.287  1.00  0.00     0.200 A 
ATOM     80  F   UNL A   1      45.737  25.949  25.591  1.00  0.00    -0.200 F 
ATOM     81  F   UNL A   1      44.851  23.378  25.365  1.00  0.00    -0.200 F 
ENDBRANCH  47  71
BRANCH  59  82
ATOM     82  C   UNL A   1      45.202  27.066  34.828  1.00  0.00     0.064 A 
ATOM     83  C   UNL A   1      45.057  25.839  35.493  1.00  0.00     0.173 A 
ATOM     84  C   UNL A   1      46.421  27.746  34.975  1.00  0.00     0.173 A 
ATOM     85  F   UNL A   1      43.910  25.148  35.395  1.00  0.00    -0.203 F 
ATOM     86  C   UNL A   1      46.069  25.340  36.310  1.00  0.00     0.198 A 
ATOM     87  C   UNL A   1      47.446  27.226  35.762  1.00  0.00     0.198 A 
ATOM     88  F   UNL A   1      46.623  28.917  34.353  1.00  0.00    -0.203 F 
ATOM     89  F   UNL A   1      45.878  24.202  36.992  1.00  0.00    -0.200 F 
ATOM     90  C   UNL A   1      47.264  26.031  36.442  1.00  0.00     0.200 A 
ATOM     91  F   UNL A   1      48.606  27.887  35.873  1.00  0.00    -0.200 F 
ATOM     92  F   UNL A   1      48.235  25.552  37.231  1.00  0.00    -0.200 F 
ENDBRANCH  59  82
ENDBRANCH  33  34
ENDBRANCH  26  28
ENDBRANCH  25  26
ENDBRANCH  24  25
ENDBRANCH  23  24
ENDBRANCH  22  23
ENDBRANCH  21  22
ENDBRANCH  20  21
ENDBRANCH  19  20
ENDBRANCH   1  19
TORSDOF 23
ENDMDL
