MODEL 1
REMARK VINA RESULT:     -13.5      0.000      0.000
REMARK SMILES Cc1c(C(=O)Nc2ccc(C(=O)Nc3ccccc3C(=O)OCCOCCOCCOC(=O)c3ccc(-c4c5nc(c(-c6c(F)c(F)c(F)c(F)c6F)c6ccc([nH]6)c(-c6c(F)c(F)c(F)c(F)c6F)c6nc(c(-c7c(F)c(F)c(F)c(F)c7F)c7ccc4[nH]7)C=C6)C=C5)cc3)cc2)cccc1[N+](=O)[O-]
REMARK SMILES IDX 25 1 24 2 23 3 22 4 20 5 21 6 19 7 14 8 15 9 16 10 18 11
REMARK SMILES IDX 17 12 13 13 11 14 12 15 10 17 7 18 8 19 98 20 9 21 97 22
REMARK SMILES IDX 6 23 4 24 5 25 3 27 1 28 2 29 102 30 99 31 101 32 100 33
REMARK SMILES IDX 103 34 104 35 105 36 26 37 27 38 28 39 29 40 30 41 31 42
REMARK SMILES IDX 32 43 33 44 34 45 35 46 96 47 36 48 95 49 37 50 38 51 39 52
REMARK SMILES IDX 89 53 40 54 94 55 88 56 90 57 41 58 93 59 87 60 86 61 42 63
REMARK SMILES IDX 74 64 54 65 73 66 55 67 58 68 72 69 91 70 56 71 57 72 71 74
REMARK SMILES IDX 92 75 59 76 43 77 44 78 52 79 45 80 46 81 50 82 53 83 47 84
REMARK SMILES IDX 48 85 51 86 49 87 75 88 76 89 84 90 77 91 78 92 82 93 85 94
REMARK SMILES IDX 79 95 80 96 83 97 81 98 60 99 61 100 69 101 62 102 63 103
REMARK SMILES IDX 67 104 70 105 64 106 65 107 68 108 66 109
REMARK H PARENT 13 16 6 26 90 62 58 73
REMARK Flexibility Score: inf
ROOT
ATOM      1  O   UNL A   1      33.528  28.546  26.407  1.00  0.00    -0.376 OA
ENDROOT
BRANCH   1   2
ATOM      2  C   UNL A   1      33.630  27.202  26.049  1.00  0.00     0.202 C 
BRANCH   2   3
ATOM      3  C   UNL A   1      32.588  26.461  25.174  1.00  0.00     0.261 C 
BRANCH   3   4
ATOM      4  O   UNL A   1      32.769  25.568  23.742  1.00  0.00    -0.460 OA
BRANCH   4   5
ATOM      5  C   UNL A   1      33.149  24.253  23.049  1.00  0.00     0.340 C 
ATOM      6  O   UNL A   1      34.185  24.424  22.415  1.00  0.00    -0.246 OA
BRANCH   5   7
ATOM      7  C   UNL A   1      32.866  22.754  23.079  1.00  0.00     0.083 A 
ATOM      8  C   UNL A   1      33.474  22.162  24.208  1.00  0.00     0.056 A 
ATOM      9  C   UNL A   1      33.406  20.751  24.359  1.00  0.00     0.027 A 
ATOM     10  C   UNL A   1      32.589  19.956  23.527  1.00  0.00     0.002 A 
ATOM     11  C   UNL A   1      32.185  21.897  22.159  1.00  0.00     0.018 A 
ATOM     12  C   UNL A   1      31.950  20.535  22.440  1.00  0.00     0.001 A 
BRANCH   8  13
ATOM     13  N   UNL A   1      34.063  22.968  25.265  1.00  0.00    -0.321 N 
ATOM     14  C   UNL A   1      35.365  23.002  25.919  1.00  0.00     0.255 C 
ATOM     15  O   UNL A   1      35.447  23.585  26.997  1.00  0.00    -0.269 OA
ATOM     16  H   UNL A   1      33.441  23.645  25.619  1.00  0.00     0.170 HD
BRANCH  14  17
ATOM     17  C   UNL A   1      36.740  22.540  25.255  1.00  0.00     0.040 A 
ATOM     18  C   UNL A   1      39.900  20.595  26.182  1.00  0.00     0.041 A 
ATOM     19  C   UNL A   1      39.680  22.257  26.692  1.00  0.00     0.027 A 
ATOM     20  C   UNL A   1      38.668  20.011  25.070  1.00  0.00     0.027 A 
ATOM     21  C   UNL A   1      38.009  23.188  26.076  1.00  0.00     0.016 A 
ATOM     22  C   UNL A   1      37.154  21.029  24.584  1.00  0.00     0.016 A 
BRANCH  18  23
ATOM     23  N   UNL A   1      40.659  19.598  26.781  1.00  0.00    -0.322 N 
ATOM     24  C   UNL A   1      42.034  19.498  26.919  1.00  0.00     0.256 C 
ATOM     25  O   UNL A   1      42.454  18.838  27.872  1.00  0.00    -0.269 OA
ATOM     26  H   UNL A   1      40.144  18.851  27.163  1.00  0.00     0.170 HD
BRANCH  24  27
ATOM     27  C   UNL A   1      43.043  20.043  25.971  1.00  0.00     0.049 A 
ATOM     28  C   UNL A   1      43.247  22.326  27.003  1.00  0.00     0.053 C 
ATOM     29  C   UNL A   1      43.498  21.374  25.887  1.00  0.00     0.039 A 
ATOM     30  C   UNL A   1      44.398  21.726  24.848  1.00  0.00     0.273 A 
ATOM     31  C   UNL A   1      43.777  19.064  25.295  1.00  0.00     0.014 A 
ATOM     32  C   UNL A   1      45.057  20.737  24.123  1.00  0.00     0.086 A 
ATOM     33  C   UNL A   1      44.807  19.404  24.417  1.00  0.00     0.008 A 
BRANCH  30  34
ATOM     34  N   UNL A   1      44.615  23.113  24.387  1.00  0.00     0.063 N 
ATOM     35  O   UNL A   1      45.599  23.299  23.650  1.00  0.00    -0.258 OA
ATOM     36  O   UNL A   1      43.814  23.993  24.711  1.00  0.00    -0.258 OA
ENDBRANCH  30  34
ENDBRANCH  24  27
ENDBRANCH  18  23
ENDBRANCH  14  17
ENDBRANCH   8  13
ENDBRANCH   5   7
ENDBRANCH   4   5
ENDBRANCH   3   4
ENDBRANCH   2   3
ENDBRANCH   1   2
BRANCH   1  37
ATOM     37  C   UNL A   1      34.698  29.297  26.615  1.00  0.00     0.188 C 
BRANCH  37  38
ATOM     38  C   UNL A   1      34.794  30.413  27.642  1.00  0.00     0.188 C 
BRANCH  38  39
ATOM     39  O   UNL A   1      34.368  31.753  27.557  1.00  0.00    -0.376 OA
BRANCH  39  40
ATOM     40  C   UNL A   1      34.785  32.512  28.758  1.00  0.00     0.202 C 
BRANCH  40  41
ATOM     41  C   UNL A   1      33.788  33.746  29.401  1.00  0.00     0.261 C 
BRANCH  41  42
ATOM     42  O   UNL A   1      33.678  34.466  31.007  1.00  0.00    -0.460 OA
BRANCH  42  43
ATOM     43  C   UNL A   1      34.367  34.683  32.402  1.00  0.00     0.338 C 
ATOM     44  O   UNL A   1      34.079  35.757  32.925  1.00  0.00    -0.246 OA
BRANCH  43  45
ATOM     45  C   UNL A   1      35.740  33.628  33.126  1.00  0.00     0.060 A 
ATOM     46  C   UNL A   1      36.459  33.785  34.836  1.00  0.00     0.016 A 
ATOM     47  C   UNL A   1      36.937  32.513  31.927  1.00  0.00     0.016 A 
ATOM     48  C   UNL A   1      38.137  33.002  35.126  1.00  0.00     0.010 A 
ATOM     49  C   UNL A   1      38.414  31.771  32.403  1.00  0.00     0.010 A 
ATOM     50  C   UNL A   1      39.132  32.220  33.784  1.00  0.00    -0.014 A 
BRANCH  50  51
ATOM     51  C   UNL A   1      40.745  32.398  32.959  1.00  0.00     0.031 A 
ATOM     52  C   UNL A   1      41.221  33.700  33.428  1.00  0.00     0.074 A 
ATOM     53  C   UNL A   1      41.781  31.712  32.094  1.00  0.00     0.049 A 
ATOM     54  N   UNL A   1      41.789  34.579  32.668  1.00  0.00    -0.248 NA
ATOM     55  C   UNL A   1      40.822  34.202  34.756  1.00  0.00     0.031 C 
ATOM     56  C   UNL A   1      43.282  31.677  32.265  1.00  0.00     0.029 A 
ATOM     57  N   UNL A   1      41.849  30.606  31.160  1.00  0.00    -0.354 N 
ATOM     58  C   UNL A   1      42.249  35.472  33.596  1.00  0.00     0.074 A 
ATOM     59  C   UNL A   1      41.215  35.463  34.590  1.00  0.00     0.031 C 
ATOM     60  C   UNL A   1      43.927  30.791  31.420  1.00  0.00     0.029 A 
ATOM     61  C   UNL A   1      42.975  30.062  30.601  1.00  0.00     0.049 A 
ATOM     62  H   UNL A   1      40.990  30.200  30.900  1.00  0.00     0.167 HD
ATOM     63  C   UNL A   1      43.602  35.566  33.787  1.00  0.00     0.037 A 
ATOM     64  C   UNL A   1      42.912  29.585  29.301  1.00  0.00     0.037 A 
ATOM     65  C   UNL A   1      44.370  34.823  32.743  1.00  0.00     0.049 A 
ATOM     66  C   UNL A   1      43.306  30.820  28.564  1.00  0.00     0.074 A 
ATOM     67  C   UNL A   1      45.411  33.904  32.782  1.00  0.00     0.029 A 
ATOM     68  N   UNL A   1      43.927  34.792  31.406  1.00  0.00    -0.354 N 
ATOM     69  N   UNL A   1      43.278  31.977  29.164  1.00  0.00    -0.248 NA
ATOM     70  C   UNL A   1      43.894  30.872  27.241  1.00  0.00     0.031 C 
ATOM     71  C   UNL A   1      45.631  33.399  31.461  1.00  0.00     0.029 A 
ATOM     72  C   UNL A   1      44.685  33.953  30.607  1.00  0.00     0.049 A 
ATOM     73  H   UNL A   1      43.159  35.312  31.074  1.00  0.00     0.167 HD
ATOM     74  C   UNL A   1      44.113  32.807  28.529  1.00  0.00     0.074 A 
ATOM     75  C   UNL A   1      44.383  32.127  27.266  1.00  0.00     0.031 C 
ATOM     76  C   UNL A   1      44.536  33.944  29.142  1.00  0.00     0.037 A 
BRANCH  63  77
ATOM     77  C   UNL A   1      44.224  36.118  35.088  1.00  0.00     0.064 A 
ATOM     78  C   UNL A   1      44.443  35.249  36.177  1.00  0.00     0.173 A 
ATOM     79  C   UNL A   1      44.648  37.450  35.351  1.00  0.00     0.173 A 
ATOM     80  F   UNL A   1      44.125  33.952  36.110  1.00  0.00    -0.203 F 
ATOM     81  C   UNL A   1      45.022  35.664  37.384  1.00  0.00     0.198 A 
ATOM     82  C   UNL A   1      45.254  37.856  36.544  1.00  0.00     0.198 A 
ATOM     83  F   UNL A   1      44.510  38.463  34.499  1.00  0.00    -0.203 F 
ATOM     84  F   UNL A   1      45.174  34.780  38.379  1.00  0.00    -0.200 F 
ATOM     85  C   UNL A   1      45.448  36.962  37.561  1.00  0.00     0.200 A 
ATOM     86  F   UNL A   1      45.644  39.133  36.680  1.00  0.00    -0.200 F 
ATOM     87  F   UNL A   1      46.041  37.347  38.696  1.00  0.00    -0.200 F 
ENDBRANCH  63  77
BRANCH  64  88
ATOM     88  C   UNL A   1      41.825  28.604  28.778  1.00  0.00     0.064 A 
ATOM     89  C   UNL A   1      42.179  27.265  28.504  1.00  0.00     0.173 A 
ATOM     90  C   UNL A   1      40.428  28.836  28.750  1.00  0.00     0.173 A 
ATOM     91  F   UNL A   1      43.459  26.956  28.256  1.00  0.00    -0.203 F 
ATOM     92  C   UNL A   1      41.245  26.204  28.509  1.00  0.00     0.198 A 
ATOM     93  C   UNL A   1      39.485  27.763  28.802  1.00  0.00     0.198 A 
ATOM     94  F   UNL A   1      39.950  30.079  28.904  1.00  0.00    -0.203 F 
ATOM     95  F   UNL A   1      41.668  24.935  28.380  1.00  0.00    -0.200 F 
ATOM     96  C   UNL A   1      39.909  26.446  28.746  1.00  0.00     0.200 A 
ATOM     97  F   UNL A   1      38.195  28.012  29.094  1.00  0.00    -0.200 F 
ATOM     98  F   UNL A   1      39.057  25.425  28.932  1.00  0.00    -0.200 F 
ENDBRANCH  64  88
BRANCH  76  99
ATOM     99  C   UNL A   1      45.001  35.125  28.376  1.00  0.00     0.064 A 
ATOM    100  C   UNL A   1      46.326  35.294  27.956  1.00  0.00     0.173 A 
ATOM    101  C   UNL A   1      44.068  36.067  27.897  1.00  0.00     0.173 A 
ATOM    102  F   UNL A   1      47.263  34.357  28.147  1.00  0.00    -0.203 F 
ATOM    103  C   UNL A   1      46.720  36.420  27.253  1.00  0.00     0.198 A 
ATOM    104  C   UNL A   1      44.448  37.129  27.101  1.00  0.00     0.198 A 
ATOM    105  F   UNL A   1      42.754  35.979  28.144  1.00  0.00    -0.203 F 
ATOM    106  F   UNL A   1      48.017  36.598  26.973  1.00  0.00    -0.200 F 
ATOM    107  C   UNL A   1      45.779  37.333  26.818  1.00  0.00     0.200 A 
ATOM    108  F   UNL A   1      43.507  37.939  26.601  1.00  0.00    -0.200 F 
ATOM    109  F   UNL A   1      46.153  38.396  26.100  1.00  0.00    -0.200 F 
ENDBRANCH  76  99
ENDBRANCH  50  51
ENDBRANCH  43  45
ENDBRANCH  42  43
ENDBRANCH  41  42
ENDBRANCH  40  41
ENDBRANCH  39  40
ENDBRANCH  38  39
ENDBRANCH  37  38
ENDBRANCH   1  37
TORSDOF 22
ENDMDL
MODEL 2
REMARK VINA RESULT:     -13.2      5.196     11.824
REMARK SMILES Cc1c(C(=O)Nc2ccc(C(=O)Nc3ccccc3C(=O)OCCOCCOCCOC(=O)c3ccc(-c4c5nc(c(-c6c(F)c(F)c(F)c(F)c6F)c6ccc([nH]6)c(-c6c(F)c(F)c(F)c(F)c6F)c6nc(c(-c7c(F)c(F)c(F)c(F)c7F)c7ccc4[nH]7)C=C6)C=C5)cc3)cc2)cccc1[N+](=O)[O-]
REMARK SMILES IDX 25 1 24 2 23 3 22 4 20 5 21 6 19 7 14 8 15 9 16 10 18 11
REMARK SMILES IDX 17 12 13 13 11 14 12 15 10 17 7 18 8 19 98 20 9 21 97 22
REMARK SMILES IDX 6 23 4 24 5 25 3 27 1 28 2 29 102 30 99 31 101 32 100 33
REMARK SMILES IDX 103 34 104 35 105 36 26 37 27 38 28 39 29 40 30 41 31 42
REMARK SMILES IDX 32 43 33 44 34 45 35 46 96 47 36 48 95 49 37 50 38 51 39 52
REMARK SMILES IDX 89 53 40 54 94 55 88 56 90 57 41 58 93 59 87 60 86 61 42 63
REMARK SMILES IDX 74 64 54 65 73 66 55 67 58 68 72 69 91 70 56 71 57 72 71 74
REMARK SMILES IDX 92 75 59 76 43 77 44 78 52 79 45 80 46 81 50 82 53 83 47 84
REMARK SMILES IDX 48 85 51 86 49 87 75 88 76 89 84 90 77 91 78 92 82 93 85 94
REMARK SMILES IDX 79 95 80 96 83 97 81 98 60 99 61 100 69 101 62 102 63 103
REMARK SMILES IDX 67 104 70 105 64 106 65 107 68 108 66 109
REMARK H PARENT 13 16 6 26 90 62 58 73
REMARK Flexibility Score: inf
ROOT
ATOM      1  O   UNL A   1      39.535  21.511  26.026  1.00  0.00    -0.376 OA
ENDROOT
BRANCH   1   2
ATOM      2  C   UNL A   1      39.919  22.680  26.683  1.00  0.00     0.202 C 
BRANCH   2   3
ATOM      3  C   UNL A   1      38.993  23.908  26.871  1.00  0.00     0.261 C 
BRANCH   3   4
ATOM      4  O   UNL A   1      37.548  24.341  26.094  1.00  0.00    -0.460 OA
BRANCH   4   5
ATOM      5  C   UNL A   1      36.131  23.964  25.641  1.00  0.00     0.340 C 
ATOM      6  O   UNL A   1      36.162  23.659  24.453  1.00  0.00    -0.246 OA
BRANCH   5   7
ATOM      7  C   UNL A   1      34.761  23.569  26.185  1.00  0.00     0.083 A 
ATOM      8  C   UNL A   1      33.819  24.591  25.935  1.00  0.00     0.056 A 
ATOM      9  C   UNL A   1      32.505  24.451  26.454  1.00  0.00     0.027 A 
ATOM     10  C   UNL A   1      32.064  23.243  27.036  1.00  0.00     0.002 A 
ATOM     11  C   UNL A   1      34.326  22.426  26.926  1.00  0.00     0.018 A 
ATOM     12  C   UNL A   1      32.970  22.213  27.245  1.00  0.00     0.001 A 
BRANCH   8  13
ATOM     13  N   UNL A   1      34.132  25.718  25.071  1.00  0.00    -0.321 N 
ATOM     14  C   UNL A   1      33.790  27.135  25.076  1.00  0.00     0.255 C 
ATOM     15  O   UNL A   1      33.944  27.763  24.031  1.00  0.00    -0.269 OA
ATOM     16  H   UNL A   1      34.705  25.467  24.310  1.00  0.00     0.170 HD
BRANCH  14  17
ATOM     17  C   UNL A   1      33.442  27.993  26.376  1.00  0.00     0.040 A 
ATOM     18  C   UNL A   1      33.726  31.592  27.638  1.00  0.00     0.041 A 
ATOM     19  C   UNL A   1      35.117  30.526  27.629  1.00  0.00     0.027 A 
ATOM     20  C   UNL A   1      32.208  30.805  27.224  1.00  0.00     0.027 A 
ATOM     21  C   UNL A   1      34.815  28.638  27.011  1.00  0.00     0.016 A 
ATOM     22  C   UNL A   1      32.101  29.003  26.668  1.00  0.00     0.016 A 
BRANCH  18  23
ATOM     23  N   UNL A   1      33.697  32.979  27.566  1.00  0.00    -0.322 N 
ATOM     24  C   UNL A   1      34.276  33.919  28.402  1.00  0.00     0.256 C 
ATOM     25  O   UNL A   1      34.550  35.015  27.909  1.00  0.00    -0.269 OA
ATOM     26  H   UNL A   1      33.188  33.349  26.808  1.00  0.00     0.170 HD
BRANCH  24  27
ATOM     27  C   UNL A   1      34.516  33.750  29.862  1.00  0.00     0.049 A 
ATOM     28  C   UNL A   1      33.091  35.669  30.640  1.00  0.00     0.053 C 
ATOM     29  C   UNL A   1      34.119  34.622  30.894  1.00  0.00     0.039 A 
ATOM     30  C   UNL A   1      34.524  34.339  32.224  1.00  0.00     0.273 A 
ATOM     31  C   UNL A   1      34.943  32.469  30.224  1.00  0.00     0.014 A 
ATOM     32  C   UNL A   1      35.030  33.084  32.554  1.00  0.00     0.086 A 
ATOM     33  C   UNL A   1      35.150  32.123  31.561  1.00  0.00     0.008 A 
BRANCH  30  34
ATOM     34  N   UNL A   1      34.552  35.347  33.304  1.00  0.00     0.063 N 
ATOM     35  O   UNL A   1      34.946  34.951  34.415  1.00  0.00    -0.258 OA
ATOM     36  O   UNL A   1      34.233  36.512  33.056  1.00  0.00    -0.258 OA
ENDBRANCH  30  34
ENDBRANCH  24  27
ENDBRANCH  18  23
ENDBRANCH  14  17
ENDBRANCH   8  13
ENDBRANCH   5   7
ENDBRANCH   4   5
ENDBRANCH   3   4
ENDBRANCH   2   3
ENDBRANCH   1   2
BRANCH   1  37
ATOM     37  C   UNL A   1      40.264  20.328  26.236  1.00  0.00     0.188 C 
BRANCH  37  38
ATOM     38  C   UNL A   1      41.436  20.237  27.199  1.00  0.00     0.188 C 
BRANCH  38  39
ATOM     39  O   UNL A   1      42.405  19.225  27.345  1.00  0.00    -0.376 OA
BRANCH  39  40
ATOM     40  C   UNL A   1      42.806  18.692  26.024  1.00  0.00     0.202 C 
BRANCH  40  41
ATOM     41  C   UNL A   1      44.196  19.292  25.224  1.00  0.00     0.261 C 
BRANCH  41  42
ATOM     42  O   UNL A   1      44.808  20.926  24.974  1.00  0.00    -0.460 OA
BRANCH  42  43
ATOM     43  C   UNL A   1      44.681  22.271  24.172  1.00  0.00     0.338 C 
ATOM     44  O   UNL A   1      44.260  22.118  23.028  1.00  0.00    -0.246 OA
BRANCH  43  45
ATOM     45  C   UNL A   1      45.371  23.935  24.701  1.00  0.00     0.060 A 
ATOM     46  C   UNL A   1      47.153  24.465  24.600  1.00  0.00     0.016 A 
ATOM     47  C   UNL A   1      44.308  25.164  25.914  1.00  0.00     0.016 A 
ATOM     48  C   UNL A   1      47.665  25.924  25.660  1.00  0.00     0.010 A 
ATOM     49  C   UNL A   1      44.931  26.541  26.734  1.00  0.00     0.010 A 
ATOM     50  C   UNL A   1      46.533  26.744  26.864  1.00  0.00    -0.014 A 
BRANCH  50  51
ATOM     51  C   UNL A   1      46.407  27.089  28.647  1.00  0.00     0.031 A 
ATOM     52  C   UNL A   1      47.599  26.445  29.200  1.00  0.00     0.074 A 
ATOM     53  C   UNL A   1      45.635  27.832  29.718  1.00  0.00     0.049 A 
ATOM     54  N   UNL A   1      47.604  25.747  30.288  1.00  0.00    -0.248 NA
ATOM     55  C   UNL A   1      48.822  26.323  28.385  1.00  0.00     0.031 C 
ATOM     56  C   UNL A   1      46.168  28.646  30.873  1.00  0.00     0.029 A 
ATOM     57  N   UNL A   1      44.321  28.417  29.894  1.00  0.00    -0.354 N 
ATOM     58  C   UNL A   1      48.947  25.585  30.491  1.00  0.00     0.074 A 
ATOM     59  C   UNL A   1      49.458  25.445  29.158  1.00  0.00     0.031 C 
ATOM     60  C   UNL A   1      45.201  29.366  31.551  1.00  0.00     0.029 A 
ATOM     61  C   UNL A   1      43.896  29.197  30.936  1.00  0.00     0.049 A 
ATOM     62  H   UNL A   1      43.662  28.233  29.186  1.00  0.00     0.167 HD
ATOM     63  C   UNL A   1      49.523  26.232  31.551  1.00  0.00     0.037 A 
ATOM     64  C   UNL A   1      42.581  29.086  31.361  1.00  0.00     0.037 A 
ATOM     65  C   UNL A   1      48.504  26.827  32.468  1.00  0.00     0.049 A 
ATOM     66  C   UNL A   1      42.744  28.027  32.397  1.00  0.00     0.074 A 
ATOM     67  C   UNL A   1      48.340  28.080  33.046  1.00  0.00     0.029 A 
ATOM     68  N   UNL A   1      47.289  26.162  32.725  1.00  0.00    -0.354 N 
ATOM     69  N   UNL A   1      43.827  27.302  32.427  1.00  0.00    -0.248 NA
ATOM     70  C   UNL A   1      41.868  27.799  33.529  1.00  0.00     0.031 C 
ATOM     71  C   UNL A   1      47.071  28.120  33.708  1.00  0.00     0.029 A 
ATOM     72  C   UNL A   1      46.414  26.915  33.489  1.00  0.00     0.049 A 
ATOM     73  H   UNL A   1      47.083  25.257  32.395  1.00  0.00     0.167 HD
ATOM     74  C   UNL A   1      43.981  26.816  33.665  1.00  0.00     0.074 A 
ATOM     75  C   UNL A   1      42.682  27.042  34.290  1.00  0.00     0.031 C 
ATOM     76  C   UNL A   1      45.188  26.330  34.057  1.00  0.00     0.037 A 
BRANCH  63  77
ATOM     77  C   UNL A   1      51.032  26.555  31.613  1.00  0.00     0.064 A 
ATOM     78  C   UNL A   1      51.904  25.673  32.283  1.00  0.00     0.173 A 
ATOM     79  C   UNL A   1      51.706  27.669  31.041  1.00  0.00     0.173 A 
ATOM     80  F   UNL A   1      51.456  24.557  32.869  1.00  0.00    -0.203 F 
ATOM     81  C   UNL A   1      53.288  25.881  32.367  1.00  0.00     0.198 A 
ATOM     82  C   UNL A   1      53.089  27.860  31.099  1.00  0.00     0.198 A 
ATOM     83  F   UNL A   1      51.098  28.662  30.396  1.00  0.00    -0.203 F 
ATOM     84  F   UNL A   1      54.045  25.006  33.043  1.00  0.00    -0.200 F 
ATOM     85  C   UNL A   1      53.885  26.962  31.757  1.00  0.00     0.200 A 
ATOM     86  F   UNL A   1      53.630  28.933  30.501  1.00  0.00    -0.200 F 
ATOM     87  F   UNL A   1      55.210  27.136  31.799  1.00  0.00    -0.200 F 
ENDBRANCH  63  77
BRANCH  64  88
ATOM     88  C   UNL A   1      41.345  29.159  30.420  1.00  0.00     0.064 A 
ATOM     89  C   UNL A   1      40.815  27.964  29.885  1.00  0.00     0.173 A 
ATOM     90  C   UNL A   1      40.521  30.290  30.201  1.00  0.00     0.173 A 
ATOM     91  F   UNL A   1      41.591  26.875  29.801  1.00  0.00    -0.203 F 
ATOM     92  C   UNL A   1      39.474  27.841  29.455  1.00  0.00     0.198 A 
ATOM     93  C   UNL A   1      39.153  30.161  29.811  1.00  0.00     0.198 A 
ATOM     94  F   UNL A   1      40.939  31.508  30.576  1.00  0.00    -0.203 F 
ATOM     95  F   UNL A   1      38.994  26.641  29.087  1.00  0.00    -0.200 F 
ATOM     96  C   UNL A   1      38.619  28.921  29.501  1.00  0.00     0.200 A 
ATOM     97  F   UNL A   1      38.318  31.211  29.920  1.00  0.00    -0.200 F 
ATOM     98  F   UNL A   1      37.307  28.758  29.267  1.00  0.00    -0.200 F 
ENDBRANCH  64  88
BRANCH  76  99
ATOM     99  C   UNL A   1      45.318  25.337  35.151  1.00  0.00     0.064 A 
ATOM    100  C   UNL A   1      45.456  25.695  36.498  1.00  0.00     0.173 A 
ATOM    101  C   UNL A   1      45.149  23.965  34.882  1.00  0.00     0.173 A 
ATOM    102  F   UNL A   1      45.398  26.967  36.911  1.00  0.00    -0.203 F 
ATOM    103  C   UNL A   1      45.588  24.734  37.487  1.00  0.00     0.198 A 
ATOM    104  C   UNL A   1      45.168  23.017  35.886  1.00  0.00     0.198 A 
ATOM    105  F   UNL A   1      44.917  23.488  33.651  1.00  0.00    -0.203 F 
ATOM    106  F   UNL A   1      45.834  25.120  38.745  1.00  0.00    -0.200 F 
ATOM    107  C   UNL A   1      45.436  23.396  37.182  1.00  0.00     0.200 A 
ATOM    108  F   UNL A   1      44.911  21.739  35.583  1.00  0.00    -0.200 F 
ATOM    109  F   UNL A   1      45.517  22.472  38.143  1.00  0.00    -0.200 F 
ENDBRANCH  76  99
ENDBRANCH  50  51
ENDBRANCH  43  45
ENDBRANCH  42  43
ENDBRANCH  41  42
ENDBRANCH  40  41
ENDBRANCH  39  40
ENDBRANCH  38  39
ENDBRANCH  37  38
ENDBRANCH   1  37
TORSDOF 22
ENDMDL
MODEL 3
REMARK VINA RESULT:     -13.2      4.257      7.011
REMARK SMILES Cc1c(C(=O)Nc2ccc(C(=O)Nc3ccccc3C(=O)OCCOCCOCCOC(=O)c3ccc(-c4c5nc(c(-c6c(F)c(F)c(F)c(F)c6F)c6ccc([nH]6)c(-c6c(F)c(F)c(F)c(F)c6F)c6nc(c(-c7c(F)c(F)c(F)c(F)c7F)c7ccc4[nH]7)C=C6)C=C5)cc3)cc2)cccc1[N+](=O)[O-]
REMARK SMILES IDX 25 1 24 2 23 3 22 4 20 5 21 6 19 7 14 8 15 9 16 10 18 11
REMARK SMILES IDX 17 12 13 13 11 14 12 15 10 17 7 18 8 19 98 20 9 21 97 22
REMARK SMILES IDX 6 23 4 24 5 25 3 27 1 28 2 29 102 30 99 31 101 32 100 33
REMARK SMILES IDX 103 34 104 35 105 36 26 37 27 38 28 39 29 40 30 41 31 42
REMARK SMILES IDX 32 43 33 44 34 45 35 46 96 47 36 48 95 49 37 50 38 51 39 52
REMARK SMILES IDX 89 53 40 54 94 55 88 56 90 57 41 58 93 59 87 60 86 61 42 63
REMARK SMILES IDX 74 64 54 65 73 66 55 67 58 68 72 69 91 70 56 71 57 72 71 74
REMARK SMILES IDX 92 75 59 76 43 77 44 78 52 79 45 80 46 81 50 82 53 83 47 84
REMARK SMILES IDX 48 85 51 86 49 87 75 88 76 89 84 90 77 91 78 92 82 93 85 94
REMARK SMILES IDX 79 95 80 96 83 97 81 98 60 99 61 100 69 101 62 102 63 103
REMARK SMILES IDX 67 104 70 105 64 106 65 107 68 108 66 109
REMARK H PARENT 13 16 6 26 90 62 58 73
REMARK Flexibility Score: inf
ROOT
ATOM      1  O   UNL A   1      35.928  29.842  28.473  1.00  0.00    -0.376 OA
ENDROOT
BRANCH   1   2
ATOM      2  C   UNL A   1      36.739  30.464  29.422  1.00  0.00     0.202 C 
BRANCH   2   3
ATOM      3  C   UNL A   1      38.205  30.888  29.158  1.00  0.00     0.261 C 
BRANCH   3   4
ATOM      4  O   UNL A   1      39.656  30.015  29.279  1.00  0.00    -0.460 OA
BRANCH   4   5
ATOM      5  C   UNL A   1      40.562  28.887  28.767  1.00  0.00     0.340 C 
ATOM      6  O   UNL A   1      40.243  27.840  29.320  1.00  0.00    -0.246 OA
BRANCH   5   7
ATOM      7  C   UNL A   1      41.520  28.538  27.632  1.00  0.00     0.083 A 
ATOM      8  C   UNL A   1      42.842  28.434  28.120  1.00  0.00     0.056 A 
ATOM      9  C   UNL A   1      43.895  28.211  27.194  1.00  0.00     0.027 A 
ATOM     10  C   UNL A   1      43.640  27.897  25.843  1.00  0.00     0.002 A 
ATOM     11  C   UNL A   1      41.312  28.382  26.226  1.00  0.00     0.018 A 
ATOM     12  C   UNL A   1      42.339  27.952  25.361  1.00  0.00     0.001 A 
BRANCH   8  13
ATOM     13  N   UNL A   1      43.128  28.437  29.545  1.00  0.00    -0.321 N 
ATOM     14  C   UNL A   1      43.432  27.405  30.528  1.00  0.00     0.255 C 
ATOM     15  O   UNL A   1      43.307  27.694  31.716  1.00  0.00    -0.269 OA
ATOM     16  H   UNL A   1      43.112  29.342  29.935  1.00  0.00     0.170 HD
BRANCH  14  17
ATOM     17  C   UNL A   1      44.124  26.004  30.207  1.00  0.00     0.040 A 
ATOM     18  C   UNL A   1      45.490  24.061  27.209  1.00  0.00     0.041 A 
ATOM     19  C   UNL A   1      43.768  24.144  27.523  1.00  0.00     0.027 A 
ATOM     20  C   UNL A   1      46.491  24.755  28.479  1.00  0.00     0.027 A 
ATOM     21  C   UNL A   1      43.188  25.135  29.173  1.00  0.00     0.016 A 
ATOM     22  C   UNL A   1      45.776  25.650  29.981  1.00  0.00     0.016 A 
BRANCH  18  23
ATOM     23  N   UNL A   1      46.143  23.872  25.998  1.00  0.00    -0.322 N 
ATOM     24  C   UNL A   1      45.888  22.953  24.993  1.00  0.00     0.256 C 
ATOM     25  O   UNL A   1      46.228  23.264  23.850  1.00  0.00    -0.269 OA
ATOM     26  H   UNL A   1      46.898  24.480  25.828  1.00  0.00     0.170 HD
BRANCH  24  27
ATOM     27  C   UNL A   1      45.322  21.590  25.187  1.00  0.00     0.049 A 
ATOM     28  C   UNL A   1      42.896  22.233  25.052  1.00  0.00     0.053 C 
ATOM     29  C   UNL A   1      43.967  21.252  25.376  1.00  0.00     0.039 A 
ATOM     30  C   UNL A   1      43.629  19.900  25.643  1.00  0.00     0.273 A 
ATOM     31  C   UNL A   1      46.212  20.555  24.885  1.00  0.00     0.014 A 
ATOM     32  C   UNL A   1      44.556  18.885  25.419  1.00  0.00     0.086 A 
ATOM     33  C   UNL A   1      45.819  19.217  24.952  1.00  0.00     0.008 A 
BRANCH  30  34
ATOM     34  N   UNL A   1      42.356  19.481  26.265  1.00  0.00     0.063 N 
ATOM     35  O   UNL A   1      41.370  19.420  25.510  1.00  0.00    -0.258 OA
ATOM     36  O   UNL A   1      42.335  19.181  27.461  1.00  0.00    -0.258 OA
ENDBRANCH  30  34
ENDBRANCH  24  27
ENDBRANCH  18  23
ENDBRANCH  14  17
ENDBRANCH   8  13
ENDBRANCH   5   7
ENDBRANCH   4   5
ENDBRANCH   3   4
ENDBRANCH   2   3
ENDBRANCH   1   2
BRANCH   1  37
ATOM     37  C   UNL A   1      35.002  30.609  27.745  1.00  0.00     0.188 C 
BRANCH  37  38
ATOM     38  C   UNL A   1      34.807  32.101  27.965  1.00  0.00     0.188 C 
BRANCH  38  39
ATOM     39  O   UNL A   1      33.654  32.892  27.794  1.00  0.00    -0.376 OA
BRANCH  39  40
ATOM     40  C   UNL A   1      33.921  34.296  28.179  1.00  0.00     0.202 C 
BRANCH  40  41
ATOM     41  C   UNL A   1      33.526  34.863  29.745  1.00  0.00     0.261 C 
BRANCH  41  42
ATOM     42  O   UNL A   1      33.533  34.082  31.327  1.00  0.00    -0.460 OA
BRANCH  42  43
ATOM     43  C   UNL A   1      34.375  33.334  32.422  1.00  0.00     0.338 C 
ATOM     44  O   UNL A   1      33.846  33.342  33.531  1.00  0.00    -0.246 OA
BRANCH  43  45
ATOM     45  C   UNL A   1      36.146  32.742  32.231  1.00  0.00     0.060 A 
ATOM     46  C   UNL A   1      36.957  31.381  33.208  1.00  0.00     0.016 A 
ATOM     47  C   UNL A   1      37.523  33.874  31.267  1.00  0.00     0.016 A 
ATOM     48  C   UNL A   1      38.831  31.342  33.214  1.00  0.00     0.010 A 
ATOM     49  C   UNL A   1      39.224  33.622  31.301  1.00  0.00     0.010 A 
ATOM     50  C   UNL A   1      39.871  32.643  32.418  1.00  0.00    -0.014 A 
BRANCH  50  51
ATOM     51  C   UNL A   1      41.137  33.876  32.854  1.00  0.00     0.031 A 
ATOM     52  C   UNL A   1      40.594  34.506  34.058  1.00  0.00     0.074 A 
ATOM     53  C   UNL A   1      42.516  34.410  32.528  1.00  0.00     0.049 A 
ATOM     54  N   UNL A   1      40.618  35.779  34.282  1.00  0.00    -0.248 NA
ATOM     55  C   UNL A   1      39.723  33.739  34.970  1.00  0.00     0.031 C 
ATOM     56  C   UNL A   1      43.640  34.765  33.473  1.00  0.00     0.029 A 
ATOM     57  N   UNL A   1      43.437  34.413  31.409  1.00  0.00    -0.354 N 
ATOM     58  C   UNL A   1      40.230  35.825  35.593  1.00  0.00     0.074 A 
ATOM     59  C   UNL A   1      39.264  34.769  35.678  1.00  0.00     0.031 C 
ATOM     60  C   UNL A   1      44.844  35.032  32.845  1.00  0.00     0.029 A 
ATOM     61  C   UNL A   1      44.736  34.848  31.408  1.00  0.00     0.049 A 
ATOM     62  H   UNL A   1      43.091  34.062  30.557  1.00  0.00     0.167 HD
ATOM     63  C   UNL A   1      41.158  36.196  36.529  1.00  0.00     0.037 A 
ATOM     64  C   UNL A   1      45.236  35.456  30.268  1.00  0.00     0.037 A 
ATOM     65  C   UNL A   1      42.405  36.734  35.903  1.00  0.00     0.049 A 
ATOM     66  C   UNL A   1      44.902  36.876  30.578  1.00  0.00     0.074 A 
ATOM     67  C   UNL A   1      43.759  36.482  36.080  1.00  0.00     0.029 A 
ATOM     68  N   UNL A   1      42.344  37.519  34.735  1.00  0.00    -0.354 N 
ATOM     69  N   UNL A   1      44.043  37.156  31.517  1.00  0.00    -0.248 NA
ATOM     70  C   UNL A   1      45.568  38.045  30.040  1.00  0.00     0.031 C 
ATOM     71  C   UNL A   1      44.494  37.183  35.071  1.00  0.00     0.029 A 
ATOM     72  C   UNL A   1      43.595  37.820  34.224  1.00  0.00     0.049 A 
ATOM     73  H   UNL A   1      41.501  37.822  34.325  1.00  0.00     0.167 HD
ATOM     74  C   UNL A   1      44.277  38.400  31.953  1.00  0.00     0.074 A 
ATOM     75  C   UNL A   1      45.148  38.967  30.929  1.00  0.00     0.031 C 
ATOM     76  C   UNL A   1      43.769  38.807  33.146  1.00  0.00     0.037 A 
BRANCH  63  77
ATOM     77  C   UNL A   1      41.035  35.818  38.021  1.00  0.00     0.064 A 
ATOM     78  C   UNL A   1      41.389  34.519  38.441  1.00  0.00     0.173 A 
ATOM     79  C   UNL A   1      40.608  36.648  39.094  1.00  0.00     0.173 A 
ATOM     80  F   UNL A   1      41.834  33.602  37.575  1.00  0.00    -0.203 F 
ATOM     81  C   UNL A   1      41.328  34.103  39.778  1.00  0.00     0.198 A 
ATOM     82  C   UNL A   1      40.575  36.241  40.431  1.00  0.00     0.198 A 
ATOM     83  F   UNL A   1      40.181  37.900  38.950  1.00  0.00    -0.203 F 
ATOM     84  F   UNL A   1      41.661  32.843  40.090  1.00  0.00    -0.200 F 
ATOM     85  C   UNL A   1      40.941  34.968  40.777  1.00  0.00     0.200 A 
ATOM     86  F   UNL A   1      40.182  37.112  41.374  1.00  0.00    -0.200 F 
ATOM     87  F   UNL A   1      40.926  34.584  42.058  1.00  0.00    -0.200 F 
ENDBRANCH  63  77
BRANCH  64  88
ATOM     88  C   UNL A   1      45.127  34.861  28.835  1.00  0.00     0.064 A 
ATOM     89  C   UNL A   1      44.038  35.230  28.016  1.00  0.00     0.173 A 
ATOM     90  C   UNL A   1      46.135  34.143  28.145  1.00  0.00     0.173 A 
ATOM     91  F   UNL A   1      42.912  35.691  28.579  1.00  0.00    -0.203 F 
ATOM     92  C   UNL A   1      44.079  35.170  26.604  1.00  0.00     0.198 A 
ATOM     93  C   UNL A   1      46.202  34.123  26.718  1.00  0.00     0.198 A 
ATOM     94  F   UNL A   1      47.187  33.652  28.815  1.00  0.00    -0.203 F 
ATOM     95  F   UNL A   1      43.062  35.667  25.880  1.00  0.00    -0.200 F 
ATOM     96  C   UNL A   1      45.199  34.697  25.955  1.00  0.00     0.200 A 
ATOM     97  F   UNL A   1      47.326  33.714  26.101  1.00  0.00    -0.200 F 
ATOM     98  F   UNL A   1      45.309  34.811  24.621  1.00  0.00    -0.200 F 
ENDBRANCH  64  88
BRANCH  76  99
ATOM     99  C   UNL A   1      43.528  40.238  33.450  1.00  0.00     0.064 A 
ATOM    100  C   UNL A   1      44.137  40.908  34.520  1.00  0.00     0.173 A 
ATOM    101  C   UNL A   1      42.780  41.033  32.560  1.00  0.00     0.173 A 
ATOM    102  F   UNL A   1      45.051  40.323  35.304  1.00  0.00    -0.203 F 
ATOM    103  C   UNL A   1      43.873  42.243  34.776  1.00  0.00     0.198 A 
ATOM    104  C   UNL A   1      42.612  42.389  32.757  1.00  0.00     0.198 A 
ATOM    105  F   UNL A   1      42.217  40.544  31.446  1.00  0.00    -0.203 F 
ATOM    106  F   UNL A   1      44.384  42.812  35.874  1.00  0.00    -0.200 F 
ATOM    107  C   UNL A   1      43.117  42.985  33.890  1.00  0.00     0.200 A 
ATOM    108  F   UNL A   1      41.968  43.110  31.830  1.00  0.00    -0.200 F 
ATOM    109  F   UNL A   1      42.901  44.284  34.113  1.00  0.00    -0.200 F 
ENDBRANCH  76  99
ENDBRANCH  50  51
ENDBRANCH  43  45
ENDBRANCH  42  43
ENDBRANCH  41  42
ENDBRANCH  40  41
ENDBRANCH  39  40
ENDBRANCH  38  39
ENDBRANCH  37  38
ENDBRANCH   1  37
TORSDOF 22
ENDMDL
