MODEL 1
REMARK VINA RESULT:     -11.9      0.000      0.000
REMARK SMILES CN1C(=O)C[C@@H](C(=O)OCCOCCOCCOC(=O)c2ccc(-c3c4nc(c(-c5c(F)c(F)c(F)c(F)c5F)c5ccc([nH]5)c(-c5c(F)c(F)c(F)c(F)c5F)c5nc(c(-c6c(F)c(F)c(F)c(F)c6F)c6ccc3[nH]6)C=C5)C=C4)cc2)C12CCN(c1ccc(Cl)cn1)CC2
REMARK SMILES IDX 14 1 13 2 12 3 11 4 10 5 9 6 7 7 8 8 6 9 1 10 2 11 3 12
REMARK SMILES IDX 84 13 4 14 5 15 85 16 96 17 86 18 95 19 87 20 88 21 89 22
REMARK SMILES IDX 94 23 90 24 93 25 91 26 92 27 15 28 16 29 17 30 18 31 19 32
REMARK SMILES IDX 20 33 21 34 22 35 83 36 23 37 82 38 24 39 25 40 26 41 76 42
REMARK SMILES IDX 27 43 81 44 75 45 77 46 28 47 80 48 74 49 73 50 29 52 61 53
REMARK SMILES IDX 41 54 60 55 42 56 45 57 59 58 78 59 43 60 44 61 58 63 79 64
REMARK SMILES IDX 46 65 30 66 31 67 39 68 32 69 33 70 37 71 40 72 34 73 35 74
REMARK SMILES IDX 38 75 36 76 62 77 63 78 71 79 64 80 65 81 69 82 72 83 66 84
REMARK SMILES IDX 67 85 70 86 68 87 47 88 48 89 56 90 49 91 50 92 54 93 57 94
REMARK SMILES IDX 51 95 52 96 55 97 53 98
REMARK H PARENT 77 51 45 62
REMARK Flexibility Score: inf
ROOT
ATOM      1  C   UNL A   1      42.306  19.182  26.322  1.00  0.00     0.188 C 
ENDROOT
BRANCH   1   2
ATOM      2  C   UNL A   1      41.766  20.123  27.391  1.00  0.00     0.188 C 
BRANCH   2   3
ATOM      3  O   UNL A   1      40.403  20.517  27.337  1.00  0.00    -0.376 OA
BRANCH   3   4
ATOM      4  C   UNL A   1      40.045  21.690  26.620  1.00  0.00     0.202 C 
BRANCH   4   5
ATOM      5  C   UNL A   1      38.881  21.549  25.625  1.00  0.00     0.261 C 
BRANCH   5   6
ATOM      6  O   UNL A   1      37.780  22.498  25.740  1.00  0.00    -0.463 OA
BRANCH   6   7
ATOM      7  C   UNL A   1      36.791  22.338  24.831  1.00  0.00     0.311 C 
ATOM      8  O   UNL A   1      36.971  22.426  23.617  1.00  0.00    -0.252 OA
BRANCH   7   9
ATOM      9  C   UNL A   1      35.366  22.202  25.357  1.00  0.00     0.134 C 
ATOM     10  C   UNL A   1      32.434  21.197  23.210  1.00  0.00     0.147 C 
ATOM     11  N   UNL A   1      33.560  21.324  24.123  1.00  0.00    -0.339 N 
ATOM     12  C   UNL A   1      34.214  20.219  24.642  1.00  0.00     0.223 C 
ATOM     13  C   UNL A   1      34.010  22.602  24.695  1.00  0.00     0.060 C 
ATOM     14  O   UNL A   1      34.011  19.059  24.370  1.00  0.00    -0.275 OA
ATOM     15  C   UNL A   1      35.195  20.705  25.675  1.00  0.00     0.118 C 
ATOM     16  C   UNL A   1      33.997  23.690  23.610  1.00  0.00     0.051 C 
ATOM     17  C   UNL A   1      33.015  23.028  25.842  1.00  0.00     0.051 C 
ATOM     18  C   UNL A   1      34.169  25.082  24.172  1.00  0.00     0.120 C 
ATOM     19  C   UNL A   1      33.159  24.486  26.316  1.00  0.00     0.120 C 
ATOM     20  N   UNL A   1      33.126  25.359  25.149  1.00  0.00    -0.356 N 
BRANCH  20  21
ATOM     21  C   UNL A   1      32.789  26.698  25.339  1.00  0.00     0.128 A 
ATOM     22  C   UNL A   1      31.959  27.063  26.406  1.00  0.00     0.048 A 
ATOM     23  N   UNL A   1      33.232  27.633  24.469  1.00  0.00    -0.238 NA
ATOM     24  C   UNL A   1      31.521  28.382  26.550  1.00  0.00     0.026 A 
ATOM     25  C   UNL A   1      32.801  28.917  24.632  1.00  0.00     0.134 A 
ATOM     26  C   UNL A   1      31.940  29.328  25.635  1.00  0.00     0.059 A 
ATOM     27  Cl  UNL A   1      31.394  30.951  25.745  1.00  0.00    -0.083 Cl
ENDBRANCH  20  21
ENDBRANCH   7   9
ENDBRANCH   6   7
ENDBRANCH   5   6
ENDBRANCH   4   5
ENDBRANCH   3   4
ENDBRANCH   2   3
ENDBRANCH   1   2
BRANCH   1  28
ATOM     28  O   UNL A   1      42.867  19.857  25.209  1.00  0.00    -0.376 OA
BRANCH  28  29
ATOM     29  C   UNL A   1      43.928  20.738  25.566  1.00  0.00     0.202 C 
BRANCH  29  30
ATOM     30  C   UNL A   1      43.870  21.966  24.652  1.00  0.00     0.261 C 
BRANCH  30  31
ATOM     31  O   UNL A   1      43.097  23.059  25.198  1.00  0.00    -0.460 OA
BRANCH  31  32
ATOM     32  C   UNL A   1      43.724  24.256  25.225  1.00  0.00     0.338 C 
ATOM     33  O   UNL A   1      44.643  24.611  24.507  1.00  0.00    -0.246 OA
BRANCH  32  34
ATOM     34  C   UNL A   1      43.005  25.168  26.138  1.00  0.00     0.060 A 
ATOM     35  C   UNL A   1      43.393  26.506  26.178  1.00  0.00     0.016 A 
ATOM     36  C   UNL A   1      42.042  24.708  27.028  1.00  0.00     0.016 A 
ATOM     37  C   UNL A   1      42.890  27.379  27.133  1.00  0.00     0.010 A 
ATOM     38  C   UNL A   1      41.508  25.592  27.979  1.00  0.00     0.010 A 
ATOM     39  C   UNL A   1      41.958  26.925  28.066  1.00  0.00    -0.014 A 
BRANCH  39  40
ATOM     40  C   UNL A   1      41.574  27.808  29.200  1.00  0.00     0.031 A 
ATOM     41  C   UNL A   1      42.368  27.759  30.477  1.00  0.00     0.074 A 
ATOM     42  C   UNL A   1      40.574  28.700  29.080  1.00  0.00     0.049 A 
ATOM     43  N   UNL A   1      42.158  28.369  31.617  1.00  0.00    -0.248 NA
ATOM     44  C   UNL A   1      43.572  26.916  30.464  1.00  0.00     0.031 C 
ATOM     45  C   UNL A   1      39.785  28.932  27.871  1.00  0.00     0.029 A 
ATOM     46  N   UNL A   1      40.044  29.575  29.998  1.00  0.00    -0.354 N 
ATOM     47  C   UNL A   1      43.188  27.967  32.457  1.00  0.00     0.074 A 
ATOM     48  C   UNL A   1      44.018  27.054  31.702  1.00  0.00     0.031 C 
ATOM     49  C   UNL A   1      38.860  29.871  28.126  1.00  0.00     0.029 A 
ATOM     50  C   UNL A   1      38.943  30.251  29.533  1.00  0.00     0.049 A 
ATOM     51  H   UNL A   1      40.416  29.703  30.900  1.00  0.00     0.167 HD
ATOM     52  C   UNL A   1      43.416  28.318  33.745  1.00  0.00     0.037 A 
ATOM     53  C   UNL A   1      38.061  31.038  30.181  1.00  0.00     0.037 A 
ATOM     54  C   UNL A   1      42.577  29.206  34.504  1.00  0.00     0.049 A 
ATOM     55  C   UNL A   1      38.251  31.308  31.649  1.00  0.00     0.074 A 
ATOM     56  C   UNL A   1      42.714  29.611  35.820  1.00  0.00     0.029 A 
ATOM     57  N   UNL A   1      41.429  29.813  34.016  1.00  0.00    -0.354 N 
ATOM     58  N   UNL A   1      39.213  30.909  32.447  1.00  0.00    -0.248 NA
ATOM     59  C   UNL A   1      37.226  32.127  32.310  1.00  0.00     0.031 C 
ATOM     60  C   UNL A   1      41.609  30.405  36.149  1.00  0.00     0.029 A 
ATOM     61  C   UNL A   1      40.819  30.549  35.020  1.00  0.00     0.049 A 
ATOM     62  H   UNL A   1      41.097  29.733  33.093  1.00  0.00     0.167 HD
ATOM     63  C   UNL A   1      38.916  31.435  33.698  1.00  0.00     0.074 A 
ATOM     64  C   UNL A   1      37.696  32.200  33.548  1.00  0.00     0.031 C 
ATOM     65  C   UNL A   1      39.594  31.294  34.864  1.00  0.00     0.037 A 
BRANCH  52  66
ATOM     66  C   UNL A   1      44.581  27.666  34.432  1.00  0.00     0.064 A 
ATOM     67  C   UNL A   1      44.463  26.435  35.097  1.00  0.00     0.173 A 
ATOM     68  C   UNL A   1      45.834  28.298  34.437  1.00  0.00     0.173 A 
ATOM     69  F   UNL A   1      43.281  25.802  35.139  1.00  0.00    -0.203 F 
ATOM     70  C   UNL A   1      45.549  25.880  35.769  1.00  0.00     0.198 A 
ATOM     71  C   UNL A   1      46.924  27.725  35.086  1.00  0.00     0.198 A 
ATOM     72  F   UNL A   1      45.999  29.477  33.819  1.00  0.00    -0.203 F 
ATOM     73  F   UNL A   1      45.400  24.732  36.446  1.00  0.00    -0.200 F 
ATOM     74  C   UNL A   1      46.779  26.522  35.760  1.00  0.00     0.200 A 
ATOM     75  F   UNL A   1      48.112  28.345  35.070  1.00  0.00    -0.200 F 
ATOM     76  F   UNL A   1      47.820  25.988  36.412  1.00  0.00    -0.200 F 
ENDBRANCH  52  66
BRANCH  53  77
ATOM     77  C   UNL A   1      36.874  31.556  29.452  1.00  0.00     0.064 A 
ATOM     78  C   UNL A   1      36.763  32.905  29.095  1.00  0.00     0.173 A 
ATOM     79  C   UNL A   1      35.824  30.696  29.086  1.00  0.00     0.173 A 
ATOM     80  F   UNL A   1      37.723  33.772  29.450  1.00  0.00    -0.203 F 
ATOM     81  C   UNL A   1      35.650  33.376  28.402  1.00  0.00     0.198 A 
ATOM     82  C   UNL A   1      34.728  31.162  28.365  1.00  0.00     0.198 A 
ATOM     83  F   UNL A   1      35.876  29.396  29.412  1.00  0.00    -0.203 F 
ATOM     84  F   UNL A   1      35.550  34.679  28.104  1.00  0.00    -0.200 F 
ATOM     85  C   UNL A   1      34.638  32.502  28.028  1.00  0.00     0.200 A 
ATOM     86  F   UNL A   1      33.761  30.310  27.997  1.00  0.00    -0.200 F 
ATOM     87  F   UNL A   1      33.576  32.954  27.348  1.00  0.00    -0.200 F 
ENDBRANCH  53  77
BRANCH  65  88
ATOM     88  C   UNL A   1      39.040  31.996  36.071  1.00  0.00     0.064 A 
ATOM     89  C   UNL A   1      38.173  31.348  36.964  1.00  0.00     0.173 A 
ATOM     90  C   UNL A   1      39.409  33.318  36.357  1.00  0.00     0.173 A 
ATOM     91  F   UNL A   1      37.778  30.088  36.729  1.00  0.00    -0.203 F 
ATOM     92  C   UNL A   1      37.675  32.010  38.084  1.00  0.00     0.198 A 
ATOM     93  C   UNL A   1      38.934  33.966  37.495  1.00  0.00     0.198 A 
ATOM     94  F   UNL A   1      40.240  33.981  35.540  1.00  0.00    -0.203 F 
ATOM     95  F   UNL A   1      36.808  31.389  38.896  1.00  0.00    -0.200 F 
ATOM     96  C   UNL A   1      38.061  33.315  38.352  1.00  0.00     0.200 A 
ATOM     97  F   UNL A   1      39.320  35.222  37.760  1.00  0.00    -0.200 F 
ATOM     98  F   UNL A   1      37.585  33.947  39.434  1.00  0.00    -0.200 F 
ENDBRANCH  65  88
ENDBRANCH  39  40
ENDBRANCH  32  34
ENDBRANCH  31  32
ENDBRANCH  30  31
ENDBRANCH  29  30
ENDBRANCH  28  29
ENDBRANCH   1  28
TORSDOF 18
ENDMDL
MODEL 2
REMARK VINA RESULT:     -11.6      5.697     10.941
REMARK SMILES CN1C(=O)C[C@@H](C(=O)OCCOCCOCCOC(=O)c2ccc(-c3c4nc(c(-c5c(F)c(F)c(F)c(F)c5F)c5ccc([nH]5)c(-c5c(F)c(F)c(F)c(F)c5F)c5nc(c(-c6c(F)c(F)c(F)c(F)c6F)c6ccc3[nH]6)C=C5)C=C4)cc2)C12CCN(c1ccc(Cl)cn1)CC2
REMARK SMILES IDX 14 1 13 2 12 3 11 4 10 5 9 6 7 7 8 8 6 9 1 10 2 11 3 12
REMARK SMILES IDX 84 13 4 14 5 15 85 16 96 17 86 18 95 19 87 20 88 21 89 22
REMARK SMILES IDX 94 23 90 24 93 25 91 26 92 27 15 28 16 29 17 30 18 31 19 32
REMARK SMILES IDX 20 33 21 34 22 35 83 36 23 37 82 38 24 39 25 40 26 41 76 42
REMARK SMILES IDX 27 43 81 44 75 45 77 46 28 47 80 48 74 49 73 50 29 52 61 53
REMARK SMILES IDX 41 54 60 55 42 56 45 57 59 58 78 59 43 60 44 61 58 63 79 64
REMARK SMILES IDX 46 65 30 66 31 67 39 68 32 69 33 70 37 71 40 72 34 73 35 74
REMARK SMILES IDX 38 75 36 76 62 77 63 78 71 79 64 80 65 81 69 82 72 83 66 84
REMARK SMILES IDX 67 85 70 86 68 87 47 88 48 89 56 90 49 91 50 92 54 93 57 94
REMARK SMILES IDX 51 95 52 96 55 97 53 98
REMARK H PARENT 77 51 45 62
REMARK Flexibility Score: inf
ROOT
ATOM      1  C   UNL A   1      33.934  34.530  28.913  1.00  0.00     0.188 C 
ENDROOT
BRANCH   1   2
ATOM      2  C   UNL A   1      34.455  33.418  28.012  1.00  0.00     0.188 C 
BRANCH   2   3
ATOM      3  O   UNL A   1      34.470  32.086  28.503  1.00  0.00    -0.376 OA
BRANCH   3   4
ATOM      4  C   UNL A   1      35.118  31.073  27.746  1.00  0.00     0.202 C 
BRANCH   4   5
ATOM      5  C   UNL A   1      34.267  29.843  27.390  1.00  0.00     0.261 C 
BRANCH   5   6
ATOM      6  O   UNL A   1      32.817  29.994  27.430  1.00  0.00    -0.463 OA
BRANCH   6   7
ATOM      7  C   UNL A   1      32.119  28.913  27.011  1.00  0.00     0.311 C 
ATOM      8  O   UNL A   1      31.503  28.171  27.776  1.00  0.00    -0.252 OA
BRANCH   7   9
ATOM      9  C   UNL A   1      32.243  28.519  25.543  1.00  0.00     0.134 C 
ATOM     10  C   UNL A   1      29.411  27.062  23.525  1.00  0.00     0.147 C 
ATOM     11  N   UNL A   1      30.440  27.859  24.176  1.00  0.00    -0.339 N 
ATOM     12  C   UNL A   1      30.425  29.244  24.150  1.00  0.00     0.223 C 
ATOM     13  C   UNL A   1      31.655  27.290  24.781  1.00  0.00     0.060 C 
ATOM     14  O   UNL A   1      29.566  29.953  23.680  1.00  0.00    -0.275 OA
ATOM     15  C   UNL A   1      31.713  29.731  24.755  1.00  0.00     0.118 C 
ATOM     16  C   UNL A   1      31.297  26.020  25.568  1.00  0.00     0.051 C 
ATOM     17  C   UNL A   1      32.663  26.901  23.634  1.00  0.00     0.051 C 
ATOM     18  C   UNL A   1      32.512  25.223  25.979  1.00  0.00     0.120 C 
ATOM     19  C   UNL A   1      33.834  26.003  24.078  1.00  0.00     0.120 C 
ATOM     20  N   UNL A   1      33.293  24.862  24.806  1.00  0.00    -0.356 N 
BRANCH  20  21
ATOM     21  C   UNL A   1      34.080  23.715  24.908  1.00  0.00     0.128 A 
ATOM     22  C   UNL A   1      35.117  23.498  23.992  1.00  0.00     0.048 A 
ATOM     23  N   UNL A   1      33.814  22.800  25.866  1.00  0.00    -0.238 NA
ATOM     24  C   UNL A   1      35.846  22.307  24.010  1.00  0.00     0.026 A 
ATOM     25  C   UNL A   1      34.543  21.647  25.872  1.00  0.00     0.134 A 
ATOM     26  C   UNL A   1      35.543  21.353  24.963  1.00  0.00     0.059 A 
ATOM     27  Cl  UNL A   1      36.381  19.856  24.997  1.00  0.00    -0.083 Cl
ENDBRANCH  20  21
ENDBRANCH   7   9
ENDBRANCH   6   7
ENDBRANCH   5   6
ENDBRANCH   4   5
ENDBRANCH   3   4
ENDBRANCH   2   3
ENDBRANCH   1   2
BRANCH   1  28
ATOM     28  O   UNL A   1      33.544  34.078  30.199  1.00  0.00    -0.376 OA
BRANCH  28  29
ATOM     29  C   UNL A   1      34.347  34.612  31.246  1.00  0.00     0.202 C 
BRANCH  29  30
ATOM     30  C   UNL A   1      34.395  33.596  32.391  1.00  0.00     0.261 C 
BRANCH  30  31
ATOM     31  O   UNL A   1      35.089  32.374  32.052  1.00  0.00    -0.460 OA
BRANCH  31  32
ATOM     32  C   UNL A   1      36.206  32.122  32.772  1.00  0.00     0.338 C 
ATOM     33  O   UNL A   1      36.362  32.325  33.963  1.00  0.00    -0.246 OA
BRANCH  32  34
ATOM     34  C   UNL A   1      37.171  31.376  31.938  1.00  0.00     0.060 A 
ATOM     35  C   UNL A   1      38.057  30.508  32.571  1.00  0.00     0.016 A 
ATOM     36  C   UNL A   1      37.289  31.602  30.572  1.00  0.00     0.016 A 
ATOM     37  C   UNL A   1      39.105  29.912  31.880  1.00  0.00     0.010 A 
ATOM     38  C   UNL A   1      38.329  30.981  29.862  1.00  0.00     0.010 A 
ATOM     39  C   UNL A   1      39.271  30.162  30.519  1.00  0.00    -0.014 A 
BRANCH  39  40
ATOM     40  C   UNL A   1      40.500  29.681  29.834  1.00  0.00     0.031 A 
ATOM     41  C   UNL A   1      41.656  30.624  29.639  1.00  0.00     0.074 A 
ATOM     42  C   UNL A   1      40.626  28.397  29.450  1.00  0.00     0.049 A 
ATOM     43  N   UNL A   1      42.782  30.446  28.993  1.00  0.00    -0.248 NA
ATOM     44  C   UNL A   1      41.531  31.946  30.268  1.00  0.00     0.031 C 
ATOM     45  C   UNL A   1      39.632  27.346  29.666  1.00  0.00     0.029 A 
ATOM     46  N   UNL A   1      41.647  27.760  28.785  1.00  0.00    -0.354 N 
ATOM     47  C   UNL A   1      43.484  31.637  29.122  1.00  0.00     0.074 A 
ATOM     48  C   UNL A   1      42.657  32.534  29.898  1.00  0.00     0.031 C 
ATOM     49  C   UNL A   1      40.082  26.202  29.128  1.00  0.00     0.029 A 
ATOM     50  C   UNL A   1      41.358  26.456  28.466  1.00  0.00     0.049 A 
ATOM     51  H   UNL A   1      42.500  28.197  28.560  1.00  0.00     0.167 HD
ATOM     52  C   UNL A   1      44.704  31.958  28.628  1.00  0.00     0.037 A 
ATOM     53  C   UNL A   1      42.014  25.583  27.676  1.00  0.00     0.037 A 
ATOM     54  C   UNL A   1      45.516  31.074  27.835  1.00  0.00     0.049 A 
ATOM     55  C   UNL A   1      43.303  26.003  27.022  1.00  0.00     0.074 A 
ATOM     56  C   UNL A   1      46.758  31.311  27.275  1.00  0.00     0.029 A 
ATOM     57  N   UNL A   1      45.154  29.785  27.473  1.00  0.00    -0.354 N 
ATOM     58  N   UNL A   1      43.953  27.136  27.126  1.00  0.00    -0.248 NA
ATOM     59  C   UNL A   1      43.941  25.026  26.128  1.00  0.00     0.031 C 
ATOM     60  C   UNL A   1      47.115  30.191  26.514  1.00  0.00     0.029 A 
ATOM     61  C   UNL A   1      46.126  29.231  26.654  1.00  0.00     0.049 A 
ATOM     62  H   UNL A   1      44.327  29.330  27.756  1.00  0.00     0.167 HD
ATOM     63  C   UNL A   1      45.080  27.006  26.324  1.00  0.00     0.074 A 
ATOM     64  C   UNL A   1      45.034  25.676  25.755  1.00  0.00     0.031 C 
ATOM     65  C   UNL A   1      46.062  27.910  26.080  1.00  0.00     0.037 A 
BRANCH  52  66
ATOM     66  C   UNL A   1      45.189  33.358  28.869  1.00  0.00     0.064 A 
ATOM     67  C   UNL A   1      44.885  34.414  27.996  1.00  0.00     0.173 A 
ATOM     68  C   UNL A   1      45.987  33.639  29.988  1.00  0.00     0.173 A 
ATOM     69  F   UNL A   1      44.143  34.192  26.901  1.00  0.00    -0.203 F 
ATOM     70  C   UNL A   1      45.391  35.693  28.219  1.00  0.00     0.198 A 
ATOM     71  C   UNL A   1      46.468  34.925  30.222  1.00  0.00     0.198 A 
ATOM     72  F   UNL A   1      46.309  32.665  30.852  1.00  0.00    -0.203 F 
ATOM     73  F   UNL A   1      45.137  36.675  27.342  1.00  0.00    -0.200 F 
ATOM     74  C   UNL A   1      46.179  35.948  29.332  1.00  0.00     0.200 A 
ATOM     75  F   UNL A   1      47.222  35.169  31.302  1.00  0.00    -0.200 F 
ATOM     76  F   UNL A   1      46.669  37.177  29.541  1.00  0.00    -0.200 F 
ENDBRANCH  52  66
BRANCH  53  77
ATOM     77  C   UNL A   1      41.410  24.253  27.401  1.00  0.00     0.064 A 
ATOM     78  C   UNL A   1      41.973  23.074  27.906  1.00  0.00     0.173 A 
ATOM     79  C   UNL A   1      40.240  24.140  26.631  1.00  0.00     0.173 A 
ATOM     80  F   UNL A   1      43.107  23.125  28.619  1.00  0.00    -0.203 F 
ATOM     81  C   UNL A   1      41.390  21.834  27.650  1.00  0.00     0.198 A 
ATOM     82  C   UNL A   1      39.642  22.904  26.404  1.00  0.00     0.198 A 
ATOM     83  F   UNL A   1      39.667  25.238  26.116  1.00  0.00    -0.203 F 
ATOM     84  F   UNL A   1      41.967  20.717  28.113  1.00  0.00    -0.200 F 
ATOM     85  C   UNL A   1      40.219  21.750  26.909  1.00  0.00     0.200 A 
ATOM     86  F   UNL A   1      38.505  22.833  25.698  1.00  0.00    -0.200 F 
ATOM     87  F   UNL A   1      39.652  20.559  26.678  1.00  0.00    -0.200 F 
ENDBRANCH  53  77
BRANCH  65  88
ATOM     88  C   UNL A   1      47.178  27.485  25.170  1.00  0.00     0.064 A 
ATOM     89  C   UNL A   1      47.189  27.829  23.809  1.00  0.00     0.173 A 
ATOM     90  C   UNL A   1      48.267  26.757  25.671  1.00  0.00     0.173 A 
ATOM     91  F   UNL A   1      46.165  28.512  23.277  1.00  0.00    -0.203 F 
ATOM     92  C   UNL A   1      48.236  27.434  22.980  1.00  0.00     0.198 A 
ATOM     93  C   UNL A   1      49.328  26.392  24.846  1.00  0.00     0.198 A 
ATOM     94  F   UNL A   1      48.310  26.408  26.965  1.00  0.00    -0.203 F 
ATOM     95  F   UNL A   1      48.201  27.730  21.673  1.00  0.00    -0.200 F 
ATOM     96  C   UNL A   1      49.308  26.723  23.500  1.00  0.00     0.200 A 
ATOM     97  F   UNL A   1      50.368  25.717  25.353  1.00  0.00    -0.200 F 
ATOM     98  F   UNL A   1      50.317  26.351  22.701  1.00  0.00    -0.200 F 
ENDBRANCH  65  88
ENDBRANCH  39  40
ENDBRANCH  32  34
ENDBRANCH  31  32
ENDBRANCH  30  31
ENDBRANCH  29  30
ENDBRANCH  28  29
ENDBRANCH   1  28
TORSDOF 18
ENDMDL
MODEL 3
REMARK VINA RESULT:     -11.5      0.904      2.225
REMARK SMILES CN1C(=O)C[C@@H](C(=O)OCCOCCOCCOC(=O)c2ccc(-c3c4nc(c(-c5c(F)c(F)c(F)c(F)c5F)c5ccc([nH]5)c(-c5c(F)c(F)c(F)c(F)c5F)c5nc(c(-c6c(F)c(F)c(F)c(F)c6F)c6ccc3[nH]6)C=C5)C=C4)cc2)C12CCN(c1ccc(Cl)cn1)CC2
REMARK SMILES IDX 14 1 13 2 12 3 11 4 10 5 9 6 7 7 8 8 6 9 1 10 2 11 3 12
REMARK SMILES IDX 84 13 4 14 5 15 85 16 96 17 86 18 95 19 87 20 88 21 89 22
REMARK SMILES IDX 94 23 90 24 93 25 91 26 92 27 15 28 16 29 17 30 18 31 19 32
REMARK SMILES IDX 20 33 21 34 22 35 83 36 23 37 82 38 24 39 25 40 26 41 76 42
REMARK SMILES IDX 27 43 81 44 75 45 77 46 28 47 80 48 74 49 73 50 29 52 61 53
REMARK SMILES IDX 41 54 60 55 42 56 45 57 59 58 78 59 43 60 44 61 58 63 79 64
REMARK SMILES IDX 46 65 30 66 31 67 39 68 32 69 33 70 37 71 40 72 34 73 35 74
REMARK SMILES IDX 38 75 36 76 62 77 63 78 71 79 64 80 65 81 69 82 72 83 66 84
REMARK SMILES IDX 67 85 70 86 68 87 47 88 48 89 56 90 49 91 50 92 54 93 57 94
REMARK SMILES IDX 51 95 52 96 55 97 53 98
REMARK H PARENT 77 51 45 62
REMARK Flexibility Score: inf
ROOT
ATOM      1  C   UNL A   1      40.924  21.008  26.644  1.00  0.00     0.188 C 
ENDROOT
BRANCH   1   2
ATOM      2  C   UNL A   1      39.724  21.934  26.497  1.00  0.00     0.188 C 
BRANCH   2   3
ATOM      3  O   UNL A   1      38.563  21.456  25.833  1.00  0.00    -0.376 OA
BRANCH   3   4
ATOM      4  C   UNL A   1      37.777  22.360  25.069  1.00  0.00     0.202 C 
BRANCH   4   5
ATOM      5  C   UNL A   1      36.504  22.893  25.747  1.00  0.00     0.261 C 
BRANCH   5   6
ATOM      6  O   UNL A   1      35.646  21.925  26.421  1.00  0.00    -0.463 OA
BRANCH   6   7
ATOM      7  C   UNL A   1      35.048  21.026  25.604  1.00  0.00     0.311 C 
ATOM      8  O   UNL A   1      35.674  20.222  24.915  1.00  0.00    -0.252 OA
BRANCH   7   9
ATOM      9  C   UNL A   1      33.539  21.137  25.419  1.00  0.00     0.134 C 
ATOM     10  C   UNL A   1      31.828  20.969  22.063  1.00  0.00     0.147 C 
ATOM     11  N   UNL A   1      32.408  20.773  23.383  1.00  0.00    -0.339 N 
ATOM     12  C   UNL A   1      32.586  19.512  23.929  1.00  0.00     0.223 C 
ATOM     13  C   UNL A   1      32.714  21.871  24.314  1.00  0.00     0.060 C 
ATOM     14  O   UNL A   1      32.372  18.450  23.392  1.00  0.00    -0.275 OA
ATOM     15  C   UNL A   1      33.033  19.685  25.355  1.00  0.00     0.118 C 
ATOM     16  C   UNL A   1      33.358  23.036  23.548  1.00  0.00     0.051 C 
ATOM     17  C   UNL A   1      31.372  22.379  24.965  1.00  0.00     0.051 C 
ATOM     18  C   UNL A   1      33.442  24.302  24.368  1.00  0.00     0.120 C 
ATOM     19  C   UNL A   1      31.481  23.725  25.708  1.00  0.00     0.120 C 
ATOM     20  N   UNL A   1      32.115  24.693  24.822  1.00  0.00    -0.356 N 
BRANCH  20  21
ATOM     21  C   UNL A   1      31.919  26.049  25.082  1.00  0.00     0.128 A 
ATOM     22  C   UNL A   1      31.967  26.974  24.031  1.00  0.00     0.048 A 
ATOM     23  N   UNL A   1      31.723  26.469  26.351  1.00  0.00    -0.238 NA
ATOM     24  C   UNL A   1      31.881  28.345  24.284  1.00  0.00     0.026 A 
ATOM     25  C   UNL A   1      31.633  27.811  26.576  1.00  0.00     0.134 A 
ATOM     26  C   UNL A   1      31.725  28.775  25.588  1.00  0.00     0.059 A 
ATOM     27  Cl  UNL A   1      31.659  30.450  25.953  1.00  0.00    -0.083 Cl
ENDBRANCH  20  21
ENDBRANCH   7   9
ENDBRANCH   6   7
ENDBRANCH   5   6
ENDBRANCH   4   5
ENDBRANCH   3   4
ENDBRANCH   2   3
ENDBRANCH   1   2
BRANCH   1  28
ATOM     28  O   UNL A   1      41.821  21.070  25.547  1.00  0.00    -0.376 OA
BRANCH  28  29
ATOM     29  C   UNL A   1      43.064  20.424  25.804  1.00  0.00     0.202 C 
BRANCH  29  30
ATOM     30  C   UNL A   1      44.198  21.374  25.408  1.00  0.00     0.261 C 
BRANCH  30  31
ATOM     31  O   UNL A   1      44.261  22.571  26.217  1.00  0.00    -0.460 OA
BRANCH  31  32
ATOM     32  C   UNL A   1      44.119  23.735  25.543  1.00  0.00     0.338 C 
ATOM     33  O   UNL A   1      44.396  23.934  24.374  1.00  0.00    -0.246 OA
BRANCH  32  34
ATOM     34  C   UNL A   1      43.389  24.705  26.385  1.00  0.00     0.060 A 
ATOM     35  C   UNL A   1      43.793  26.038  26.357  1.00  0.00     0.016 A 
ATOM     36  C   UNL A   1      42.400  24.307  27.275  1.00  0.00     0.016 A 
ATOM     37  C   UNL A   1      43.277  26.970  27.249  1.00  0.00     0.010 A 
ATOM     38  C   UNL A   1      41.854  25.250  28.161  1.00  0.00     0.010 A 
ATOM     39  C   UNL A   1      42.318  26.581  28.183  1.00  0.00    -0.014 A 
BRANCH  39  40
ATOM     40  C   UNL A   1      41.918  27.531  29.255  1.00  0.00     0.031 A 
ATOM     41  C   UNL A   1      42.713  27.585  30.531  1.00  0.00     0.074 A 
ATOM     42  C   UNL A   1      40.901  28.394  29.077  1.00  0.00     0.049 A 
ATOM     43  N   UNL A   1      42.492  28.267  31.627  1.00  0.00    -0.248 NA
ATOM     44  C   UNL A   1      43.933  26.766  30.573  1.00  0.00     0.031 C 
ATOM     45  C   UNL A   1      40.106  28.527  27.857  1.00  0.00     0.029 A 
ATOM     46  N   UNL A   1      40.354  29.319  29.934  1.00  0.00    -0.354 N 
ATOM     47  C   UNL A   1      43.530  27.942  32.490  1.00  0.00     0.074 A 
ATOM     48  C   UNL A   1      44.377  26.996  31.798  1.00  0.00     0.031 C 
ATOM     49  C   UNL A   1      39.164  29.463  28.048  1.00  0.00     0.029 A 
ATOM     50  C   UNL A   1      39.240  29.941  29.426  1.00  0.00     0.049 A 
ATOM     51  H   UNL A   1      40.725  29.515  30.825  1.00  0.00     0.167 HD
ATOM     52  C   UNL A   1      43.752  28.384  33.752  1.00  0.00     0.037 A 
ATOM     53  C   UNL A   1      38.344  30.753  30.021  1.00  0.00     0.037 A 
ATOM     54  C   UNL A   1      42.897  29.306  34.450  1.00  0.00     0.049 A 
ATOM     55  C   UNL A   1      38.530  31.126  31.467  1.00  0.00     0.074 A 
ATOM     56  C   UNL A   1      43.026  29.802  35.735  1.00  0.00     0.029 A 
ATOM     57  N   UNL A   1      41.737  29.856  33.924  1.00  0.00    -0.354 N 
ATOM     58  N   UNL A   1      39.499  30.800  32.288  1.00  0.00    -0.248 NA
ATOM     59  C   UNL A   1      37.489  31.968  32.073  1.00  0.00     0.031 C 
ATOM     60  C   UNL A   1      41.907  30.595  36.011  1.00  0.00     0.029 A 
ATOM     61  C   UNL A   1      41.113  30.647  34.877  1.00  0.00     0.049 A 
ATOM     62  H   UNL A   1      41.406  29.707  33.009  1.00  0.00     0.167 HD
ATOM     63  C   UNL A   1      39.193  31.404  33.501  1.00  0.00     0.074 A 
ATOM     64  C   UNL A   1      37.958  32.133  33.302  1.00  0.00     0.031 C 
ATOM     65  C   UNL A   1      39.875  31.356  34.673  1.00  0.00     0.037 A 
BRANCH  52  66
ATOM     66  C   UNL A   1      44.929  27.803  34.479  1.00  0.00     0.064 A 
ATOM     67  C   UNL A   1      46.209  28.374  34.406  1.00  0.00     0.173 A 
ATOM     68  C   UNL A   1      44.772  26.641  35.251  1.00  0.00     0.173 A 
ATOM     69  F   UNL A   1      46.416  29.472  33.664  1.00  0.00    -0.203 F 
ATOM     70  C   UNL A   1      47.293  27.783  35.051  1.00  0.00     0.198 A 
ATOM     71  C   UNL A   1      45.852  26.070  35.917  1.00  0.00     0.198 A 
ATOM     72  F   UNL A   1      43.570  26.055  35.351  1.00  0.00    -0.203 F 
ATOM     73  F   UNL A   1      48.518  28.312  34.921  1.00  0.00    -0.200 F 
ATOM     74  C   UNL A   1      47.114  26.635  35.808  1.00  0.00     0.200 A 
ATOM     75  F   UNL A   1      45.674  24.964  36.653  1.00  0.00    -0.200 F 
ATOM     76  F   UNL A   1      48.159  26.065  36.423  1.00  0.00    -0.200 F 
ENDBRANCH  52  66
BRANCH  53  77
ATOM     77  C   UNL A   1      37.146  31.197  29.261  1.00  0.00     0.064 A 
ATOM     78  C   UNL A   1      36.084  30.325  28.992  1.00  0.00     0.173 A 
ATOM     79  C   UNL A   1      37.039  32.519  28.797  1.00  0.00     0.173 A 
ATOM     80  F   UNL A   1      36.153  29.044  29.385  1.00  0.00    -0.203 F 
ATOM     81  C   UNL A   1      34.961  30.757  28.287  1.00  0.00     0.198 A 
ATOM     82  C   UNL A   1      35.902  32.957  28.122  1.00  0.00     0.198 A 
ATOM     83  F   UNL A   1      38.033  33.392  29.020  1.00  0.00    -0.203 F 
ATOM     84  F   UNL A   1      33.974  29.894  28.010  1.00  0.00    -0.200 F 
ATOM     85  C   UNL A   1      34.866  32.075  27.863  1.00  0.00     0.200 A 
ATOM     86  F   UNL A   1      35.813  34.234  27.726  1.00  0.00    -0.200 F 
ATOM     87  F   UNL A   1      33.780  32.492  27.200  1.00  0.00    -0.200 F 
ENDBRANCH  53  77
BRANCH  65  88
ATOM     88  C   UNL A   1      39.308  32.127  35.830  1.00  0.00     0.064 A 
ATOM     89  C   UNL A   1      39.635  33.474  36.047  1.00  0.00     0.173 A 
ATOM     90  C   UNL A   1      38.399  31.523  36.711  1.00  0.00     0.173 A 
ATOM     91  F   UNL A   1      40.511  34.095  35.243  1.00  0.00    -0.203 F 
ATOM     92  C   UNL A   1      39.094  34.178  37.121  1.00  0.00     0.198 A 
ATOM     93  C   UNL A   1      37.835  32.239  37.764  1.00  0.00     0.198 A 
ATOM     94  F   UNL A   1      38.046  30.240  36.545  1.00  0.00    -0.203 F 
ATOM     95  F   UNL A   1      39.460  35.449  37.339  1.00  0.00    -0.200 F 
ATOM     96  C   UNL A   1      38.189  33.563  37.973  1.00  0.00     0.200 A 
ATOM     97  F   UNL A   1      36.950  31.647  38.577  1.00  0.00    -0.200 F 
ATOM     98  F   UNL A   1      37.665  34.244  39.000  1.00  0.00    -0.200 F 
ENDBRANCH  65  88
ENDBRANCH  39  40
ENDBRANCH  32  34
ENDBRANCH  31  32
ENDBRANCH  30  31
ENDBRANCH  29  30
ENDBRANCH  28  29
ENDBRANCH   1  28
TORSDOF 18
ENDMDL
