MODEL 1
REMARK VINA RESULT:     -11.4      0.000      0.000
REMARK SMILES CC1(C)CCSC[C@@]1(Nc1ccccc1Br)C(=O)OCCOCCOCCOC(=O)c1ccc(-c2c3nc(c(-c4c(F)c(F)c(F)c(F)c4F)c4ccc([nH]4)c(-c4c(F)c(F)c(F)c(F)c4F)c4nc(c(-c5c(F)c(F)c(F)c(F)c5F)c5ccc2[nH]5)C=C4)C=C3)cc1
REMARK SMILES IDX 23 1 22 2 21 3 20 4 19 5 17 6 18 7 8 8 1 9 2 10 3 11 4 12
REMARK SMILES IDX 5 13 7 14 6 15 9 16 10 18 11 19 15 20 12 21 14 22 16 23
REMARK SMILES IDX 13 24 24 25 25 26 26 27 27 28 28 29 29 30 30 31 31 32 32 33
REMARK SMILES IDX 93 34 33 35 92 36 34 37 35 38 36 39 86 40 37 41 91 42 85 43
REMARK SMILES IDX 87 44 38 45 90 46 84 47 83 48 39 50 71 51 51 52 70 53 52 54
REMARK SMILES IDX 55 55 69 56 88 57 53 58 54 59 68 61 89 62 56 63 40 64 41 65
REMARK SMILES IDX 49 66 42 67 43 68 47 69 50 70 44 71 45 72 48 73 46 74 72 75
REMARK SMILES IDX 73 76 81 77 74 78 75 79 79 80 82 81 76 82 77 83 80 84 78 85
REMARK SMILES IDX 57 86 58 87 66 88 59 89 60 90 64 91 67 92 61 93 62 94 65 95
REMARK SMILES IDX 63 96
REMARK H PARENT 9 17 87 49 55 60
REMARK Flexibility Score: inf
ROOT
ATOM      1  C   UNL A   1      39.478  22.175  25.882  1.00  0.00     0.188 C 
ENDROOT
BRANCH   1   2
ATOM      2  O   UNL A   1      38.083  22.075  26.106  1.00  0.00    -0.376 OA
BRANCH   2   3
ATOM      3  C   UNL A   1      37.337  23.285  26.107  1.00  0.00     0.202 C 
BRANCH   3   4
ATOM      4  C   UNL A   1      36.587  23.691  24.828  1.00  0.00     0.261 C 
BRANCH   4   5
ATOM      5  O   UNL A   1      35.526  22.817  24.348  1.00  0.00    -0.461 OA
BRANCH   5   6
ATOM      6  C   UNL A   1      34.592  23.417  23.544  1.00  0.00     0.333 C 
ATOM      7  O   UNL A   1      34.847  23.710  22.378  1.00  0.00    -0.249 OA
BRANCH   6   8
ATOM      8  C   UNL A   1      33.179  23.693  24.223  1.00  0.00     0.150 C 
ATOM      9  C   UNL A   1      33.182  21.160  24.946  1.00  0.00     0.014 C 
ATOM     10  C   UNL A   1      32.358  22.292  24.241  1.00  0.00     0.000 C 
ATOM     11  C   UNL A   1      32.013  21.792  22.812  1.00  0.00     0.014 C 
ATOM     12  C   UNL A   1      30.984  22.402  24.977  1.00  0.00     0.020 C 
ATOM     13  C   UNL A   1      31.019  22.834  26.437  1.00  0.00     0.070 C 
ATOM     14  C   UNL A   1      33.323  24.156  25.703  1.00  0.00     0.110 C 
ATOM     15  S   UNL A   1      31.768  24.455  26.630  1.00  0.00    -0.159 SA
BRANCH   8  16
ATOM     16  N   UNL A   1      32.410  24.741  23.428  1.00  0.00    -0.368 N 
ATOM     17  H   UNL A   1      31.849  24.477  22.665  1.00  0.00     0.161 HD
BRANCH  16  18
ATOM     18  C   UNL A   1      32.516  26.098  23.804  1.00  0.00     0.049 A 
ATOM     19  C   UNL A   1      33.797  26.658  23.970  1.00  0.00     0.027 A 
ATOM     20  C   UNL A   1      31.426  26.979  23.901  1.00  0.00     0.041 A 
ATOM     21  C   UNL A   1      33.997  28.038  24.056  1.00  0.00     0.002 A 
ATOM     22  C   UNL A   1      31.620  28.368  23.963  1.00  0.00     0.018 A 
ATOM     23  Br  UNL A   1      29.648  26.338  24.130  1.00  0.00    -0.049 Br
ATOM     24  C   UNL A   1      32.907  28.898  24.009  1.00  0.00     0.001 A 
ENDBRANCH  16  18
ENDBRANCH   8  16
ENDBRANCH   6   8
ENDBRANCH   5   6
ENDBRANCH   4   5
ENDBRANCH   3   4
ENDBRANCH   2   3
ENDBRANCH   1   2
BRANCH   1  25
ATOM     25  C   UNL A   1      40.387  21.118  26.518  1.00  0.00     0.188 C 
BRANCH  25  26
ATOM     26  O   UNL A   1      41.346  20.579  25.640  1.00  0.00    -0.376 OA
BRANCH  26  27
ATOM     27  C   UNL A   1      42.683  20.527  26.096  1.00  0.00     0.202 C 
BRANCH  27  28
ATOM     28  C   UNL A   1      43.359  21.908  26.138  1.00  0.00     0.261 C 
BRANCH  28  29
ATOM     29  O   UNL A   1      43.044  22.800  25.045  1.00  0.00    -0.460 OA
BRANCH  29  30
ATOM     30  C   UNL A   1      43.716  23.980  25.001  1.00  0.00     0.338 C 
ATOM     31  O   UNL A   1      44.639  24.254  24.267  1.00  0.00    -0.246 OA
BRANCH  30  32
ATOM     32  C   UNL A   1      42.954  24.995  25.796  1.00  0.00     0.060 A 
ATOM     33  C   UNL A   1      43.582  26.221  26.079  1.00  0.00     0.016 A 
ATOM     34  C   UNL A   1      41.647  24.775  26.234  1.00  0.00     0.016 A 
ATOM     35  C   UNL A   1      42.945  27.182  26.874  1.00  0.00     0.010 A 
ATOM     36  C   UNL A   1      41.014  25.732  27.046  1.00  0.00     0.010 A 
ATOM     37  C   UNL A   1      41.684  26.913  27.423  1.00  0.00    -0.014 A 
BRANCH  37  38
ATOM     38  C   UNL A   1      41.221  27.698  28.604  1.00  0.00     0.031 A 
ATOM     39  C   UNL A   1      41.990  27.537  29.896  1.00  0.00     0.074 A 
ATOM     40  C   UNL A   1      40.199  28.573  28.555  1.00  0.00     0.049 A 
ATOM     41  N   UNL A   1      41.799  28.097  31.064  1.00  0.00    -0.248 NA
ATOM     42  C   UNL A   1      43.133  26.610  29.857  1.00  0.00     0.031 C 
ATOM     43  C   UNL A   1      39.389  28.872  27.379  1.00  0.00     0.029 A 
ATOM     44  N   UNL A   1      39.668  29.373  29.543  1.00  0.00    -0.354 N 
ATOM     45  C   UNL A   1      42.790  27.584  31.894  1.00  0.00     0.074 A 
ATOM     46  C   UNL A   1      43.553  26.640  31.110  1.00  0.00     0.031 C 
ATOM     47  C   UNL A   1      38.456  29.784  27.713  1.00  0.00     0.029 A 
ATOM     48  C   UNL A   1      38.587  30.116  29.133  1.00  0.00     0.049 A 
ATOM     49  H   UNL A   1      40.028  29.409  30.458  1.00  0.00     0.167 HD
ATOM     50  C   UNL A   1      43.058  27.881  33.189  1.00  0.00     0.037 A 
ATOM     51  C   UNL A   1      37.788  30.955  29.826  1.00  0.00     0.037 A 
ATOM     52  C   UNL A   1      42.309  28.816  33.984  1.00  0.00     0.049 A 
ATOM     53  C   UNL A   1      38.062  31.217  31.291  1.00  0.00     0.074 A 
ATOM     54  C   UNL A   1      42.513  29.187  35.301  1.00  0.00     0.029 A 
ATOM     55  N   UNL A   1      41.202  29.523  33.538  1.00  0.00    -0.354 N 
ATOM     56  N   UNL A   1      39.018  30.750  32.058  1.00  0.00    -0.248 NA
ATOM     57  C   UNL A   1      37.144  32.137  31.982  1.00  0.00     0.031 C 
ATOM     58  C   UNL A   1      41.495  30.072  35.671  1.00  0.00     0.029 A 
ATOM     59  C   UNL A   1      40.699  30.311  34.562  1.00  0.00     0.049 A 
ATOM     60  H   UNL A   1      40.829  29.473  32.628  1.00  0.00     0.167 HD
ATOM     61  C   UNL A   1      38.841  31.349  33.302  1.00  0.00     0.074 A 
ATOM     62  C   UNL A   1      37.695  32.224  33.184  1.00  0.00     0.031 C 
ATOM     63  C   UNL A   1      39.566  31.190  34.438  1.00  0.00     0.037 A 
BRANCH  50  64
ATOM     64  C   UNL A   1      44.202  27.154  33.837  1.00  0.00     0.064 A 
ATOM     65  C   UNL A   1      44.023  25.933  34.504  1.00  0.00     0.173 A 
ATOM     66  C   UNL A   1      45.502  27.681  33.776  1.00  0.00     0.173 A 
ATOM     67  F   UNL A   1      42.798  25.394  34.607  1.00  0.00    -0.203 F 
ATOM     68  C   UNL A   1      45.094  25.283  35.112  1.00  0.00     0.198 A 
ATOM     69  C   UNL A   1      46.576  27.012  34.355  1.00  0.00     0.198 A 
ATOM     70  F   UNL A   1      45.731  28.845  33.150  1.00  0.00    -0.203 F 
ATOM     71  F   UNL A   1      44.887  24.147  35.794  1.00  0.00    -0.200 F 
ATOM     72  C   UNL A   1      46.370  25.819  35.030  1.00  0.00     0.200 A 
ATOM     73  F   UNL A   1      47.811  27.524  34.262  1.00  0.00    -0.200 F 
ATOM     74  F   UNL A   1      47.401  25.190  35.612  1.00  0.00    -0.200 F 
ENDBRANCH  50  64
BRANCH  51  75
ATOM     75  C   UNL A   1      36.637  31.622  29.157  1.00  0.00     0.064 A 
ATOM     76  C   UNL A   1      36.626  33.008  28.935  1.00  0.00     0.173 A 
ATOM     77  C   UNL A   1      35.500  30.897  28.773  1.00  0.00     0.173 A 
ATOM     78  F   UNL A   1      37.674  33.754  29.315  1.00  0.00    -0.203 F 
ATOM     79  C   UNL A   1      35.517  33.643  28.380  1.00  0.00     0.198 A 
ATOM     80  C   UNL A   1      34.403  31.528  28.188  1.00  0.00     0.198 A 
ATOM     81  F   UNL A   1      35.451  29.571  28.971  1.00  0.00    -0.203 F 
ATOM     82  F   UNL A   1      35.511  34.975  28.238  1.00  0.00    -0.200 F 
ATOM     83  C   UNL A   1      34.408  32.901  28.001  1.00  0.00     0.200 A 
ATOM     84  F   UNL A   1      33.338  30.805  27.817  1.00  0.00    -0.200 F 
ATOM     85  F   UNL A   1      33.341  33.512  27.470  1.00  0.00    -0.200 F 
ENDBRANCH  51  75
BRANCH  63  86
ATOM     86  C   UNL A   1      39.185  32.026  35.632  1.00  0.00     0.064 A 
ATOM     87  C   UNL A   1      38.319  31.551  36.629  1.00  0.00     0.173 A 
ATOM     88  C   UNL A   1      39.715  33.317  35.789  1.00  0.00     0.173 A 
ATOM     89  F   UNL A   1      37.778  30.328  36.529  1.00  0.00    -0.203 F 
ATOM     90  C   UNL A   1      37.962  32.354  37.711  1.00  0.00     0.198 A 
ATOM     91  C   UNL A   1      39.386  34.101  36.892  1.00  0.00     0.198 A 
ATOM     92  F   UNL A   1      40.559  33.818  34.876  1.00  0.00    -0.203 F 
ATOM     93  F   UNL A   1      37.079  31.904  38.614  1.00  0.00    -0.200 F 
ATOM     94  C   UNL A   1      38.499  33.625  37.845  1.00  0.00     0.200 A 
ATOM     95  F   UNL A   1      39.922  35.322  37.028  1.00  0.00    -0.200 F 
ATOM     96  F   UNL A   1      38.154  34.396  38.886  1.00  0.00    -0.200 F 
ENDBRANCH  63  86
ENDBRANCH  37  38
ENDBRANCH  30  32
ENDBRANCH  29  30
ENDBRANCH  28  29
ENDBRANCH  27  28
ENDBRANCH  26  27
ENDBRANCH  25  26
ENDBRANCH   1  25
TORSDOF 19
ENDMDL
MODEL 2
REMARK VINA RESULT:     -11.0      0.920      7.250
REMARK SMILES CC1(C)CCSC[C@@]1(Nc1ccccc1Br)C(=O)OCCOCCOCCOC(=O)c1ccc(-c2c3nc(c(-c4c(F)c(F)c(F)c(F)c4F)c4ccc([nH]4)c(-c4c(F)c(F)c(F)c(F)c4F)c4nc(c(-c5c(F)c(F)c(F)c(F)c5F)c5ccc2[nH]5)C=C4)C=C3)cc1
REMARK SMILES IDX 23 1 22 2 21 3 20 4 19 5 17 6 18 7 8 8 1 9 2 10 3 11 4 12
REMARK SMILES IDX 5 13 7 14 6 15 9 16 10 18 11 19 15 20 12 21 14 22 16 23
REMARK SMILES IDX 13 24 24 25 25 26 26 27 27 28 28 29 29 30 30 31 31 32 32 33
REMARK SMILES IDX 93 34 33 35 92 36 34 37 35 38 36 39 86 40 37 41 91 42 85 43
REMARK SMILES IDX 87 44 38 45 90 46 84 47 83 48 39 50 71 51 51 52 70 53 52 54
REMARK SMILES IDX 55 55 69 56 88 57 53 58 54 59 68 61 89 62 56 63 40 64 41 65
REMARK SMILES IDX 49 66 42 67 43 68 47 69 50 70 44 71 45 72 48 73 46 74 72 75
REMARK SMILES IDX 73 76 81 77 74 78 75 79 79 80 82 81 76 82 77 83 80 84 78 85
REMARK SMILES IDX 57 86 58 87 66 88 59 89 60 90 64 91 67 92 61 93 62 94 65 95
REMARK SMILES IDX 63 96
REMARK H PARENT 9 17 87 49 55 60
REMARK Flexibility Score: inf
ROOT
ATOM      1  C   UNL A   1      39.659  22.689  26.605  1.00  0.00     0.188 C 
ENDROOT
BRANCH   1   2
ATOM      2  O   UNL A   1      38.482  23.326  26.138  1.00  0.00    -0.376 OA
BRANCH   2   3
ATOM      3  C   UNL A   1      37.449  22.490  25.633  1.00  0.00     0.202 C 
BRANCH   3   4
ATOM      4  C   UNL A   1      35.992  22.965  25.751  1.00  0.00     0.261 C 
BRANCH   4   5
ATOM      5  O   UNL A   1      35.604  24.175  25.040  1.00  0.00    -0.461 OA
BRANCH   5   6
ATOM      6  C   UNL A   1      34.720  23.990  24.009  1.00  0.00     0.333 C 
ATOM      7  O   UNL A   1      35.111  23.779  22.864  1.00  0.00    -0.249 OA
BRANCH   6   8
ATOM      8  C   UNL A   1      33.180  24.064  24.405  1.00  0.00     0.150 C 
ATOM      9  C   UNL A   1      33.299  21.463  24.814  1.00  0.00     0.014 C 
ATOM     10  C   UNL A   1      32.520  22.614  24.089  1.00  0.00     0.000 C 
ATOM     11  C   UNL A   1      32.516  22.286  22.570  1.00  0.00     0.014 C 
ATOM     12  C   UNL A   1      31.023  22.519  24.530  1.00  0.00     0.020 C 
ATOM     13  C   UNL A   1      30.725  22.752  26.004  1.00  0.00     0.070 C 
ATOM     14  C   UNL A   1      32.981  24.333  25.926  1.00  0.00     0.110 C 
ATOM     15  S   UNL A   1      31.251  24.384  26.536  1.00  0.00    -0.159 SA
BRANCH   8  16
ATOM     16  N   UNL A   1      32.481  25.148  23.595  1.00  0.00    -0.368 N 
ATOM     17  H   UNL A   1      32.044  24.930  22.741  1.00  0.00     0.161 HD
BRANCH  16  18
ATOM     18  C   UNL A   1      32.468  26.471  24.090  1.00  0.00     0.049 A 
ATOM     19  C   UNL A   1      33.680  27.048  24.512  1.00  0.00     0.027 A 
ATOM     20  C   UNL A   1      31.342  27.311  24.071  1.00  0.00     0.041 A 
ATOM     21  C   UNL A   1      33.807  28.421  24.739  1.00  0.00     0.002 A 
ATOM     22  C   UNL A   1      31.467  28.694  24.274  1.00  0.00     0.018 A 
ATOM     23  Br  UNL A   1      29.579  26.605  23.946  1.00  0.00    -0.049 Br
ATOM     24  C   UNL A   1      32.707  29.252  24.578  1.00  0.00     0.001 A 
ENDBRANCH  16  18
ENDBRANCH   8  16
ENDBRANCH   6   8
ENDBRANCH   5   6
ENDBRANCH   4   5
ENDBRANCH   3   4
ENDBRANCH   2   3
ENDBRANCH   1   2
BRANCH   1  25
ATOM     25  C   UNL A   1      39.985  21.294  26.063  1.00  0.00     0.188 C 
BRANCH  25  26
ATOM     26  O   UNL A   1      41.357  20.978  26.071  1.00  0.00    -0.376 OA
BRANCH  26  27
ATOM     27  C   UNL A   1      42.253  21.997  26.469  1.00  0.00     0.202 C 
BRANCH  27  28
ATOM     28  C   UNL A   1      43.117  22.526  25.311  1.00  0.00     0.261 C 
BRANCH  28  29
ATOM     29  O   UNL A   1      42.803  23.857  24.844  1.00  0.00    -0.460 OA
BRANCH  29  30
ATOM     30  C   UNL A   1      43.652  24.853  25.211  1.00  0.00     0.338 C 
ATOM     31  O   UNL A   1      44.715  25.115  24.695  1.00  0.00    -0.246 OA
BRANCH  30  32
ATOM     32  C   UNL A   1      42.941  25.764  26.163  1.00  0.00     0.060 A 
ATOM     33  C   UNL A   1      43.512  27.020  26.428  1.00  0.00     0.016 A 
ATOM     34  C   UNL A   1      41.729  25.418  26.766  1.00  0.00     0.016 A 
ATOM     35  C   UNL A   1      42.928  27.887  27.360  1.00  0.00     0.010 A 
ATOM     36  C   UNL A   1      41.152  26.281  27.713  1.00  0.00     0.010 A 
ATOM     37  C   UNL A   1      41.782  27.492  28.063  1.00  0.00    -0.014 A 
BRANCH  37  38
ATOM     38  C   UNL A   1      41.437  28.179  29.342  1.00  0.00     0.031 A 
ATOM     39  C   UNL A   1      40.211  29.063  29.351  1.00  0.00     0.074 A 
ATOM     40  C   UNL A   1      42.127  28.004  30.484  1.00  0.00     0.049 A 
ATOM     41  N   UNL A   1      39.693  29.772  30.323  1.00  0.00    -0.248 NA
ATOM     42  C   UNL A   1      39.471  29.157  28.083  1.00  0.00     0.031 C 
ATOM     43  C   UNL A   1      43.302  27.155  30.648  1.00  0.00     0.029 A 
ATOM     44  N   UNL A   1      41.929  28.550  31.733  1.00  0.00    -0.354 N 
ATOM     45  C   UNL A   1      38.576  30.398  29.779  1.00  0.00     0.074 A 
ATOM     46  C   UNL A   1      38.516  30.020  28.385  1.00  0.00     0.031 C 
ATOM     47  C   UNL A   1      43.728  27.241  31.923  1.00  0.00     0.029 A 
ATOM     48  C   UNL A   1      42.870  28.171  32.660  1.00  0.00     0.049 A 
ATOM     49  H   UNL A   1      41.182  29.155  31.943  1.00  0.00     0.167 HD
ATOM     50  C   UNL A   1      37.669  31.203  30.382  1.00  0.00     0.037 A 
ATOM     51  C   UNL A   1      43.028  28.542  33.948  1.00  0.00     0.037 A 
ATOM     52  C   UNL A   1      37.715  31.591  31.766  1.00  0.00     0.049 A 
ATOM     53  C   UNL A   1      42.045  29.500  34.583  1.00  0.00     0.074 A 
ATOM     54  C   UNL A   1      36.834  32.396  32.467  1.00  0.00     0.029 A 
ATOM     55  N   UNL A   1      38.704  31.210  32.660  1.00  0.00    -0.354 N 
ATOM     56  N   UNL A   1      40.977  30.061  34.069  1.00  0.00    -0.248 NA
ATOM     57  C   UNL A   1      42.287  29.864  35.988  1.00  0.00     0.031 C 
ATOM     58  C   UNL A   1      37.322  32.551  33.769  1.00  0.00     0.029 A 
ATOM     59  C   UNL A   1      38.466  31.783  33.901  1.00  0.00     0.049 A 
ATOM     60  H   UNL A   1      39.462  30.619  32.446  1.00  0.00     0.167 HD
ATOM     61  C   UNL A   1      40.402  30.808  35.093  1.00  0.00     0.074 A 
ATOM     62  C   UNL A   1      41.231  30.615  36.264  1.00  0.00     0.031 C 
ATOM     63  C   UNL A   1      39.286  31.579  35.068  1.00  0.00     0.037 A 
BRANCH  50  64
ATOM     64  C   UNL A   1      36.557  31.746  29.529  1.00  0.00     0.064 A 
ATOM     65  C   UNL A   1      36.500  33.097  29.157  1.00  0.00     0.173 A 
ATOM     66  C   UNL A   1      35.542  30.896  29.064  1.00  0.00     0.173 A 
ATOM     67  F   UNL A   1      37.436  33.957  29.589  1.00  0.00    -0.203 F 
ATOM     68  C   UNL A   1      35.453  33.584  28.379  1.00  0.00     0.198 A 
ATOM     69  C   UNL A   1      34.515  31.378  28.257  1.00  0.00     0.198 A 
ATOM     70  F   UNL A   1      35.548  29.594  29.388  1.00  0.00    -0.203 F 
ATOM     71  F   UNL A   1      35.388  34.890  28.085  1.00  0.00    -0.200 F 
ATOM     72  C   UNL A   1      34.466  32.723  27.923  1.00  0.00     0.200 A 
ATOM     73  F   UNL A   1      33.571  30.541  27.806  1.00  0.00    -0.200 F 
ATOM     74  F   UNL A   1      33.461  33.191  27.170  1.00  0.00    -0.200 F 
ENDBRANCH  50  64
BRANCH  51  75
ATOM     75  C   UNL A   1      44.169  28.014  34.747  1.00  0.00     0.064 A 
ATOM     76  C   UNL A   1      44.061  26.817  35.472  1.00  0.00     0.173 A 
ATOM     77  C   UNL A   1      45.375  28.725  34.848  1.00  0.00     0.173 A 
ATOM     78  F   UNL A   1      42.917  26.117  35.438  1.00  0.00    -0.203 F 
ATOM     79  C   UNL A   1      45.101  26.365  36.282  1.00  0.00     0.198 A 
ATOM     80  C   UNL A   1      46.427  28.255  35.633  1.00  0.00     0.198 A 
ATOM     81  F   UNL A   1      45.530  29.881  34.186  1.00  0.00    -0.203 F 
ATOM     82  F   UNL A   1      44.945  25.251  37.010  1.00  0.00    -0.200 F 
ATOM     83  C   UNL A   1      46.286  27.081  36.357  1.00  0.00     0.200 A 
ATOM     84  F   UNL A   1      47.573  28.946  35.696  1.00  0.00    -0.200 F 
ATOM     85  F   UNL A   1      47.285  26.648  37.137  1.00  0.00    -0.200 F 
ENDBRANCH  51  75
BRANCH  63  86
ATOM     86  C   UNL A   1      38.853  32.226  36.357  1.00  0.00     0.064 A 
ATOM     87  C   UNL A   1      38.043  31.561  37.290  1.00  0.00     0.173 A 
ATOM     88  C   UNL A   1      39.275  33.528  36.671  1.00  0.00     0.173 A 
ATOM     89  F   UNL A   1      37.604  30.318  37.040  1.00  0.00    -0.203 F 
ATOM     90  C   UNL A   1      37.635  32.192  38.464  1.00  0.00     0.198 A 
ATOM     91  C   UNL A   1      38.897  34.140  37.864  1.00  0.00     0.198 A 
ATOM     92  F   UNL A   1      40.063  34.207  35.824  1.00  0.00    -0.203 F 
ATOM     93  F   UNL A   1      36.804  31.561  39.307  1.00  0.00    -0.200 F 
ATOM     94  C   UNL A   1      38.065  33.477  38.753  1.00  0.00     0.200 A 
ATOM     95  F   UNL A   1      39.331  35.375  38.148  1.00  0.00    -0.200 F 
ATOM     96  F   UNL A   1      37.671  34.082  39.882  1.00  0.00    -0.200 F 
ENDBRANCH  63  86
ENDBRANCH  37  38
ENDBRANCH  30  32
ENDBRANCH  29  30
ENDBRANCH  28  29
ENDBRANCH  27  28
ENDBRANCH  26  27
ENDBRANCH  25  26
ENDBRANCH   1  25
TORSDOF 19
ENDMDL
MODEL 3
REMARK VINA RESULT:     -10.9      3.145      8.295
REMARK SMILES CC1(C)CCSC[C@@]1(Nc1ccccc1Br)C(=O)OCCOCCOCCOC(=O)c1ccc(-c2c3nc(c(-c4c(F)c(F)c(F)c(F)c4F)c4ccc([nH]4)c(-c4c(F)c(F)c(F)c(F)c4F)c4nc(c(-c5c(F)c(F)c(F)c(F)c5F)c5ccc2[nH]5)C=C4)C=C3)cc1
REMARK SMILES IDX 23 1 22 2 21 3 20 4 19 5 17 6 18 7 8 8 1 9 2 10 3 11 4 12
REMARK SMILES IDX 5 13 7 14 6 15 9 16 10 18 11 19 15 20 12 21 14 22 16 23
REMARK SMILES IDX 13 24 24 25 25 26 26 27 27 28 28 29 29 30 30 31 31 32 32 33
REMARK SMILES IDX 93 34 33 35 92 36 34 37 35 38 36 39 86 40 37 41 91 42 85 43
REMARK SMILES IDX 87 44 38 45 90 46 84 47 83 48 39 50 71 51 51 52 70 53 52 54
REMARK SMILES IDX 55 55 69 56 88 57 53 58 54 59 68 61 89 62 56 63 40 64 41 65
REMARK SMILES IDX 49 66 42 67 43 68 47 69 50 70 44 71 45 72 48 73 46 74 72 75
REMARK SMILES IDX 73 76 81 77 74 78 75 79 79 80 82 81 76 82 77 83 80 84 78 85
REMARK SMILES IDX 57 86 58 87 66 88 59 89 60 90 64 91 67 92 61 93 62 94 65 95
REMARK SMILES IDX 63 96
REMARK H PARENT 9 17 87 49 55 60
REMARK Flexibility Score: inf
ROOT
ATOM      1  C   UNL A   1      31.783  30.026  25.409  1.00  0.00     0.188 C 
ENDROOT
BRANCH   1   2
ATOM      2  O   UNL A   1      33.035  29.703  24.828  1.00  0.00    -0.376 OA
BRANCH   2   3
ATOM      3  C   UNL A   1      33.284  28.333  24.542  1.00  0.00     0.202 C 
BRANCH   3   4
ATOM      4  C   UNL A   1      33.903  27.451  25.638  1.00  0.00     0.261 C 
BRANCH   4   5
ATOM      5  O   UNL A   1      33.434  26.078  25.763  1.00  0.00    -0.461 OA
BRANCH   5   6
ATOM      6  C   UNL A   1      33.672  25.277  24.676  1.00  0.00     0.333 C 
ATOM      7  O   UNL A   1      34.497  25.590  23.822  1.00  0.00    -0.249 OA
BRANCH   6   8
ATOM      8  C   UNL A   1      32.817  23.935  24.613  1.00  0.00     0.150 C 
ATOM      9  C   UNL A   1      34.917  22.709  25.627  1.00  0.00     0.014 C 
ATOM     10  C   UNL A   1      33.856  22.695  24.473  1.00  0.00     0.000 C 
ATOM     11  C   UNL A   1      34.634  22.726  23.129  1.00  0.00     0.014 C 
ATOM     12  C   UNL A   1      33.147  21.303  24.503  1.00  0.00     0.020 C 
ATOM     13  C   UNL A   1      32.335  20.971  25.747  1.00  0.00     0.070 C 
ATOM     14  C   UNL A   1      32.001  23.702  25.919  1.00  0.00     0.110 C 
ATOM     15  S   UNL A   1      31.013  22.158  26.010  1.00  0.00    -0.159 SA
BRANCH   8  16
ATOM     16  N   UNL A   1      31.875  23.969  23.416  1.00  0.00    -0.368 N 
ATOM     17  H   UNL A   1      31.787  23.186  22.828  1.00  0.00     0.161 HD
BRANCH  16  18
ATOM     18  C   UNL A   1      31.128  25.142  23.167  1.00  0.00     0.049 A 
ATOM     19  C   UNL A   1      30.073  25.472  24.038  1.00  0.00     0.027 A 
ATOM     20  C   UNL A   1      31.446  26.085  22.175  1.00  0.00     0.041 A 
ATOM     21  C   UNL A   1      29.480  26.737  24.036  1.00  0.00     0.002 A 
ATOM     22  C   UNL A   1      30.871  27.365  22.182  1.00  0.00     0.018 A 
ATOM     23  Br  UNL A   1      32.528  25.625  20.678  1.00  0.00    -0.049 Br
ATOM     24  C   UNL A   1      29.911  27.701  23.134  1.00  0.00     0.001 A 
ENDBRANCH  16  18
ENDBRANCH   8  16
ENDBRANCH   6   8
ENDBRANCH   5   6
ENDBRANCH   4   5
ENDBRANCH   3   4
ENDBRANCH   2   3
ENDBRANCH   1   2
BRANCH   1  25
ATOM     25  C   UNL A   1      31.762  30.450  26.881  1.00  0.00     0.188 C 
BRANCH  25  26
ATOM     26  O   UNL A   1      33.032  30.484  27.489  1.00  0.00    -0.376 OA
BRANCH  26  27
ATOM     27  C   UNL A   1      33.651  31.748  27.623  1.00  0.00     0.202 C 
BRANCH  27  28
ATOM     28  C   UNL A   1      32.644  32.911  27.657  1.00  0.00     0.261 C 
BRANCH  28  29
ATOM     29  O   UNL A   1      33.203  34.235  27.500  1.00  0.00    -0.460 OA
BRANCH  29  30
ATOM     30  C   UNL A   1      33.274  35.007  28.617  1.00  0.00     0.338 C 
ATOM     31  O   UNL A   1      32.419  35.760  29.024  1.00  0.00    -0.246 OA
BRANCH  30  32
ATOM     32  C   UNL A   1      34.453  34.567  29.429  1.00  0.00     0.060 A 
ATOM     33  C   UNL A   1      35.724  34.615  28.830  1.00  0.00     0.016 A 
ATOM     34  C   UNL A   1      34.333  34.143  30.754  1.00  0.00     0.016 A 
ATOM     35  C   UNL A   1      36.854  34.154  29.517  1.00  0.00     0.010 A 
ATOM     36  C   UNL A   1      35.464  33.664  31.437  1.00  0.00     0.010 A 
ATOM     37  C   UNL A   1      36.720  33.607  30.800  1.00  0.00    -0.014 A 
BRANCH  37  38
ATOM     38  C   UNL A   1      37.795  32.719  31.330  1.00  0.00     0.031 A 
ATOM     39  C   UNL A   1      38.319  33.008  32.719  1.00  0.00     0.074 A 
ATOM     40  C   UNL A   1      38.272  31.654  30.659  1.00  0.00     0.049 A 
ATOM     41  N   UNL A   1      39.245  32.396  33.412  1.00  0.00    -0.248 NA
ATOM     42  C   UNL A   1      37.706  34.150  33.416  1.00  0.00     0.031 C 
ATOM     43  C   UNL A   1      37.841  31.219  29.334  1.00  0.00     0.029 A 
ATOM     44  N   UNL A   1      39.240  30.741  31.015  1.00  0.00    -0.354 N 
ATOM     45  C   UNL A   1      39.330  33.083  34.618  1.00  0.00     0.074 A 
ATOM     46  C   UNL A   1      38.392  34.181  34.546  1.00  0.00     0.031 C 
ATOM     47  C   UNL A   1      38.548  30.129  28.983  1.00  0.00     0.029 A 
ATOM     48  C   UNL A   1      39.499  29.801  30.047  1.00  0.00     0.049 A 
ATOM     49  H   UNL A   1      39.704  30.761  31.882  1.00  0.00     0.167 HD
ATOM     50  C   UNL A   1      40.103  32.821  35.700  1.00  0.00     0.037 A 
ATOM     51  C   UNL A   1      40.405  28.801  30.019  1.00  0.00     0.037 A 
ATOM     52  C   UNL A   1      41.042  31.735  35.787  1.00  0.00     0.049 A 
ATOM     53  C   UNL A   1      41.310  28.571  31.209  1.00  0.00     0.074 A 
ATOM     54  C   UNL A   1      41.862  31.387  36.846  1.00  0.00     0.029 A 
ATOM     55  N   UNL A   1      41.294  30.826  34.771  1.00  0.00    -0.354 N 
ATOM     56  N   UNL A   1      41.361  29.207  32.354  1.00  0.00    -0.248 NA
ATOM     57  C   UNL A   1      42.278  27.467  31.101  1.00  0.00     0.031 C 
ATOM     58  C   UNL A   1      42.654  30.303  36.450  1.00  0.00     0.029 A 
ATOM     59  C   UNL A   1      42.275  29.930  35.171  1.00  0.00     0.049 A 
ATOM     60  H   UNL A   1      40.843  30.817  33.896  1.00  0.00     0.167 HD
ATOM     61  C   UNL A   1      42.331  28.559  33.113  1.00  0.00     0.074 A 
ATOM     62  C   UNL A   1      42.834  27.470  32.304  1.00  0.00     0.031 C 
ATOM     63  C   UNL A   1      42.764  28.839  34.368  1.00  0.00     0.037 A 
BRANCH  50  64
ATOM     64  C   UNL A   1      39.984  33.753  36.872  1.00  0.00     0.064 A 
ATOM     65  C   UNL A   1      39.084  33.514  37.922  1.00  0.00     0.173 A 
ATOM     66  C   UNL A   1      40.795  34.896  36.954  1.00  0.00     0.173 A 
ATOM     67  F   UNL A   1      38.273  32.446  37.885  1.00  0.00    -0.203 F 
ATOM     68  C   UNL A   1      38.978  34.399  38.991  1.00  0.00     0.198 A 
ATOM     69  C   UNL A   1      40.711  35.760  38.042  1.00  0.00     0.198 A 
ATOM     70  F   UNL A   1      41.674  35.173  35.979  1.00  0.00    -0.203 F 
ATOM     71  F   UNL A   1      38.069  34.180  39.953  1.00  0.00    -0.200 F 
ATOM     72  C   UNL A   1      39.796  35.516  39.055  1.00  0.00     0.200 A 
ATOM     73  F   UNL A   1      41.513  36.831  38.108  1.00  0.00    -0.200 F 
ATOM     74  F   UNL A   1      39.696  36.365  40.087  1.00  0.00    -0.200 F 
ENDBRANCH  50  64
BRANCH  51  75
ATOM     75  C   UNL A   1      40.521  27.926  28.819  1.00  0.00     0.064 A 
ATOM     76  C   UNL A   1      41.313  28.295  27.721  1.00  0.00     0.173 A 
ATOM     77  C   UNL A   1      39.799  26.727  28.722  1.00  0.00     0.173 A 
ATOM     78  F   UNL A   1      41.996  29.450  27.747  1.00  0.00    -0.203 F 
ATOM     79  C   UNL A   1      41.359  27.514  26.567  1.00  0.00     0.198 A 
ATOM     80  C   UNL A   1      39.872  25.929  27.581  1.00  0.00     0.198 A 
ATOM     81  F   UNL A   1      39.018  26.330  29.738  1.00  0.00    -0.203 F 
ATOM     82  F   UNL A   1      42.075  27.924  25.511  1.00  0.00    -0.200 F 
ATOM     83  C   UNL A   1      40.643  26.329  26.501  1.00  0.00     0.200 A 
ATOM     84  F   UNL A   1      39.185  24.781  27.525  1.00  0.00    -0.200 F 
ATOM     85  F   UNL A   1      40.686  25.579  25.391  1.00  0.00    -0.200 F 
ENDBRANCH  51  75
BRANCH  63  86
ATOM     86  C   UNL A   1      43.789  27.919  34.976  1.00  0.00     0.064 A 
ATOM     87  C   UNL A   1      45.167  28.168  34.879  1.00  0.00     0.173 A 
ATOM     88  C   UNL A   1      43.382  26.777  35.685  1.00  0.00     0.173 A 
ATOM     89  F   UNL A   1      45.614  29.240  34.208  1.00  0.00    -0.203 F 
ATOM     90  C   UNL A   1      46.096  27.287  35.428  1.00  0.00     0.198 A 
ATOM     91  C   UNL A   1      44.313  25.919  36.266  1.00  0.00     0.198 A 
ATOM     92  F   UNL A   1      42.078  26.495  35.822  1.00  0.00    -0.203 F 
ATOM     93  F   UNL A   1      47.408  27.510  35.263  1.00  0.00    -0.200 F 
ATOM     94  C   UNL A   1      45.670  26.166  36.125  1.00  0.00     0.200 A 
ATOM     95  F   UNL A   1      43.896  24.848  36.954  1.00  0.00    -0.200 F 
ATOM     96  F   UNL A   1      46.565  25.319  36.651  1.00  0.00    -0.200 F 
ENDBRANCH  63  86
ENDBRANCH  37  38
ENDBRANCH  30  32
ENDBRANCH  29  30
ENDBRANCH  28  29
ENDBRANCH  27  28
ENDBRANCH  26  27
ENDBRANCH  25  26
ENDBRANCH   1  25
TORSDOF 19
ENDMDL
