MODEL 1
REMARK VINA RESULT:     -11.3      0.000      0.000
REMARK SMILES Cc1oc(C)c(S(=O)(=O)Nn2c(C)ccc2C)c1C(=O)OCCOCCOCCOC(=O)c1ccc(-c2c3nc(c(-c4c(F)c(F)c(F)c(F)c4F)c4ccc([nH]4)c(-c4c(F)c(F)c(F)c(F)c4F)c4nc(c(-c5c(F)c(F)c(F)c(F)c5F)c5ccc2[nH]5)C=C4)C=C3)cc1
REMARK SMILES IDX 25 1 24 2 23 3 22 4 21 5 19 6 20 7 18 8 1 9 2 10 3 11 4 12
REMARK SMILES IDX 6 13 5 14 7 15 8 16 9 17 10 18 11 20 12 21 16 22 13 23 14 24
REMARK SMILES IDX 15 25 17 26 26 27 27 28 28 29 29 30 30 31 31 32 32 33 33 34
REMARK SMILES IDX 34 35 95 36 35 37 94 38 36 39 37 40 38 41 88 42 39 43 93 44
REMARK SMILES IDX 87 45 89 46 40 47 92 48 86 49 85 50 41 52 73 53 53 54 72 55
REMARK SMILES IDX 54 56 57 57 71 58 90 59 55 60 56 61 70 63 91 64 58 65 42 66
REMARK SMILES IDX 43 67 51 68 44 69 45 70 49 71 52 72 46 73 47 74 50 75 48 76
REMARK SMILES IDX 74 77 75 78 83 79 76 80 77 81 81 82 84 83 78 84 79 85 82 86
REMARK SMILES IDX 80 87 59 88 60 89 68 90 61 91 62 92 66 93 69 94 63 95 64 96
REMARK SMILES IDX 67 97 65 98
REMARK H PARENT 10 19 89 51 57 62
REMARK Flexibility Score: inf
ROOT
ATOM      1  C   UNL A   1      32.719  31.084  27.110  1.00  0.00     0.188 C 
ENDROOT
BRANCH   1   2
ATOM      2  O   UNL A   1      32.789  30.102  26.072  1.00  0.00    -0.376 OA
BRANCH   2   3
ATOM      3  C   UNL A   1      31.512  29.900  25.425  1.00  0.00     0.202 C 
BRANCH   3   4
ATOM      4  C   UNL A   1      31.288  28.506  24.795  1.00  0.00     0.261 C 
BRANCH   4   5
ATOM      5  O   UNL A   1      31.602  27.437  25.703  1.00  0.00    -0.460 OA
BRANCH   5   6
ATOM      6  C   UNL A   1      32.785  26.737  25.621  1.00  0.00     0.343 C 
ATOM      7  O   UNL A   1      33.807  27.010  26.180  1.00  0.00    -0.246 OA
BRANCH   6   8
ATOM      8  C   UNL A   1      32.608  25.628  24.684  1.00  0.00     0.122 A 
ATOM      9  C   UNL A   1      33.447  26.873  22.491  1.00  0.00     0.088 C 
ATOM     10  C   UNL A   1      32.881  25.786  23.328  1.00  0.00     0.117 A 
ATOM     11  O   UNL A   1      32.584  24.663  22.641  1.00  0.00    -0.464 OA
ATOM     12  C   UNL A   1      32.153  23.741  23.532  1.00  0.00     0.122 A 
ATOM     13  C   UNL A   1      32.182  24.256  24.825  1.00  0.00     0.145 A 
ATOM     14  C   UNL A   1      31.796  22.444  22.910  1.00  0.00     0.089 C 
BRANCH  13  15
ATOM     15  S   UNL A   1      31.793  23.255  26.174  1.00  0.00     0.279 S 
ATOM     16  O   UNL A   1      31.694  24.182  27.283  1.00  0.00    -0.200 OA
ATOM     17  O   UNL A   1      30.606  22.564  25.716  1.00  0.00    -0.200 OA
BRANCH  15  18
ATOM     18  N   UNL A   1      32.814  22.095  26.744  1.00  0.00    -0.216 N 
ATOM     19  H   UNL A   1      32.719  21.841  27.690  1.00  0.00     0.202 HD
BRANCH  18  20
ATOM     20  N   UNL A   1      33.784  21.451  26.018  1.00  0.00    -0.256 N 
ATOM     21  C   UNL A   1      33.699  20.302  25.283  1.00  0.00     0.038 A 
ATOM     22  C   UNL A   1      35.025  22.015  25.865  1.00  0.00     0.038 A 
ATOM     23  C   UNL A   1      32.449  19.611  24.860  1.00  0.00     0.067 C 
ATOM     24  C   UNL A   1      35.014  19.978  24.998  1.00  0.00     0.025 A 
ATOM     25  C   UNL A   1      35.858  21.004  25.450  1.00  0.00     0.025 A 
ATOM     26  C   UNL A   1      35.372  23.422  26.174  1.00  0.00     0.067 C 
ENDBRANCH  18  20
ENDBRANCH  15  18
ENDBRANCH  13  15
ENDBRANCH   6   8
ENDBRANCH   5   6
ENDBRANCH   4   5
ENDBRANCH   3   4
ENDBRANCH   2   3
ENDBRANCH   1   2
BRANCH   1  27
ATOM     27  C   UNL A   1      31.768  32.267  26.901  1.00  0.00     0.188 C 
BRANCH  27  28
ATOM     28  O   UNL A   1      32.115  33.504  27.516  1.00  0.00    -0.376 OA
BRANCH  28  29
ATOM     29  C   UNL A   1      33.456  33.687  27.985  1.00  0.00     0.202 C 
BRANCH  29  30
ATOM     30  C   UNL A   1      33.583  34.400  29.365  1.00  0.00     0.261 C 
BRANCH  30  31
ATOM     31  O   UNL A   1      34.721  34.137  30.264  1.00  0.00    -0.460 OA
BRANCH  31  32
ATOM     32  C   UNL A   1      34.752  32.910  30.872  1.00  0.00     0.338 C 
ATOM     33  O   UNL A   1      34.074  32.646  31.860  1.00  0.00    -0.246 OA
BRANCH  32  34
ATOM     34  C   UNL A   1      35.669  31.837  30.254  1.00  0.00     0.060 A 
ATOM     35  C   UNL A   1      35.861  30.667  30.971  1.00  0.00     0.016 A 
ATOM     36  C   UNL A   1      36.528  31.975  29.140  1.00  0.00     0.016 A 
ATOM     37  C   UNL A   1      36.847  29.699  30.581  1.00  0.00     0.010 A 
ATOM     38  C   UNL A   1      37.603  31.004  28.796  1.00  0.00     0.010 A 
ATOM     39  C   UNL A   1      37.836  29.826  29.529  1.00  0.00    -0.014 A 
BRANCH  39  40
ATOM     40  C   UNL A   1      39.129  28.786  29.561  1.00  0.00     0.031 A 
ATOM     41  C   UNL A   1      39.724  29.010  30.909  1.00  0.00     0.074 A 
ATOM     42  C   UNL A   1      39.940  27.886  28.841  1.00  0.00     0.049 A 
ATOM     43  N   UNL A   1      40.107  30.203  31.267  1.00  0.00    -0.248 NA
ATOM     44  C   UNL A   1      39.594  28.048  32.006  1.00  0.00     0.031 C 
ATOM     45  C   UNL A   1      39.836  27.455  27.437  1.00  0.00     0.029 A 
ATOM     46  N   UNL A   1      41.114  27.121  29.222  1.00  0.00    -0.354 N 
ATOM     47  C   UNL A   1      40.518  30.097  32.567  1.00  0.00     0.074 A 
ATOM     48  C   UNL A   1      40.026  28.805  33.021  1.00  0.00     0.031 C 
ATOM     49  C   UNL A   1      40.756  26.492  27.119  1.00  0.00     0.029 A 
ATOM     50  C   UNL A   1      41.650  26.203  28.243  1.00  0.00     0.049 A 
ATOM     51  H   UNL A   1      41.528  27.225  30.109  1.00  0.00     0.167 HD
ATOM     52  C   UNL A   1      41.643  30.780  32.904  1.00  0.00     0.037 A 
ATOM     53  C   UNL A   1      42.760  25.350  28.263  1.00  0.00     0.037 A 
ATOM     54  C   UNL A   1      42.757  29.907  33.123  1.00  0.00     0.049 A 
ATOM     55  C   UNL A   1      43.716  25.857  29.261  1.00  0.00     0.074 A 
ATOM     56  C   UNL A   1      42.899  28.693  33.762  1.00  0.00     0.029 A 
ATOM     57  N   UNL A   1      43.796  29.993  32.219  1.00  0.00    -0.354 N 
ATOM     58  N   UNL A   1      44.485  26.864  28.985  1.00  0.00    -0.248 NA
ATOM     59  C   UNL A   1      44.035  25.162  30.507  1.00  0.00     0.031 C 
ATOM     60  C   UNL A   1      43.612  27.896  32.834  1.00  0.00     0.029 A 
ATOM     61  C   UNL A   1      44.140  28.717  31.842  1.00  0.00     0.049 A 
ATOM     62  H   UNL A   1      44.216  30.824  31.899  1.00  0.00     0.167 HD
ATOM     63  C   UNL A   1      44.972  27.227  30.194  1.00  0.00     0.074 A 
ATOM     64  C   UNL A   1      44.930  26.024  31.000  1.00  0.00     0.031 C 
ATOM     65  C   UNL A   1      44.732  28.512  30.544  1.00  0.00     0.037 A 
BRANCH  52  66
ATOM     66  C   UNL A   1      41.753  32.132  32.256  1.00  0.00     0.064 A 
ATOM     67  C   UNL A   1      42.112  32.210  30.909  1.00  0.00     0.173 A 
ATOM     68  C   UNL A   1      41.640  33.342  32.972  1.00  0.00     0.173 A 
ATOM     69  F   UNL A   1      42.168  31.097  30.163  1.00  0.00    -0.203 F 
ATOM     70  C   UNL A   1      42.414  33.439  30.322  1.00  0.00     0.198 A 
ATOM     71  C   UNL A   1      42.008  34.555  32.405  1.00  0.00     0.198 A 
ATOM     72  F   UNL A   1      41.160  33.355  34.227  1.00  0.00    -0.203 F 
ATOM     73  F   UNL A   1      42.723  33.495  29.020  1.00  0.00    -0.200 F 
ATOM     74  C   UNL A   1      42.400  34.603  31.079  1.00  0.00     0.200 A 
ATOM     75  F   UNL A   1      41.976  35.674  33.143  1.00  0.00    -0.200 F 
ATOM     76  F   UNL A   1      42.738  35.774  30.524  1.00  0.00    -0.200 F 
ENDBRANCH  52  66
BRANCH  53  77
ATOM     77  C   UNL A   1      43.485  24.195  27.496  1.00  0.00     0.064 A 
ATOM     78  C   UNL A   1      43.080  22.820  27.657  1.00  0.00     0.173 A 
ATOM     79  C   UNL A   1      44.206  24.421  26.315  1.00  0.00     0.173 A 
ATOM     80  F   UNL A   1      42.428  22.407  28.753  1.00  0.00    -0.203 F 
ATOM     81  C   UNL A   1      43.255  21.824  26.681  1.00  0.00     0.198 A 
ATOM     82  C   UNL A   1      44.430  23.398  25.353  1.00  0.00     0.198 A 
ATOM     83  F   UNL A   1      44.624  25.657  26.016  1.00  0.00    -0.203 F 
ATOM     84  F   UNL A   1      42.713  20.606  26.850  1.00  0.00    -0.200 F 
ATOM     85  C   UNL A   1      43.922  22.117  25.517  1.00  0.00     0.200 A 
ATOM     86  F   UNL A   1      45.086  23.680  24.217  1.00  0.00    -0.200 F 
ATOM     87  F   UNL A   1      44.047  21.188  24.555  1.00  0.00    -0.200 F 
ENDBRANCH  53  77
BRANCH  65  88
ATOM     88  C   UNL A   1      44.870  29.550  29.431  1.00  0.00     0.064 A 
ATOM     89  C   UNL A   1      43.939  29.815  28.391  1.00  0.00     0.173 A 
ATOM     90  C   UNL A   1      46.078  30.252  29.350  1.00  0.00     0.173 A 
ATOM     91  F   UNL A   1      42.690  29.331  28.409  1.00  0.00    -0.203 F 
ATOM     92  C   UNL A   1      44.256  30.621  27.295  1.00  0.00     0.198 A 
ATOM     93  C   UNL A   1      46.368  31.111  28.285  1.00  0.00     0.198 A 
ATOM     94  F   UNL A   1      46.991  30.122  30.324  1.00  0.00    -0.203 F 
ATOM     95  F   UNL A   1      43.379  30.767  26.289  1.00  0.00    -0.200 F 
ATOM     96  C   UNL A   1      45.472  31.268  27.241  1.00  0.00     0.200 A 
ATOM     97  F   UNL A   1      47.527  31.782  28.274  1.00  0.00    -0.200 F 
ATOM     98  F   UNL A   1      45.775  32.057  26.201  1.00  0.00    -0.200 F 
ENDBRANCH  65  88
ENDBRANCH  39  40
ENDBRANCH  32  34
ENDBRANCH  31  32
ENDBRANCH  30  31
ENDBRANCH  29  30
ENDBRANCH  28  29
ENDBRANCH  27  28
ENDBRANCH   1  27
TORSDOF 20
ENDMDL
MODEL 2
REMARK VINA RESULT:     -11.3      2.779      4.723
REMARK SMILES Cc1oc(C)c(S(=O)(=O)Nn2c(C)ccc2C)c1C(=O)OCCOCCOCCOC(=O)c1ccc(-c2c3nc(c(-c4c(F)c(F)c(F)c(F)c4F)c4ccc([nH]4)c(-c4c(F)c(F)c(F)c(F)c4F)c4nc(c(-c5c(F)c(F)c(F)c(F)c5F)c5ccc2[nH]5)C=C4)C=C3)cc1
REMARK SMILES IDX 25 1 24 2 23 3 22 4 21 5 19 6 20 7 18 8 1 9 2 10 3 11 4 12
REMARK SMILES IDX 6 13 5 14 7 15 8 16 9 17 10 18 11 20 12 21 16 22 13 23 14 24
REMARK SMILES IDX 15 25 17 26 26 27 27 28 28 29 29 30 30 31 31 32 32 33 33 34
REMARK SMILES IDX 34 35 95 36 35 37 94 38 36 39 37 40 38 41 88 42 39 43 93 44
REMARK SMILES IDX 87 45 89 46 40 47 92 48 86 49 85 50 41 52 73 53 53 54 72 55
REMARK SMILES IDX 54 56 57 57 71 58 90 59 55 60 56 61 70 63 91 64 58 65 42 66
REMARK SMILES IDX 43 67 51 68 44 69 45 70 49 71 52 72 46 73 47 74 50 75 48 76
REMARK SMILES IDX 74 77 75 78 83 79 76 80 77 81 81 82 84 83 78 84 79 85 82 86
REMARK SMILES IDX 80 87 59 88 60 89 68 90 61 91 62 92 66 93 69 94 63 95 64 96
REMARK SMILES IDX 67 97 65 98
REMARK H PARENT 10 19 89 51 57 62
REMARK Flexibility Score: inf
ROOT
ATOM      1  C   UNL A   1      32.536  36.092  30.575  1.00  0.00     0.188 C 
ENDROOT
BRANCH   1   2
ATOM      2  O   UNL A   1      32.583  35.646  29.216  1.00  0.00    -0.376 OA
BRANCH   2   3
ATOM      3  C   UNL A   1      33.238  34.365  29.085  1.00  0.00     0.202 C 
BRANCH   3   4
ATOM      4  C   UNL A   1      33.307  33.786  27.653  1.00  0.00     0.261 C 
BRANCH   4   5
ATOM      5  O   UNL A   1      33.218  32.351  27.636  1.00  0.00    -0.460 OA
BRANCH   5   6
ATOM      6  C   UNL A   1      32.272  31.690  26.885  1.00  0.00     0.343 C 
ATOM      7  O   UNL A   1      31.138  32.034  26.716  1.00  0.00    -0.246 OA
BRANCH   6   8
ATOM      8  C   UNL A   1      32.864  30.456  26.369  1.00  0.00     0.122 A 
ATOM      9  C   UNL A   1      34.898  30.294  28.071  1.00  0.00     0.088 C 
ATOM     10  C   UNL A   1      34.034  29.940  26.919  1.00  0.00     0.117 A 
ATOM     11  O   UNL A   1      34.438  28.840  26.248  1.00  0.00    -0.464 OA
ATOM     12  C   UNL A   1      33.525  28.592  25.281  1.00  0.00     0.122 A 
ATOM     13  C   UNL A   1      32.498  29.530  25.324  1.00  0.00     0.145 A 
ATOM     14  C   UNL A   1      33.842  27.396  24.465  1.00  0.00     0.089 C 
BRANCH  13  15
ATOM     15  S   UNL A   1      31.138  29.385  24.274  1.00  0.00     0.279 S 
ATOM     16  O   UNL A   1      31.718  29.376  22.946  1.00  0.00    -0.200 OA
ATOM     17  O   UNL A   1      30.485  28.193  24.773  1.00  0.00    -0.200 OA
BRANCH  15  18
ATOM     18  N   UNL A   1      29.971  30.542  24.166  1.00  0.00    -0.216 N 
ATOM     19  H   UNL A   1      29.858  31.138  24.941  1.00  0.00     0.202 HD
BRANCH  18  20
ATOM     20  N   UNL A   1      29.143  30.750  23.092  1.00  0.00    -0.256 N 
ATOM     21  C   UNL A   1      28.306  29.875  22.458  1.00  0.00     0.038 A 
ATOM     22  C   UNL A   1      28.987  32.010  22.571  1.00  0.00     0.038 A 
ATOM     23  C   UNL A   1      27.879  28.538  22.958  1.00  0.00     0.067 C 
ATOM     24  C   UNL A   1      27.931  30.534  21.301  1.00  0.00     0.025 A 
ATOM     25  C   UNL A   1      28.439  31.842  21.321  1.00  0.00     0.025 A 
ATOM     26  C   UNL A   1      29.411  33.268  23.227  1.00  0.00     0.067 C 
ENDBRANCH  18  20
ENDBRANCH  15  18
ENDBRANCH  13  15
ENDBRANCH   6   8
ENDBRANCH   5   6
ENDBRANCH   4   5
ENDBRANCH   3   4
ENDBRANCH   2   3
ENDBRANCH   1   2
BRANCH   1  27
ATOM     27  C   UNL A   1      33.549  37.158  31.003  1.00  0.00     0.188 C 
BRANCH  27  28
ATOM     28  O   UNL A   1      33.647  37.449  32.395  1.00  0.00    -0.376 OA
BRANCH  28  29
ATOM     29  C   UNL A   1      33.936  36.378  33.302  1.00  0.00     0.202 C 
BRANCH  29  30
ATOM     30  C   UNL A   1      35.144  35.479  32.903  1.00  0.00     0.261 C 
BRANCH  30  31
ATOM     31  O   UNL A   1      34.951  34.194  32.208  1.00  0.00    -0.460 OA
BRANCH  31  32
ATOM     32  C   UNL A   1      35.554  33.098  32.767  1.00  0.00     0.338 C 
ATOM     33  O   UNL A   1      35.525  32.873  33.973  1.00  0.00    -0.246 OA
BRANCH  32  34
ATOM     34  C   UNL A   1      36.271  32.122  31.814  1.00  0.00     0.060 A 
ATOM     35  C   UNL A   1      36.234  30.774  32.129  1.00  0.00     0.016 A 
ATOM     36  C   UNL A   1      37.160  32.442  30.764  1.00  0.00     0.016 A 
ATOM     37  C   UNL A   1      37.034  29.814  31.423  1.00  0.00     0.010 A 
ATOM     38  C   UNL A   1      38.047  31.448  30.096  1.00  0.00     0.010 A 
ATOM     39  C   UNL A   1      38.047  30.080  30.422  1.00  0.00    -0.014 A 
BRANCH  39  40
ATOM     40  C   UNL A   1      39.129  28.867  30.083  1.00  0.00     0.031 A 
ATOM     41  C   UNL A   1      39.974  28.800  31.308  1.00  0.00     0.074 A 
ATOM     42  C   UNL A   1      39.638  27.973  29.120  1.00  0.00     0.049 A 
ATOM     43  N   UNL A   1      40.612  29.858  31.723  1.00  0.00    -0.248 NA
ATOM     44  C   UNL A   1      39.870  27.717  32.289  1.00  0.00     0.031 C 
ATOM     45  C   UNL A   1      39.222  27.774  27.721  1.00  0.00     0.029 A 
ATOM     46  N   UNL A   1      40.710  26.995  29.176  1.00  0.00    -0.354 N 
ATOM     47  C   UNL A   1      41.215  29.502  32.898  1.00  0.00     0.074 A 
ATOM     48  C   UNL A   1      40.593  28.245  33.283  1.00  0.00     0.031 C 
ATOM     49  C   UNL A   1      39.895  26.742  27.122  1.00  0.00     0.029 A 
ATOM     50  C   UNL A   1      40.905  26.162  28.011  1.00  0.00     0.049 A 
ATOM     51  H   UNL A   1      41.281  26.905  29.973  1.00  0.00     0.167 HD
ATOM     52  C   UNL A   1      42.482  29.955  33.091  1.00  0.00     0.037 A 
ATOM     53  C   UNL A   1      41.838  25.161  27.717  1.00  0.00     0.037 A 
ATOM     54  C   UNL A   1      43.449  28.904  32.987  1.00  0.00     0.049 A 
ATOM     55  C   UNL A   1      43.023  25.369  28.565  1.00  0.00     0.074 A 
ATOM     56  C   UNL A   1      43.488  27.602  33.440  1.00  0.00     0.029 A 
ATOM     57  N   UNL A   1      44.318  28.968  31.917  1.00  0.00    -0.354 N 
ATOM     58  N   UNL A   1      43.895  26.281  28.267  1.00  0.00    -0.248 NA
ATOM     59  C   UNL A   1      43.426  24.459  29.636  1.00  0.00     0.031 C 
ATOM     60  C   UNL A   1      43.883  26.854  32.305  1.00  0.00     0.029 A 
ATOM     61  C   UNL A   1      44.368  27.724  31.334  1.00  0.00     0.049 A 
ATOM     62  H   UNL A   1      44.814  29.765  31.622  1.00  0.00     0.167 HD
ATOM     63  C   UNL A   1      44.637  26.387  29.393  1.00  0.00     0.074 A 
ATOM     64  C   UNL A   1      44.526  25.097  30.045  1.00  0.00     0.031 C 
ATOM     65  C   UNL A   1      44.685  27.627  29.931  1.00  0.00     0.037 A 
BRANCH  52  66
ATOM     66  C   UNL A   1      42.711  31.356  32.597  1.00  0.00     0.064 A 
ATOM     67  C   UNL A   1      42.870  32.385  33.527  1.00  0.00     0.173 A 
ATOM     68  C   UNL A   1      42.644  31.714  31.234  1.00  0.00     0.173 A 
ATOM     69  F   UNL A   1      43.008  32.097  34.830  1.00  0.00    -0.203 F 
ATOM     70  C   UNL A   1      42.891  33.718  33.119  1.00  0.00     0.198 A 
ATOM     71  C   UNL A   1      42.595  33.044  30.837  1.00  0.00     0.198 A 
ATOM     72  F   UNL A   1      42.638  30.771  30.276  1.00  0.00    -0.203 F 
ATOM     73  F   UNL A   1      43.078  34.688  34.024  1.00  0.00    -0.200 F 
ATOM     74  C   UNL A   1      42.713  34.048  31.782  1.00  0.00     0.200 A 
ATOM     75  F   UNL A   1      42.438  33.348  29.541  1.00  0.00    -0.200 F 
ATOM     76  F   UNL A   1      42.684  35.331  31.401  1.00  0.00    -0.200 F 
ENDBRANCH  52  66
BRANCH  53  77
ATOM     77  C   UNL A   1      42.212  24.037  26.694  1.00  0.00     0.064 A 
ATOM     78  C   UNL A   1      43.121  24.290  25.603  1.00  0.00     0.173 A 
ATOM     79  C   UNL A   1      42.092  22.676  27.005  1.00  0.00     0.173 A 
ATOM     80  F   UNL A   1      43.321  25.530  25.133  1.00  0.00    -0.203 F 
ATOM     81  C   UNL A   1      43.921  23.307  24.994  1.00  0.00     0.198 A 
ATOM     82  C   UNL A   1      42.861  21.675  26.349  1.00  0.00     0.198 A 
ATOM     83  F   UNL A   1      41.303  22.290  28.015  1.00  0.00    -0.203 F 
ATOM     84  F   UNL A   1      44.851  23.655  24.088  1.00  0.00    -0.200 F 
ATOM     85  C   UNL A   1      43.800  21.995  25.378  1.00  0.00     0.200 A 
ATOM     86  F   UNL A   1      42.742  20.391  26.718  1.00  0.00    -0.200 F 
ATOM     87  F   UNL A   1      44.596  21.056  24.841  1.00  0.00    -0.200 F 
ENDBRANCH  53  77
BRANCH  65  88
ATOM     88  C   UNL A   1      44.807  28.786  28.942  1.00  0.00     0.064 A 
ATOM     89  C   UNL A   1      43.784  29.304  28.105  1.00  0.00     0.173 A 
ATOM     90  C   UNL A   1      46.079  29.339  28.751  1.00  0.00     0.173 A 
ATOM     91  F   UNL A   1      42.495  28.980  28.266  1.00  0.00    -0.203 F 
ATOM     92  C   UNL A   1      44.051  30.211  27.075  1.00  0.00     0.198 A 
ATOM     93  C   UNL A   1      46.331  30.296  27.764  1.00  0.00     0.198 A 
ATOM     94  F   UNL A   1      47.094  28.964  29.543  1.00  0.00    -0.203 F 
ATOM     95  F   UNL A   1      43.068  30.601  26.249  1.00  0.00    -0.200 F 
ATOM     96  C   UNL A   1      45.327  30.706  26.904  1.00  0.00     0.200 A 
ATOM     97  F   UNL A   1      47.560  30.815  27.646  1.00  0.00    -0.200 F 
ATOM     98  F   UNL A   1      45.585  31.589  25.930  1.00  0.00    -0.200 F 
ENDBRANCH  65  88
ENDBRANCH  39  40
ENDBRANCH  32  34
ENDBRANCH  31  32
ENDBRANCH  30  31
ENDBRANCH  29  30
ENDBRANCH  28  29
ENDBRANCH  27  28
ENDBRANCH   1  27
TORSDOF 20
ENDMDL
MODEL 3
REMARK VINA RESULT:     -11.2      2.385      3.955
REMARK SMILES Cc1oc(C)c(S(=O)(=O)Nn2c(C)ccc2C)c1C(=O)OCCOCCOCCOC(=O)c1ccc(-c2c3nc(c(-c4c(F)c(F)c(F)c(F)c4F)c4ccc([nH]4)c(-c4c(F)c(F)c(F)c(F)c4F)c4nc(c(-c5c(F)c(F)c(F)c(F)c5F)c5ccc2[nH]5)C=C4)C=C3)cc1
REMARK SMILES IDX 25 1 24 2 23 3 22 4 21 5 19 6 20 7 18 8 1 9 2 10 3 11 4 12
REMARK SMILES IDX 6 13 5 14 7 15 8 16 9 17 10 18 11 20 12 21 16 22 13 23 14 24
REMARK SMILES IDX 15 25 17 26 26 27 27 28 28 29 29 30 30 31 31 32 32 33 33 34
REMARK SMILES IDX 34 35 95 36 35 37 94 38 36 39 37 40 38 41 88 42 39 43 93 44
REMARK SMILES IDX 87 45 89 46 40 47 92 48 86 49 85 50 41 52 73 53 53 54 72 55
REMARK SMILES IDX 54 56 57 57 71 58 90 59 55 60 56 61 70 63 91 64 58 65 42 66
REMARK SMILES IDX 43 67 51 68 44 69 45 70 49 71 52 72 46 73 47 74 50 75 48 76
REMARK SMILES IDX 74 77 75 78 83 79 76 80 77 81 81 82 84 83 78 84 79 85 82 86
REMARK SMILES IDX 80 87 59 88 60 89 68 90 61 91 62 92 66 93 69 94 63 95 64 96
REMARK SMILES IDX 67 97 65 98
REMARK H PARENT 10 19 89 51 57 62
REMARK Flexibility Score: inf
ROOT
ATOM      1  C   UNL A   1      33.955  32.896  28.023  1.00  0.00     0.188 C 
ENDROOT
BRANCH   1   2
ATOM      2  O   UNL A   1      34.496  31.680  27.499  1.00  0.00    -0.376 OA
BRANCH   2   3
ATOM      3  C   UNL A   1      33.523  30.611  27.486  1.00  0.00     0.202 C 
BRANCH   3   4
ATOM      4  C   UNL A   1      32.776  30.394  26.150  1.00  0.00     0.261 C 
BRANCH   4   5
ATOM      5  O   UNL A   1      32.900  29.046  25.664  1.00  0.00    -0.460 OA
BRANCH   5   6
ATOM      6  C   UNL A   1      33.048  28.767  24.324  1.00  0.00     0.343 C 
ATOM      7  O   UNL A   1      33.780  29.330  23.562  1.00  0.00    -0.246 OA
BRANCH   6   8
ATOM      8  C   UNL A   1      32.115  27.700  23.963  1.00  0.00     0.122 A 
ATOM      9  C   UNL A   1      30.009  29.231  23.432  1.00  0.00     0.088 C 
ATOM     10  C   UNL A   1      30.795  27.988  23.627  1.00  0.00     0.117 A 
ATOM     11  O   UNL A   1      30.097  26.856  23.398  1.00  0.00    -0.464 OA
ATOM     12  C   UNL A   1      30.950  25.815  23.537  1.00  0.00     0.122 A 
ATOM     13  C   UNL A   1      32.229  26.267  23.845  1.00  0.00     0.145 A 
ATOM     14  C   UNL A   1      30.313  24.498  23.303  1.00  0.00     0.089 C 
BRANCH  13  15
ATOM     15  S   UNL A   1      33.543  25.156  23.965  1.00  0.00     0.279 S 
ATOM     16  O   UNL A   1      34.021  25.028  22.602  1.00  0.00    -0.200 OA
ATOM     17  O   UNL A   1      34.389  25.780  24.960  1.00  0.00    -0.200 OA
BRANCH  15  18
ATOM     18  N   UNL A   1      33.344  23.592  24.441  1.00  0.00    -0.216 N 
ATOM     19  H   UNL A   1      32.935  22.975  23.791  1.00  0.00     0.202 HD
BRANCH  18  20
ATOM     20  N   UNL A   1      33.696  23.072  25.660  1.00  0.00    -0.256 N 
ATOM     21  C   UNL A   1      34.890  22.545  26.067  1.00  0.00     0.038 A 
ATOM     22  C   UNL A   1      32.826  23.135  26.719  1.00  0.00     0.038 A 
ATOM     23  C   UNL A   1      36.197  22.661  25.361  1.00  0.00     0.067 C 
ATOM     24  C   UNL A   1      34.604  21.939  27.277  1.00  0.00     0.025 A 
ATOM     25  C   UNL A   1      33.279  22.224  27.643  1.00  0.00     0.025 A 
ATOM     26  C   UNL A   1      31.608  23.976  26.779  1.00  0.00     0.067 C 
ENDBRANCH  18  20
ENDBRANCH  15  18
ENDBRANCH  13  15
ENDBRANCH   6   8
ENDBRANCH   5   6
ENDBRANCH   4   5
ENDBRANCH   3   4
ENDBRANCH   2   3
ENDBRANCH   1   2
BRANCH   1  27
ATOM     27  C   UNL A   1      34.420  33.333  29.416  1.00  0.00     0.188 C 
BRANCH  27  28
ATOM     28  O   UNL A   1      33.550  34.179  30.163  1.00  0.00    -0.376 OA
BRANCH  28  29
ATOM     29  C   UNL A   1      33.226  35.470  29.633  1.00  0.00     0.202 C 
BRANCH  29  30
ATOM     30  C   UNL A   1      32.978  36.580  30.698  1.00  0.00     0.261 C 
BRANCH  30  31
ATOM     31  O   UNL A   1      32.719  36.246  32.110  1.00  0.00    -0.460 OA
BRANCH  31  32
ATOM     32  C   UNL A   1      33.775  36.378  32.975  1.00  0.00     0.338 C 
ATOM     33  O   UNL A   1      33.931  37.371  33.678  1.00  0.00    -0.246 OA
BRANCH  32  34
ATOM     34  C   UNL A   1      34.773  35.207  33.056  1.00  0.00     0.060 A 
ATOM     35  C   UNL A   1      35.985  35.350  32.398  1.00  0.00     0.016 A 
ATOM     36  C   UNL A   1      34.531  33.900  33.535  1.00  0.00     0.016 A 
ATOM     37  C   UNL A   1      36.892  34.249  32.246  1.00  0.00     0.010 A 
ATOM     38  C   UNL A   1      35.443  32.747  33.296  1.00  0.00     0.010 A 
ATOM     39  C   UNL A   1      36.662  32.863  32.604  1.00  0.00    -0.014 A 
BRANCH  39  40
ATOM     40  C   UNL A   1      37.662  31.720  31.933  1.00  0.00     0.031 A 
ATOM     41  C   UNL A   1      38.469  31.240  33.091  1.00  0.00     0.074 A 
ATOM     42  C   UNL A   1      38.130  31.104  30.756  1.00  0.00     0.049 A 
ATOM     43  N   UNL A   1      39.170  32.082  33.796  1.00  0.00    -0.248 NA
ATOM     44  C   UNL A   1      38.262  29.932  33.717  1.00  0.00     0.031 C 
ATOM     45  C   UNL A   1      37.737  31.348  29.357  1.00  0.00     0.029 A 
ATOM     46  N   UNL A   1      39.127  30.073  30.531  1.00  0.00    -0.354 N 
ATOM     47  C   UNL A   1      39.715  31.358  34.821  1.00  0.00     0.074 A 
ATOM     48  C   UNL A   1      38.994  30.095  34.824  1.00  0.00     0.031 C 
ATOM     49  C   UNL A   1      38.349  30.484  28.488  1.00  0.00     0.029 A 
ATOM     50  C   UNL A   1      39.291  29.597  29.176  1.00  0.00     0.049 A 
ATOM     51  H   UNL A   1      39.669  29.714  31.270  1.00  0.00     0.167 HD
ATOM     52  C   UNL A   1      41.006  31.638  35.140  1.00  0.00     0.037 A 
ATOM     53  C   UNL A   1      40.157  28.655  28.609  1.00  0.00     0.037 A 
ATOM     54  C   UNL A   1      41.897  30.590  34.742  1.00  0.00     0.049 A 
ATOM     55  C   UNL A   1      41.331  28.519  29.486  1.00  0.00     0.074 A 
ATOM     56  C   UNL A   1      41.830  29.214  34.800  1.00  0.00     0.029 A 
ATOM     57  N   UNL A   1      42.796  30.893  33.739  1.00  0.00    -0.354 N 
ATOM     58  N   UNL A   1      42.275  29.409  29.467  1.00  0.00    -0.248 NA
ATOM     59  C   UNL A   1      41.640  27.311  30.250  1.00  0.00     0.031 C 
ATOM     60  C   UNL A   1      42.200  28.796  33.498  1.00  0.00     0.029 A 
ATOM     61  C   UNL A   1      42.771  29.869  32.822  1.00  0.00     0.049 A 
ATOM     62  H   UNL A   1      43.356  31.700  33.688  1.00  0.00     0.167 HD
ATOM     63  C   UNL A   1      42.993  29.129  30.578  1.00  0.00     0.074 A 
ATOM     64  C   UNL A   1      42.773  27.719  30.831  1.00  0.00     0.031 C 
ATOM     65  C   UNL A   1      43.116  30.155  31.452  1.00  0.00     0.037 A 
BRANCH  52  66
ATOM     66  C   UNL A   1      41.348  33.100  35.072  1.00  0.00     0.064 A 
ATOM     67  C   UNL A   1      41.200  33.884  36.218  1.00  0.00     0.173 A 
ATOM     68  C   UNL A   1      41.690  33.758  33.872  1.00  0.00     0.173 A 
ATOM     69  F   UNL A   1      40.943  33.305  37.400  1.00  0.00    -0.203 F 
ATOM     70  C   UNL A   1      41.319  35.272  36.152  1.00  0.00     0.198 A 
ATOM     71  C   UNL A   1      41.739  35.143  33.795  1.00  0.00     0.198 A 
ATOM     72  F   UNL A   1      41.990  33.055  32.766  1.00  0.00    -0.203 F 
ATOM     73  F   UNL A   1      41.207  36.003  37.269  1.00  0.00    -0.200 F 
ATOM     74  C   UNL A   1      41.548  35.902  34.936  1.00  0.00     0.200 A 
ATOM     75  F   UNL A   1      41.976  35.738  32.617  1.00  0.00    -0.200 F 
ATOM     76  F   UNL A   1      41.612  37.238  34.868  1.00  0.00    -0.200 F 
ENDBRANCH  52  66
BRANCH  53  77
ATOM     77  C   UNL A   1      40.475  27.847  27.307  1.00  0.00     0.064 A 
ATOM     78  C   UNL A   1      41.502  28.279  26.391  1.00  0.00     0.173 A 
ATOM     79  C   UNL A   1      40.157  26.488  27.176  1.00  0.00     0.173 A 
ATOM     80  F   UNL A   1      41.898  29.558  26.337  1.00  0.00    -0.203 F 
ATOM     81  C   UNL A   1      42.222  27.417  25.545  1.00  0.00     0.198 A 
ATOM     82  C   UNL A   1      40.848  25.629  26.278  1.00  0.00     0.198 A 
ATOM     83  F   UNL A   1      39.239  25.938  27.980  1.00  0.00    -0.203 F 
ATOM     84  F   UNL A   1      43.265  27.879  24.835  1.00  0.00    -0.200 F 
ATOM     85  C   UNL A   1      41.902  26.083  25.498  1.00  0.00     0.200 A 
ATOM     86  F   UNL A   1      40.535  24.325  26.226  1.00  0.00    -0.200 F 
ATOM     87  F   UNL A   1      42.618  25.241  24.734  1.00  0.00    -0.200 F 
ENDBRANCH  53  77
BRANCH  65  88
ATOM     88  C   UNL A   1      43.347  31.536  30.840  1.00  0.00     0.064 A 
ATOM     89  C   UNL A   1      42.365  32.399  30.287  1.00  0.00     0.173 A 
ATOM     90  C   UNL A   1      44.672  31.969  30.706  1.00  0.00     0.173 A 
ATOM     91  F   UNL A   1      41.052  32.194  30.460  1.00  0.00    -0.203 F 
ATOM     92  C   UNL A   1      42.702  33.537  29.549  1.00  0.00     0.198 A 
ATOM     93  C   UNL A   1      45.004  33.144  30.025  1.00  0.00     0.198 A 
ATOM     94  F   UNL A   1      45.665  31.256  31.259  1.00  0.00    -0.203 F 
ATOM     95  F   UNL A   1      41.742  34.271  28.965  1.00  0.00    -0.200 F 
ATOM     96  C   UNL A   1      44.023  33.909  29.417  1.00  0.00     0.200 A 
ATOM     97  F   UNL A   1      46.285  33.527  29.956  1.00  0.00    -0.200 F 
ATOM     98  F   UNL A   1      44.352  35.009  28.726  1.00  0.00    -0.200 F 
ENDBRANCH  65  88
ENDBRANCH  39  40
ENDBRANCH  32  34
ENDBRANCH  31  32
ENDBRANCH  30  31
ENDBRANCH  29  30
ENDBRANCH  28  29
ENDBRANCH  27  28
ENDBRANCH   1  27
TORSDOF 20
ENDMDL
