MODEL 1
REMARK VINA RESULT:     -14.1      0.000      0.000
REMARK SMILES Cc1ccc(S(=O)(=O)n2cc(C(=O)C(=O)NCC(=O)NCC(=O)OCCOCCOCCOC(=O)c3ccc(-c4c5nc(c(-c6c(F)c(F)c(F)c(F)c6F)c6ccc([nH]6)c(-c6c(F)c(F)c(F)c(F)c6F)c6nc(c(-c7c(F)c(F)c(F)c(F)c7F)c7ccc4[nH]7)C=C6)C=C5)cc3)c3ccccc32)cc1
REMARK SMILES IDX 26 1 25 2 24 3 22 4 23 5 21 6 20 7 18 8 19 9 17 11 16 12
REMARK SMILES IDX 14 13 15 14 12 16 13 17 11 18 9 19 10 20 104 21 99 22 103 23
REMARK SMILES IDX 100 24 102 25 101 26 6 27 7 28 8 29 5 30 1 31 2 32 3 33
REMARK SMILES IDX 106 34 4 35 105 36 27 37 28 38 29 39 30 40 31 41 32 42 33 43
REMARK SMILES IDX 34 44 35 45 36 46 37 47 98 48 38 49 97 50 39 51 40 52 41 53
REMARK SMILES IDX 91 54 42 55 96 56 90 57 92 58 43 59 95 60 89 61 88 62 44 64
REMARK SMILES IDX 76 65 56 66 75 67 57 68 60 69 74 70 93 71 58 72 59 73 73 75
REMARK SMILES IDX 94 76 61 77 45 78 46 79 54 80 47 81 48 82 52 83 55 84 49 85
REMARK SMILES IDX 50 86 53 87 51 88 77 89 78 90 86 91 79 92 80 93 84 94 87 95
REMARK SMILES IDX 81 96 82 97 85 98 83 99 62 100 63 101 71 102 64 103 65 104
REMARK SMILES IDX 69 105 72 106 66 107 67 108 70 109 68 110
REMARK H PARENT 20 10 16 15 92 63 60 74
REMARK Flexibility Score: inf
ROOT
ATOM      1  C   UNL A   1      34.882  33.175  27.674  1.00  0.00     0.202 C 
ENDROOT
BRANCH   1   2
ATOM      2  C   UNL A   1      34.249  31.972  28.377  1.00  0.00     0.261 C 
BRANCH   2   3
ATOM      3  O   UNL A   1      33.730  30.620  27.370  1.00  0.00    -0.462 OA
BRANCH   3   4
ATOM      4  C   UNL A   1      33.194  29.901  26.170  1.00  0.00     0.325 C 
ATOM      5  O   UNL A   1      33.899  28.948  25.831  1.00  0.00    -0.250 OA
BRANCH   4   6
ATOM      6  C   UNL A   1      31.630  30.083  25.254  1.00  0.00     0.238 C 
BRANCH   6   7
ATOM      7  N   UNL A   1      30.962  28.914  24.377  1.00  0.00    -0.344 N 
ATOM      8  C   UNL A   1      30.990  28.498  23.049  1.00  0.00     0.239 C 
ATOM      9  O   UNL A   1      29.915  28.464  22.433  1.00  0.00    -0.273 OA
ATOM     10  H   UNL A   1      30.378  28.339  24.925  1.00  0.00     0.164 HD
BRANCH   8  11
ATOM     11  C   UNL A   1      32.200  27.852  22.378  1.00  0.00     0.216 C 
BRANCH  11  12
ATOM     12  N   UNL A   1      33.050  27.295  23.376  1.00  0.00    -0.340 N 
ATOM     13  C   UNL A   1      33.618  26.083  23.560  1.00  0.00     0.292 C 
ATOM     14  O   UNL A   1      34.452  25.961  24.445  1.00  0.00    -0.265 OA
ATOM     15  H   UNL A   1      33.271  27.934  24.092  1.00  0.00     0.164 HD
BRANCH  13  16
ATOM     16  C   UNL A   1      33.108  24.875  22.803  1.00  0.00     0.252 C 
ATOM     17  O   UNL A   1      33.096  24.956  21.578  1.00  0.00    -0.283 OA
BRANCH  16  18
ATOM     18  C   UNL A   1      32.556  23.714  23.532  1.00  0.00     0.054 A 
ATOM     19  N   UNL A   1      32.117  21.320  24.328  1.00  0.00    -0.240 N 
ATOM     20  C   UNL A   1      32.763  22.386  23.260  1.00  0.00     0.117 A 
ATOM     21  C   UNL A   1      31.345  22.540  25.172  1.00  0.00     0.065 A 
ATOM     22  C   UNL A   1      31.689  23.811  24.627  1.00  0.00     0.012 A 
ATOM     23  C   UNL A   1      30.366  22.576  26.211  1.00  0.00     0.028 A 
ATOM     24  C   UNL A   1      31.152  25.006  25.178  1.00  0.00     0.011 A 
ATOM     25  C   UNL A   1      29.776  23.775  26.639  1.00  0.00     0.002 A 
ATOM     26  C   UNL A   1      30.171  24.989  26.140  1.00  0.00     0.001 A 
BRANCH  19  27
ATOM     27  S   UNL A   1      32.998  19.070  24.983  1.00  0.00     0.268 S 
ATOM     28  O   UNL A   1      33.783  18.300  24.022  1.00  0.00    -0.201 OA
ATOM     29  O   UNL A   1      32.463  18.421  26.180  1.00  0.00    -0.201 OA
BRANCH  27  30
ATOM     30  C   UNL A   1      33.866  20.182  25.492  1.00  0.00     0.088 A 
ATOM     31  C   UNL A   1      36.969  23.824  26.127  1.00  0.00     0.044 C 
ATOM     32  C   UNL A   1      36.152  22.571  26.297  1.00  0.00    -0.051 A 
ATOM     33  C   UNL A   1      36.413  21.437  25.030  1.00  0.00     0.005 A 
ATOM     34  C   UNL A   1      34.807  22.620  27.337  1.00  0.00     0.005 A 
ATOM     35  C   UNL A   1      35.363  20.276  24.586  1.00  0.00     0.022 A 
ATOM     36  C   UNL A   1      33.532  21.462  27.067  1.00  0.00     0.022 A 
ENDBRANCH  27  30
ENDBRANCH  19  27
ENDBRANCH  16  18
ENDBRANCH  13  16
ENDBRANCH  11  12
ENDBRANCH   8  11
ENDBRANCH   6   7
ENDBRANCH   4   6
ENDBRANCH   3   4
ENDBRANCH   2   3
ENDBRANCH   1   2
BRANCH   1  37
ATOM     37  O   UNL A   1      34.444  34.478  27.962  1.00  0.00    -0.376 OA
BRANCH  37  38
ATOM     38  C   UNL A   1      33.278  34.618  28.737  1.00  0.00     0.188 C 
BRANCH  38  39
ATOM     39  C   UNL A   1      33.381  35.215  30.137  1.00  0.00     0.188 C 
BRANCH  39  40
ATOM     40  O   UNL A   1      33.639  34.326  31.214  1.00  0.00    -0.376 OA
BRANCH  40  41
ATOM     41  C   UNL A   1      34.918  33.890  31.597  1.00  0.00     0.202 C 
BRANCH  41  42
ATOM     42  C   UNL A   1      34.815  32.499  32.110  1.00  0.00     0.261 C 
BRANCH  42  43
ATOM     43  O   UNL A   1      35.492  31.493  31.268  1.00  0.00    -0.460 OA
BRANCH  43  44
ATOM     44  C   UNL A   1      36.776  31.019  31.287  1.00  0.00     0.338 C 
ATOM     45  O   UNL A   1      37.578  31.467  32.105  1.00  0.00    -0.246 OA
BRANCH  44  46
ATOM     46  C   UNL A   1      37.253  29.960  30.320  1.00  0.00     0.060 A 
ATOM     47  C   UNL A   1      37.746  28.803  30.850  1.00  0.00     0.016 A 
ATOM     48  C   UNL A   1      37.467  30.090  28.957  1.00  0.00     0.016 A 
ATOM     49  C   UNL A   1      38.736  28.097  30.134  1.00  0.00     0.010 A 
ATOM     50  C   UNL A   1      38.607  29.469  28.334  1.00  0.00     0.010 A 
ATOM     51  C   UNL A   1      39.458  28.560  28.995  1.00  0.00    -0.014 A 
BRANCH  51  52
ATOM     52  C   UNL A   1      41.169  28.372  28.417  1.00  0.00     0.031 A 
ATOM     53  C   UNL A   1      41.175  26.970  27.945  1.00  0.00     0.074 A 
ATOM     54  C   UNL A   1      42.388  29.292  28.122  1.00  0.00     0.049 A 
ATOM     55  N   UNL A   1      41.851  26.478  26.984  1.00  0.00    -0.248 NA
ATOM     56  C   UNL A   1      40.316  25.968  28.611  1.00  0.00     0.031 C 
ATOM     57  C   UNL A   1      43.448  29.336  27.006  1.00  0.00     0.029 A 
ATOM     58  N   UNL A   1      42.594  30.722  28.431  1.00  0.00    -0.354 N 
ATOM     59  C   UNL A   1      41.886  25.126  27.269  1.00  0.00     0.074 A 
ATOM     60  C   UNL A   1      40.800  24.826  28.155  1.00  0.00     0.031 C 
ATOM     61  C   UNL A   1      44.179  30.501  26.964  1.00  0.00     0.029 A 
ATOM     62  C   UNL A   1      43.696  31.420  27.969  1.00  0.00     0.049 A 
ATOM     63  H   UNL A   1      41.928  31.191  28.983  1.00  0.00     0.167 HD
ATOM     64  C   UNL A   1      43.070  24.479  27.185  1.00  0.00     0.037 A 
ATOM     65  C   UNL A   1      44.325  32.292  28.819  1.00  0.00     0.037 A 
ATOM     66  C   UNL A   1      44.141  25.459  27.011  1.00  0.00     0.049 A 
ATOM     67  C   UNL A   1      45.295  31.356  29.464  1.00  0.00     0.074 A 
ATOM     68  C   UNL A   1      44.579  26.220  25.944  1.00  0.00     0.029 A 
ATOM     69  N   UNL A   1      44.575  26.136  28.141  1.00  0.00    -0.354 N 
ATOM     70  N   UNL A   1      44.982  30.108  29.717  1.00  0.00    -0.248 NA
ATOM     71  C   UNL A   1      46.711  31.593  29.271  1.00  0.00     0.031 C 
ATOM     72  C   UNL A   1      45.403  27.274  26.464  1.00  0.00     0.029 A 
ATOM     73  C   UNL A   1      45.333  27.265  27.856  1.00  0.00     0.049 A 
ATOM     74  H   UNL A   1      44.367  25.845  29.057  1.00  0.00     0.167 HD
ATOM     75  C   UNL A   1      45.945  29.401  29.022  1.00  0.00     0.074 A 
ATOM     76  C   UNL A   1      47.071  30.344  28.947  1.00  0.00     0.031 C 
ATOM     77  C   UNL A   1      45.870  28.050  28.962  1.00  0.00     0.037 A 
BRANCH  64  78
ATOM     78  C   UNL A   1      43.167  22.989  27.046  1.00  0.00     0.064 A 
ATOM     79  C   UNL A   1      43.908  22.525  25.950  1.00  0.00     0.173 A 
ATOM     80  C   UNL A   1      42.412  22.002  27.722  1.00  0.00     0.173 A 
ATOM     81  F   UNL A   1      44.755  23.333  25.299  1.00  0.00    -0.203 F 
ATOM     82  C   UNL A   1      43.743  21.241  25.444  1.00  0.00     0.198 A 
ATOM     83  C   UNL A   1      42.259  20.711  27.224  1.00  0.00     0.198 A 
ATOM     84  F   UNL A   1      41.783  22.218  28.879  1.00  0.00    -0.203 F 
ATOM     85  F   UNL A   1      44.369  20.898  24.312  1.00  0.00    -0.200 F 
ATOM     86  C   UNL A   1      42.888  20.346  26.057  1.00  0.00     0.200 A 
ATOM     87  F   UNL A   1      41.454  19.845  27.858  1.00  0.00    -0.200 F 
ATOM     88  F   UNL A   1      42.668  19.140  25.522  1.00  0.00    -0.200 F 
ENDBRANCH  64  78
BRANCH  65  89
ATOM     89  C   UNL A   1      43.426  33.233  29.572  1.00  0.00     0.064 A 
ATOM     90  C   UNL A   1      42.997  34.401  28.909  1.00  0.00     0.173 A 
ATOM     91  C   UNL A   1      42.733  32.876  30.733  1.00  0.00     0.173 A 
ATOM     92  F   UNL A   1      43.682  34.864  27.851  1.00  0.00    -0.203 F 
ATOM     93  C   UNL A   1      41.781  35.013  29.227  1.00  0.00     0.198 A 
ATOM     94  C   UNL A   1      41.536  33.516  31.081  1.00  0.00     0.198 A 
ATOM     95  F   UNL A   1      43.099  31.792  31.429  1.00  0.00    -0.203 F 
ATOM     96  F   UNL A   1      41.272  35.947  28.409  1.00  0.00    -0.200 F 
ATOM     97  C   UNL A   1      41.018  34.522  30.270  1.00  0.00     0.200 A 
ATOM     98  F   UNL A   1      40.759  32.970  32.032  1.00  0.00    -0.200 F 
ATOM     99  F   UNL A   1      39.727  34.879  30.370  1.00  0.00    -0.200 F 
ENDBRANCH  65  89
BRANCH  77 100
ATOM    100  C   UNL A   1      46.843  27.435  29.856  1.00  0.00     0.064 A 
ATOM    101  C   UNL A   1      48.566  26.669  29.217  1.00  0.00     0.173 A 
ATOM    102  C   UNL A   1      46.449  26.953  31.736  1.00  0.00     0.173 A 
ATOM    103  F   UNL A   1      49.040  26.836  27.977  1.00  0.00    -0.203 F 
ATOM    104  C   UNL A   1      49.515  25.510  30.468  1.00  0.00     0.198 A 
ATOM    105  C   UNL A   1      47.325  25.761  33.013  1.00  0.00     0.198 A 
ATOM    106  F   UNL A   1      45.320  27.491  32.248  1.00  0.00    -0.203 F 
ATOM    107  F   UNL A   1      50.519  24.802  29.899  1.00  0.00    -0.200 F 
ATOM    108  C   UNL A   1      49.087  24.872  32.254  1.00  0.00     0.200 A 
ATOM    109  F   UNL A   1      46.704  25.672  34.209  1.00  0.00    -0.200 F 
ATOM    110  F   UNL A   1      49.930  23.923  32.714  1.00  0.00    -0.200 F 
ENDBRANCH  77 100
ENDBRANCH  51  52
ENDBRANCH  44  46
ENDBRANCH  43  44
ENDBRANCH  42  43
ENDBRANCH  41  42
ENDBRANCH  40  41
ENDBRANCH  39  40
ENDBRANCH  38  39
ENDBRANCH  37  38
ENDBRANCH   1  37
TORSDOF 24
ENDMDL
MODEL 2
REMARK VINA RESULT:     -13.7      3.260      4.893
REMARK SMILES Cc1ccc(S(=O)(=O)n2cc(C(=O)C(=O)NCC(=O)NCC(=O)OCCOCCOCCOC(=O)c3ccc(-c4c5nc(c(-c6c(F)c(F)c(F)c(F)c6F)c6ccc([nH]6)c(-c6c(F)c(F)c(F)c(F)c6F)c6nc(c(-c7c(F)c(F)c(F)c(F)c7F)c7ccc4[nH]7)C=C6)C=C5)cc3)c3ccccc32)cc1
REMARK SMILES IDX 26 1 25 2 24 3 22 4 23 5 21 6 20 7 18 8 19 9 17 11 16 12
REMARK SMILES IDX 14 13 15 14 12 16 13 17 11 18 9 19 10 20 104 21 99 22 103 23
REMARK SMILES IDX 100 24 102 25 101 26 6 27 7 28 8 29 5 30 1 31 2 32 3 33
REMARK SMILES IDX 106 34 4 35 105 36 27 37 28 38 29 39 30 40 31 41 32 42 33 43
REMARK SMILES IDX 34 44 35 45 36 46 37 47 98 48 38 49 97 50 39 51 40 52 41 53
REMARK SMILES IDX 91 54 42 55 96 56 90 57 92 58 43 59 95 60 89 61 88 62 44 64
REMARK SMILES IDX 76 65 56 66 75 67 57 68 60 69 74 70 93 71 58 72 59 73 73 75
REMARK SMILES IDX 94 76 61 77 45 78 46 79 54 80 47 81 48 82 52 83 55 84 49 85
REMARK SMILES IDX 50 86 53 87 51 88 77 89 78 90 86 91 79 92 80 93 84 94 87 95
REMARK SMILES IDX 81 96 82 97 85 98 83 99 62 100 63 101 71 102 64 103 65 104
REMARK SMILES IDX 69 105 72 106 66 107 67 108 70 109 68 110
REMARK H PARENT 20 10 16 15 92 63 60 74
REMARK Flexibility Score: inf
ROOT
ATOM      1  C   UNL A   1      34.895  32.853  27.967  1.00  0.00     0.202 C 
ENDROOT
BRANCH   1   2
ATOM      2  C   UNL A   1      33.845  31.743  28.052  1.00  0.00     0.261 C 
BRANCH   2   3
ATOM      3  O   UNL A   1      33.550  30.787  26.599  1.00  0.00    -0.462 OA
BRANCH   3   4
ATOM      4  C   UNL A   1      32.802  29.942  25.614  1.00  0.00     0.325 C 
ATOM      5  O   UNL A   1      33.401  29.811  24.545  1.00  0.00    -0.250 OA
BRANCH   4   6
ATOM      6  C   UNL A   1      31.278  28.959  25.783  1.00  0.00     0.238 C 
BRANCH   6   7
ATOM      7  N   UNL A   1      30.904  27.713  24.839  1.00  0.00    -0.344 N 
ATOM      8  C   UNL A   1      30.153  27.502  23.686  1.00  0.00     0.239 C 
ATOM      9  O   UNL A   1      29.216  26.694  23.748  1.00  0.00    -0.273 OA
ATOM     10  H   UNL A   1      31.315  26.877  25.162  1.00  0.00     0.164 HD
BRANCH   8  11
ATOM     11  C   UNL A   1      30.552  28.003  22.300  1.00  0.00     0.216 C 
BRANCH  11  12
ATOM     12  N   UNL A   1      31.944  28.306  22.291  1.00  0.00    -0.340 N 
ATOM     13  C   UNL A   1      33.044  27.667  21.836  1.00  0.00     0.292 C 
ATOM     14  O   UNL A   1      34.106  28.273  21.824  1.00  0.00    -0.265 OA
ATOM     15  H   UNL A   1      32.151  29.172  22.711  1.00  0.00     0.164 HD
BRANCH  13  16
ATOM     16  C   UNL A   1      32.993  26.188  21.514  1.00  0.00     0.252 C 
ATOM     17  O   UNL A   1      33.007  25.882  20.324  1.00  0.00    -0.283 OA
BRANCH  16  18
ATOM     18  C   UNL A   1      32.824  25.193  22.592  1.00  0.00     0.054 A 
ATOM     19  N   UNL A   1      32.278  23.030  23.849  1.00  0.00    -0.240 N 
ATOM     20  C   UNL A   1      32.193  23.978  22.511  1.00  0.00     0.117 A 
ATOM     21  C   UNL A   1      33.027  24.236  24.732  1.00  0.00     0.065 A 
ATOM     22  C   UNL A   1      33.277  25.369  23.905  1.00  0.00     0.012 A 
ATOM     23  C   UNL A   1      33.357  24.412  26.110  1.00  0.00     0.028 A 
ATOM     24  C   UNL A   1      33.907  26.528  24.434  1.00  0.00     0.011 A 
ATOM     25  C   UNL A   1      33.867  25.622  26.607  1.00  0.00     0.002 A 
ATOM     26  C   UNL A   1      34.156  26.674  25.778  1.00  0.00     0.001 A 
BRANCH  19  27
ATOM     27  S   UNL A   1      32.335  20.529  23.964  1.00  0.00     0.268 S 
ATOM     28  O   UNL A   1      32.443  19.757  22.729  1.00  0.00    -0.201 OA
ATOM     29  O   UNL A   1      31.947  19.868  25.210  1.00  0.00    -0.201 OA
BRANCH  27  30
ATOM     30  C   UNL A   1      33.679  21.134  24.240  1.00  0.00     0.088 A 
ATOM     31  C   UNL A   1      38.090  22.296  25.820  1.00  0.00     0.044 C 
ATOM     32  C   UNL A   1      36.669  22.346  25.324  1.00  0.00    -0.051 A 
ATOM     33  C   UNL A   1      35.577  21.521  26.367  1.00  0.00     0.005 A 
ATOM     34  C   UNL A   1      36.400  22.725  23.688  1.00  0.00     0.005 A 
ATOM     35  C   UNL A   1      34.138  20.910  25.916  1.00  0.00     0.022 A 
ATOM     36  C   UNL A   1      34.910  22.177  22.965  1.00  0.00     0.022 A 
ENDBRANCH  27  30
ENDBRANCH  19  27
ENDBRANCH  16  18
ENDBRANCH  13  16
ENDBRANCH  11  12
ENDBRANCH   8  11
ENDBRANCH   6   7
ENDBRANCH   4   6
ENDBRANCH   3   4
ENDBRANCH   2   3
ENDBRANCH   1   2
BRANCH   1  37
ATOM     37  O   UNL A   1      34.505  34.202  27.995  1.00  0.00    -0.376 OA
BRANCH  37  38
ATOM     38  C   UNL A   1      33.264  34.511  28.581  1.00  0.00     0.188 C 
BRANCH  38  39
ATOM     39  C   UNL A   1      32.893  35.972  28.813  1.00  0.00     0.188 C 
BRANCH  39  40
ATOM     40  O   UNL A   1      32.477  36.345  30.119  1.00  0.00    -0.376 OA
BRANCH  40  41
ATOM     41  C   UNL A   1      33.319  36.388  31.242  1.00  0.00     0.202 C 
BRANCH  41  42
ATOM     42  C   UNL A   1      32.586  35.839  32.411  1.00  0.00     0.261 C 
BRANCH  42  43
ATOM     43  O   UNL A   1      33.024  34.491  32.822  1.00  0.00    -0.460 OA
BRANCH  43  44
ATOM     44  C   UNL A   1      34.275  33.972  33.022  1.00  0.00     0.338 C 
ATOM     45  O   UNL A   1      34.789  34.038  34.138  1.00  0.00    -0.246 OA
BRANCH  44  46
ATOM     46  C   UNL A   1      35.061  33.323  31.907  1.00  0.00     0.060 A 
ATOM     47  C   UNL A   1      35.077  31.959  31.861  1.00  0.00     0.016 A 
ATOM     48  C   UNL A   1      35.962  33.925  31.042  1.00  0.00     0.016 A 
ATOM     49  C   UNL A   1      36.210  31.313  31.321  1.00  0.00     0.010 A 
ATOM     50  C   UNL A   1      37.182  33.255  30.674  1.00  0.00     0.010 A 
ATOM     51  C   UNL A   1      37.463  31.913  30.999  1.00  0.00    -0.014 A 
BRANCH  51  52
ATOM     52  C   UNL A   1      39.193  31.376  31.120  1.00  0.00     0.031 A 
ATOM     53  C   UNL A   1      39.327  30.520  29.920  1.00  0.00     0.074 A 
ATOM     54  C   UNL A   1      40.455  31.752  31.947  1.00  0.00     0.049 A 
ATOM     55  N   UNL A   1      40.366  30.347  29.204  1.00  0.00    -0.248 NA
ATOM     56  C   UNL A   1      38.161  29.755  29.431  1.00  0.00     0.031 C 
ATOM     57  C   UNL A   1      41.947  31.918  31.602  1.00  0.00     0.029 A 
ATOM     58  N   UNL A   1      40.589  32.625  33.131  1.00  0.00    -0.354 N 
ATOM     59  C   UNL A   1      40.125  29.146  28.566  1.00  0.00     0.074 A 
ATOM     60  C   UNL A   1      38.712  28.905  28.582  1.00  0.00     0.031 C 
ATOM     61  C   UNL A   1      42.686  32.552  32.574  1.00  0.00     0.029 A 
ATOM     62  C   UNL A   1      41.823  32.959  33.660  1.00  0.00     0.049 A 
ATOM     63  H   UNL A   1      39.775  32.979  33.556  1.00  0.00     0.167 HD
ATOM     64  C   UNL A   1      41.107  28.218  28.541  1.00  0.00     0.037 A 
ATOM     65  C   UNL A   1      41.973  32.965  35.022  1.00  0.00     0.037 A 
ATOM     66  C   UNL A   1      42.187  28.639  29.435  1.00  0.00     0.049 A 
ATOM     67  C   UNL A   1      42.361  31.538  35.239  1.00  0.00     0.074 A 
ATOM     68  C   UNL A   1      43.192  29.582  29.342  1.00  0.00     0.029 A 
ATOM     69  N   UNL A   1      42.006  28.434  30.794  1.00  0.00    -0.354 N 
ATOM     70  N   UNL A   1      41.853  30.571  34.513  1.00  0.00    -0.248 NA
ATOM     71  C   UNL A   1      43.675  31.258  35.780  1.00  0.00     0.031 C 
ATOM     72  C   UNL A   1      43.699  29.816  30.664  1.00  0.00     0.029 A 
ATOM     73  C   UNL A   1      42.894  29.150  31.586  1.00  0.00     0.049 A 
ATOM     74  H   UNL A   1      41.315  27.838  31.162  1.00  0.00     0.167 HD
ATOM     75  C   UNL A   1      42.972  29.985  33.952  1.00  0.00     0.074 A 
ATOM     76  C   UNL A   1      44.041  30.308  34.909  1.00  0.00     0.031 C 
ATOM     77  C   UNL A   1      42.823  28.999  33.036  1.00  0.00     0.037 A 
BRANCH  64  78
ATOM     78  C   UNL A   1      41.132  27.094  27.549  1.00  0.00     0.064 A 
ATOM     79  C   UNL A   1      40.596  25.877  27.991  1.00  0.00     0.173 A 
ATOM     80  C   UNL A   1      41.842  27.031  26.327  1.00  0.00     0.173 A 
ATOM     81  F   UNL A   1      39.804  25.823  29.069  1.00  0.00    -0.203 F 
ATOM     82  C   UNL A   1      40.922  24.669  27.383  1.00  0.00     0.198 A 
ATOM     83  C   UNL A   1      42.155  25.822  25.710  1.00  0.00     0.198 A 
ATOM     84  F   UNL A   1      42.275  28.107  25.668  1.00  0.00    -0.203 F 
ATOM     85  F   UNL A   1      40.496  23.526  27.933  1.00  0.00    -0.200 F 
ATOM     86  C   UNL A   1      41.733  24.637  26.266  1.00  0.00     0.200 A 
ATOM     87  F   UNL A   1      42.912  25.818  24.602  1.00  0.00    -0.200 F 
ATOM     88  F   UNL A   1      42.112  23.470  25.733  1.00  0.00    -0.200 F 
ENDBRANCH  64  78
BRANCH  65  89
ATOM     89  C   UNL A   1      40.898  33.678  35.794  1.00  0.00     0.064 A 
ATOM     90  C   UNL A   1      40.086  32.907  36.652  1.00  0.00     0.173 A 
ATOM     91  C   UNL A   1      40.865  35.065  35.971  1.00  0.00     0.173 A 
ATOM     92  F   UNL A   1      39.984  31.582  36.469  1.00  0.00    -0.203 F 
ATOM     93  C   UNL A   1      39.499  33.464  37.792  1.00  0.00     0.198 A 
ATOM     94  C   UNL A   1      40.239  35.632  37.090  1.00  0.00     0.198 A 
ATOM     95  F   UNL A   1      41.591  35.863  35.178  1.00  0.00    -0.203 F 
ATOM     96  F   UNL A   1      38.967  32.662  38.726  1.00  0.00    -0.200 F 
ATOM     97  C   UNL A   1      39.639  34.816  38.046  1.00  0.00     0.200 A 
ATOM     98  F   UNL A   1      40.464  36.926  37.375  1.00  0.00    -0.200 F 
ATOM     99  F   UNL A   1      39.373  35.290  39.274  1.00  0.00    -0.200 F 
ENDBRANCH  65  89
BRANCH  77 100
ATOM    100  C   UNL A   1      43.108  27.696  33.624  1.00  0.00     0.064 A 
ATOM    101  C   UNL A   1      44.449  26.437  32.864  1.00  0.00     0.173 A 
ATOM    102  C   UNL A   1      41.978  26.854  35.016  1.00  0.00     0.173 A 
ATOM    103  F   UNL A   1      45.313  26.764  31.897  1.00  0.00    -0.203 F 
ATOM    104  C   UNL A   1      44.372  24.596  33.511  1.00  0.00     0.198 A 
ATOM    105  C   UNL A   1      41.817  25.017  35.662  1.00  0.00     0.198 A 
ATOM    106  F   UNL A   1      41.086  27.674  35.612  1.00  0.00    -0.203 F 
ATOM    107  F   UNL A   1      45.105  23.730  32.773  1.00  0.00    -0.200 F 
ATOM    108  C   UNL A   1      43.177  23.684  34.743  1.00  0.00     0.200 A 
ATOM    109  F   UNL A   1      40.875  24.841  36.614  1.00  0.00    -0.200 F 
ATOM    110  F   UNL A   1      43.347  22.345  34.781  1.00  0.00    -0.200 F 
ENDBRANCH  77 100
ENDBRANCH  51  52
ENDBRANCH  44  46
ENDBRANCH  43  44
ENDBRANCH  42  43
ENDBRANCH  41  42
ENDBRANCH  40  41
ENDBRANCH  39  40
ENDBRANCH  38  39
ENDBRANCH  37  38
ENDBRANCH   1  37
TORSDOF 24
ENDMDL
MODEL 3
REMARK VINA RESULT:     -13.5      3.505      5.390
REMARK SMILES Cc1ccc(S(=O)(=O)n2cc(C(=O)C(=O)NCC(=O)NCC(=O)OCCOCCOCCOC(=O)c3ccc(-c4c5nc(c(-c6c(F)c(F)c(F)c(F)c6F)c6ccc([nH]6)c(-c6c(F)c(F)c(F)c(F)c6F)c6nc(c(-c7c(F)c(F)c(F)c(F)c7F)c7ccc4[nH]7)C=C6)C=C5)cc3)c3ccccc32)cc1
REMARK SMILES IDX 26 1 25 2 24 3 22 4 23 5 21 6 20 7 18 8 19 9 17 11 16 12
REMARK SMILES IDX 14 13 15 14 12 16 13 17 11 18 9 19 10 20 104 21 99 22 103 23
REMARK SMILES IDX 100 24 102 25 101 26 6 27 7 28 8 29 5 30 1 31 2 32 3 33
REMARK SMILES IDX 106 34 4 35 105 36 27 37 28 38 29 39 30 40 31 41 32 42 33 43
REMARK SMILES IDX 34 44 35 45 36 46 37 47 98 48 38 49 97 50 39 51 40 52 41 53
REMARK SMILES IDX 91 54 42 55 96 56 90 57 92 58 43 59 95 60 89 61 88 62 44 64
REMARK SMILES IDX 76 65 56 66 75 67 57 68 60 69 74 70 93 71 58 72 59 73 73 75
REMARK SMILES IDX 94 76 61 77 45 78 46 79 54 80 47 81 48 82 52 83 55 84 49 85
REMARK SMILES IDX 50 86 53 87 51 88 77 89 78 90 86 91 79 92 80 93 84 94 87 95
REMARK SMILES IDX 81 96 82 97 85 98 83 99 62 100 63 101 71 102 64 103 65 104
REMARK SMILES IDX 69 105 72 106 66 107 67 108 70 109 68 110
REMARK H PARENT 20 10 16 15 92 63 60 74
REMARK Flexibility Score: inf
ROOT
ATOM      1  C   UNL A   1      35.178  32.444  28.228  1.00  0.00     0.202 C 
ENDROOT
BRANCH   1   2
ATOM      2  C   UNL A   1      33.881  31.641  28.100  1.00  0.00     0.261 C 
BRANCH   2   3
ATOM      3  O   UNL A   1      33.769  30.479  26.777  1.00  0.00    -0.462 OA
BRANCH   3   4
ATOM      4  C   UNL A   1      33.135  29.554  25.785  1.00  0.00     0.325 C 
ATOM      5  O   UNL A   1      33.958  29.013  25.043  1.00  0.00    -0.250 OA
BRANCH   4   6
ATOM      6  C   UNL A   1      31.418  28.974  25.604  1.00  0.00     0.238 C 
BRANCH   6   7
ATOM      7  N   UNL A   1      30.660  28.836  24.193  1.00  0.00    -0.344 N 
ATOM      8  C   UNL A   1      31.022  28.705  22.855  1.00  0.00     0.239 C 
ATOM      9  O   UNL A   1      30.625  29.572  22.063  1.00  0.00    -0.273 OA
ATOM     10  H   UNL A   1      29.682  28.848  24.305  1.00  0.00     0.164 HD
BRANCH   8  11
ATOM     11  C   UNL A   1      31.658  27.452  22.258  1.00  0.00     0.216 C 
BRANCH  11  12
ATOM     12  N   UNL A   1      32.734  27.028  23.090  1.00  0.00    -0.340 N 
ATOM     13  C   UNL A   1      33.474  25.901  23.170  1.00  0.00     0.292 C 
ATOM     14  O   UNL A   1      34.461  25.904  23.893  1.00  0.00    -0.265 OA
ATOM     15  H   UNL A   1      32.996  27.706  23.753  1.00  0.00     0.164 HD
BRANCH  13  16
ATOM     16  C   UNL A   1      32.996  24.621  22.518  1.00  0.00     0.252 C 
ATOM     17  O   UNL A   1      32.973  24.603  21.290  1.00  0.00    -0.283 OA
BRANCH  16  18
ATOM     18  C   UNL A   1      32.485  23.507  23.342  1.00  0.00     0.054 A 
ATOM     19  N   UNL A   1      32.091  21.165  24.301  1.00  0.00    -0.240 N 
ATOM     20  C   UNL A   1      32.678  22.165  23.138  1.00  0.00     0.117 A 
ATOM     21  C   UNL A   1      31.366  22.434  25.112  1.00  0.00     0.065 A 
ATOM     22  C   UNL A   1      31.679  23.669  24.475  1.00  0.00     0.012 A 
ATOM     23  C   UNL A   1      30.444  22.534  26.198  1.00  0.00     0.028 A 
ATOM     24  C   UNL A   1      31.171  24.896  24.982  1.00  0.00     0.011 A 
ATOM     25  C   UNL A   1      29.877  23.757  26.586  1.00  0.00     0.002 A 
ATOM     26  C   UNL A   1      30.244  24.939  25.995  1.00  0.00     0.001 A 
BRANCH  19  27
ATOM     27  S   UNL A   1      33.008  18.954  25.039  1.00  0.00     0.268 S 
ATOM     28  O   UNL A   1      33.805  18.162  24.106  1.00  0.00    -0.201 OA
ATOM     29  O   UNL A   1      32.485  18.343  26.260  1.00  0.00    -0.201 OA
BRANCH  27  30
ATOM     30  C   UNL A   1      33.860  20.098  25.504  1.00  0.00     0.088 A 
ATOM     31  C   UNL A   1      36.815  23.885  25.980  1.00  0.00     0.044 C 
ATOM     32  C   UNL A   1      36.081  22.586  26.182  1.00  0.00    -0.051 A 
ATOM     33  C   UNL A   1      36.289  21.499  24.864  1.00  0.00     0.005 A 
ATOM     34  C   UNL A   1      34.831  22.537  27.333  1.00  0.00     0.005 A 
ATOM     35  C   UNL A   1      35.266  20.295  24.477  1.00  0.00     0.022 A 
ATOM     36  C   UNL A   1      33.598  21.319  27.139  1.00  0.00     0.022 A 
ENDBRANCH  27  30
ENDBRANCH  19  27
ENDBRANCH  16  18
ENDBRANCH  13  16
ENDBRANCH  11  12
ENDBRANCH   8  11
ENDBRANCH   6   7
ENDBRANCH   4   6
ENDBRANCH   3   4
ENDBRANCH   2   3
ENDBRANCH   1   2
BRANCH   1  37
ATOM     37  O   UNL A   1      35.152  33.768  28.696  1.00  0.00    -0.376 OA
BRANCH  37  38
ATOM     38  C   UNL A   1      34.300  34.675  28.039  1.00  0.00     0.188 C 
BRANCH  38  39
ATOM     39  C   UNL A   1      33.303  35.488  28.858  1.00  0.00     0.188 C 
BRANCH  39  40
ATOM     40  O   UNL A   1      33.640  35.774  30.208  1.00  0.00    -0.376 OA
BRANCH  40  41
ATOM     41  C   UNL A   1      32.724  36.202  31.183  1.00  0.00     0.202 C 
BRANCH  41  42
ATOM     42  C   UNL A   1      33.126  35.636  32.497  1.00  0.00     0.261 C 
BRANCH  42  43
ATOM     43  O   UNL A   1      33.267  34.168  32.506  1.00  0.00    -0.460 OA
BRANCH  43  44
ATOM     44  C   UNL A   1      34.371  33.368  32.375  1.00  0.00     0.338 C 
ATOM     45  O   UNL A   1      34.291  32.323  31.731  1.00  0.00    -0.246 OA
BRANCH  44  46
ATOM     46  C   UNL A   1      35.696  33.721  33.010  1.00  0.00     0.060 A 
ATOM     47  C   UNL A   1      36.523  34.554  32.314  1.00  0.00     0.016 A 
ATOM     48  C   UNL A   1      36.290  33.134  34.117  1.00  0.00     0.016 A 
ATOM     49  C   UNL A   1      37.918  34.424  32.488  1.00  0.00     0.010 A 
ATOM     50  C   UNL A   1      37.708  32.884  34.139  1.00  0.00     0.010 A 
ATOM     51  C   UNL A   1      38.599  33.366  33.159  1.00  0.00    -0.014 A 
BRANCH  51  52
ATOM     52  C   UNL A   1      40.160  32.483  32.873  1.00  0.00     0.031 A 
ATOM     53  C   UNL A   1      39.887  31.797  31.591  1.00  0.00     0.074 A 
ATOM     54  C   UNL A   1      41.599  32.478  33.462  1.00  0.00     0.049 A 
ATOM     55  N   UNL A   1      40.719  31.523  30.666  1.00  0.00    -0.248 NA
ATOM     56  C   UNL A   1      38.513  31.357  31.272  1.00  0.00     0.031 C 
ATOM     57  C   UNL A   1      43.007  32.391  32.843  1.00  0.00     0.029 A 
ATOM     58  N   UNL A   1      42.130  33.130  34.677  1.00  0.00    -0.354 N 
ATOM     59  C   UNL A   1      40.108  30.497  29.971  1.00  0.00     0.074 A 
ATOM     60  C   UNL A   1      38.702  30.543  30.248  1.00  0.00     0.031 C 
ATOM     61  C   UNL A   1      44.027  32.720  33.705  1.00  0.00     0.029 A 
ATOM     62  C   UNL A   1      43.481  33.132  34.978  1.00  0.00     0.049 A 
ATOM     63  H   UNL A   1      41.503  33.575  35.291  1.00  0.00     0.167 HD
ATOM     64  C   UNL A   1      40.839  29.405  29.656  1.00  0.00     0.037 A 
ATOM     65  C   UNL A   1      43.865  32.915  36.275  1.00  0.00     0.037 A 
ATOM     66  C   UNL A   1      42.125  29.471  30.351  1.00  0.00     0.049 A 
ATOM     67  C   UNL A   1      43.956  31.423  36.263  1.00  0.00     0.074 A 
ATOM     68  C   UNL A   1      43.283  30.198  30.153  1.00  0.00     0.029 A 
ATOM     69  N   UNL A   1      42.144  29.116  31.690  1.00  0.00    -0.354 N 
ATOM     70  N   UNL A   1      43.126  30.689  35.561  1.00  0.00    -0.248 NA
ATOM     71  C   UNL A   1      45.249  30.812  36.497  1.00  0.00     0.031 C 
ATOM     72  C   UNL A   1      44.052  30.136  31.362  1.00  0.00     0.029 A 
ATOM     73  C   UNL A   1      43.294  29.519  32.356  1.00  0.00     0.049 A 
ATOM     74  H   UNL A   1      41.413  28.623  32.128  1.00  0.00     0.167 HD
ATOM     75  C   UNL A   1      43.970  29.978  34.729  1.00  0.00     0.074 A 
ATOM     76  C   UNL A   1      45.235  29.942  35.478  1.00  0.00     0.031 C 
ATOM     77  C   UNL A   1      43.446  29.181  33.767  1.00  0.00     0.037 A 
BRANCH  64  78
ATOM     78  C   UNL A   1      40.438  28.451  28.570  1.00  0.00     0.064 A 
ATOM     79  C   UNL A   1      39.675  27.348  28.977  1.00  0.00     0.173 A 
ATOM     80  C   UNL A   1      40.932  28.386  27.246  1.00  0.00     0.173 A 
ATOM     81  F   UNL A   1      39.052  27.340  30.163  1.00  0.00    -0.203 F 
ATOM     82  C   UNL A   1      39.593  26.191  28.211  1.00  0.00     0.198 A 
ATOM     83  C   UNL A   1      40.837  27.231  26.472  1.00  0.00     0.198 A 
ATOM     84  F   UNL A   1      41.531  29.407  26.630  1.00  0.00    -0.203 F 
ATOM     85  F   UNL A   1      38.969  25.118  28.712  1.00  0.00    -0.200 F 
ATOM     86  C   UNL A   1      40.207  26.117  26.976  1.00  0.00     0.200 A 
ATOM     87  F   UNL A   1      41.407  27.196  25.259  1.00  0.00    -0.200 F 
ATOM     88  F   UNL A   1      40.197  24.976  26.278  1.00  0.00    -0.200 F 
ENDBRANCH  64  78
BRANCH  65  89
ATOM     89  C   UNL A   1      43.128  33.711  37.316  1.00  0.00     0.064 A 
ATOM     90  C   UNL A   1      43.237  35.116  37.267  1.00  0.00     0.173 A 
ATOM     91  C   UNL A   1      42.099  33.185  38.105  1.00  0.00     0.173 A 
ATOM     92  F   UNL A   1      44.265  35.687  36.619  1.00  0.00    -0.203 F 
ATOM     93  C   UNL A   1      42.217  35.942  37.746  1.00  0.00     0.198 A 
ATOM     94  C   UNL A   1      41.097  34.016  38.625  1.00  0.00     0.198 A 
ATOM     95  F   UNL A   1      41.948  31.860  38.219  1.00  0.00    -0.203 F 
ATOM     96  F   UNL A   1      42.221  37.249  37.443  1.00  0.00    -0.200 F 
ATOM     97  C   UNL A   1      41.112  35.383  38.361  1.00  0.00     0.200 A 
ATOM     98  F   UNL A   1      39.986  33.454  39.132  1.00  0.00    -0.200 F 
ATOM     99  F   UNL A   1      40.000  36.119  38.521  1.00  0.00    -0.200 F 
ENDBRANCH  65  89
BRANCH  77 100
ATOM    100  C   UNL A   1      43.532  27.778  34.151  1.00  0.00     0.064 A 
ATOM    101  C   UNL A   1      42.474  26.997  35.644  1.00  0.00     0.173 A 
ATOM    102  C   UNL A   1      44.946  26.552  33.499  1.00  0.00     0.173 A 
ATOM    103  F   UNL A   1      41.479  27.639  36.266  1.00  0.00    -0.203 F 
ATOM    104  C   UNL A   1      43.046  25.245  36.287  1.00  0.00     0.198 A 
ATOM    105  C   UNL A   1      45.598  24.823  34.133  1.00  0.00     0.198 A 
ATOM    106  F   UNL A   1      45.663  27.002  32.446  1.00  0.00    -0.203 F 
ATOM    107  F   UNL A   1      42.483  24.888  37.465  1.00  0.00    -0.200 F 
ATOM    108  C   UNL A   1      44.525  24.083  35.798  1.00  0.00     0.200 A 
ATOM    109  F   UNL A   1      46.632  24.322  33.422  1.00  0.00    -0.200 F 
ATOM    110  F   UNL A   1      44.686  23.024  36.620  1.00  0.00    -0.200 F 
ENDBRANCH  77 100
ENDBRANCH  51  52
ENDBRANCH  44  46
ENDBRANCH  43  44
ENDBRANCH  42  43
ENDBRANCH  41  42
ENDBRANCH  40  41
ENDBRANCH  39  40
ENDBRANCH  38  39
ENDBRANCH  37  38
ENDBRANCH   1  37
TORSDOF 24
ENDMDL
