MODEL 1
REMARK VINA RESULT:     -11.4      0.000      0.000
REMARK SMILES Cc1noc(C[N@H+]2CCC[C@@H](c3ccc(C(=O)OCCOCCOCCOC(=O)c4ccc(-c5c6nc(c(-c7c(F)c(F)c(F)c(F)c7F)c7ccc([nH]7)c(-c7c(F)c(F)c(F)c(F)c7F)c7nc(c(-c8c(F)c(F)c(F)c(F)c8F)c8ccc5[nH]8)C=C7)C=C6)cc4)cc3)C2)n1
REMARK SMILES IDX 22 1 21 2 20 3 19 4 18 5 16 6 17 7 15 8 12 9 13 10 94 11
REMARK SMILES IDX 14 12 93 13 11 14 7 15 8 16 95 17 9 19 10 20 6 21 5 22 1 23
REMARK SMILES IDX 2 24 3 25 96 26 4 27 23 28 24 29 25 30 26 31 27 32 28 33
REMARK SMILES IDX 29 34 30 35 31 36 92 37 32 38 91 39 33 40 34 41 35 42 85 43
REMARK SMILES IDX 36 44 90 45 84 46 86 47 37 48 89 49 83 50 82 51 38 53 70 54
REMARK SMILES IDX 50 55 69 56 51 57 54 58 68 59 87 60 52 61 53 62 67 64 88 65
REMARK SMILES IDX 55 66 39 67 40 68 48 69 41 70 42 71 46 72 49 73 43 74 44 75
REMARK SMILES IDX 47 76 45 77 71 78 72 79 80 80 73 81 74 82 78 83 81 84 75 85
REMARK SMILES IDX 76 86 79 87 77 88 56 89 57 90 65 91 58 92 59 93 63 94 66 95
REMARK SMILES IDX 60 96 61 97 64 98 62 99
REMARK H PARENT 7 18 86 52 54 63
REMARK Flexibility Score: inf
ROOT
ATOM      1  C   UNL A   1      34.746  31.370  27.630  1.00  0.00     0.188 C 
ENDROOT
BRANCH   1   2
ATOM      2  O   UNL A   1      34.089  30.181  27.221  1.00  0.00    -0.376 OA
BRANCH   2   3
ATOM      3  C   UNL A   1      32.669  30.134  27.185  1.00  0.00     0.202 C 
BRANCH   3   4
ATOM      4  C   UNL A   1      31.925  30.244  25.850  1.00  0.00     0.261 C 
BRANCH   4   5
ATOM      5  O   UNL A   1      32.321  29.260  24.884  1.00  0.00    -0.460 OA
BRANCH   5   6
ATOM      6  C   UNL A   1      31.472  28.211  24.761  1.00  0.00     0.338 C 
ATOM      7  O   UNL A   1      30.423  28.184  24.138  1.00  0.00    -0.246 OA
BRANCH   6   8
ATOM      8  C   UNL A   1      32.084  26.992  25.325  1.00  0.00     0.060 A 
ATOM      9  C   UNL A   1      33.371  24.642  26.153  1.00  0.00    -0.039 A 
ATOM     10  C   UNL A   1      34.116  25.745  25.702  1.00  0.00     0.005 A 
ATOM     11  C   UNL A   1      31.978  24.774  26.279  1.00  0.00     0.005 A 
ATOM     12  C   UNL A   1      33.478  26.900  25.265  1.00  0.00     0.016 A 
ATOM     13  C   UNL A   1      31.334  25.950  25.876  1.00  0.00     0.016 A 
BRANCH   9  14
ATOM     14  C   UNL A   1      34.037  23.278  26.316  1.00  0.00     0.074 C 
ATOM     15  N   UNL A   1      33.731  20.875  25.513  1.00  0.00    -0.327 N 
ATOM     16  C   UNL A   1      35.107  20.878  24.999  1.00  0.00     0.262 C 
ATOM     17  C   UNL A   1      33.168  22.233  25.573  1.00  0.00     0.270 C 
ATOM     18  H   UNL A   1      33.775  20.510  26.465  1.00  0.00     0.348 HD
ATOM     19  C   UNL A   1      36.010  21.804  25.814  1.00  0.00     0.062 C 
ATOM     20  C   UNL A   1      35.484  23.240  25.806  1.00  0.00     0.020 C 
BRANCH  15  21
ATOM     21  C   UNL A   1      32.846  19.980  24.711  1.00  0.00     0.364 C 
BRANCH  21  22
ATOM     22  C   UNL A   1      33.059  18.507  24.908  1.00  0.00     0.281 A 
ATOM     23  C   UNL A   1      32.314  15.173  25.703  1.00  0.00     0.093 C 
ATOM     24  C   UNL A   1      32.892  16.451  25.249  1.00  0.00     0.169 A 
ATOM     25  N   UNL A   1      33.874  16.528  24.343  1.00  0.00    -0.063 NA
ATOM     26  N   UNL A   1      32.391  17.655  25.659  1.00  0.00    -0.191 NA
ATOM     27  O   UNL A   1      33.991  17.903  24.113  1.00  0.00    -0.333 OA
ENDBRANCH  21  22
ENDBRANCH  15  21
ENDBRANCH   9  14
ENDBRANCH   6   8
ENDBRANCH   5   6
ENDBRANCH   4   5
ENDBRANCH   3   4
ENDBRANCH   2   3
ENDBRANCH   1   2
BRANCH   1  28
ATOM     28  C   UNL A   1      34.066  32.354  28.604  1.00  0.00     0.188 C 
BRANCH  28  29
ATOM     29  O   UNL A   1      33.436  33.494  28.075  1.00  0.00    -0.376 OA
BRANCH  29  30
ATOM     30  C   UNL A   1      33.842  34.804  28.427  1.00  0.00     0.202 C 
BRANCH  30  31
ATOM     31  C   UNL A   1      33.245  35.680  29.543  1.00  0.00     0.261 C 
BRANCH  31  32
ATOM     32  O   UNL A   1      32.609  35.030  30.642  1.00  0.00    -0.460 OA
BRANCH  32  33
ATOM     33  C   UNL A   1      32.826  35.604  31.849  1.00  0.00     0.338 C 
ATOM     34  O   UNL A   1      32.134  36.429  32.419  1.00  0.00    -0.246 OA
BRANCH  33  35
ATOM     35  C   UNL A   1      33.988  34.957  32.479  1.00  0.00     0.060 A 
ATOM     36  C   UNL A   1      35.224  35.612  32.425  1.00  0.00     0.016 A 
ATOM     37  C   UNL A   1      33.870  33.693  33.060  1.00  0.00     0.016 A 
ATOM     38  C   UNL A   1      36.362  34.982  32.923  1.00  0.00     0.010 A 
ATOM     39  C   UNL A   1      35.016  33.057  33.544  1.00  0.00     0.010 A 
ATOM     40  C   UNL A   1      36.271  33.684  33.446  1.00  0.00    -0.014 A 
BRANCH  40  41
ATOM     41  C   UNL A   1      37.508  32.917  33.719  1.00  0.00     0.031 A 
ATOM     42  C   UNL A   1      38.256  33.190  34.994  1.00  0.00     0.074 A 
ATOM     43  C   UNL A   1      37.946  31.978  32.864  1.00  0.00     0.049 A 
ATOM     44  N   UNL A   1      39.369  32.663  35.437  1.00  0.00    -0.248 NA
ATOM     45  C   UNL A   1      37.667  34.198  35.892  1.00  0.00     0.031 C 
ATOM     46  C   UNL A   1      37.287  31.596  31.618  1.00  0.00     0.029 A 
ATOM     47  N   UNL A   1      39.059  31.177  32.920  1.00  0.00    -0.354 N 
ATOM     48  C   UNL A   1      39.611  33.271  36.661  1.00  0.00     0.074 A 
ATOM     49  C   UNL A   1      38.552  34.232  36.876  1.00  0.00     0.031 C 
ATOM     50  C   UNL A   1      38.014  30.636  31.020  1.00  0.00     0.029 A 
ATOM     51  C   UNL A   1      39.201  30.358  31.828  1.00  0.00     0.049 A 
ATOM     52  H   UNL A   1      39.695  31.189  33.672  1.00  0.00     0.167 HD
ATOM     53  C   UNL A   1      40.620  33.039  37.534  1.00  0.00     0.037 A 
ATOM     54  C   UNL A   1      40.189  29.497  31.514  1.00  0.00     0.037 A 
ATOM     55  C   UNL A   1      41.681  32.093  37.314  1.00  0.00     0.049 A 
ATOM     56  C   UNL A   1      41.349  29.323  32.461  1.00  0.00     0.074 A 
ATOM     57  C   UNL A   1      42.746  31.781  38.140  1.00  0.00     0.029 A 
ATOM     58  N   UNL A   1      41.814  31.311  36.176  1.00  0.00    -0.354 N 
ATOM     59  N   UNL A   1      41.558  29.880  33.630  1.00  0.00    -0.248 NA
ATOM     60  C   UNL A   1      42.410  28.395  32.042  1.00  0.00     0.031 C 
ATOM     61  C   UNL A   1      43.552  30.846  37.480  1.00  0.00     0.029 A 
ATOM     62  C   UNL A   1      42.959  30.535  36.267  1.00  0.00     0.049 A 
ATOM     63  H   UNL A   1      41.188  31.307  35.416  1.00  0.00     0.167 HD
ATOM     64  C   UNL A   1      42.753  29.347  34.100  1.00  0.00     0.074 A 
ATOM     65  C   UNL A   1      43.219  28.416  33.092  1.00  0.00     0.031 C 
ATOM     66  C   UNL A   1      43.404  29.604  35.262  1.00  0.00     0.037 A 
BRANCH  53  67
ATOM     67  C   UNL A   1      40.633  33.847  38.798  1.00  0.00     0.064 A 
ATOM     68  C   UNL A   1      39.945  33.427  39.946  1.00  0.00     0.173 A 
ATOM     69  C   UNL A   1      41.352  35.050  38.866  1.00  0.00     0.173 A 
ATOM     70  F   UNL A   1      39.229  32.293  39.927  1.00  0.00    -0.203 F 
ATOM     71  C   UNL A   1      39.952  34.196  41.107  1.00  0.00     0.198 A 
ATOM     72  C   UNL A   1      41.381  35.802  40.037  1.00  0.00     0.198 A 
ATOM     73  F   UNL A   1      42.029  35.495  37.797  1.00  0.00    -0.203 F 
ATOM     74  F   UNL A   1      39.246  33.801  42.175  1.00  0.00    -0.200 F 
ATOM     75  C   UNL A   1      40.675  35.379  41.154  1.00  0.00     0.200 A 
ATOM     76  F   UNL A   1      42.088  36.939  40.085  1.00  0.00    -0.200 F 
ATOM     77  F   UNL A   1      40.683  36.118  42.272  1.00  0.00    -0.200 F 
ENDBRANCH  53  67
BRANCH  54  78
ATOM     78  C   UNL A   1      40.128  28.728  30.245  1.00  0.00     0.064 A 
ATOM     79  C   UNL A   1      39.495  27.479  30.189  1.00  0.00     0.173 A 
ATOM     80  C   UNL A   1      40.718  29.214  29.069  1.00  0.00     0.173 A 
ATOM     81  F   UNL A   1      38.939  26.961  31.294  1.00  0.00    -0.203 F 
ATOM     82  C   UNL A   1      39.469  26.737  29.011  1.00  0.00     0.198 A 
ATOM     83  C   UNL A   1      40.669  28.484  27.884  1.00  0.00     0.198 A 
ATOM     84  F   UNL A   1      41.340  30.402  29.070  1.00  0.00    -0.203 F 
ATOM     85  F   UNL A   1      38.895  25.526  28.996  1.00  0.00    -0.200 F 
ATOM     86  C   UNL A   1      40.050  27.242  27.857  1.00  0.00     0.200 A 
ATOM     87  F   UNL A   1      41.224  28.979  26.770  1.00  0.00    -0.200 F 
ATOM     88  F   UNL A   1      40.023  26.529  26.723  1.00  0.00    -0.200 F 
ENDBRANCH  54  78
BRANCH  66  89
ATOM     89  C   UNL A   1      44.667  28.839  35.531  1.00  0.00     0.064 A 
ATOM     90  C   UNL A   1      45.925  29.333  35.156  1.00  0.00     0.173 A 
ATOM     91  C   UNL A   1      44.621  27.615  36.215  1.00  0.00     0.173 A 
ATOM     92  F   UNL A   1      46.023  30.493  34.488  1.00  0.00    -0.203 F 
ATOM     93  C   UNL A   1      47.087  28.619  35.436  1.00  0.00     0.198 A 
ATOM     94  C   UNL A   1      45.787  26.917  36.519  1.00  0.00     0.198 A 
ATOM     95  F   UNL A   1      43.444  27.100  36.603  1.00  0.00    -0.203 F 
ATOM     96  F   UNL A   1      48.275  29.089  35.029  1.00  0.00    -0.200 F 
ATOM     97  C   UNL A   1      47.018  27.416  36.123  1.00  0.00     0.200 A 
ATOM     98  F   UNL A   1      45.719  25.762  37.196  1.00  0.00    -0.200 F 
ATOM     99  F   UNL A   1      48.139  26.735  36.399  1.00  0.00    -0.200 F 
ENDBRANCH  66  89
ENDBRANCH  40  41
ENDBRANCH  33  35
ENDBRANCH  32  33
ENDBRANCH  31  32
ENDBRANCH  30  31
ENDBRANCH  29  30
ENDBRANCH  28  29
ENDBRANCH   1  28
TORSDOF 20
ENDMDL
MODEL 2
REMARK VINA RESULT:     -11.3      6.167     12.093
REMARK SMILES Cc1noc(C[N@H+]2CCC[C@@H](c3ccc(C(=O)OCCOCCOCCOC(=O)c4ccc(-c5c6nc(c(-c7c(F)c(F)c(F)c(F)c7F)c7ccc([nH]7)c(-c7c(F)c(F)c(F)c(F)c7F)c7nc(c(-c8c(F)c(F)c(F)c(F)c8F)c8ccc5[nH]8)C=C7)C=C6)cc4)cc3)C2)n1
REMARK SMILES IDX 22 1 21 2 20 3 19 4 18 5 16 6 17 7 15 8 12 9 13 10 94 11
REMARK SMILES IDX 14 12 93 13 11 14 7 15 8 16 95 17 9 19 10 20 6 21 5 22 1 23
REMARK SMILES IDX 2 24 3 25 96 26 4 27 23 28 24 29 25 30 26 31 27 32 28 33
REMARK SMILES IDX 29 34 30 35 31 36 92 37 32 38 91 39 33 40 34 41 35 42 85 43
REMARK SMILES IDX 36 44 90 45 84 46 86 47 37 48 89 49 83 50 82 51 38 53 70 54
REMARK SMILES IDX 50 55 69 56 51 57 54 58 68 59 87 60 52 61 53 62 67 64 88 65
REMARK SMILES IDX 55 66 39 67 40 68 48 69 41 70 42 71 46 72 49 73 43 74 44 75
REMARK SMILES IDX 47 76 45 77 71 78 72 79 80 80 73 81 74 82 78 83 81 84 75 85
REMARK SMILES IDX 76 86 79 87 77 88 56 89 57 90 65 91 58 92 59 93 63 94 66 95
REMARK SMILES IDX 60 96 61 97 64 98 62 99
REMARK H PARENT 7 18 86 52 54 63
REMARK Flexibility Score: inf
ROOT
ATOM      1  C   UNL A   1      44.841  20.162  24.528  1.00  0.00     0.188 C 
ENDROOT
BRANCH   1   2
ATOM      2  O   UNL A   1      44.297  21.251  23.800  1.00  0.00    -0.376 OA
BRANCH   2   3
ATOM      3  C   UNL A   1      44.495  22.581  24.263  1.00  0.00     0.202 C 
BRANCH   3   4
ATOM      4  C   UNL A   1      43.665  23.125  25.430  1.00  0.00     0.261 C 
BRANCH   4   5
ATOM      5  O   UNL A   1      44.335  24.137  26.194  1.00  0.00    -0.460 OA
BRANCH   5   6
ATOM      6  C   UNL A   1      45.458  23.721  26.829  1.00  0.00     0.338 C 
ATOM      7  O   UNL A   1      46.438  23.200  26.322  1.00  0.00    -0.246 OA
BRANCH   6   8
ATOM      8  C   UNL A   1      45.444  24.168  28.235  1.00  0.00     0.060 A 
ATOM      9  C   UNL A   1      45.182  25.147  30.850  1.00  0.00    -0.039 A 
ATOM     10  C   UNL A   1      44.174  24.349  30.280  1.00  0.00     0.005 A 
ATOM     11  C   UNL A   1      46.366  25.360  30.124  1.00  0.00     0.005 A 
ATOM     12  C   UNL A   1      44.291  23.886  28.975  1.00  0.00     0.016 A 
ATOM     13  C   UNL A   1      46.504  24.862  28.822  1.00  0.00     0.016 A 
BRANCH   9  14
ATOM     14  C   UNL A   1      44.914  25.921  32.139  1.00  0.00     0.074 C 
ATOM     15  N   UNL A   1      43.674  28.014  32.909  1.00  0.00    -0.327 N 
ATOM     16  C   UNL A   1      42.927  27.206  33.881  1.00  0.00     0.262 C 
ATOM     17  C   UNL A   1      44.135  27.207  31.768  1.00  0.00     0.270 C 
ATOM     18  H   UNL A   1      44.498  28.370  33.395  1.00  0.00     0.348 HD
ATOM     19  C   UNL A   1      43.744  26.005  34.361  1.00  0.00     0.062 C 
ATOM     20  C   UNL A   1      44.150  25.108  33.192  1.00  0.00     0.020 C 
BRANCH  15  21
ATOM     21  C   UNL A   1      42.873  29.179  32.431  1.00  0.00     0.364 C 
BRANCH  21  22
ATOM     22  C   UNL A   1      41.382  29.015  32.498  1.00  0.00     0.281 A 
ATOM     23  C   UNL A   1      38.239  27.507  32.116  1.00  0.00     0.093 C 
ATOM     24  C   UNL A   1      39.401  28.348  32.454  1.00  0.00     0.169 A 
ATOM     25  N   UNL A   1      39.408  29.205  33.482  1.00  0.00    -0.063 NA
ATOM     26  N   UNL A   1      40.591  28.235  31.790  1.00  0.00    -0.191 NA
ATOM     27  O   UNL A   1      40.732  29.656  33.514  1.00  0.00    -0.333 OA
ENDBRANCH  21  22
ENDBRANCH  15  21
ENDBRANCH   9  14
ENDBRANCH   6   8
ENDBRANCH   5   6
ENDBRANCH   4   5
ENDBRANCH   3   4
ENDBRANCH   2   3
ENDBRANCH   1   2
BRANCH   1  28
ATOM     28  C   UNL A   1      43.927  19.059  25.102  1.00  0.00     0.188 C 
BRANCH  28  29
ATOM     29  O   UNL A   1      43.077  19.384  26.174  1.00  0.00    -0.376 OA
BRANCH  29  30
ATOM     30  C   UNL A   1      41.708  19.683  25.979  1.00  0.00     0.202 C 
BRANCH  30  31
ATOM     31  C   UNL A   1      40.801  20.489  26.926  1.00  0.00     0.261 C 
BRANCH  31  32
ATOM     32  O   UNL A   1      40.904  21.911  26.910  1.00  0.00    -0.460 OA
BRANCH  32  33
ATOM     33  C   UNL A   1      39.788  22.561  26.504  1.00  0.00     0.338 C 
ATOM     34  O   UNL A   1      38.796  22.086  25.982  1.00  0.00    -0.246 OA
BRANCH  33  35
ATOM     35  C   UNL A   1      39.876  23.966  26.932  1.00  0.00     0.060 A 
ATOM     36  C   UNL A   1      40.415  24.901  26.041  1.00  0.00     0.016 A 
ATOM     37  C   UNL A   1      39.489  24.343  28.220  1.00  0.00     0.016 A 
ATOM     38  C   UNL A   1      40.605  26.219  26.451  1.00  0.00     0.010 A 
ATOM     39  C   UNL A   1      39.696  25.661  28.634  1.00  0.00     0.010 A 
ATOM     40  C   UNL A   1      40.285  26.594  27.763  1.00  0.00    -0.014 A 
BRANCH  40  41
ATOM     41  C   UNL A   1      40.736  27.908  28.278  1.00  0.00     0.031 A 
ATOM     42  C   UNL A   1      42.212  28.186  28.343  1.00  0.00     0.074 A 
ATOM     43  C   UNL A   1      39.853  28.845  28.659  1.00  0.00     0.049 A 
ATOM     44  N   UNL A   1      42.842  29.248  28.776  1.00  0.00    -0.248 NA
ATOM     45  C   UNL A   1      43.099  27.118  27.853  1.00  0.00     0.031 C 
ATOM     46  C   UNL A   1      38.400  28.709  28.606  1.00  0.00     0.029 A 
ATOM     47  N   UNL A   1      40.057  30.102  29.171  1.00  0.00    -0.354 N 
ATOM     48  C   UNL A   1      44.193  28.978  28.609  1.00  0.00     0.074 A 
ATOM     49  C   UNL A   1      44.296  27.639  28.069  1.00  0.00     0.031 C 
ATOM     50  C   UNL A   1      37.841  29.837  29.076  1.00  0.00     0.029 A 
ATOM     51  C   UNL A   1      38.897  30.762  29.487  1.00  0.00     0.049 A 
ATOM     52  H   UNL A   1      40.952  30.493  29.300  1.00  0.00     0.167 HD
ATOM     53  C   UNL A   1      45.253  29.779  28.868  1.00  0.00     0.037 A 
ATOM     54  C   UNL A   1      38.714  31.968  30.059  1.00  0.00     0.037 A 
ATOM     55  C   UNL A   1      45.152  31.105  29.417  1.00  0.00     0.049 A 
ATOM     56  C   UNL A   1      39.914  32.805  30.423  1.00  0.00     0.074 A 
ATOM     57  C   UNL A   1      46.167  31.998  29.712  1.00  0.00     0.029 A 
ATOM     58  N   UNL A   1      43.960  31.724  29.763  1.00  0.00    -0.354 N 
ATOM     59  N   UNL A   1      41.188  32.555  30.237  1.00  0.00    -0.248 NA
ATOM     60  C   UNL A   1      39.647  34.094  31.077  1.00  0.00     0.031 C 
ATOM     61  C   UNL A   1      45.592  33.139  30.283  1.00  0.00     0.029 A 
ATOM     62  C   UNL A   1      44.215  32.979  30.293  1.00  0.00     0.049 A 
ATOM     63  H   UNL A   1      43.065  31.331  29.650  1.00  0.00     0.167 HD
ATOM     64  C   UNL A   1      41.871  33.667  30.717  1.00  0.00     0.074 A 
ATOM     65  C   UNL A   1      40.869  34.596  31.198  1.00  0.00     0.031 C 
ATOM     66  C   UNL A   1      43.207  33.898  30.755  1.00  0.00     0.037 A 
BRANCH  53  67
ATOM     67  C   UNL A   1      46.619  29.225  28.584  1.00  0.00     0.064 A 
ATOM     68  C   UNL A   1      47.151  29.211  27.286  1.00  0.00     0.173 A 
ATOM     69  C   UNL A   1      47.409  28.712  29.624  1.00  0.00     0.173 A 
ATOM     70  F   UNL A   1      46.428  29.674  26.255  1.00  0.00    -0.203 F 
ATOM     71  C   UNL A   1      48.412  28.678  27.035  1.00  0.00     0.198 A 
ATOM     72  C   UNL A   1      48.682  28.207  29.374  1.00  0.00     0.198 A 
ATOM     73  F   UNL A   1      46.948  28.705  30.883  1.00  0.00    -0.203 F 
ATOM     74  F   UNL A   1      48.879  28.628  25.780  1.00  0.00    -0.200 F 
ATOM     75  C   UNL A   1      49.179  28.182  28.080  1.00  0.00     0.200 A 
ATOM     76  F   UNL A   1      49.426  27.738  30.385  1.00  0.00    -0.200 F 
ATOM     77  F   UNL A   1      50.394  27.671  27.837  1.00  0.00    -0.200 F 
ENDBRANCH  53  67
BRANCH  54  78
ATOM     78  C   UNL A   1      37.340  32.464  30.324  1.00  0.00     0.064 A 
ATOM     79  C   UNL A   1      36.610  33.131  29.331  1.00  0.00     0.173 A 
ATOM     80  C   UNL A   1      36.736  32.302  31.580  1.00  0.00     0.173 A 
ATOM     81  F   UNL A   1      37.155  33.332  28.123  1.00  0.00    -0.203 F 
ATOM     82  C   UNL A   1      35.336  33.631  29.587  1.00  0.00     0.198 A 
ATOM     83  C   UNL A   1      35.451  32.779  31.828  1.00  0.00     0.198 A 
ATOM     84  F   UNL A   1      37.394  31.675  32.566  1.00  0.00    -0.203 F 
ATOM     85  F   UNL A   1      34.677  34.302  28.633  1.00  0.00    -0.200 F 
ATOM     86  C   UNL A   1      34.754  33.450  30.833  1.00  0.00     0.200 A 
ATOM     87  F   UNL A   1      34.890  32.595  33.030  1.00  0.00    -0.200 F 
ATOM     88  F   UNL A   1      33.528  33.930  31.079  1.00  0.00    -0.200 F 
ENDBRANCH  54  78
BRANCH  66  89
ATOM     89  C   UNL A   1      43.665  35.222  31.294  1.00  0.00     0.064 A 
ATOM     90  C   UNL A   1      44.029  35.387  32.638  1.00  0.00     0.173 A 
ATOM     91  C   UNL A   1      43.786  36.330  30.441  1.00  0.00     0.173 A 
ATOM     92  F   UNL A   1      43.920  34.363  33.498  1.00  0.00    -0.203 F 
ATOM     93  C   UNL A   1      44.474  36.619  33.113  1.00  0.00     0.198 A 
ATOM     94  C   UNL A   1      44.258  37.551  30.912  1.00  0.00     0.198 A 
ATOM     95  F   UNL A   1      43.458  36.224  29.144  1.00  0.00    -0.203 F 
ATOM     96  F   UNL A   1      44.774  36.766  34.411  1.00  0.00    -0.200 F 
ATOM     97  C   UNL A   1      44.596  37.697  32.249  1.00  0.00     0.200 A 
ATOM     98  F   UNL A   1      44.388  38.588  30.072  1.00  0.00    -0.200 F 
ATOM     99  F   UNL A   1      45.032  38.879  32.706  1.00  0.00    -0.200 F 
ENDBRANCH  66  89
ENDBRANCH  40  41
ENDBRANCH  33  35
ENDBRANCH  32  33
ENDBRANCH  31  32
ENDBRANCH  30  31
ENDBRANCH  29  30
ENDBRANCH  28  29
ENDBRANCH   1  28
TORSDOF 20
ENDMDL
MODEL 3
REMARK VINA RESULT:     -11.0      0.968      2.027
REMARK SMILES Cc1noc(C[N@H+]2CCC[C@@H](c3ccc(C(=O)OCCOCCOCCOC(=O)c4ccc(-c5c6nc(c(-c7c(F)c(F)c(F)c(F)c7F)c7ccc([nH]7)c(-c7c(F)c(F)c(F)c(F)c7F)c7nc(c(-c8c(F)c(F)c(F)c(F)c8F)c8ccc5[nH]8)C=C7)C=C6)cc4)cc3)C2)n1
REMARK SMILES IDX 22 1 21 2 20 3 19 4 18 5 16 6 17 7 15 8 12 9 13 10 94 11
REMARK SMILES IDX 14 12 93 13 11 14 7 15 8 16 95 17 9 19 10 20 6 21 5 22 1 23
REMARK SMILES IDX 2 24 3 25 96 26 4 27 23 28 24 29 25 30 26 31 27 32 28 33
REMARK SMILES IDX 29 34 30 35 31 36 92 37 32 38 91 39 33 40 34 41 35 42 85 43
REMARK SMILES IDX 36 44 90 45 84 46 86 47 37 48 89 49 83 50 82 51 38 53 70 54
REMARK SMILES IDX 50 55 69 56 51 57 54 58 68 59 87 60 52 61 53 62 67 64 88 65
REMARK SMILES IDX 55 66 39 67 40 68 48 69 41 70 42 71 46 72 49 73 43 74 44 75
REMARK SMILES IDX 47 76 45 77 71 78 72 79 80 80 73 81 74 82 78 83 81 84 75 85
REMARK SMILES IDX 76 86 79 87 77 88 56 89 57 90 65 91 58 92 59 93 63 94 66 95
REMARK SMILES IDX 60 96 61 97 64 98 62 99
REMARK H PARENT 7 18 86 52 54 63
REMARK Flexibility Score: inf
ROOT
ATOM      1  C   UNL A   1      35.708  32.134  27.919  1.00  0.00     0.188 C 
ENDROOT
BRANCH   1   2
ATOM      2  O   UNL A   1      36.293  30.856  28.103  1.00  0.00    -0.376 OA
BRANCH   2   3
ATOM      3  C   UNL A   1      35.462  29.718  28.295  1.00  0.00     0.202 C 
BRANCH   3   4
ATOM      4  C   UNL A   1      34.158  29.572  27.505  1.00  0.00     0.261 C 
BRANCH   4   5
ATOM      5  O   UNL A   1      34.354  29.294  26.111  1.00  0.00    -0.460 OA
BRANCH   5   6
ATOM      6  C   UNL A   1      33.269  28.794  25.472  1.00  0.00     0.338 C 
ATOM      7  O   UNL A   1      32.244  29.391  25.188  1.00  0.00    -0.246 OA
BRANCH   6   8
ATOM      8  C   UNL A   1      33.558  27.440  24.961  1.00  0.00     0.060 A 
ATOM      9  C   UNL A   1      33.860  24.874  23.871  1.00  0.00    -0.039 A 
ATOM     10  C   UNL A   1      33.619  25.981  23.039  1.00  0.00     0.005 A 
ATOM     11  C   UNL A   1      34.049  25.091  25.247  1.00  0.00     0.005 A 
ATOM     12  C   UNL A   1      33.442  27.248  23.581  1.00  0.00     0.016 A 
ATOM     13  C   UNL A   1      33.910  26.373  25.791  1.00  0.00     0.016 A 
BRANCH   9  14
ATOM     14  C   UNL A   1      33.726  23.455  23.323  1.00  0.00     0.074 C 
ATOM     15  N   UNL A   1      33.298  21.089  24.179  1.00  0.00    -0.327 N 
ATOM     16  C   UNL A   1      32.159  20.968  23.259  1.00  0.00     0.262 C 
ATOM     17  C   UNL A   1      33.572  22.493  24.527  1.00  0.00     0.270 C 
ATOM     18  H   UNL A   1      34.112  20.722  23.687  1.00  0.00     0.348 HD
ATOM     19  C   UNL A   1      32.364  21.810  21.998  1.00  0.00     0.062 C 
ATOM     20  C   UNL A   1      32.558  23.287  22.342  1.00  0.00     0.020 C 
BRANCH  15  21
ATOM     21  C   UNL A   1      33.093  20.278  25.416  1.00  0.00     0.364 C 
BRANCH  21  22
ATOM     22  C   UNL A   1      33.210  18.791  25.245  1.00  0.00     0.281 A 
ATOM     23  C   UNL A   1      34.723  15.637  25.000  1.00  0.00     0.093 C 
ATOM     24  C   UNL A   1      33.820  16.795  25.121  1.00  0.00     0.169 A 
ATOM     25  N   UNL A   1      32.567  16.700  25.583  1.00  0.00    -0.063 NA
ATOM     26  N   UNL A   1      34.241  18.069  24.856  1.00  0.00    -0.191 NA
ATOM     27  O   UNL A   1      32.153  18.033  25.665  1.00  0.00    -0.333 OA
ENDBRANCH  21  22
ENDBRANCH  15  21
ENDBRANCH   9  14
ENDBRANCH   6   8
ENDBRANCH   5   6
ENDBRANCH   4   5
ENDBRANCH   3   4
ENDBRANCH   2   3
ENDBRANCH   1   2
BRANCH   1  28
ATOM     28  C   UNL A   1      34.649  32.669  28.906  1.00  0.00     0.188 C 
BRANCH  28  29
ATOM     29  O   UNL A   1      33.617  33.482  28.405  1.00  0.00    -0.376 OA
BRANCH  29  30
ATOM     30  C   UNL A   1      33.647  34.892  28.532  1.00  0.00     0.202 C 
BRANCH  30  31
ATOM     31  C   UNL A   1      32.931  35.731  29.605  1.00  0.00     0.261 C 
BRANCH  31  32
ATOM     32  O   UNL A   1      32.461  35.069  30.776  1.00  0.00    -0.460 OA
BRANCH  32  33
ATOM     33  C   UNL A   1      32.749  35.694  31.943  1.00  0.00     0.338 C 
ATOM     34  O   UNL A   1      32.115  36.575  32.493  1.00  0.00    -0.246 OA
BRANCH  33  35
ATOM     35  C   UNL A   1      33.909  35.032  32.561  1.00  0.00     0.060 A 
ATOM     36  C   UNL A   1      35.159  35.654  32.466  1.00  0.00     0.016 A 
ATOM     37  C   UNL A   1      33.774  33.784  33.171  1.00  0.00     0.016 A 
ATOM     38  C   UNL A   1      36.292  35.007  32.952  1.00  0.00     0.010 A 
ATOM     39  C   UNL A   1      34.914  33.130  33.644  1.00  0.00     0.010 A 
ATOM     40  C   UNL A   1      36.181  33.724  33.505  1.00  0.00    -0.014 A 
BRANCH  40  41
ATOM     41  C   UNL A   1      37.405  32.931  33.768  1.00  0.00     0.031 A 
ATOM     42  C   UNL A   1      38.165  33.185  35.040  1.00  0.00     0.074 A 
ATOM     43  C   UNL A   1      37.820  31.989  32.906  1.00  0.00     0.049 A 
ATOM     44  N   UNL A   1      39.270  32.635  35.474  1.00  0.00    -0.248 NA
ATOM     45  C   UNL A   1      37.600  34.199  35.945  1.00  0.00     0.031 C 
ATOM     46  C   UNL A   1      37.148  31.625  31.662  1.00  0.00     0.029 A 
ATOM     47  N   UNL A   1      38.918  31.166  32.952  1.00  0.00    -0.354 N 
ATOM     48  C   UNL A   1      39.531  33.232  36.699  1.00  0.00     0.074 A 
ATOM     49  C   UNL A   1      38.491  34.212  36.925  1.00  0.00     0.031 C 
ATOM     50  C   UNL A   1      37.853  30.654  31.056  1.00  0.00     0.029 A 
ATOM     51  C   UNL A   1      39.038  30.350  31.856  1.00  0.00     0.049 A 
ATOM     52  H   UNL A   1      39.558  31.163  33.701  1.00  0.00     0.167 HD
ATOM     53  C   UNL A   1      40.540  32.977  37.565  1.00  0.00     0.037 A 
ATOM     54  C   UNL A   1      40.008  29.472  31.532  1.00  0.00     0.037 A 
ATOM     55  C   UNL A   1      41.582  32.012  37.335  1.00  0.00     0.049 A 
ATOM     56  C   UNL A   1      41.170  29.271  32.472  1.00  0.00     0.074 A 
ATOM     57  C   UNL A   1      42.645  31.677  38.154  1.00  0.00     0.029 A 
ATOM     58  N   UNL A   1      41.694  31.233  36.193  1.00  0.00    -0.354 N 
ATOM     59  N   UNL A   1      41.396  29.819  33.642  1.00  0.00    -0.248 NA
ATOM     60  C   UNL A   1      42.211  28.326  32.043  1.00  0.00     0.031 C 
ATOM     61  C   UNL A   1      43.429  30.730  37.485  1.00  0.00     0.029 A 
ATOM     62  C   UNL A   1      42.824  30.436  36.274  1.00  0.00     0.049 A 
ATOM     63  H   UNL A   1      41.064  31.245  35.437  1.00  0.00     0.167 HD
ATOM     64  C   UNL A   1      42.584  29.262  34.103  1.00  0.00     0.074 A 
ATOM     65  C   UNL A   1      43.027  28.327  33.088  1.00  0.00     0.031 C 
ATOM     66  C   UNL A   1      43.246  29.501  35.262  1.00  0.00     0.037 A 
BRANCH  53  67
ATOM     67  C   UNL A   1      40.575  33.779  38.833  1.00  0.00     0.064 A 
ATOM     68  C   UNL A   1      41.376  34.924  38.956  1.00  0.00     0.173 A 
ATOM     69  C   UNL A   1      39.789  33.405  39.934  1.00  0.00     0.173 A 
ATOM     70  F   UNL A   1      42.159  35.314  37.939  1.00  0.00    -0.203 F 
ATOM     71  C   UNL A   1      41.411  35.649  40.144  1.00  0.00     0.198 A 
ATOM     72  C   UNL A   1      39.805  34.149  41.110  1.00  0.00     0.198 A 
ATOM     73  F   UNL A   1      39.004  32.320  39.867  1.00  0.00    -0.203 F 
ATOM     74  F   UNL A   1      42.223  36.710  40.257  1.00  0.00    -0.200 F 
ATOM     75  C   UNL A   1      40.621  35.265  41.218  1.00  0.00     0.200 A 
ATOM     76  F   UNL A   1      39.033  33.783  42.143  1.00  0.00    -0.200 F 
ATOM     77  F   UNL A   1      40.654  35.965  42.361  1.00  0.00    -0.200 F 
ENDBRANCH  53  67
BRANCH  54  78
ATOM     78  C   UNL A   1      39.926  28.710  30.260  1.00  0.00     0.064 A 
ATOM     79  C   UNL A   1      39.318  27.448  30.214  1.00  0.00     0.173 A 
ATOM     80  C   UNL A   1      40.470  29.216  29.070  1.00  0.00     0.173 A 
ATOM     81  F   UNL A   1      38.805  26.912  31.331  1.00  0.00    -0.203 F 
ATOM     82  C   UNL A   1      39.272  26.714  29.032  1.00  0.00     0.198 A 
ATOM     83  C   UNL A   1      40.402  28.493  27.882  1.00  0.00     0.198 A 
ATOM     84  F   UNL A   1      41.068  30.417  29.062  1.00  0.00    -0.203 F 
ATOM     85  F   UNL A   1      38.723  25.492  29.025  1.00  0.00    -0.200 F 
ATOM     86  C   UNL A   1      39.808  27.239  27.865  1.00  0.00     0.200 A 
ATOM     87  F   UNL A   1      40.913  29.007  26.756  1.00  0.00    -0.200 F 
ATOM     88  F   UNL A   1      39.763  26.533  26.727  1.00  0.00    -0.200 F 
ENDBRANCH  54  78
BRANCH  66  89
ATOM     89  C   UNL A   1      44.495  28.711  35.521  1.00  0.00     0.064 A 
ATOM     90  C   UNL A   1      44.466  27.477  36.187  1.00  0.00     0.173 A 
ATOM     91  C   UNL A   1      45.735  29.174  35.054  1.00  0.00     0.173 A 
ATOM     92  F   UNL A   1      43.309  26.995  36.664  1.00  0.00    -0.203 F 
ATOM     93  C   UNL A   1      45.634  26.749  36.396  1.00  0.00     0.198 A 
ATOM     94  C   UNL A   1      46.897  28.430  35.239  1.00  0.00     0.198 A 
ATOM     95  F   UNL A   1      45.818  30.346  34.403  1.00  0.00    -0.203 F 
ATOM     96  F   UNL A   1      45.589  25.593  37.075  1.00  0.00    -0.200 F 
ATOM     97  C   UNL A   1      46.847  27.221  35.916  1.00  0.00     0.200 A 
ATOM     98  F   UNL A   1      48.065  28.882  34.762  1.00  0.00    -0.200 F 
ATOM     99  F   UNL A   1      47.968  26.515  36.112  1.00  0.00    -0.200 F 
ENDBRANCH  66  89
ENDBRANCH  40  41
ENDBRANCH  33  35
ENDBRANCH  32  33
ENDBRANCH  31  32
ENDBRANCH  30  31
ENDBRANCH  29  30
ENDBRANCH  28  29
ENDBRANCH   1  28
TORSDOF 20
ENDMDL
