MODEL 1
REMARK VINA RESULT:     -10.8      0.000      0.000
REMARK SMILES C[C@@H]1CCCN(C(=O)NC2(CC(=O)OCCOCCOCCOC(=O)c3ccc(-c4c5nc(c(-c6c(F)c(F)c(F)c(F)c6F)c6ccc([nH]6)c(-c6c(F)c(F)c(F)c(F)c6F)c6nc(c(-c7c(F)c(F)c(F)c(F)c7F)c7ccc4[nH]7)C=C6)C=C5)cc3)CCC2)[C@@H]1C
REMARK SMILES IDX 18 1 17 2 16 3 15 4 14 5 12 6 13 7 11 8 10 9 89 10 91 11
REMARK SMILES IDX 90 12 9 13 7 14 8 15 6 17 1 18 2 19 3 20 92 21 4 22 93 23
REMARK SMILES IDX 5 24 19 25 20 26 21 27 22 28 23 29 24 30 25 31 26 32 27 33
REMARK SMILES IDX 88 34 28 35 87 36 29 37 30 38 31 39 81 40 32 41 86 42 80 43
REMARK SMILES IDX 82 44 33 45 85 46 79 47 78 48 34 50 66 51 46 52 65 53 47 54
REMARK SMILES IDX 50 55 64 56 83 57 48 58 49 59 63 61 84 62 51 63 35 64 36 65
REMARK SMILES IDX 44 66 37 67 38 68 42 69 45 70 39 71 40 72 43 73 41 74 67 75
REMARK SMILES IDX 68 76 76 77 69 78 70 79 74 80 77 81 71 82 72 83 75 84 73 85
REMARK SMILES IDX 52 86 53 87 61 88 54 89 55 90 59 91 62 92 56 93 57 94 60 95
REMARK SMILES IDX 58 96
REMARK H PARENT 9 16 82 49 50 60
REMARK Flexibility Score: inf
ROOT
ATOM      1  C   UNL A   1      34.169  32.347  28.781  1.00  0.00     0.188 C 
ENDROOT
BRANCH   1   2
ATOM      2  O   UNL A   1      34.641  31.872  27.522  1.00  0.00    -0.376 OA
BRANCH   2   3
ATOM      3  C   UNL A   1      34.704  30.480  27.281  1.00  0.00     0.202 C 
BRANCH   3   4
ATOM      4  C   UNL A   1      33.347  29.775  27.265  1.00  0.00     0.261 C 
BRANCH   4   5
ATOM      5  O   UNL A   1      33.113  28.948  26.110  1.00  0.00    -0.463 OA
BRANCH   5   6
ATOM      6  C   UNL A   1      32.347  29.497  25.139  1.00  0.00     0.308 C 
ATOM      7  O   UNL A   1      31.477  30.339  25.335  1.00  0.00    -0.252 OA
BRANCH   6   8
ATOM      8  C   UNL A   1      32.513  28.858  23.787  1.00  0.00     0.151 C 
BRANCH   8   9
ATOM      9  C   UNL A   1      31.576  27.743  23.233  1.00  0.00     0.052 C 
ATOM     10  C   UNL A   1      30.580  28.487  22.295  1.00  0.00     0.029 C 
ATOM     11  C   UNL A   1      30.372  27.288  24.094  1.00  0.00     0.029 C 
ATOM     12  C   UNL A   1      29.498  28.337  23.379  1.00  0.00     0.005 C 
BRANCH   9  13
ATOM     13  N   UNL A   1      32.379  26.690  22.546  1.00  0.00    -0.332 N 
ATOM     14  C   UNL A   1      32.744  25.389  22.594  1.00  0.00     0.318 C 
ATOM     15  O   UNL A   1      33.451  25.088  21.624  1.00  0.00    -0.249 OA
ATOM     16  H   UNL A   1      32.804  27.098  21.757  1.00  0.00     0.165 HD
BRANCH  14  17
ATOM     17  N   UNL A   1      32.432  24.463  23.544  1.00  0.00    -0.322 N 
ATOM     18  C   UNL A   1      35.442  23.347  23.435  1.00  0.00     0.010 C 
ATOM     19  C   UNL A   1      34.305  23.016  24.404  1.00  0.00     0.008 C 
ATOM     20  C   UNL A   1      33.499  21.789  23.921  1.00  0.00     0.007 C 
ATOM     21  C   UNL A   1      33.350  24.210  24.697  1.00  0.00     0.086 C 
ATOM     22  C   UNL A   1      32.435  22.135  22.877  1.00  0.00     0.022 C 
ATOM     23  C   UNL A   1      34.048  25.412  25.338  1.00  0.00     0.031 C 
ATOM     24  C   UNL A   1      31.575  23.308  23.350  1.00  0.00     0.121 C 
ENDBRANCH  14  17
ENDBRANCH   9  13
ENDBRANCH   8   9
ENDBRANCH   6   8
ENDBRANCH   5   6
ENDBRANCH   4   5
ENDBRANCH   3   4
ENDBRANCH   2   3
ENDBRANCH   1   2
BRANCH   1  25
ATOM     25  C   UNL A   1      34.232  33.836  29.160  1.00  0.00     0.188 C 
BRANCH  25  26
ATOM     26  O   UNL A   1      32.948  34.455  29.173  1.00  0.00    -0.376 OA
BRANCH  26  27
ATOM     27  C   UNL A   1      32.964  35.838  28.838  1.00  0.00     0.202 C 
BRANCH  27  28
ATOM     28  C   UNL A   1      33.010  36.699  30.100  1.00  0.00     0.261 C 
BRANCH  28  29
ATOM     29  O   UNL A   1      32.068  36.275  31.103  1.00  0.00    -0.460 OA
BRANCH  29  30
ATOM     30  C   UNL A   1      32.510  36.279  32.375  1.00  0.00     0.338 C 
ATOM     31  O   UNL A   1      32.034  36.886  33.322  1.00  0.00    -0.246 OA
BRANCH  30  32
ATOM     32  C   UNL A   1      33.653  35.354  32.474  1.00  0.00     0.060 A 
ATOM     33  C   UNL A   1      33.423  34.034  32.856  1.00  0.00     0.016 A 
ATOM     34  C   UNL A   1      34.954  35.803  32.266  1.00  0.00     0.016 A 
ATOM     35  C   UNL A   1      34.488  33.162  33.093  1.00  0.00     0.010 A 
ATOM     36  C   UNL A   1      36.025  34.926  32.482  1.00  0.00     0.010 A 
ATOM     37  C   UNL A   1      35.803  33.609  32.931  1.00  0.00    -0.014 A 
BRANCH  37  38
ATOM     38  C   UNL A   1      36.957  32.771  33.358  1.00  0.00     0.031 A 
ATOM     39  C   UNL A   1      37.581  33.026  34.704  1.00  0.00     0.074 A 
ATOM     40  C   UNL A   1      37.455  31.796  32.575  1.00  0.00     0.049 A 
ATOM     41  N   UNL A   1      38.712  32.589  35.197  1.00  0.00    -0.248 NA
ATOM     42  C   UNL A   1      36.823  33.899  35.614  1.00  0.00     0.031 C 
ATOM     43  C   UNL A   1      36.901  31.372  31.292  1.00  0.00     0.029 A 
ATOM     44  N   UNL A   1      38.560  30.996  32.745  1.00  0.00    -0.354 N 
ATOM     45  C   UNL A   1      38.821  33.169  36.454  1.00  0.00     0.074 A 
ATOM     46  C   UNL A   1      37.645  33.989  36.649  1.00  0.00     0.031 C 
ATOM     47  C   UNL A   1      37.675  30.399  30.783  1.00  0.00     0.029 A 
ATOM     48  C   UNL A   1      38.815  30.177  31.672  1.00  0.00     0.049 A 
ATOM     49  H   UNL A   1      39.116  31.009  33.557  1.00  0.00     0.167 HD
ATOM     50  C   UNL A   1      39.817  33.032  37.363  1.00  0.00     0.037 A 
ATOM     51  C   UNL A   1      39.870  29.379  31.413  1.00  0.00     0.037 A 
ATOM     52  C   UNL A   1      40.970  32.189  37.186  1.00  0.00     0.049 A 
ATOM     53  C   UNL A   1      41.007  29.304  32.400  1.00  0.00     0.074 A 
ATOM     54  C   UNL A   1      42.032  31.982  38.049  1.00  0.00     0.029 A 
ATOM     55  N   UNL A   1      41.207  31.404  36.067  1.00  0.00    -0.354 N 
ATOM     56  N   UNL A   1      41.136  29.894  33.563  1.00  0.00    -0.248 NA
ATOM     57  C   UNL A   1      42.154  28.462  32.028  1.00  0.00     0.031 C 
ATOM     58  C   UNL A   1      42.932  31.103  37.437  1.00  0.00     0.029 A 
ATOM     59  C   UNL A   1      42.408  30.727  36.211  1.00  0.00     0.049 A 
ATOM     60  H   UNL A   1      40.611  31.337  35.287  1.00  0.00     0.167 HD
ATOM     61  C   UNL A   1      42.363  29.480  34.070  1.00  0.00     0.074 A 
ATOM     62  C   UNL A   1      42.934  28.577  33.094  1.00  0.00     0.031 C 
ATOM     63  C   UNL A   1      42.961  29.821  35.238  1.00  0.00     0.037 A 
BRANCH  50  64
ATOM     64  C   UNL A   1      39.725  33.848  38.619  1.00  0.00     0.064 A 
ATOM     65  C   UNL A   1      40.356  35.093  38.743  1.00  0.00     0.173 A 
ATOM     66  C   UNL A   1      38.967  33.383  39.705  1.00  0.00     0.173 A 
ATOM     67  F   UNL A   1      41.103  35.575  37.739  1.00  0.00    -0.203 F 
ATOM     68  C   UNL A   1      40.251  35.833  39.919  1.00  0.00     0.198 A 
ATOM     69  C   UNL A   1      38.843  34.137  40.868  1.00  0.00     0.198 A 
ATOM     70  F   UNL A   1      38.340  32.198  39.635  1.00  0.00    -0.203 F 
ATOM     71  F   UNL A   1      40.899  37.002  40.034  1.00  0.00    -0.200 F 
ATOM     72  C   UNL A   1      39.490  35.357  40.977  1.00  0.00     0.200 A 
ATOM     73  F   UNL A   1      38.097  33.680  41.884  1.00  0.00    -0.200 F 
ATOM     74  F   UNL A   1      39.387  36.073  42.105  1.00  0.00    -0.200 F 
ENDBRANCH  50  64
BRANCH  51  75
ATOM     75  C   UNL A   1      39.931  28.619  30.136  1.00  0.00     0.064 A 
ATOM     76  C   UNL A   1      40.501  29.182  28.986  1.00  0.00     0.173 A 
ATOM     77  C   UNL A   1      39.395  27.327  30.032  1.00  0.00     0.173 A 
ATOM     78  F   UNL A   1      40.993  30.429  29.025  1.00  0.00    -0.203 F 
ATOM     79  C   UNL A   1      40.523  28.485  27.779  1.00  0.00     0.198 A 
ATOM     80  C   UNL A   1      39.444  26.620  28.833  1.00  0.00     0.198 A 
ATOM     81  F   UNL A   1      38.825  26.748  31.100  1.00  0.00    -0.203 F 
ATOM     82  F   UNL A   1      41.030  29.066  26.682  1.00  0.00    -0.200 F 
ATOM     83  C   UNL A   1      40.001  27.202  27.706  1.00  0.00     0.200 A 
ATOM     84  F   UNL A   1      38.943  25.379  28.768  1.00  0.00    -0.200 F 
ATOM     85  F   UNL A   1      40.023  26.533  26.544  1.00  0.00    -0.200 F 
ENDBRANCH  51  75
BRANCH  63  86
ATOM     86  C   UNL A   1      44.286  29.187  35.547  1.00  0.00     0.064 A 
ATOM     87  C   UNL A   1      44.376  27.944  36.191  1.00  0.00     0.173 A 
ATOM     88  C   UNL A   1      45.480  29.810  35.150  1.00  0.00     0.173 A 
ATOM     89  F   UNL A   1      43.265  27.316  36.602  1.00  0.00    -0.203 F 
ATOM     90  C   UNL A   1      45.614  27.358  36.444  1.00  0.00     0.198 A 
ATOM     91  C   UNL A   1      46.714  29.209  35.382  1.00  0.00     0.198 A 
ATOM     92  F   UNL A   1      45.448  30.996  34.525  1.00  0.00    -0.203 F 
ATOM     93  F   UNL A   1      45.679  26.189  37.096  1.00  0.00    -0.200 F 
ATOM     94  C   UNL A   1      46.780  27.986  36.032  1.00  0.00     0.200 A 
ATOM     95  F   UNL A   1      47.839  29.811  34.972  1.00  0.00    -0.200 F 
ATOM     96  F   UNL A   1      47.969  27.416  36.270  1.00  0.00    -0.200 F 
ENDBRANCH  63  86
ENDBRANCH  37  38
ENDBRANCH  30  32
ENDBRANCH  29  30
ENDBRANCH  28  29
ENDBRANCH  27  28
ENDBRANCH  26  27
ENDBRANCH  25  26
ENDBRANCH   1  25
TORSDOF 20
ENDMDL
MODEL 2
REMARK VINA RESULT:     -10.8      5.106      7.684
REMARK SMILES C[C@@H]1CCCN(C(=O)NC2(CC(=O)OCCOCCOCCOC(=O)c3ccc(-c4c5nc(c(-c6c(F)c(F)c(F)c(F)c6F)c6ccc([nH]6)c(-c6c(F)c(F)c(F)c(F)c6F)c6nc(c(-c7c(F)c(F)c(F)c(F)c7F)c7ccc4[nH]7)C=C6)C=C5)cc3)CCC2)[C@@H]1C
REMARK SMILES IDX 18 1 17 2 16 3 15 4 14 5 12 6 13 7 11 8 10 9 89 10 91 11
REMARK SMILES IDX 90 12 9 13 7 14 8 15 6 17 1 18 2 19 3 20 92 21 4 22 93 23
REMARK SMILES IDX 5 24 19 25 20 26 21 27 22 28 23 29 24 30 25 31 26 32 27 33
REMARK SMILES IDX 88 34 28 35 87 36 29 37 30 38 31 39 81 40 32 41 86 42 80 43
REMARK SMILES IDX 82 44 33 45 85 46 79 47 78 48 34 50 66 51 46 52 65 53 47 54
REMARK SMILES IDX 50 55 64 56 83 57 48 58 49 59 63 61 84 62 51 63 35 64 36 65
REMARK SMILES IDX 44 66 37 67 38 68 42 69 45 70 39 71 40 72 43 73 41 74 67 75
REMARK SMILES IDX 68 76 76 77 69 78 70 79 74 80 77 81 71 82 72 83 75 84 73 85
REMARK SMILES IDX 52 86 53 87 61 88 54 89 55 90 59 91 62 92 56 93 57 94 60 95
REMARK SMILES IDX 58 96
REMARK H PARENT 9 16 82 49 50 60
REMARK Flexibility Score: inf
ROOT
ATOM      1  C   UNL A   1      33.866  32.504  28.147  1.00  0.00     0.188 C 
ENDROOT
BRANCH   1   2
ATOM      2  O   UNL A   1      34.471  31.547  27.279  1.00  0.00    -0.376 OA
BRANCH   2   3
ATOM      3  C   UNL A   1      33.784  30.349  26.976  1.00  0.00     0.202 C 
BRANCH   3   4
ATOM      4  C   UNL A   1      32.265  30.497  26.864  1.00  0.00     0.261 C 
BRANCH   4   5
ATOM      5  O   UNL A   1      31.696  29.957  25.657  1.00  0.00    -0.463 OA
BRANCH   5   6
ATOM      6  C   UNL A   1      31.573  28.611  25.616  1.00  0.00     0.308 C 
ATOM      7  O   UNL A   1      31.462  27.894  26.605  1.00  0.00    -0.252 OA
BRANCH   6   8
ATOM      8  C   UNL A   1      31.769  28.015  24.248  1.00  0.00     0.151 C 
BRANCH   8   9
ATOM      9  C   UNL A   1      33.077  27.303  23.791  1.00  0.00     0.052 C 
ATOM     10  C   UNL A   1      34.136  28.441  23.686  1.00  0.00     0.029 C 
ATOM     11  C   UNL A   1      33.281  27.021  22.283  1.00  0.00     0.029 C 
ATOM     12  C   UNL A   1      34.007  28.373  22.153  1.00  0.00     0.005 C 
BRANCH   9  13
ATOM     13  N   UNL A   1      33.444  26.228  24.757  1.00  0.00    -0.332 N 
ATOM     14  C   UNL A   1      33.595  24.892  24.900  1.00  0.00     0.318 C 
ATOM     15  O   UNL A   1      33.997  24.607  26.035  1.00  0.00    -0.249 OA
ATOM     16  H   UNL A   1      33.657  26.653  25.620  1.00  0.00     0.165 HD
BRANCH  14  17
ATOM     17  N   UNL A   1      33.357  23.916  23.979  1.00  0.00    -0.322 N 
ATOM     18  C   UNL A   1      31.571  22.333  26.129  1.00  0.00     0.010 C 
ATOM     19  C   UNL A   1      31.768  22.075  24.633  1.00  0.00     0.008 C 
ATOM     20  C   UNL A   1      32.919  21.074  24.386  1.00  0.00     0.007 C 
ATOM     21  C   UNL A   1      31.980  23.364  23.787  1.00  0.00     0.086 C 
ATOM     22  C   UNL A   1      34.303  21.727  24.399  1.00  0.00     0.022 C 
ATOM     23  C   UNL A   1      30.800  24.338  23.846  1.00  0.00     0.031 C 
ATOM     24  C   UNL A   1      34.330  22.957  23.491  1.00  0.00     0.121 C 
ENDBRANCH  14  17
ENDBRANCH   9  13
ENDBRANCH   8   9
ENDBRANCH   6   8
ENDBRANCH   5   6
ENDBRANCH   4   5
ENDBRANCH   3   4
ENDBRANCH   2   3
ENDBRANCH   1   2
BRANCH   1  25
ATOM     25  C   UNL A   1      34.085  34.015  27.965  1.00  0.00     0.188 C 
BRANCH  25  26
ATOM     26  O   UNL A   1      34.655  34.630  29.117  1.00  0.00    -0.376 OA
BRANCH  26  27
ATOM     27  C   UNL A   1      33.770  34.718  30.228  1.00  0.00     0.202 C 
BRANCH  27  28
ATOM     28  C   UNL A   1      34.436  34.177  31.494  1.00  0.00     0.261 C 
BRANCH  28  29
ATOM     29  O   UNL A   1      34.702  32.763  31.427  1.00  0.00    -0.460 OA
BRANCH  29  30
ATOM     30  C   UNL A   1      35.530  32.268  32.366  1.00  0.00     0.338 C 
ATOM     31  O   UNL A   1      35.419  32.370  33.579  1.00  0.00    -0.246 OA
BRANCH  30  32
ATOM     32  C   UNL A   1      36.590  31.497  31.693  1.00  0.00     0.060 A 
ATOM     33  C   UNL A   1      37.333  30.580  32.435  1.00  0.00     0.016 A 
ATOM     34  C   UNL A   1      36.904  31.731  30.357  1.00  0.00     0.016 A 
ATOM     35  C   UNL A   1      38.433  29.930  31.871  1.00  0.00     0.010 A 
ATOM     36  C   UNL A   1      37.994  31.065  29.782  1.00  0.00     0.010 A 
ATOM     37  C   UNL A   1      38.789  30.186  30.543  1.00  0.00    -0.014 A 
BRANCH  37  38
ATOM     38  C   UNL A   1      40.060  29.661  29.974  1.00  0.00     0.031 A 
ATOM     39  C   UNL A   1      41.244  30.584  29.869  1.00  0.00     0.074 A 
ATOM     40  C   UNL A   1      40.178  28.387  29.554  1.00  0.00     0.049 A 
ATOM     41  N   UNL A   1      42.369  30.430  29.217  1.00  0.00    -0.248 NA
ATOM     42  C   UNL A   1      41.138  31.858  30.595  1.00  0.00     0.031 C 
ATOM     43  C   UNL A   1      39.152  27.355  29.677  1.00  0.00     0.029 A 
ATOM     44  N   UNL A   1      41.218  27.753  28.916  1.00  0.00    -0.354 N 
ATOM     45  C   UNL A   1      43.084  31.603  29.418  1.00  0.00     0.074 A 
ATOM     46  C   UNL A   1      42.267  32.460  30.251  1.00  0.00     0.031 C 
ATOM     47  C   UNL A   1      39.607  26.219  29.121  1.00  0.00     0.029 A 
ATOM     48  C   UNL A   1      40.929  26.463  28.545  1.00  0.00     0.049 A 
ATOM     49  H   UNL A   1      42.086  28.183  28.741  1.00  0.00     0.167 HD
ATOM     50  C   UNL A   1      44.310  31.936  28.948  1.00  0.00     0.037 A 
ATOM     51  C   UNL A   1      41.628  25.595  27.785  1.00  0.00     0.037 A 
ATOM     52  C   UNL A   1      45.137  31.071  28.149  1.00  0.00     0.049 A 
ATOM     53  C   UNL A   1      42.954  26.015  27.203  1.00  0.00     0.074 A 
ATOM     54  C   UNL A   1      46.395  31.317  27.626  1.00  0.00     0.029 A 
ATOM     55  N   UNL A   1      44.791  29.784  27.765  1.00  0.00    -0.354 N 
ATOM     56  N   UNL A   1      43.604  27.144  27.348  1.00  0.00    -0.248 NA
ATOM     57  C   UNL A   1      43.634  25.043  26.334  1.00  0.00     0.031 C 
ATOM     58  C   UNL A   1      46.793  30.195  26.891  1.00  0.00     0.029 A 
ATOM     59  C   UNL A   1      45.803  29.232  26.996  1.00  0.00     0.049 A 
ATOM     60  H   UNL A   1      43.951  29.329  28.004  1.00  0.00     0.167 HD
ATOM     61  C   UNL A   1      44.775  27.010  26.611  1.00  0.00     0.074 A 
ATOM     62  C   UNL A   1      44.753  25.685  26.030  1.00  0.00     0.031 C 
ATOM     63  C   UNL A   1      45.775  27.907  26.432  1.00  0.00     0.037 A 
BRANCH  50  64
ATOM     64  C   UNL A   1      44.815  33.317  29.248  1.00  0.00     0.064 A 
ATOM     65  C   UNL A   1      45.607  33.590  30.372  1.00  0.00     0.173 A 
ATOM     66  C   UNL A   1      44.519  34.378  28.378  1.00  0.00     0.173 A 
ATOM     67  F   UNL A   1      45.905  32.613  31.241  1.00  0.00    -0.203 F 
ATOM     68  C   UNL A   1      46.066  34.880  30.626  1.00  0.00     0.198 A 
ATOM     69  C   UNL A   1      45.003  35.660  28.621  1.00  0.00     0.198 A 
ATOM     70  F   UNL A   1      43.768  34.168  27.286  1.00  0.00    -0.203 F 
ATOM     71  F   UNL A   1      46.786  35.128  31.730  1.00  0.00    -0.200 F 
ATOM     72  C   UNL A   1      45.769  35.912  29.747  1.00  0.00     0.200 A 
ATOM     73  F   UNL A   1      44.724  36.653  27.764  1.00  0.00    -0.200 F 
ATOM     74  F   UNL A   1      46.215  37.151  29.992  1.00  0.00    -0.200 F 
ENDBRANCH  50  64
BRANCH  51  75
ATOM     75  C   UNL A   1      41.066  24.251  27.485  1.00  0.00     0.064 A 
ATOM     76  C   UNL A   1      41.634  23.092  28.030  1.00  0.00     0.173 A 
ATOM     77  C   UNL A   1      39.969  24.098  26.624  1.00  0.00     0.173 A 
ATOM     78  F   UNL A   1      42.707  23.184  28.829  1.00  0.00    -0.203 F 
ATOM     79  C   UNL A   1      41.132  21.830  27.718  1.00  0.00     0.198 A 
ATOM     80  C   UNL A   1      39.450  22.837  26.335  1.00  0.00     0.198 A 
ATOM     81  F   UNL A   1      39.398  25.174  26.064  1.00  0.00    -0.203 F 
ATOM     82  F   UNL A   1      41.725  20.734  28.213  1.00  0.00    -0.200 F 
ATOM     83  C   UNL A   1      40.036  21.704  26.876  1.00  0.00     0.200 A 
ATOM     84  F   UNL A   1      38.388  22.721  25.526  1.00  0.00    -0.200 F 
ATOM     85  F   UNL A   1      39.555  20.490  26.576  1.00  0.00    -0.200 F 
ENDBRANCH  51  75
BRANCH  63  86
ATOM     86  C   UNL A   1      46.951  27.475  25.604  1.00  0.00     0.064 A 
ATOM     87  C   UNL A   1      47.037  27.772  24.237  1.00  0.00     0.173 A 
ATOM     88  C   UNL A   1      48.027  26.798  26.199  1.00  0.00     0.173 A 
ATOM     89  F   UNL A   1      46.030  28.406  23.619  1.00  0.00    -0.203 F 
ATOM     90  C   UNL A   1      48.149  27.389  23.491  1.00  0.00     0.198 A 
ATOM     91  C   UNL A   1      49.147  26.438  25.456  1.00  0.00     0.198 A 
ATOM     92  F   UNL A   1      47.996  26.496  27.506  1.00  0.00    -0.203 F 
ATOM     93  F   UNL A   1      48.194  27.647  22.176  1.00  0.00    -0.200 F 
ATOM     94  C   UNL A   1      49.205  26.730  24.102  1.00  0.00     0.200 A 
ATOM     95  F   UNL A   1      50.173  25.813  26.051  1.00  0.00    -0.200 F 
ATOM     96  F   UNL A   1      50.278  26.368  23.383  1.00  0.00    -0.200 F 
ENDBRANCH  63  86
ENDBRANCH  37  38
ENDBRANCH  30  32
ENDBRANCH  29  30
ENDBRANCH  28  29
ENDBRANCH  27  28
ENDBRANCH  26  27
ENDBRANCH  25  26
ENDBRANCH   1  25
TORSDOF 20
ENDMDL
MODEL 3
REMARK VINA RESULT:     -10.6      2.763      8.525
REMARK SMILES C[C@@H]1CCCN(C(=O)NC2(CC(=O)OCCOCCOCCOC(=O)c3ccc(-c4c5nc(c(-c6c(F)c(F)c(F)c(F)c6F)c6ccc([nH]6)c(-c6c(F)c(F)c(F)c(F)c6F)c6nc(c(-c7c(F)c(F)c(F)c(F)c7F)c7ccc4[nH]7)C=C6)C=C5)cc3)CCC2)[C@@H]1C
REMARK SMILES IDX 18 1 17 2 16 3 15 4 14 5 12 6 13 7 11 8 10 9 89 10 91 11
REMARK SMILES IDX 90 12 9 13 7 14 8 15 6 17 1 18 2 19 3 20 92 21 4 22 93 23
REMARK SMILES IDX 5 24 19 25 20 26 21 27 22 28 23 29 24 30 25 31 26 32 27 33
REMARK SMILES IDX 88 34 28 35 87 36 29 37 30 38 31 39 81 40 32 41 86 42 80 43
REMARK SMILES IDX 82 44 33 45 85 46 79 47 78 48 34 50 66 51 46 52 65 53 47 54
REMARK SMILES IDX 50 55 64 56 83 57 48 58 49 59 63 61 84 62 51 63 35 64 36 65
REMARK SMILES IDX 44 66 37 67 38 68 42 69 45 70 39 71 40 72 43 73 41 74 67 75
REMARK SMILES IDX 68 76 76 77 69 78 70 79 74 80 77 81 71 82 72 83 75 84 73 85
REMARK SMILES IDX 52 86 53 87 61 88 54 89 55 90 59 91 62 92 56 93 57 94 60 95
REMARK SMILES IDX 58 96
REMARK H PARENT 9 16 82 49 50 60
REMARK Flexibility Score: inf
ROOT
ATOM      1  C   UNL A   1      28.932  28.738  22.993  1.00  0.00     0.188 C 
ENDROOT
BRANCH   1   2
ATOM      2  O   UNL A   1      29.356  27.382  22.865  1.00  0.00    -0.376 OA
BRANCH   2   3
ATOM      3  C   UNL A   1      29.037  26.453  23.883  1.00  0.00     0.202 C 
BRANCH   3   4
ATOM      4  C   UNL A   1      30.174  26.171  24.865  1.00  0.00     0.261 C 
BRANCH   4   5
ATOM      5  O   UNL A   1      29.776  25.479  26.064  1.00  0.00    -0.463 OA
BRANCH   5   6
ATOM      6  C   UNL A   1      30.677  24.602  26.564  1.00  0.00     0.308 C 
ATOM      7  O   UNL A   1      30.385  23.597  27.202  1.00  0.00    -0.252 OA
BRANCH   6   8
ATOM      8  C   UNL A   1      32.108  25.050  26.437  1.00  0.00     0.151 C 
BRANCH   8   9
ATOM      9  C   UNL A   1      33.191  24.275  25.627  1.00  0.00     0.052 C 
ATOM     10  C   UNL A   1      34.401  25.252  25.541  1.00  0.00     0.029 C 
ATOM     11  C   UNL A   1      33.114  24.288  24.082  1.00  0.00     0.029 C 
ATOM     12  C   UNL A   1      34.033  25.525  24.071  1.00  0.00     0.005 C 
BRANCH   9  13
ATOM     13  N   UNL A   1      33.508  22.982  26.299  1.00  0.00    -0.332 N 
ATOM     14  C   UNL A   1      34.012  21.743  26.101  1.00  0.00     0.318 C 
ATOM     15  O   UNL A   1      34.052  21.103  27.160  1.00  0.00    -0.249 OA
ATOM     16  H   UNL A   1      33.256  23.060  27.247  1.00  0.00     0.165 HD
BRANCH  14  17
ATOM     17  N   UNL A   1      34.437  21.185  24.933  1.00  0.00    -0.322 N 
ATOM     18  C   UNL A   1      32.895  18.468  25.677  1.00  0.00     0.010 C 
ATOM     19  C   UNL A   1      33.580  18.884  24.374  1.00  0.00     0.008 C 
ATOM     20  C   UNL A   1      35.051  18.409  24.339  1.00  0.00     0.007 C 
ATOM     21  C   UNL A   1      33.496  20.408  24.068  1.00  0.00     0.086 C 
ATOM     22  C   UNL A   1      36.008  19.347  25.078  1.00  0.00     0.022 C 
ATOM     23  C   UNL A   1      32.063  20.926  23.919  1.00  0.00     0.031 C 
ATOM     24  C   UNL A   1      35.801  20.794  24.628  1.00  0.00     0.121 C 
ENDBRANCH  14  17
ENDBRANCH   9  13
ENDBRANCH   8   9
ENDBRANCH   6   8
ENDBRANCH   5   6
ENDBRANCH   4   5
ENDBRANCH   3   4
ENDBRANCH   2   3
ENDBRANCH   1   2
BRANCH   1  25
ATOM     25  C   UNL A   1      29.879  29.838  23.502  1.00  0.00     0.188 C 
BRANCH  25  26
ATOM     26  O   UNL A   1      31.204  29.363  23.721  1.00  0.00    -0.376 OA
BRANCH  26  27
ATOM     27  C   UNL A   1      31.521  29.131  25.090  1.00  0.00     0.202 C 
BRANCH  27  28
ATOM     28  C   UNL A   1      31.781  30.452  25.816  1.00  0.00     0.261 C 
BRANCH  28  29
ATOM     29  O   UNL A   1      32.773  30.336  26.853  1.00  0.00    -0.460 OA
BRANCH  29  30
ATOM     30  C   UNL A   1      33.355  31.483  27.251  1.00  0.00     0.338 C 
ATOM     31  O   UNL A   1      32.861  32.601  27.256  1.00  0.00    -0.246 OA
BRANCH  30  32
ATOM     32  C   UNL A   1      34.701  31.169  27.763  1.00  0.00     0.060 A 
ATOM     33  C   UNL A   1      35.026  29.842  28.039  1.00  0.00     0.016 A 
ATOM     34  C   UNL A   1      35.612  32.183  28.044  1.00  0.00     0.016 A 
ATOM     35  C   UNL A   1      36.238  29.516  28.651  1.00  0.00     0.010 A 
ATOM     36  C   UNL A   1      36.838  31.858  28.639  1.00  0.00     0.010 A 
ATOM     37  C   UNL A   1      37.147  30.527  28.980  1.00  0.00    -0.014 A 
BRANCH  37  38
ATOM     38  C   UNL A   1      38.354  30.237  29.801  1.00  0.00     0.031 A 
ATOM     39  C   UNL A   1      39.398  29.302  29.252  1.00  0.00     0.074 A 
ATOM     40  C   UNL A   1      38.534  30.786  31.017  1.00  0.00     0.049 A 
ATOM     41  N   UNL A   1      40.408  28.728  29.857  1.00  0.00    -0.248 NA
ATOM     42  C   UNL A   1      39.279  28.966  27.825  1.00  0.00     0.031 C 
ATOM     43  C   UNL A   1      37.661  31.777  31.639  1.00  0.00     0.029 A 
ATOM     44  N   UNL A   1      39.515  30.566  31.955  1.00  0.00    -0.354 N 
ATOM     45  C   UNL A   1      41.016  27.931  28.896  1.00  0.00     0.074 A 
ATOM     46  C   UNL A   1      40.264  28.093  27.670  1.00  0.00     0.031 C 
ATOM     47  C   UNL A   1      38.135  32.071  32.861  1.00  0.00     0.029 A 
ATOM     48  C   UNL A   1      39.308  31.241  33.134  1.00  0.00     0.049 A 
ATOM     49  H   UNL A   1      40.291  29.981  31.799  1.00  0.00     0.167 HD
ATOM     50  C   UNL A   1      42.104  27.134  29.028  1.00  0.00     0.037 A 
ATOM     51  C   UNL A   1      39.958  31.162  34.312  1.00  0.00     0.037 A 
ATOM     52  C   UNL A   1      42.873  27.000  30.236  1.00  0.00     0.049 A 
ATOM     53  C   UNL A   1      41.115  30.207  34.461  1.00  0.00     0.074 A 
ATOM     54  C   UNL A   1      43.993  26.219  30.467  1.00  0.00     0.029 A 
ATOM     55  N   UNL A   1      42.608  27.675  31.418  1.00  0.00    -0.354 N 
ATOM     56  N   UNL A   1      41.656  29.413  33.570  1.00  0.00    -0.248 NA
ATOM     57  C   UNL A   1      41.741  30.125  35.789  1.00  0.00     0.031 C 
ATOM     58  C   UNL A   1      44.379  26.389  31.801  1.00  0.00     0.029 A 
ATOM     59  C   UNL A   1      43.529  27.312  32.387  1.00  0.00     0.049 A 
ATOM     60  H   UNL A   1      41.873  28.316  31.550  1.00  0.00     0.167 HD
ATOM     61  C   UNL A   1      42.695  28.756  34.220  1.00  0.00     0.074 A 
ATOM     62  C   UNL A   1      42.718  29.255  35.578  1.00  0.00     0.031 C 
ATOM     63  C   UNL A   1      43.550  27.823  33.733  1.00  0.00     0.037 A 
BRANCH  50  64
ATOM     64  C   UNL A   1      42.501  26.306  27.841  1.00  0.00     0.064 A 
ATOM     65  C   UNL A   1      41.899  25.072  27.561  1.00  0.00     0.173 A 
ATOM     66  C   UNL A   1      43.485  26.774  26.956  1.00  0.00     0.173 A 
ATOM     67  F   UNL A   1      40.965  24.574  28.384  1.00  0.00    -0.203 F 
ATOM     68  C   UNL A   1      42.285  24.325  26.450  1.00  0.00     0.198 A 
ATOM     69  C   UNL A   1      43.848  26.037  25.832  1.00  0.00     0.198 A 
ATOM     70  F   UNL A   1      44.089  27.952  27.177  1.00  0.00    -0.203 F 
ATOM     71  F   UNL A   1      41.727  23.126  26.224  1.00  0.00    -0.200 F 
ATOM     72  C   UNL A   1      43.253  24.811  25.584  1.00  0.00     0.200 A 
ATOM     73  F   UNL A   1      44.776  26.515  24.991  1.00  0.00    -0.200 F 
ATOM     74  F   UNL A   1      43.619  24.092  24.514  1.00  0.00    -0.200 F 
ENDBRANCH  50  64
BRANCH  51  75
ATOM     75  C   UNL A   1      39.501  31.976  35.469  1.00  0.00     0.064 A 
ATOM     76  C   UNL A   1      38.550  31.481  36.371  1.00  0.00     0.173 A 
ATOM     77  C   UNL A   1      39.984  33.276  35.679  1.00  0.00     0.173 A 
ATOM     78  F   UNL A   1      38.030  30.257  36.191  1.00  0.00    -0.203 F 
ATOM     79  C   UNL A   1      38.092  32.258  37.433  1.00  0.00     0.198 A 
ATOM     80  C   UNL A   1      39.548  34.042  36.758  1.00  0.00     0.198 A 
ATOM     81  F   UNL A   1      40.884  33.803  34.836  1.00  0.00    -0.203 F 
ATOM     82  F   UNL A   1      37.146  31.779  38.252  1.00  0.00    -0.200 F 
ATOM     83  C   UNL A   1      38.597  33.535  37.630  1.00  0.00     0.200 A 
ATOM     84  F   UNL A   1      40.041  35.274  36.947  1.00  0.00    -0.200 F 
ATOM     85  F   UNL A   1      38.155  34.282  38.652  1.00  0.00    -0.200 F 
ENDBRANCH  51  75
BRANCH  63  86
ATOM     86  C   UNL A   1      44.610  27.305  34.661  1.00  0.00     0.064 A 
ATOM     87  C   UNL A   1      44.443  26.110  35.375  1.00  0.00     0.173 A 
ATOM     88  C   UNL A   1      45.827  27.991  34.801  1.00  0.00     0.173 A 
ATOM     89  F   UNL A   1      43.294  25.426  35.286  1.00  0.00    -0.203 F 
ATOM     90  C   UNL A   1      45.450  25.630  36.210  1.00  0.00     0.198 A 
ATOM     91  C   UNL A   1      46.840  27.495  35.617  1.00  0.00     0.198 A 
ATOM     92  F   UNL A   1      46.038  29.136  34.134  1.00  0.00    -0.203 F 
ATOM     93  F   UNL A   1      45.255  24.506  36.914  1.00  0.00    -0.200 F 
ATOM     94  C   UNL A   1      46.648  26.318  36.324  1.00  0.00     0.200 A 
ATOM     95  F   UNL A   1      48.003  28.154  35.716  1.00  0.00    -0.200 F 
ATOM     96  F   UNL A   1      47.618  25.850  37.123  1.00  0.00    -0.200 F 
ENDBRANCH  63  86
ENDBRANCH  37  38
ENDBRANCH  30  32
ENDBRANCH  29  30
ENDBRANCH  28  29
ENDBRANCH  27  28
ENDBRANCH  26  27
ENDBRANCH  25  26
ENDBRANCH   1  25
TORSDOF 20
ENDMDL
