MODEL 1
REMARK VINA RESULT:     -11.2      0.000      0.000
REMARK SMILES C[NH+]1CCC(NC(=O)N[C@H]2C=C[C@H](C(=O)OCCOCCOCCOC(=O)c3ccc(-c4c5nc(c(-c6c(F)c(F)c(F)c(F)c6F)c6ccc([nH]6)c(-c6c(F)c(F)c(F)c(F)c6F)c6nc(c(-c7c(F)c(F)c(F)c(F)c7F)c7ccc4[nH]7)C=C6)C=C5)cc3)C2)CC1
REMARK SMILES IDX 20 1 19 2 18 3 17 4 16 5 14 6 15 7 13 8 10 9 11 10 91 11
REMARK SMILES IDX 12 12 9 13 6 14 7 15 8 17 5 19 1 20 2 21 3 22 93 23 4 25
REMARK SMILES IDX 92 26 21 27 22 28 23 29 24 30 25 31 26 32 27 33 28 34 29 35
REMARK SMILES IDX 90 36 30 37 89 38 31 39 32 40 33 41 83 42 34 43 88 44 82 45
REMARK SMILES IDX 84 46 35 47 87 48 81 49 80 50 36 52 68 53 48 54 67 55 49 56
REMARK SMILES IDX 52 57 66 58 85 59 50 60 51 61 65 63 86 64 53 65 37 66 38 67
REMARK SMILES IDX 46 68 39 69 40 70 44 71 47 72 41 73 42 74 45 75 43 76 69 77
REMARK SMILES IDX 70 78 78 79 71 80 72 81 76 82 79 83 73 84 74 85 77 86 75 87
REMARK SMILES IDX 54 88 55 89 63 90 56 91 57 92 61 93 64 94 58 95 59 96 62 97
REMARK SMILES IDX 60 98
REMARK H PARENT 6 16 9 18 2 24 84 51 52 62
REMARK Flexibility Score: inf
ROOT
ATOM      1  C   UNL A   1      35.852  32.785  28.143  1.00  0.00     0.188 C 
ENDROOT
BRANCH   1   2
ATOM      2  O   UNL A   1      35.406  31.522  27.692  1.00  0.00    -0.376 OA
BRANCH   2   3
ATOM      3  C   UNL A   1      34.049  31.186  27.929  1.00  0.00     0.202 C 
BRANCH   3   4
ATOM      4  C   UNL A   1      33.319  30.376  26.854  1.00  0.00     0.261 C 
BRANCH   4   5
ATOM      5  O   UNL A   1      32.058  29.816  27.251  1.00  0.00    -0.463 OA
BRANCH   5   6
ATOM      6  C   UNL A   1      31.836  28.470  27.196  1.00  0.00     0.312 C 
ATOM      7  O   UNL A   1      31.166  27.828  27.990  1.00  0.00    -0.252 OA
BRANCH   6   8
ATOM      8  C   UNL A   1      32.545  27.953  25.946  1.00  0.00     0.124 C 
ATOM      9  C   UNL A   1      32.373  26.203  24.226  1.00  0.00     0.107 C 
ATOM     10  C   UNL A   1      33.525  25.976  25.139  1.00  0.00    -0.006 C 
ATOM     11  C   UNL A   1      31.641  27.416  24.815  1.00  0.00     0.048 C 
ATOM     12  C   UNL A   1      33.571  26.879  26.127  1.00  0.00    -0.014 C 
BRANCH   9  13
ATOM     13  N   UNL A   1      32.739  26.182  22.814  1.00  0.00    -0.332 N 
ATOM     14  N   UNL A   1      32.903  24.052  21.747  1.00  0.00    -0.335 N 
ATOM     15  C   UNL A   1      32.913  25.385  21.758  1.00  0.00     0.315 C 
ATOM     16  H   UNL A   1      32.891  23.663  20.843  1.00  0.00     0.165 HD
ATOM     17  O   UNL A   1      33.100  25.951  20.675  1.00  0.00    -0.249 OA
ATOM     18  H   UNL A   1      32.929  27.107  22.533  1.00  0.00     0.165 HD
BRANCH  14  19
ATOM     19  C   UNL A   1      32.907  23.070  22.800  1.00  0.00     0.095 C 
ATOM     20  C   UNL A   1      33.183  19.997  25.641  1.00  0.00     0.332 C 
ATOM     21  N   UNL A   1      33.438  20.656  24.351  1.00  0.00    -0.337 N 
ATOM     22  C   UNL A   1      34.181  21.902  24.589  1.00  0.00     0.264 C 
ATOM     23  C   UNL A   1      32.171  20.825  23.623  1.00  0.00     0.264 C 
ATOM     24  H   UNL A   1      34.026  20.085  23.745  1.00  0.00     0.347 HD
ATOM     25  C   UNL A   1      34.298  22.802  23.359  1.00  0.00     0.086 C 
ATOM     26  C   UNL A   1      32.265  21.748  22.404  1.00  0.00     0.086 C 
ENDBRANCH  14  19
ENDBRANCH   9  13
ENDBRANCH   6   8
ENDBRANCH   5   6
ENDBRANCH   4   5
ENDBRANCH   3   4
ENDBRANCH   2   3
ENDBRANCH   1   2
BRANCH   1  27
ATOM     27  C   UNL A   1      34.790  33.892  27.996  1.00  0.00     0.188 C 
BRANCH  27  28
ATOM     28  O   UNL A   1      34.946  35.133  28.666  1.00  0.00    -0.376 OA
BRANCH  28  29
ATOM     29  C   UNL A   1      34.028  36.183  28.401  1.00  0.00     0.202 C 
BRANCH  29  30
ATOM     30  C   UNL A   1      32.853  36.451  29.363  1.00  0.00     0.261 C 
BRANCH  30  31
ATOM     31  O   UNL A   1      32.526  35.399  30.292  1.00  0.00    -0.460 OA
BRANCH  31  32
ATOM     32  C   UNL A   1      32.599  35.715  31.611  1.00  0.00     0.338 C 
ATOM     33  O   UNL A   1      31.793  36.354  32.258  1.00  0.00    -0.246 OA
BRANCH  32  34
ATOM     34  C   UNL A   1      33.739  34.998  32.238  1.00  0.00     0.060 A 
ATOM     35  C   UNL A   1      35.021  35.561  32.140  1.00  0.00     0.016 A 
ATOM     36  C   UNL A   1      33.568  33.768  32.875  1.00  0.00     0.016 A 
ATOM     37  C   UNL A   1      36.134  34.894  32.661  1.00  0.00     0.010 A 
ATOM     38  C   UNL A   1      34.689  33.085  33.371  1.00  0.00     0.010 A 
ATOM     39  C   UNL A   1      35.982  33.631  33.245  1.00  0.00    -0.014 A 
BRANCH  39  40
ATOM     40  C   UNL A   1      37.179  32.805  33.561  1.00  0.00     0.031 A 
ATOM     41  C   UNL A   1      37.926  33.078  34.840  1.00  0.00     0.074 A 
ATOM     42  C   UNL A   1      37.604  31.830  32.737  1.00  0.00     0.049 A 
ATOM     43  N   UNL A   1      39.044  32.558  35.281  1.00  0.00    -0.248 NA
ATOM     44  C   UNL A   1      37.330  34.076  35.741  1.00  0.00     0.031 C 
ATOM     45  C   UNL A   1      36.954  31.430  31.492  1.00  0.00     0.029 A 
ATOM     46  N   UNL A   1      38.706  31.010  32.819  1.00  0.00    -0.354 N 
ATOM     47  C   UNL A   1      39.295  33.179  36.498  1.00  0.00     0.074 A 
ATOM     48  C   UNL A   1      38.223  34.125  36.719  1.00  0.00     0.031 C 
ATOM     49  C   UNL A   1      37.684  30.461  30.910  1.00  0.00     0.029 A 
ATOM     50  C   UNL A   1      38.873  30.199  31.722  1.00  0.00     0.049 A 
ATOM     51  H   UNL A   1      39.317  31.004  33.591  1.00  0.00     0.167 HD
ATOM     52  C   UNL A   1      40.326  32.980  37.353  1.00  0.00     0.037 A 
ATOM     53  C   UNL A   1      39.887  29.372  31.393  1.00  0.00     0.037 A 
ATOM     54  C   UNL A   1      41.391  32.034  37.140  1.00  0.00     0.049 A 
ATOM     55  C   UNL A   1      41.062  29.218  32.333  1.00  0.00     0.074 A 
ATOM     56  C   UNL A   1      42.456  31.735  37.971  1.00  0.00     0.029 A 
ATOM     57  N   UNL A   1      41.531  31.243  36.011  1.00  0.00    -0.354 N 
ATOM     58  N   UNL A   1      41.273  29.782  33.497  1.00  0.00    -0.248 NA
ATOM     59  C   UNL A   1      42.139  28.310  31.909  1.00  0.00     0.031 C 
ATOM     60  C   UNL A   1      43.280  30.816  37.313  1.00  0.00     0.029 A 
ATOM     61  C   UNL A   1      42.688  30.486  36.106  1.00  0.00     0.049 A 
ATOM     62  H   UNL A   1      40.902  31.222  35.253  1.00  0.00     0.167 HD
ATOM     63  C   UNL A   1      42.483  29.274  33.956  1.00  0.00     0.074 A 
ATOM     64  C   UNL A   1      42.954  28.346  32.953  1.00  0.00     0.031 C 
ATOM     65  C   UNL A   1      43.144  29.553  35.107  1.00  0.00     0.037 A 
BRANCH  52  66
ATOM     66  C   UNL A   1      40.386  33.830  38.590  1.00  0.00     0.064 A 
ATOM     67  C   UNL A   1      41.109  35.031  38.633  1.00  0.00     0.173 A 
ATOM     68  C   UNL A   1      39.656  33.463  39.731  1.00  0.00     0.173 A 
ATOM     69  F   UNL A   1      41.832  35.422  37.572  1.00  0.00    -0.203 F 
ATOM     70  C   UNL A   1      41.115  35.821  39.779  1.00  0.00     0.198 A 
ATOM     71  C   UNL A   1      39.640  34.271  40.864  1.00  0.00     0.198 A 
ATOM     72  F   UNL A   1      38.944  32.326  39.741  1.00  0.00    -0.203 F 
ATOM     73  F   UNL A   1      41.846  36.944  39.812  1.00  0.00    -0.200 F 
ATOM     74  C   UNL A   1      40.374  35.446  40.889  1.00  0.00     0.200 A 
ATOM     75  F   UNL A   1      38.909  33.914  41.929  1.00  0.00    -0.200 F 
ATOM     76  F   UNL A   1      40.369  36.217  41.986  1.00  0.00    -0.200 F 
ENDBRANCH  52  66
BRANCH  53  77
ATOM     77  C   UNL A   1      39.873  28.647  30.091  1.00  0.00     0.064 A 
ATOM     78  C   UNL A   1      39.317  27.365  29.976  1.00  0.00     0.173 A 
ATOM     79  C   UNL A   1      40.465  29.203  28.946  1.00  0.00     0.173 A 
ATOM     80  F   UNL A   1      38.768  26.775  31.048  1.00  0.00    -0.203 F 
ATOM     81  C   UNL A   1      39.382  26.655  28.778  1.00  0.00     0.198 A 
ATOM     82  C   UNL A   1      40.496  28.508  27.739  1.00  0.00     0.198 A 
ATOM     83  F   UNL A   1      41.016  30.424  29.001  1.00  0.00    -0.203 F 
ATOM     84  F   UNL A   1      38.903  25.405  28.716  1.00  0.00    -0.200 F 
ATOM     85  C   UNL A   1      39.967  27.229  27.659  1.00  0.00     0.200 A 
ATOM     86  F   UNL A   1      41.052  29.071  26.658  1.00  0.00    -0.200 F 
ATOM     87  F   UNL A   1      40.031  26.545  26.508  1.00  0.00    -0.200 F 
ENDBRANCH  53  77
BRANCH  65  88
ATOM     88  C   UNL A   1      44.427  28.814  35.376  1.00  0.00     0.064 A 
ATOM     89  C   UNL A   1      45.674  29.331  34.997  1.00  0.00     0.173 A 
ATOM     90  C   UNL A   1      44.409  27.595  36.072  1.00  0.00     0.173 A 
ATOM     91  F   UNL A   1      45.750  30.486  34.319  1.00  0.00    -0.203 F 
ATOM     92  C   UNL A   1      46.852  28.643  35.281  1.00  0.00     0.198 A 
ATOM     93  C   UNL A   1      45.590  26.927  36.385  1.00  0.00     0.198 A 
ATOM     94  F   UNL A   1      43.244  27.058  36.468  1.00  0.00    -0.203 F 
ATOM     95  F   UNL A   1      48.029  29.132  34.866  1.00  0.00    -0.200 F 
ATOM     96  C   UNL A   1      46.810  27.447  35.983  1.00  0.00     0.200 A 
ATOM     97  F   UNL A   1      45.547  25.782  37.081  1.00  0.00    -0.200 F 
ATOM     98  F   UNL A   1      47.945  26.794  36.267  1.00  0.00    -0.200 F 
ENDBRANCH  65  88
ENDBRANCH  39  40
ENDBRANCH  32  34
ENDBRANCH  31  32
ENDBRANCH  30  31
ENDBRANCH  29  30
ENDBRANCH  28  29
ENDBRANCH  27  28
ENDBRANCH   1  27
TORSDOF 19
ENDMDL
MODEL 2
REMARK VINA RESULT:     -11.2      6.587     11.076
REMARK SMILES C[NH+]1CCC(NC(=O)N[C@H]2C=C[C@H](C(=O)OCCOCCOCCOC(=O)c3ccc(-c4c5nc(c(-c6c(F)c(F)c(F)c(F)c6F)c6ccc([nH]6)c(-c6c(F)c(F)c(F)c(F)c6F)c6nc(c(-c7c(F)c(F)c(F)c(F)c7F)c7ccc4[nH]7)C=C6)C=C5)cc3)C2)CC1
REMARK SMILES IDX 20 1 19 2 18 3 17 4 16 5 14 6 15 7 13 8 10 9 11 10 91 11
REMARK SMILES IDX 12 12 9 13 6 14 7 15 8 17 5 19 1 20 2 21 3 22 93 23 4 25
REMARK SMILES IDX 92 26 21 27 22 28 23 29 24 30 25 31 26 32 27 33 28 34 29 35
REMARK SMILES IDX 90 36 30 37 89 38 31 39 32 40 33 41 83 42 34 43 88 44 82 45
REMARK SMILES IDX 84 46 35 47 87 48 81 49 80 50 36 52 68 53 48 54 67 55 49 56
REMARK SMILES IDX 52 57 66 58 85 59 50 60 51 61 65 63 86 64 53 65 37 66 38 67
REMARK SMILES IDX 46 68 39 69 40 70 44 71 47 72 41 73 42 74 45 75 43 76 69 77
REMARK SMILES IDX 70 78 78 79 71 80 72 81 76 82 79 83 73 84 74 85 77 86 75 87
REMARK SMILES IDX 54 88 55 89 63 90 56 91 57 92 61 93 64 94 58 95 59 96 62 97
REMARK SMILES IDX 60 98
REMARK H PARENT 6 16 9 18 2 24 84 51 52 62
REMARK Flexibility Score: inf
ROOT
ATOM      1  C   UNL A   1      36.448  23.622  25.224  1.00  0.00     0.188 C 
ENDROOT
BRANCH   1   2
ATOM      2  O   UNL A   1      35.925  23.335  26.505  1.00  0.00    -0.376 OA
BRANCH   2   3
ATOM      3  C   UNL A   1      34.553  22.988  26.588  1.00  0.00     0.202 C 
BRANCH   3   4
ATOM      4  C   UNL A   1      34.193  21.500  26.566  1.00  0.00     0.261 C 
BRANCH   4   5
ATOM      5  O   UNL A   1      34.023  20.923  25.263  1.00  0.00    -0.463 OA
BRANCH   5   6
ATOM      6  C   UNL A   1      32.789  20.552  24.811  1.00  0.00     0.312 C 
ATOM      7  O   UNL A   1      32.155  19.582  25.196  1.00  0.00    -0.252 OA
BRANCH   6   8
ATOM      8  C   UNL A   1      32.359  21.597  23.784  1.00  0.00     0.124 C 
ATOM      9  C   UNL A   1      32.966  23.828  22.945  1.00  0.00     0.107 C 
ATOM     10  C   UNL A   1      31.685  23.847  23.701  1.00  0.00    -0.006 C 
ATOM     11  C   UNL A   1      33.490  22.395  23.100  1.00  0.00     0.048 C 
ATOM     12  C   UNL A   1      31.395  22.651  24.231  1.00  0.00    -0.014 C 
BRANCH   9  13
ATOM     13  N   UNL A   1      32.868  24.435  21.622  1.00  0.00    -0.332 N 
ATOM     14  N   UNL A   1      32.859  26.820  21.499  1.00  0.00    -0.335 N 
ATOM     15  C   UNL A   1      32.876  25.597  20.967  1.00  0.00     0.315 C 
ATOM     16  H   UNL A   1      33.031  27.537  20.847  1.00  0.00     0.165 HD
ATOM     17  O   UNL A   1      32.904  25.525  19.733  1.00  0.00    -0.249 OA
ATOM     18  H   UNL A   1      32.753  23.713  20.962  1.00  0.00     0.165 HD
BRANCH  14  19
ATOM     19  C   UNL A   1      32.640  27.295  22.840  1.00  0.00     0.095 C 
ATOM     20  C   UNL A   1      31.789  28.988  26.581  1.00  0.00     0.332 C 
ATOM     21  N   UNL A   1      31.807  28.924  25.112  1.00  0.00    -0.337 N 
ATOM     22  C   UNL A   1      31.026  27.759  24.675  1.00  0.00     0.264 C 
ATOM     23  C   UNL A   1      33.197  28.949  24.632  1.00  0.00     0.264 C 
ATOM     24  H   UNL A   1      31.360  29.740  24.694  1.00  0.00     0.347 HD
ATOM     25  C   UNL A   1      31.163  27.439  23.185  1.00  0.00     0.086 C 
ATOM     26  C   UNL A   1      33.355  28.602  23.148  1.00  0.00     0.086 C 
ENDBRANCH  14  19
ENDBRANCH   9  13
ENDBRANCH   6   8
ENDBRANCH   5   6
ENDBRANCH   4   5
ENDBRANCH   3   4
ENDBRANCH   2   3
ENDBRANCH   1   2
BRANCH   1  27
ATOM     27  C   UNL A   1      37.088  22.397  24.541  1.00  0.00     0.188 C 
BRANCH  27  28
ATOM     28  O   UNL A   1      37.911  21.510  25.280  1.00  0.00    -0.376 OA
BRANCH  28  29
ATOM     29  C   UNL A   1      37.867  20.121  24.991  1.00  0.00     0.202 C 
BRANCH  29  30
ATOM     30  C   UNL A   1      39.049  19.208  25.377  1.00  0.00     0.261 C 
BRANCH  30  31
ATOM     31  O   UNL A   1      39.939  19.700  26.397  1.00  0.00    -0.460 OA
BRANCH  31  32
ATOM     32  C   UNL A   1      41.265  19.475  26.199  1.00  0.00     0.338 C 
ATOM     33  O   UNL A   1      41.780  18.471  25.750  1.00  0.00    -0.246 OA
BRANCH  32  34
ATOM     34  C   UNL A   1      42.027  20.729  26.433  1.00  0.00     0.060 A 
ATOM     35  C   UNL A   1      42.284  21.119  27.757  1.00  0.00     0.016 A 
ATOM     36  C   UNL A   1      42.448  21.538  25.378  1.00  0.00     0.016 A 
ATOM     37  C   UNL A   1      42.944  22.321  28.030  1.00  0.00     0.010 A 
ATOM     38  C   UNL A   1      43.084  22.758  25.652  1.00  0.00     0.010 A 
ATOM     39  C   UNL A   1      43.313  23.170  26.980  1.00  0.00    -0.014 A 
BRANCH  39  40
ATOM     40  C   UNL A   1      43.773  24.556  27.266  1.00  0.00     0.031 A 
ATOM     41  C   UNL A   1      42.766  25.563  27.757  1.00  0.00     0.074 A 
ATOM     42  C   UNL A   1      45.055  24.927  27.097  1.00  0.00     0.049 A 
ATOM     43  N   UNL A   1      42.908  26.846  27.981  1.00  0.00    -0.248 NA
ATOM     44  C   UNL A   1      41.413  25.052  28.030  1.00  0.00     0.031 C 
ATOM     45  C   UNL A   1      46.140  24.047  26.670  1.00  0.00     0.029 A 
ATOM     46  N   UNL A   1      45.656  26.155  27.245  1.00  0.00    -0.354 N 
ATOM     47  C   UNL A   1      41.663  27.297  28.400  1.00  0.00     0.074 A 
ATOM     48  C   UNL A   1      40.773  26.156  28.384  1.00  0.00     0.031 C 
ATOM     49  C   UNL A   1      47.270  24.770  26.562  1.00  0.00     0.029 A 
ATOM     50  C   UNL A   1      46.980  26.170  26.875  1.00  0.00     0.049 A 
ATOM     51  H   UNL A   1      45.184  26.949  27.585  1.00  0.00     0.167 HD
ATOM     52  C   UNL A   1      41.293  28.548  28.763  1.00  0.00     0.037 A 
ATOM     53  C   UNL A   1      47.844  27.199  26.762  1.00  0.00     0.037 A 
ATOM     54  C   UNL A   1      42.178  29.684  28.787  1.00  0.00     0.049 A 
ATOM     55  C   UNL A   1      47.389  28.599  27.108  1.00  0.00     0.074 A 
ATOM     56  C   UNL A   1      41.902  30.982  29.179  1.00  0.00     0.029 A 
ATOM     57  N   UNL A   1      43.506  29.660  28.391  1.00  0.00    -0.354 N 
ATOM     58  N   UNL A   1      46.220  29.010  27.537  1.00  0.00    -0.248 NA
ATOM     59  C   UNL A   1      48.377  29.679  26.952  1.00  0.00     0.031 C 
ATOM     60  C   UNL A   1      43.042  31.759  28.953  1.00  0.00     0.029 A 
ATOM     61  C   UNL A   1      44.051  30.931  28.491  1.00  0.00     0.049 A 
ATOM     62  H   UNL A   1      43.991  28.860  28.083  1.00  0.00     0.167 HD
ATOM     63  C   UNL A   1      46.343  30.381  27.734  1.00  0.00     0.074 A 
ATOM     64  C   UNL A   1      47.703  30.732  27.391  1.00  0.00     0.031 C 
ATOM     65  C   UNL A   1      45.411  31.270  28.160  1.00  0.00     0.037 A 
BRANCH  52  66
ATOM     66  C   UNL A   1      39.855  28.777  29.129  1.00  0.00     0.064 A 
ATOM     67  C   UNL A   1      39.391  28.636  30.444  1.00  0.00     0.173 A 
ATOM     68  C   UNL A   1      38.941  29.202  28.153  1.00  0.00     0.173 A 
ATOM     69  F   UNL A   1      40.222  28.221  31.413  1.00  0.00    -0.203 F 
ATOM     70  C   UNL A   1      38.061  28.893  30.765  1.00  0.00     0.198 A 
ATOM     71  C   UNL A   1      37.619  29.489  28.483  1.00  0.00     0.198 A 
ATOM     72  F   UNL A   1      39.334  29.358  26.879  1.00  0.00    -0.203 F 
ATOM     73  F   UNL A   1      37.629  28.713  32.021  1.00  0.00    -0.200 F 
ATOM     74  C   UNL A   1      37.178  29.329  29.787  1.00  0.00     0.200 A 
ATOM     75  F   UNL A   1      36.774  29.925  27.538  1.00  0.00    -0.200 F 
ATOM     76  F   UNL A   1      35.902  29.591  30.101  1.00  0.00    -0.200 F 
ENDBRANCH  52  66
BRANCH  53  77
ATOM     77  C   UNL A   1      49.228  26.967  26.259  1.00  0.00     0.064 A 
ATOM     78  C   UNL A   1      49.525  27.027  24.890  1.00  0.00     0.173 A 
ATOM     79  C   UNL A   1      50.269  26.627  27.136  1.00  0.00     0.173 A 
ATOM     80  F   UNL A   1      48.558  27.317  24.007  1.00  0.00    -0.203 F 
ATOM     81  C   UNL A   1      50.801  26.726  24.415  1.00  0.00     0.198 A 
ATOM     82  C   UNL A   1      51.553  26.362  26.664  1.00  0.00     0.198 A 
ATOM     83  F   UNL A   1      50.040  26.549  28.454  1.00  0.00    -0.203 F 
ATOM     84  F   UNL A   1      51.040  26.726  23.097  1.00  0.00    -0.200 F 
ATOM     85  C   UNL A   1      51.816  26.399  25.302  1.00  0.00     0.200 A 
ATOM     86  F   UNL A   1      52.533  26.057  27.526  1.00  0.00    -0.200 F 
ATOM     87  F   UNL A   1      53.041  26.107  24.846  1.00  0.00    -0.200 F 
ENDBRANCH  53  77
BRANCH  65  88
ATOM     88  C   UNL A   1      45.835  32.704  28.330  1.00  0.00     0.064 A 
ATOM     89  C   UNL A   1      46.407  33.171  29.522  1.00  0.00     0.173 A 
ATOM     90  C   UNL A   1      45.713  33.609  27.264  1.00  0.00     0.173 A 
ATOM     91  F   UNL A   1      46.537  32.353  30.577  1.00  0.00    -0.203 F 
ATOM     92  C   UNL A   1      46.818  34.497  29.648  1.00  0.00     0.198 A 
ATOM     93  C   UNL A   1      46.156  34.924  27.382  1.00  0.00     0.198 A 
ATOM     94  F   UNL A   1      45.181  33.213  26.097  1.00  0.00    -0.203 F 
ATOM     95  F   UNL A   1      47.318  34.934  30.813  1.00  0.00    -0.200 F 
ATOM     96  C   UNL A   1      46.701  35.369  28.576  1.00  0.00     0.200 A 
ATOM     97  F   UNL A   1      46.060  35.758  26.338  1.00  0.00    -0.200 F 
ATOM     98  F   UNL A   1      47.109  36.640  28.695  1.00  0.00    -0.200 F 
ENDBRANCH  65  88
ENDBRANCH  39  40
ENDBRANCH  32  34
ENDBRANCH  31  32
ENDBRANCH  30  31
ENDBRANCH  29  30
ENDBRANCH  28  29
ENDBRANCH  27  28
ENDBRANCH   1  27
TORSDOF 19
ENDMDL
MODEL 3
REMARK VINA RESULT:     -11.1      1.278      2.171
REMARK SMILES C[NH+]1CCC(NC(=O)N[C@H]2C=C[C@H](C(=O)OCCOCCOCCOC(=O)c3ccc(-c4c5nc(c(-c6c(F)c(F)c(F)c(F)c6F)c6ccc([nH]6)c(-c6c(F)c(F)c(F)c(F)c6F)c6nc(c(-c7c(F)c(F)c(F)c(F)c7F)c7ccc4[nH]7)C=C6)C=C5)cc3)C2)CC1
REMARK SMILES IDX 20 1 19 2 18 3 17 4 16 5 14 6 15 7 13 8 10 9 11 10 91 11
REMARK SMILES IDX 12 12 9 13 6 14 7 15 8 17 5 19 1 20 2 21 3 22 93 23 4 25
REMARK SMILES IDX 92 26 21 27 22 28 23 29 24 30 25 31 26 32 27 33 28 34 29 35
REMARK SMILES IDX 90 36 30 37 89 38 31 39 32 40 33 41 83 42 34 43 88 44 82 45
REMARK SMILES IDX 84 46 35 47 87 48 81 49 80 50 36 52 68 53 48 54 67 55 49 56
REMARK SMILES IDX 52 57 66 58 85 59 50 60 51 61 65 63 86 64 53 65 37 66 38 67
REMARK SMILES IDX 46 68 39 69 40 70 44 71 47 72 41 73 42 74 45 75 43 76 69 77
REMARK SMILES IDX 70 78 78 79 71 80 72 81 76 82 79 83 73 84 74 85 77 86 75 87
REMARK SMILES IDX 54 88 55 89 63 90 56 91 57 92 61 93 64 94 58 95 59 96 62 97
REMARK SMILES IDX 60 98
REMARK H PARENT 6 16 9 18 2 24 84 51 52 62
REMARK Flexibility Score: inf
ROOT
ATOM      1  C   UNL A   1      33.947  32.025  27.963  1.00  0.00     0.188 C 
ENDROOT
BRANCH   1   2
ATOM      2  O   UNL A   1      34.615  30.821  27.645  1.00  0.00    -0.376 OA
BRANCH   2   3
ATOM      3  C   UNL A   1      33.817  29.717  27.250  1.00  0.00     0.202 C 
BRANCH   3   4
ATOM      4  C   UNL A   1      32.364  29.994  26.856  1.00  0.00     0.261 C 
BRANCH   4   5
ATOM      5  O   UNL A   1      32.060  29.841  25.462  1.00  0.00    -0.463 OA
BRANCH   5   6
ATOM      6  C   UNL A   1      32.365  28.687  24.797  1.00  0.00     0.312 C 
ATOM      7  O   UNL A   1      33.312  28.532  24.042  1.00  0.00    -0.252 OA
BRANCH   6   8
ATOM      8  C   UNL A   1      31.328  27.647  25.215  1.00  0.00     0.124 C 
ATOM      9  C   UNL A   1      30.915  25.223  25.173  1.00  0.00     0.107 C 
ATOM     10  C   UNL A   1      30.005  25.959  24.255  1.00  0.00    -0.006 C 
ATOM     11  C   UNL A   1      31.875  26.291  25.711  1.00  0.00     0.048 C 
ATOM     12  C   UNL A   1      30.284  27.268  24.212  1.00  0.00    -0.014 C 
BRANCH   9  13
ATOM     13  N   UNL A   1      30.214  24.334  26.094  1.00  0.00    -0.332 N 
ATOM     14  N   UNL A   1      31.476  22.578  27.108  1.00  0.00    -0.335 N 
ATOM     15  C   UNL A   1      30.375  23.310  26.934  1.00  0.00     0.315 C 
ATOM     16  H   UNL A   1      31.433  21.978  27.886  1.00  0.00     0.165 HD
ATOM     17  O   UNL A   1      29.394  23.016  27.626  1.00  0.00    -0.249 OA
ATOM     18  H   UNL A   1      29.262  24.586  26.098  1.00  0.00     0.165 HD
BRANCH  14  19
ATOM     19  C   UNL A   1      32.715  22.494  26.378  1.00  0.00     0.095 C 
ATOM     20  C   UNL A   1      36.269  21.845  24.251  1.00  0.00     0.332 C 
ATOM     21  N   UNL A   1      35.063  21.454  24.995  1.00  0.00    -0.337 N 
ATOM     22  C   UNL A   1      33.877  21.911  24.258  1.00  0.00     0.264 C 
ATOM     23  C   UNL A   1      35.155  21.945  26.379  1.00  0.00     0.264 C 
ATOM     24  H   UNL A   1      34.979  20.440  25.071  1.00  0.00     0.347 HD
ATOM     25  C   UNL A   1      32.569  21.782  25.040  1.00  0.00     0.086 C 
ATOM     26  C   UNL A   1      33.844  21.850  27.167  1.00  0.00     0.086 C 
ENDBRANCH  14  19
ENDBRANCH   9  13
ENDBRANCH   6   8
ENDBRANCH   5   6
ENDBRANCH   4   5
ENDBRANCH   3   4
ENDBRANCH   2   3
ENDBRANCH   1   2
BRANCH   1  27
ATOM     27  C   UNL A   1      34.591  32.784  29.140  1.00  0.00     0.188 C 
BRANCH  27  28
ATOM     28  O   UNL A   1      34.973  34.143  28.997  1.00  0.00    -0.376 OA
BRANCH  28  29
ATOM     29  C   UNL A   1      34.069  35.056  28.393  1.00  0.00     0.202 C 
BRANCH  29  30
ATOM     30  C   UNL A   1      33.143  35.927  29.265  1.00  0.00     0.261 C 
BRANCH  30  31
ATOM     31  O   UNL A   1      32.492  35.270  30.371  1.00  0.00    -0.460 OA
BRANCH  31  32
ATOM     32  C   UNL A   1      32.744  35.776  31.606  1.00  0.00     0.338 C 
ATOM     33  O   UNL A   1      32.087  36.600  32.210  1.00  0.00    -0.246 OA
BRANCH  32  34
ATOM     34  C   UNL A   1      33.867  35.032  32.234  1.00  0.00     0.060 A 
ATOM     35  C   UNL A   1      35.153  35.593  32.184  1.00  0.00     0.016 A 
ATOM     36  C   UNL A   1      33.677  33.783  32.824  1.00  0.00     0.016 A 
ATOM     37  C   UNL A   1      36.251  34.904  32.707  1.00  0.00     0.010 A 
ATOM     38  C   UNL A   1      34.784  33.078  33.322  1.00  0.00     0.010 A 
ATOM     39  C   UNL A   1      36.081  33.621  33.243  1.00  0.00    -0.014 A 
BRANCH  39  40
ATOM     40  C   UNL A   1      37.267  32.780  33.558  1.00  0.00     0.031 A 
ATOM     41  C   UNL A   1      38.019  33.043  34.836  1.00  0.00     0.074 A 
ATOM     42  C   UNL A   1      37.679  31.799  32.734  1.00  0.00     0.049 A 
ATOM     43  N   UNL A   1      39.131  32.508  35.277  1.00  0.00    -0.248 NA
ATOM     44  C   UNL A   1      37.438  34.049  35.738  1.00  0.00     0.031 C 
ATOM     45  C   UNL A   1      37.021  31.408  31.490  1.00  0.00     0.029 A 
ATOM     46  N   UNL A   1      38.769  30.964  32.815  1.00  0.00    -0.354 N 
ATOM     47  C   UNL A   1      39.392  33.125  36.493  1.00  0.00     0.074 A 
ATOM     48  C   UNL A   1      38.333  34.086  36.715  1.00  0.00     0.031 C 
ATOM     49  C   UNL A   1      37.738  30.429  30.907  1.00  0.00     0.029 A 
ATOM     50  C   UNL A   1      38.924  30.151  31.717  1.00  0.00     0.049 A 
ATOM     51  H   UNL A   1      39.381  30.951  33.586  1.00  0.00     0.167 HD
ATOM     52  C   UNL A   1      40.421  32.913  37.347  1.00  0.00     0.037 A 
ATOM     53  C   UNL A   1      39.927  29.311  31.387  1.00  0.00     0.037 A 
ATOM     54  C   UNL A   1      41.472  31.952  37.133  1.00  0.00     0.049 A 
ATOM     55  C   UNL A   1      41.100  29.142  32.326  1.00  0.00     0.074 A 
ATOM     56  C   UNL A   1      42.534  31.640  37.962  1.00  0.00     0.029 A 
ATOM     57  N   UNL A   1      41.601  31.160  36.003  1.00  0.00    -0.354 N 
ATOM     58  N   UNL A   1      41.320  29.703  33.490  1.00  0.00    -0.248 NA
ATOM     59  C   UNL A   1      42.165  28.219  31.900  1.00  0.00     0.031 C 
ATOM     60  C   UNL A   1      43.346  30.710  37.303  1.00  0.00     0.029 A 
ATOM     61  C   UNL A   1      42.748  30.388  36.097  1.00  0.00     0.049 A 
ATOM     62  H   UNL A   1      40.971  31.147  35.246  1.00  0.00     0.167 HD
ATOM     63  C   UNL A   1      42.524  29.179  33.948  1.00  0.00     0.074 A 
ATOM     64  C   UNL A   1      42.982  28.244  32.944  1.00  0.00     0.031 C 
ATOM     65  C   UNL A   1      43.190  29.449  35.098  1.00  0.00     0.037 A 
BRANCH  52  66
ATOM     66  C   UNL A   1      40.494  33.762  38.583  1.00  0.00     0.064 A 
ATOM     67  C   UNL A   1      41.269  34.929  38.640  1.00  0.00     0.173 A 
ATOM     68  C   UNL A   1      39.724  33.431  39.709  1.00  0.00     0.173 A 
ATOM     69  F   UNL A   1      42.031  35.284  37.594  1.00  0.00    -0.203 F 
ATOM     70  C   UNL A   1      41.288  35.721  39.785  1.00  0.00     0.198 A 
ATOM     71  C   UNL A   1      39.721  34.241  40.841  1.00  0.00     0.198 A 
ATOM     72  F   UNL A   1      38.960  32.328  39.707  1.00  0.00    -0.203 F 
ATOM     73  F   UNL A   1      42.068  36.809  39.832  1.00  0.00    -0.200 F 
ATOM     74  C   UNL A   1      40.507  35.382  40.880  1.00  0.00     0.200 A 
ATOM     75  F   UNL A   1      38.952  33.921  41.891  1.00  0.00    -0.200 F 
ATOM     76  F   UNL A   1      40.514  36.155  41.976  1.00  0.00    -0.200 F 
ENDBRANCH  52  66
BRANCH  53  77
ATOM     77  C   UNL A   1      39.901  28.586  30.085  1.00  0.00     0.064 A 
ATOM     78  C   UNL A   1      39.337  27.308  29.973  1.00  0.00     0.173 A 
ATOM     79  C   UNL A   1      40.492  29.138  28.938  1.00  0.00     0.173 A 
ATOM     80  F   UNL A   1      38.788  26.722  31.048  1.00  0.00    -0.203 F 
ATOM     81  C   UNL A   1      39.391  26.598  28.775  1.00  0.00     0.198 A 
ATOM     82  C   UNL A   1      40.513  28.443  27.731  1.00  0.00     0.198 A 
ATOM     83  F   UNL A   1      41.052  30.355  28.990  1.00  0.00    -0.203 F 
ATOM     84  F   UNL A   1      38.903  25.351  28.714  1.00  0.00    -0.200 F 
ATOM     85  C   UNL A   1      39.974  27.167  27.652  1.00  0.00     0.200 A 
ATOM     86  F   UNL A   1      41.068  29.002  26.647  1.00  0.00    -0.200 F 
ATOM     87  F   UNL A   1      40.028  26.484  26.501  1.00  0.00    -0.200 F 
ENDBRANCH  53  77
BRANCH  65  88
ATOM     88  C   UNL A   1      44.464  28.693  35.365  1.00  0.00     0.064 A 
ATOM     89  C   UNL A   1      44.465  27.449  36.014  1.00  0.00     0.173 A 
ATOM     90  C   UNL A   1      45.695  29.199  34.918  1.00  0.00     0.173 A 
ATOM     91  F   UNL A   1      43.319  26.924  36.473  1.00  0.00    -0.203 F 
ATOM     92  C   UNL A   1      45.654  26.753  36.227  1.00  0.00     0.198 A 
ATOM     93  C   UNL A   1      46.876  28.484  35.101  1.00  0.00     0.198 A 
ATOM     94  F   UNL A   1      45.751  30.379  34.283  1.00  0.00    -0.203 F 
ATOM     95  F   UNL A   1      45.636  25.589  36.892  1.00  0.00    -0.200 F 
ATOM     96  C   UNL A   1      46.855  27.266  35.762  1.00  0.00     0.200 A 
ATOM     97  F   UNL A   1      48.033  28.973  34.634  1.00  0.00    -0.200 F 
ATOM     98  F   UNL A   1      47.996  26.588  35.956  1.00  0.00    -0.200 F 
ENDBRANCH  65  88
ENDBRANCH  39  40
ENDBRANCH  32  34
ENDBRANCH  31  32
ENDBRANCH  30  31
ENDBRANCH  29  30
ENDBRANCH  28  29
ENDBRANCH  27  28
ENDBRANCH   1  27
TORSDOF 19
ENDMDL
