MODEL 1
REMARK VINA RESULT:     -11.7      0.000      0.000
REMARK SMILES O=C(OCCOCCOCCOC(=O)c1ccc(-c2c3nc(c(-c4c(F)c(F)c(F)c(F)c4F)c4ccc([nH]4)c(-c4c(F)c(F)c(F)c(F)c4F)c4nc(c(-c5c(F)c(F)c(F)c(F)c5F)c5ccc2[nH]5)C=C4)C=C3)cc1)C1=Cc2cc(Cl)cc(Cl)c2O[C@@H]1C(F)(F)F
REMARK SMILES IDX 8 1 7 2 6 3 5 4 4 5 3 6 2 7 1 8 78 9 79 10 89 11 80 12 88 13
REMARK SMILES IDX 81 14 87 15 82 16 85 17 83 18 84 19 86 20 90 21 91 22 92 23
REMARK SMILES IDX 93 24 9 25 10 26 11 27 12 28 13 29 14 30 15 31 16 32 77 33
REMARK SMILES IDX 17 34 76 35 18 36 19 37 20 38 70 39 21 40 75 41 69 42 71 43
REMARK SMILES IDX 22 44 74 45 68 46 67 47 23 49 55 50 35 51 54 52 36 53 39 54
REMARK SMILES IDX 53 55 72 56 37 57 38 58 52 60 73 61 40 62 24 63 25 64 33 65
REMARK SMILES IDX 26 66 27 67 31 68 34 69 28 70 29 71 32 72 30 73 56 74 57 75
REMARK SMILES IDX 65 76 58 77 59 78 63 79 66 80 60 81 61 82 64 83 62 84 41 85
REMARK SMILES IDX 42 86 50 87 43 88 44 89 48 90 51 91 45 92 46 93 49 94 47 95
REMARK H PARENT 71 48 39 59
REMARK Flexibility Score: inf
ROOT
ATOM      1  C   UNL A   1      41.140  19.719  26.186  1.00  0.00     0.188 C 
ENDROOT
BRANCH   1   2
ATOM      2  C   UNL A   1      41.194  20.745  27.317  1.00  0.00     0.188 C 
BRANCH   2   3
ATOM      3  O   UNL A   1      40.029  21.557  27.379  1.00  0.00    -0.376 OA
BRANCH   3   4
ATOM      4  C   UNL A   1      39.384  21.795  26.126  1.00  0.00     0.202 C 
BRANCH   4   5
ATOM      5  C   UNL A   1      38.543  23.077  26.082  1.00  0.00     0.261 C 
BRANCH   5   6
ATOM      6  O   UNL A   1      37.126  22.785  26.081  1.00  0.00    -0.460 OA
BRANCH   6   7
ATOM      7  C   UNL A   1      36.401  23.015  24.965  1.00  0.00     0.338 C 
ATOM      8  O   UNL A   1      36.916  23.364  23.912  1.00  0.00    -0.246 OA
BRANCH   7   9
ATOM      9  C   UNL A   1      34.928  23.037  25.165  1.00  0.00     0.087 C 
ATOM     10  C   UNL A   1      34.471  24.097  25.859  1.00  0.00     0.027 C 
ATOM     11  C   UNL A   1      34.050  22.410  24.120  1.00  0.00     0.316 C 
ATOM     12  C   UNL A   1      33.890  25.103  24.942  1.00  0.00     0.020 A 
ATOM     13  O   UNL A   1      33.372  23.401  23.296  1.00  0.00    -0.474 OA
ATOM     14  C   UNL A   1      33.830  26.444  25.334  1.00  0.00     0.032 A 
ATOM     15  C   UNL A   1      33.488  24.726  23.652  1.00  0.00     0.146 A 
ATOM     16  C   UNL A   1      33.483  27.418  24.400  1.00  0.00     0.043 A 
ATOM     17  C   UNL A   1      33.205  25.724  22.708  1.00  0.00     0.085 A 
ATOM     18  Cl  UNL A   1      33.396  29.067  24.881  1.00  0.00    -0.084 Cl
ATOM     19  C   UNL A   1      33.228  27.071  23.076  1.00  0.00     0.045 A 
ATOM     20  Cl  UNL A   1      32.897  25.345  21.052  1.00  0.00    -0.080 Cl
BRANCH  11  21
ATOM     21  C   UNL A   1      33.097  21.354  24.679  1.00  0.00     0.430 C 
ATOM     22  F   UNL A   1      31.830  21.825  24.758  1.00  0.00    -0.167 F 
ATOM     23  F   UNL A   1      33.055  20.263  23.873  1.00  0.00    -0.167 F 
ATOM     24  F   UNL A   1      33.460  20.935  25.911  1.00  0.00    -0.167 F 
ENDBRANCH  11  21
ENDBRANCH   7   9
ENDBRANCH   6   7
ENDBRANCH   5   6
ENDBRANCH   4   5
ENDBRANCH   3   4
ENDBRANCH   2   3
ENDBRANCH   1   2
BRANCH   1  25
ATOM     25  O   UNL A   1      42.305  19.793  25.374  1.00  0.00    -0.376 OA
BRANCH  25  26
ATOM     26  C   UNL A   1      43.312  20.685  25.854  1.00  0.00     0.202 C 
BRANCH  26  27
ATOM     27  C   UNL A   1      43.940  21.691  24.862  1.00  0.00     0.261 C 
BRANCH  27  28
ATOM     28  O   UNL A   1      43.234  22.922  24.626  1.00  0.00    -0.460 OA
BRANCH  28  29
ATOM     29  C   UNL A   1      43.916  24.074  24.787  1.00  0.00     0.338 C 
ATOM     30  O   UNL A   1      44.962  24.389  24.254  1.00  0.00    -0.246 OA
BRANCH  29  31
ATOM     31  C   UNL A   1      43.129  24.976  25.657  1.00  0.00     0.060 A 
ATOM     32  C   UNL A   1      43.563  26.292  25.835  1.00  0.00     0.016 A 
ATOM     33  C   UNL A   1      42.033  24.493  26.378  1.00  0.00     0.016 A 
ATOM     34  C   UNL A   1      42.921  27.123  26.758  1.00  0.00     0.010 A 
ATOM     35  C   UNL A   1      41.401  25.322  27.317  1.00  0.00     0.010 A 
ATOM     36  C   UNL A   1      41.865  26.630  27.538  1.00  0.00    -0.014 A 
BRANCH  36  37
ATOM     37  C   UNL A   1      41.398  27.433  28.699  1.00  0.00     0.031 A 
ATOM     38  C   UNL A   1      42.164  27.347  29.993  1.00  0.00     0.074 A 
ATOM     39  C   UNL A   1      40.360  28.283  28.592  1.00  0.00     0.049 A 
ATOM     40  N   UNL A   1      41.989  28.002  31.114  1.00  0.00    -0.248 NA
ATOM     41  C   UNL A   1      43.292  26.401  30.021  1.00  0.00     0.031 C 
ATOM     42  C   UNL A   1      39.555  28.486  27.391  1.00  0.00     0.029 A 
ATOM     43  N   UNL A   1      39.811  29.140  29.516  1.00  0.00    -0.354 N 
ATOM     44  C   UNL A   1      42.993  27.565  31.969  1.00  0.00     0.074 A 
ATOM     45  C   UNL A   1      43.747  26.557  31.256  1.00  0.00     0.031 C 
ATOM     46  C   UNL A   1      38.606  29.404  27.654  1.00  0.00     0.029 A 
ATOM     47  C   UNL A   1      38.725  29.837  29.045  1.00  0.00     0.049 A 
ATOM     48  H   UNL A   1      40.163  29.244  30.430  1.00  0.00     0.167 HD
ATOM     49  C   UNL A   1      43.274  27.978  33.228  1.00  0.00     0.037 A 
ATOM     50  C   UNL A   1      37.915  30.713  29.673  1.00  0.00     0.037 A 
ATOM     51  C   UNL A   1      42.510  28.960  33.953  1.00  0.00     0.049 A 
ATOM     52  C   UNL A   1      38.197  31.089  31.108  1.00  0.00     0.074 A 
ATOM     53  C   UNL A   1      42.711  29.436  35.237  1.00  0.00     0.029 A 
ATOM     54  N   UNL A   1      41.389  29.612  33.457  1.00  0.00    -0.354 N 
ATOM     55  N   UNL A   1      39.173  30.701  31.895  1.00  0.00    -0.248 NA
ATOM     56  C   UNL A   1      37.270  32.041  31.739  1.00  0.00     0.031 C 
ATOM     57  C   UNL A   1      41.681  30.334  35.539  1.00  0.00     0.029 A 
ATOM     58  C   UNL A   1      40.875  30.466  34.421  1.00  0.00     0.049 A 
ATOM     59  H   UNL A   1      41.016  29.485  32.555  1.00  0.00     0.167 HD
ATOM     60  C   UNL A   1      38.993  31.380  33.095  1.00  0.00     0.074 A 
ATOM     61  C   UNL A   1      37.832  32.226  32.924  1.00  0.00     0.031 C 
ATOM     62  C   UNL A   1      39.719  31.306  34.239  1.00  0.00     0.037 A 
BRANCH  49  63
ATOM     63  C   UNL A   1      44.456  27.357  33.915  1.00  0.00     0.064 A 
ATOM     64  C   UNL A   1      45.724  27.956  33.877  1.00  0.00     0.173 A 
ATOM     65  C   UNL A   1      44.309  26.179  34.663  1.00  0.00     0.173 A 
ATOM     66  F   UNL A   1      45.921  29.076  33.165  1.00  0.00    -0.203 F 
ATOM     67  C   UNL A   1      46.805  27.389  34.547  1.00  0.00     0.198 A 
ATOM     68  C   UNL A   1      45.385  25.631  35.355  1.00  0.00     0.198 A 
ATOM     69  F   UNL A   1      43.117  25.568  34.736  1.00  0.00    -0.203 F 
ATOM     70  F   UNL A   1      48.015  27.958  34.466  1.00  0.00    -0.200 F 
ATOM     71  C   UNL A   1      46.633  26.232  35.293  1.00  0.00     0.200 A 
ATOM     72  F   UNL A   1      45.214  24.521  36.088  1.00  0.00    -0.200 F 
ATOM     73  F   UNL A   1      47.671  25.696  35.950  1.00  0.00    -0.200 F 
ENDBRANCH  49  63
BRANCH  50  74
ATOM     74  C   UNL A   1      36.736  31.287  28.967  1.00  0.00     0.064 A 
ATOM     75  C   UNL A   1      36.697  32.636  28.583  1.00  0.00     0.173 A 
ATOM     76  C   UNL A   1      35.593  30.510  28.723  1.00  0.00     0.173 A 
ATOM     77  F   UNL A   1      37.751  33.431  28.821  1.00  0.00    -0.203 F 
ATOM     78  C   UNL A   1      35.550  33.192  28.018  1.00  0.00     0.198 A 
ATOM     79  C   UNL A   1      34.460  31.059  28.124  1.00  0.00     0.198 A 
ATOM     80  F   UNL A   1      35.571  29.216  29.076  1.00  0.00    -0.203 F 
ATOM     81  F   UNL A   1      35.515  34.501  27.731  1.00  0.00    -0.200 F 
ATOM     82  C   UNL A   1      34.435  32.403  27.785  1.00  0.00     0.200 A 
ATOM     83  F   UNL A   1      33.388  30.290  27.894  1.00  0.00    -0.200 F 
ATOM     84  F   UNL A   1      33.329  32.940  27.252  1.00  0.00    -0.200 F 
ENDBRANCH  50  74
BRANCH  62  85
ATOM     85  C   UNL A   1      39.299  32.191  35.381  1.00  0.00     0.064 A 
ATOM     86  C   UNL A   1      39.744  33.517  35.491  1.00  0.00     0.173 A 
ATOM     87  C   UNL A   1      38.429  31.710  36.372  1.00  0.00     0.173 A 
ATOM     88  F   UNL A   1      40.585  34.026  34.578  1.00  0.00    -0.203 F 
ATOM     89  C   UNL A   1      39.372  34.311  36.573  1.00  0.00     0.198 A 
ATOM     90  C   UNL A   1      38.029  32.519  37.432  1.00  0.00     0.198 A 
ATOM     91  F   UNL A   1      37.962  30.454  36.311  1.00  0.00    -0.203 F 
ATOM     92  F   UNL A   1      39.866  35.552  36.693  1.00  0.00    -0.200 F 
ATOM     93  C   UNL A   1      38.511  33.814  37.540  1.00  0.00     0.200 A 
ATOM     94  F   UNL A   1      37.182  32.041  38.354  1.00  0.00    -0.200 F 
ATOM     95  F   UNL A   1      38.154  34.579  38.581  1.00  0.00    -0.200 F 
ENDBRANCH  62  85
ENDBRANCH  36  37
ENDBRANCH  29  31
ENDBRANCH  28  29
ENDBRANCH  27  28
ENDBRANCH  26  27
ENDBRANCH  25  26
ENDBRANCH   1  25
TORSDOF 18
ENDMDL
MODEL 2
REMARK VINA RESULT:     -11.5      3.203      8.504
REMARK SMILES O=C(OCCOCCOCCOC(=O)c1ccc(-c2c3nc(c(-c4c(F)c(F)c(F)c(F)c4F)c4ccc([nH]4)c(-c4c(F)c(F)c(F)c(F)c4F)c4nc(c(-c5c(F)c(F)c(F)c(F)c5F)c5ccc2[nH]5)C=C4)C=C3)cc1)C1=Cc2cc(Cl)cc(Cl)c2O[C@@H]1C(F)(F)F
REMARK SMILES IDX 8 1 7 2 6 3 5 4 4 5 3 6 2 7 1 8 78 9 79 10 89 11 80 12 88 13
REMARK SMILES IDX 81 14 87 15 82 16 85 17 83 18 84 19 86 20 90 21 91 22 92 23
REMARK SMILES IDX 93 24 9 25 10 26 11 27 12 28 13 29 14 30 15 31 16 32 77 33
REMARK SMILES IDX 17 34 76 35 18 36 19 37 20 38 70 39 21 40 75 41 69 42 71 43
REMARK SMILES IDX 22 44 74 45 68 46 67 47 23 49 55 50 35 51 54 52 36 53 39 54
REMARK SMILES IDX 53 55 72 56 37 57 38 58 52 60 73 61 40 62 24 63 25 64 33 65
REMARK SMILES IDX 26 66 27 67 31 68 34 69 28 70 29 71 32 72 30 73 56 74 57 75
REMARK SMILES IDX 65 76 58 77 59 78 63 79 66 80 60 81 61 82 64 83 62 84 41 85
REMARK SMILES IDX 42 86 50 87 43 88 44 89 48 90 51 91 45 92 46 93 49 94 47 95
REMARK H PARENT 71 48 39 59
REMARK Flexibility Score: inf
ROOT
ATOM      1  C   UNL A   1      31.385  27.779  24.218  1.00  0.00     0.188 C 
ENDROOT
BRANCH   1   2
ATOM      2  C   UNL A   1      31.461  26.260  24.067  1.00  0.00     0.188 C 
BRANCH   2   3
ATOM      3  O   UNL A   1      30.361  25.592  24.670  1.00  0.00    -0.376 OA
BRANCH   3   4
ATOM      4  C   UNL A   1      30.486  25.355  26.074  1.00  0.00     0.202 C 
BRANCH   4   5
ATOM      5  C   UNL A   1      30.524  23.872  26.464  1.00  0.00     0.261 C 
BRANCH   5   6
ATOM      6  O   UNL A   1      31.602  23.591  27.387  1.00  0.00    -0.460 OA
BRANCH   6   7
ATOM      7  C   UNL A   1      32.598  22.760  27.012  1.00  0.00     0.338 C 
ATOM      8  O   UNL A   1      33.163  22.019  27.803  1.00  0.00    -0.246 OA
BRANCH   7   9
ATOM      9  C   UNL A   1      33.109  22.973  25.632  1.00  0.00     0.087 C 
ATOM     10  C   UNL A   1      34.042  23.937  25.521  1.00  0.00     0.027 C 
ATOM     11  C   UNL A   1      33.146  21.804  24.690  1.00  0.00     0.316 C 
ATOM     12  C   UNL A   1      35.393  23.341  25.426  1.00  0.00     0.020 A 
ATOM     13  O   UNL A   1      34.496  21.293  24.491  1.00  0.00    -0.474 OA
ATOM     14  C   UNL A   1      36.509  24.089  25.813  1.00  0.00     0.032 A 
ATOM     15  C   UNL A   1      35.541  22.001  25.038  1.00  0.00     0.146 A 
ATOM     16  C   UNL A   1      37.750  23.465  25.925  1.00  0.00     0.043 A 
ATOM     17  C   UNL A   1      36.783  21.374  25.219  1.00  0.00     0.085 A 
ATOM     18  Cl  UNL A   1      39.127  24.385  26.387  1.00  0.00    -0.084 Cl
ATOM     19  C   UNL A   1      37.880  22.099  25.687  1.00  0.00     0.045 A 
ATOM     20  Cl  UNL A   1      36.991  19.680  24.953  1.00  0.00    -0.080 Cl
BRANCH  11  21
ATOM     21  C   UNL A   1      32.410  22.057  23.375  1.00  0.00     0.430 C 
ATOM     22  F   UNL A   1      31.324  22.844  23.560  1.00  0.00    -0.167 F 
ATOM     23  F   UNL A   1      33.209  22.703  22.487  1.00  0.00    -0.167 F 
ATOM     24  F   UNL A   1      31.996  20.912  22.789  1.00  0.00    -0.167 F 
ENDBRANCH  11  21
ENDBRANCH   7   9
ENDBRANCH   6   7
ENDBRANCH   5   6
ENDBRANCH   4   5
ENDBRANCH   3   4
ENDBRANCH   2   3
ENDBRANCH   1   2
BRANCH   1  25
ATOM     25  O   UNL A   1      32.379  28.253  25.117  1.00  0.00    -0.376 OA
BRANCH  25  26
ATOM     26  C   UNL A   1      32.617  29.660  25.058  1.00  0.00     0.202 C 
BRANCH  26  27
ATOM     27  C   UNL A   1      32.015  30.557  26.163  1.00  0.00     0.261 C 
BRANCH  27  28
ATOM     28  O   UNL A   1      32.730  30.651  27.408  1.00  0.00    -0.460 OA
BRANCH  28  29
ATOM     29  C   UNL A   1      33.507  31.736  27.601  1.00  0.00     0.338 C 
ATOM     30  O   UNL A   1      33.157  32.900  27.599  1.00  0.00    -0.246 OA
BRANCH  29  31
ATOM     31  C   UNL A   1      34.878  31.287  27.930  1.00  0.00     0.060 A 
ATOM     32  C   UNL A   1      35.099  29.935  28.207  1.00  0.00     0.016 A 
ATOM     33  C   UNL A   1      35.917  32.212  28.070  1.00  0.00     0.016 A 
ATOM     34  C   UNL A   1      36.352  29.508  28.656  1.00  0.00     0.010 A 
ATOM     35  C   UNL A   1      37.169  31.785  28.538  1.00  0.00     0.010 A 
ATOM     36  C   UNL A   1      37.382  30.436  28.868  1.00  0.00    -0.014 A 
BRANCH  36  37
ATOM     37  C   UNL A   1      38.595  30.002  29.611  1.00  0.00     0.031 A 
ATOM     38  C   UNL A   1      38.822  30.538  31.000  1.00  0.00     0.074 A 
ATOM     39  C   UNL A   1      39.442  29.090  29.100  1.00  0.00     0.049 A 
ATOM     40  N   UNL A   1      39.766  30.253  31.862  1.00  0.00    -0.248 NA
ATOM     41  C   UNL A   1      37.843  31.523  31.487  1.00  0.00     0.031 C 
ATOM     42  C   UNL A   1      39.320  28.468  27.783  1.00  0.00     0.029 A 
ATOM     43  N   UNL A   1      40.574  28.525  29.637  1.00  0.00    -0.354 N 
ATOM     44  C   UNL A   1      39.482  31.003  32.997  1.00  0.00     0.074 A 
ATOM     45  C   UNL A   1      38.305  31.790  32.700  1.00  0.00     0.031 C 
ATOM     46  C   UNL A   1      40.345  27.614  27.610  1.00  0.00     0.029 A 
ATOM     47  C   UNL A   1      41.204  27.642  28.793  1.00  0.00     0.049 A 
ATOM     48  H   UNL A   1      40.904  28.735  30.540  1.00  0.00     0.167 HD
ATOM     49  C   UNL A   1      40.131  31.021  34.186  1.00  0.00     0.037 A 
ATOM     50  C   UNL A   1      42.349  26.950  28.956  1.00  0.00     0.037 A 
ATOM     51  C   UNL A   1      41.319  30.261  34.477  1.00  0.00     0.049 A 
ATOM     52  C   UNL A   1      43.103  27.058  30.261  1.00  0.00     0.074 A 
ATOM     53  C   UNL A   1      42.054  30.222  35.649  1.00  0.00     0.029 A 
ATOM     54  N   UNL A   1      41.952  29.411  33.581  1.00  0.00    -0.354 N 
ATOM     55  N   UNL A   1      42.805  27.738  31.342  1.00  0.00    -0.248 NA
ATOM     56  C   UNL A   1      44.350  26.286  30.371  1.00  0.00     0.031 C 
ATOM     57  C   UNL A   1      43.162  29.392  35.446  1.00  0.00     0.029 A 
ATOM     58  C   UNL A   1      43.083  28.864  34.168  1.00  0.00     0.049 A 
ATOM     59  H   UNL A   1      41.643  29.225  32.665  1.00  0.00     0.167 HD
ATOM     60  C   UNL A   1      43.806  27.454  32.264  1.00  0.00     0.074 A 
ATOM     61  C   UNL A   1      44.705  26.518  31.626  1.00  0.00     0.031 C 
ATOM     62  C   UNL A   1      43.970  27.929  33.524  1.00  0.00     0.037 A 
BRANCH  49  63
ATOM     63  C   UNL A   1      39.577  31.905  35.265  1.00  0.00     0.064 A 
ATOM     64  C   UNL A   1      38.646  31.427  36.200  1.00  0.00     0.173 A 
ATOM     65  C   UNL A   1      40.021  33.230  35.400  1.00  0.00     0.173 A 
ATOM     66  F   UNL A   1      38.181  30.172  36.107  1.00  0.00    -0.203 F 
ATOM     67  C   UNL A   1      38.167  32.247  37.218  1.00  0.00     0.198 A 
ATOM     68  C   UNL A   1      39.561  34.037  36.437  1.00  0.00     0.198 A 
ATOM     69  F   UNL A   1      40.913  33.736  34.536  1.00  0.00    -0.203 F 
ATOM     70  F   UNL A   1      37.250  31.780  38.076  1.00  0.00    -0.200 F 
ATOM     71  C   UNL A   1      38.631  33.548  37.341  1.00  0.00     0.200 A 
ATOM     72  F   UNL A   1      40.021  35.291  36.563  1.00  0.00    -0.200 F 
ATOM     73  F   UNL A   1      38.179  34.332  38.330  1.00  0.00    -0.200 F 
ENDBRANCH  49  63
BRANCH  50  74
ATOM     74  C   UNL A   1      42.881  26.104  27.852  1.00  0.00     0.064 A 
ATOM     75  C   UNL A   1      43.737  26.630  26.873  1.00  0.00     0.173 A 
ATOM     76  C   UNL A   1      42.488  24.763  27.717  1.00  0.00     0.173 A 
ATOM     77  F   UNL A   1      44.118  27.915  26.937  1.00  0.00    -0.203 F 
ATOM     78  C   UNL A   1      44.146  25.862  25.784  1.00  0.00     0.198 A 
ATOM     79  C   UNL A   1      42.928  23.986  26.647  1.00  0.00     0.198 A 
ATOM     80  F   UNL A   1      41.664  24.210  28.619  1.00  0.00    -0.203 F 
ATOM     81  F   UNL A   1      44.902  26.414  24.824  1.00  0.00    -0.200 F 
ATOM     82  C   UNL A   1      43.745  24.540  25.675  1.00  0.00     0.200 A 
ATOM     83  F   UNL A   1      42.545  22.706  26.551  1.00  0.00    -0.200 F 
ATOM     84  F   UNL A   1      44.131  23.804  24.623  1.00  0.00    -0.200 F 
ENDBRANCH  50  74
BRANCH  62  85
ATOM     85  C   UNL A   1      45.148  27.415  34.307  1.00  0.00     0.064 A 
ATOM     86  C   UNL A   1      46.395  28.059  34.276  1.00  0.00     0.173 A 
ATOM     87  C   UNL A   1      45.024  26.271  35.110  1.00  0.00     0.173 A 
ATOM     88  F   UNL A   1      46.572  29.151  33.517  1.00  0.00    -0.203 F 
ATOM     89  C   UNL A   1      47.483  27.550  34.981  1.00  0.00     0.198 A 
ATOM     90  C   UNL A   1      46.104  25.787  35.844  1.00  0.00     0.198 A 
ATOM     91  F   UNL A   1      43.853  25.621  35.189  1.00  0.00    -0.203 F 
ATOM     92  F   UNL A   1      48.680  28.144  34.879  1.00  0.00    -0.200 F 
ATOM     93  C   UNL A   1      47.336  26.418  35.768  1.00  0.00     0.200 A 
ATOM     94  F   UNL A   1      45.955  24.703  36.618  1.00  0.00    -0.200 F 
ATOM     95  F   UNL A   1      48.384  25.929  36.445  1.00  0.00    -0.200 F 
ENDBRANCH  62  85
ENDBRANCH  36  37
ENDBRANCH  29  31
ENDBRANCH  28  29
ENDBRANCH  27  28
ENDBRANCH  26  27
ENDBRANCH  25  26
ENDBRANCH   1  25
TORSDOF 18
ENDMDL
MODEL 3
REMARK VINA RESULT:     -11.3      4.355      6.782
REMARK SMILES O=C(OCCOCCOCCOC(=O)c1ccc(-c2c3nc(c(-c4c(F)c(F)c(F)c(F)c4F)c4ccc([nH]4)c(-c4c(F)c(F)c(F)c(F)c4F)c4nc(c(-c5c(F)c(F)c(F)c(F)c5F)c5ccc2[nH]5)C=C4)C=C3)cc1)C1=Cc2cc(Cl)cc(Cl)c2O[C@@H]1C(F)(F)F
REMARK SMILES IDX 8 1 7 2 6 3 5 4 4 5 3 6 2 7 1 8 78 9 79 10 89 11 80 12 88 13
REMARK SMILES IDX 81 14 87 15 82 16 85 17 83 18 84 19 86 20 90 21 91 22 92 23
REMARK SMILES IDX 93 24 9 25 10 26 11 27 12 28 13 29 14 30 15 31 16 32 77 33
REMARK SMILES IDX 17 34 76 35 18 36 19 37 20 38 70 39 21 40 75 41 69 42 71 43
REMARK SMILES IDX 22 44 74 45 68 46 67 47 23 49 55 50 35 51 54 52 36 53 39 54
REMARK SMILES IDX 53 55 72 56 37 57 38 58 52 60 73 61 40 62 24 63 25 64 33 65
REMARK SMILES IDX 26 66 27 67 31 68 34 69 28 70 29 71 32 72 30 73 56 74 57 75
REMARK SMILES IDX 65 76 58 77 59 78 63 79 66 80 60 81 61 82 64 83 62 84 41 85
REMARK SMILES IDX 42 86 50 87 43 88 44 89 48 90 51 91 45 92 46 93 49 94 47 95
REMARK H PARENT 71 48 39 59
REMARK Flexibility Score: inf
ROOT
ATOM      1  C   UNL A   1      34.709  22.737  24.095  1.00  0.00     0.188 C 
ENDROOT
BRANCH   1   2
ATOM      2  C   UNL A   1      33.242  23.020  24.415  1.00  0.00     0.188 C 
BRANCH   2   3
ATOM      3  O   UNL A   1      32.469  23.296  23.254  1.00  0.00    -0.376 OA
BRANCH   3   4
ATOM      4  C   UNL A   1      33.222  23.610  22.081  1.00  0.00     0.202 C 
BRANCH   4   5
ATOM      5  C   UNL A   1      32.910  24.987  21.479  1.00  0.00     0.261 C 
BRANCH   5   6
ATOM      6  O   UNL A   1      33.767  26.015  22.028  1.00  0.00    -0.460 OA
BRANCH   6   7
ATOM      7  C   UNL A   1      33.212  27.101  22.609  1.00  0.00     0.338 C 
ATOM      8  O   UNL A   1      33.486  28.240  22.259  1.00  0.00    -0.246 OA
BRANCH   7   9
ATOM      9  C   UNL A   1      32.430  26.825  23.842  1.00  0.00     0.087 C 
ATOM     10  C   UNL A   1      33.173  26.645  24.951  1.00  0.00     0.027 C 
ATOM     11  C   UNL A   1      31.054  27.413  23.969  1.00  0.00     0.316 C 
ATOM     12  C   UNL A   1      33.165  27.870  25.783  1.00  0.00     0.020 A 
ATOM     13  O   UNL A   1      31.014  28.540  24.889  1.00  0.00    -0.474 OA
ATOM     14  C   UNL A   1      34.220  28.114  26.666  1.00  0.00     0.032 A 
ATOM     15  C   UNL A   1      32.148  28.822  25.616  1.00  0.00     0.146 A 
ATOM     16  C   UNL A   1      34.321  29.356  27.289  1.00  0.00     0.043 A 
ATOM     17  C   UNL A   1      32.301  30.089  26.199  1.00  0.00     0.085 A 
ATOM     18  Cl  UNL A   1      35.611  29.656  28.386  1.00  0.00    -0.084 Cl
ATOM     19  C   UNL A   1      33.400  30.363  27.014  1.00  0.00     0.045 A 
ATOM     20  Cl  UNL A   1      31.194  31.375  25.877  1.00  0.00    -0.080 Cl
BRANCH  11  21
ATOM     21  C   UNL A   1      29.972  26.374  24.259  1.00  0.00     0.430 C 
ATOM     22  F   UNL A   1      29.970  26.013  25.564  1.00  0.00    -0.167 F 
ATOM     23  F   UNL A   1      28.737  26.870  23.994  1.00  0.00    -0.167 F 
ATOM     24  F   UNL A   1      30.125  25.252  23.521  1.00  0.00    -0.167 F 
ENDBRANCH  11  21
ENDBRANCH   7   9
ENDBRANCH   6   7
ENDBRANCH   5   6
ENDBRANCH   4   5
ENDBRANCH   3   4
ENDBRANCH   2   3
ENDBRANCH   1   2
BRANCH   1  25
ATOM     25  O   UNL A   1      35.005  21.353  24.238  1.00  0.00    -0.376 OA
BRANCH  25  26
ATOM     26  C   UNL A   1      35.820  21.030  25.366  1.00  0.00     0.202 C 
BRANCH  26  27
ATOM     27  C   UNL A   1      37.314  20.709  25.127  1.00  0.00     0.261 C 
BRANCH  27  28
ATOM     28  O   UNL A   1      38.264  21.769  25.332  1.00  0.00    -0.460 OA
BRANCH  28  29
ATOM     29  C   UNL A   1      39.342  21.502  26.097  1.00  0.00     0.338 C 
ATOM     30  O   UNL A   1      39.963  20.458  26.152  1.00  0.00    -0.246 OA
BRANCH  29  31
ATOM     31  C   UNL A   1      39.738  22.736  26.810  1.00  0.00     0.060 A 
ATOM     32  C   UNL A   1      39.092  23.935  26.498  1.00  0.00     0.016 A 
ATOM     33  C   UNL A   1      40.814  22.730  27.703  1.00  0.00     0.016 A 
ATOM     34  C   UNL A   1      39.539  25.138  27.051  1.00  0.00     0.010 A 
ATOM     35  C   UNL A   1      41.274  23.939  28.245  1.00  0.00     0.010 A 
ATOM     36  C   UNL A   1      40.661  25.155  27.893  1.00  0.00    -0.014 A 
BRANCH  36  37
ATOM     37  C   UNL A   1      41.282  26.462  28.231  1.00  0.00     0.031 A 
ATOM     38  C   UNL A   1      42.708  26.714  27.817  1.00  0.00     0.074 A 
ATOM     39  C   UNL A   1      40.576  27.442  28.825  1.00  0.00     0.049 A 
ATOM     40  N   UNL A   1      43.436  27.796  27.941  1.00  0.00    -0.248 NA
ATOM     41  C   UNL A   1      43.405  25.594  27.164  1.00  0.00     0.031 C 
ATOM     42  C   UNL A   1      39.181  27.342  29.247  1.00  0.00     0.029 A 
ATOM     43  N   UNL A   1      40.942  28.721  29.171  1.00  0.00    -0.354 N 
ATOM     44  C   UNL A   1      44.663  27.495  27.362  1.00  0.00     0.074 A 
ATOM     45  C   UNL A   1      44.600  26.116  26.928  1.00  0.00     0.031 C 
ATOM     46  C   UNL A   1      38.811  28.509  29.805  1.00  0.00     0.029 A 
ATOM     47  C   UNL A   1      39.946  29.430  29.798  1.00  0.00     0.049 A 
ATOM     48  H   UNL A   1      41.835  29.093  28.988  1.00  0.00     0.167 HD
ATOM     49  C   UNL A   1      45.740  28.298  27.191  1.00  0.00     0.037 A 
ATOM     50  C   UNL A   1      39.959  30.674  30.316  1.00  0.00     0.037 A 
ATOM     51  C   UNL A   1      45.819  29.662  27.645  1.00  0.00     0.049 A 
ATOM     52  C   UNL A   1      41.205  31.519  30.191  1.00  0.00     0.074 A 
ATOM     53  C   UNL A   1      46.872  30.553  27.527  1.00  0.00     0.029 A 
ATOM     54  N   UNL A   1      44.805  30.331  28.316  1.00  0.00    -0.354 N 
ATOM     55  N   UNL A   1      42.346  31.239  29.607  1.00  0.00    -0.248 NA
ATOM     56  C   UNL A   1      41.157  32.863  30.787  1.00  0.00     0.031 C 
ATOM     57  C   UNL A   1      46.517  31.742  28.174  1.00  0.00     0.029 A 
ATOM     58  C   UNL A   1      45.219  31.615  28.639  1.00  0.00     0.049 A 
ATOM     59  H   UNL A   1      43.923  29.950  28.530  1.00  0.00     0.167 HD
ATOM     60  C   UNL A   1      43.134  32.377  29.740  1.00  0.00     0.074 A 
ATOM     61  C   UNL A   1      42.334  33.360  30.435  1.00  0.00     0.031 C 
ATOM     62  C   UNL A   1      44.411  32.587  29.329  1.00  0.00     0.037 A 
BRANCH  49  63
ATOM     63  C   UNL A   1      46.934  27.718  26.490  1.00  0.00     0.064 A 
ATOM     64  C   UNL A   1      47.983  27.115  27.202  1.00  0.00     0.173 A 
ATOM     65  C   UNL A   1      47.008  27.718  25.088  1.00  0.00     0.173 A 
ATOM     66  F   UNL A   1      47.966  27.101  28.543  1.00  0.00    -0.203 F 
ATOM     67  C   UNL A   1      49.067  26.549  26.539  1.00  0.00     0.198 A 
ATOM     68  C   UNL A   1      48.081  27.125  24.428  1.00  0.00     0.198 A 
ATOM     69  F   UNL A   1      46.031  28.277  24.359  1.00  0.00    -0.203 F 
ATOM     70  F   UNL A   1      50.075  26.012  27.240  1.00  0.00    -0.200 F 
ATOM     71  C   UNL A   1      49.112  26.546  25.152  1.00  0.00     0.200 A 
ATOM     72  F   UNL A   1      48.115  27.110  23.087  1.00  0.00    -0.200 F 
ATOM     73  F   UNL A   1      50.150  25.988  24.514  1.00  0.00    -0.200 F 
ENDBRANCH  49  63
BRANCH  50  74
ATOM     74  C   UNL A   1      38.764  31.205  31.029  1.00  0.00     0.064 A 
ATOM     75  C   UNL A   1      38.607  31.049  32.414  1.00  0.00     0.173 A 
ATOM     76  C   UNL A   1      37.718  31.821  30.324  1.00  0.00     0.173 A 
ATOM     77  F   UNL A   1      39.563  30.439  33.132  1.00  0.00    -0.203 F 
ATOM     78  C   UNL A   1      37.439  31.454  33.059  1.00  0.00     0.198 A 
ATOM     79  C   UNL A   1      36.567  32.259  30.976  1.00  0.00     0.198 A 
ATOM     80  F   UNL A   1      37.809  31.989  28.996  1.00  0.00    -0.203 F 
ATOM     81  F   UNL A   1      37.287  31.224  34.371  1.00  0.00    -0.200 F 
ATOM     82  C   UNL A   1      36.422  32.062  32.340  1.00  0.00     0.200 A 
ATOM     83  F   UNL A   1      35.590  32.853  30.278  1.00  0.00    -0.200 F 
ATOM     84  F   UNL A   1      35.295  32.441  32.958  1.00  0.00    -0.200 F 
ENDBRANCH  50  74
BRANCH  62  85
ATOM     85  C   UNL A   1      45.004  33.945  29.590  1.00  0.00     0.064 A 
ATOM     86  C   UNL A   1      45.724  34.225  30.762  1.00  0.00     0.173 A 
ATOM     87  C   UNL A   1      44.862  34.977  28.649  1.00  0.00     0.173 A 
ATOM     88  F   UNL A   1      45.882  33.279  31.700  1.00  0.00    -0.203 F 
ATOM     89  C   UNL A   1      46.238  35.497  31.001  1.00  0.00     0.198 A 
ATOM     90  C   UNL A   1      45.411  36.237  28.875  1.00  0.00     0.198 A 
ATOM     91  F   UNL A   1      44.195  34.763  27.505  1.00  0.00    -0.203 F 
ATOM     92  F   UNL A   1      46.861  35.758  32.159  1.00  0.00    -0.200 F 
ATOM     93  C   UNL A   1      46.086  36.500  30.056  1.00  0.00     0.200 A 
ATOM     94  F   UNL A   1      45.278  37.199  27.951  1.00  0.00    -0.200 F 
ATOM     95  F   UNL A   1      46.580  37.724  30.289  1.00  0.00    -0.200 F 
ENDBRANCH  62  85
ENDBRANCH  36  37
ENDBRANCH  29  31
ENDBRANCH  28  29
ENDBRANCH  27  28
ENDBRANCH  26  27
ENDBRANCH  25  26
ENDBRANCH   1  25
TORSDOF 18
ENDMDL
