MODEL 1
REMARK VINA RESULT:     -10.7      0.000      0.000
REMARK SMILES CCC1CN(c2cccc(F)c2C(=O)OCCOCCOCCOC(=O)c2ccc(-c3c4nc(c(-c5c(F)c(F)c(F)c(F)c5F)c5ccc([nH]5)c(-c5c(F)c(F)c(F)c(F)c5F)c5nc(c(-c6c(F)c(F)c(F)c(F)c6F)c6ccc3[nH]6)C=C5)C=C4)cc2)C1
REMARK SMILES IDX 19 1 18 2 17 3 16 4 15 5 13 6 14 7 12 8 6 9 7 10 8 11 10 12
REMARK SMILES IDX 9 13 11 14 5 15 3 16 4 17 90 18 2 19 1 20 20 21 21 22 22 23
REMARK SMILES IDX 23 24 24 25 25 26 26 27 27 28 28 29 89 30 29 31 88 32 30 33
REMARK SMILES IDX 31 34 32 35 82 36 33 37 87 38 81 39 83 40 34 41 86 42 80 43
REMARK SMILES IDX 79 44 35 46 67 47 47 48 66 49 48 50 51 51 65 52 84 53 49 54
REMARK SMILES IDX 50 55 64 57 85 58 52 59 36 60 37 61 45 62 38 63 39 64 43 65
REMARK SMILES IDX 46 66 40 67 41 68 44 69 42 70 68 71 69 72 77 73 70 74 71 75
REMARK SMILES IDX 75 76 78 77 72 78 73 79 76 80 74 81 53 82 54 83 62 84 55 85
REMARK SMILES IDX 56 86 60 87 63 88 57 89 58 90 61 91 59 92
REMARK H PARENT 83 45 51 56
REMARK Flexibility Score: inf
ROOT
ATOM      1  C   UNL A   1      32.808  20.916  24.451  1.00  0.00     0.188 C 
ENDROOT
BRANCH   1   2
ATOM      2  O   UNL A   1      32.376  21.612  25.608  1.00  0.00    -0.376 OA
BRANCH   2   3
ATOM      3  C   UNL A   1      31.478  22.692  25.382  1.00  0.00     0.202 C 
BRANCH   3   4
ATOM      4  C   UNL A   1      31.986  24.026  25.934  1.00  0.00     0.261 C 
BRANCH   4   5
ATOM      5  O   UNL A   1      31.567  25.159  25.153  1.00  0.00    -0.460 OA
BRANCH   5   6
ATOM      6  C   UNL A   1      30.576  25.943  25.629  1.00  0.00     0.343 C 
ATOM      7  O   UNL A   1      29.973  25.772  26.685  1.00  0.00    -0.246 OA
BRANCH   6   8
ATOM      8  C   UNL A   1      30.447  27.114  24.735  1.00  0.00     0.119 A 
ATOM      9  C   UNL A   1      31.214  28.284  24.894  1.00  0.00     0.054 A 
ATOM     10  C   UNL A   1      31.017  29.340  23.978  1.00  0.00     0.027 A 
ATOM     11  C   UNL A   1      30.121  29.235  22.913  1.00  0.00     0.005 A 
ATOM     12  C   UNL A   1      29.534  27.033  23.670  1.00  0.00     0.139 A 
ATOM     13  C   UNL A   1      29.382  28.073  22.755  1.00  0.00     0.040 A 
ATOM     14  F   UNL A   1      28.775  25.941  23.493  1.00  0.00    -0.206 F 
BRANCH   9  15
ATOM     15  N   UNL A   1      32.239  28.488  25.831  1.00  0.00    -0.370 N 
ATOM     16  C   UNL A   1      33.763  28.875  27.133  1.00  0.00     0.028 C 
ATOM     17  C   UNL A   1      32.300  29.313  26.986  1.00  0.00     0.122 C 
ATOM     18  C   UNL A   1      33.659  28.494  25.640  1.00  0.00     0.122 C 
BRANCH  16  19
ATOM     19  C   UNL A   1      34.691  29.973  27.632  1.00  0.00     0.004 C 
ATOM     20  C   UNL A   1      36.097  29.436  27.901  1.00  0.00     0.004 C 
ENDBRANCH  16  19
ENDBRANCH   9  15
ENDBRANCH   6   8
ENDBRANCH   5   6
ENDBRANCH   4   5
ENDBRANCH   3   4
ENDBRANCH   2   3
ENDBRANCH   1   2
BRANCH   1  21
ATOM     21  C   UNL A   1      33.700  19.694  24.724  1.00  0.00     0.188 C 
BRANCH  21  22
ATOM     22  O   UNL A   1      35.099  19.836  24.924  1.00  0.00    -0.376 OA
BRANCH  22  23
ATOM     23  C   UNL A   1      35.698  21.108  24.764  1.00  0.00     0.202 C 
BRANCH  23  24
ATOM     24  C   UNL A   1      36.822  21.486  25.738  1.00  0.00     0.261 C 
BRANCH  24  25
ATOM     25  O   UNL A   1      38.130  21.661  25.158  1.00  0.00    -0.460 OA
BRANCH  25  26
ATOM     26  C   UNL A   1      39.175  21.412  25.985  1.00  0.00     0.338 C 
ATOM     27  O   UNL A   1      39.755  20.349  26.135  1.00  0.00    -0.246 OA
BRANCH  26  28
ATOM     28  C   UNL A   1      39.638  22.653  26.654  1.00  0.00     0.060 A 
ATOM     29  C   UNL A   1      39.152  23.884  26.191  1.00  0.00     0.016 A 
ATOM     30  C   UNL A   1      40.633  22.625  27.632  1.00  0.00     0.016 A 
ATOM     31  C   UNL A   1      39.695  25.087  26.660  1.00  0.00     0.010 A 
ATOM     32  C   UNL A   1      41.182  23.831  28.095  1.00  0.00     0.010 A 
ATOM     33  C   UNL A   1      40.747  25.071  27.583  1.00  0.00    -0.014 A 
BRANCH  33  34
ATOM     34  C   UNL A   1      41.512  26.309  27.915  1.00  0.00     0.031 A 
ATOM     35  C   UNL A   1      40.802  27.463  28.542  1.00  0.00     0.074 A 
ATOM     36  C   UNL A   1      42.830  26.434  27.685  1.00  0.00     0.049 A 
ATOM     37  N   UNL A   1      41.261  28.656  28.817  1.00  0.00    -0.248 NA
ATOM     38  C   UNL A   1      39.414  27.231  28.962  1.00  0.00     0.031 C 
ATOM     39  C   UNL A   1      43.688  25.346  27.270  1.00  0.00     0.029 A 
ATOM     40  N   UNL A   1      43.671  27.522  27.726  1.00  0.00    -0.354 N 
ATOM     41  C   UNL A   1      40.243  29.297  29.498  1.00  0.00     0.074 A 
ATOM     42  C   UNL A   1      39.110  28.393  29.520  1.00  0.00     0.031 C 
ATOM     43  C   UNL A   1      44.907  25.826  26.974  1.00  0.00     0.029 A 
ATOM     44  C   UNL A   1      44.900  27.269  27.164  1.00  0.00     0.049 A 
ATOM     45  H   UNL A   1      43.418  28.390  28.116  1.00  0.00     0.167 HD
ATOM     46  C   UNL A   1      40.273  30.512  30.090  1.00  0.00     0.037 A 
ATOM     47  C   UNL A   1      45.892  28.104  26.797  1.00  0.00     0.037 A 
ATOM     48  C   UNL A   1      41.388  31.420  30.036  1.00  0.00     0.049 A 
ATOM     49  C   UNL A   1      45.807  29.547  27.196  1.00  0.00     0.074 A 
ATOM     50  C   UNL A   1      41.505  32.673  30.609  1.00  0.00     0.029 A 
ATOM     51  N   UNL A   1      42.571  31.186  29.345  1.00  0.00    -0.354 N 
ATOM     52  N   UNL A   1      44.849  30.150  27.855  1.00  0.00    -0.248 NA
ATOM     53  C   UNL A   1      46.949  30.410  26.870  1.00  0.00     0.031 C 
ATOM     54  C   UNL A   1      42.724  33.228  30.204  1.00  0.00     0.029 A 
ATOM     55  C   UNL A   1      43.400  32.294  29.434  1.00  0.00     0.049 A 
ATOM     56  H   UNL A   1      42.788  30.356  28.863  1.00  0.00     0.167 HD
ATOM     57  C   UNL A   1      45.304  31.435  28.098  1.00  0.00     0.074 A 
ATOM     58  C   UNL A   1      46.607  31.542  27.473  1.00  0.00     0.031 C 
ATOM     59  C   UNL A   1      44.701  32.412  28.819  1.00  0.00     0.037 A 
BRANCH  46  60
ATOM     60  C   UNL A   1      39.040  30.928  30.832  1.00  0.00     0.064 A 
ATOM     61  C   UNL A   1      38.896  30.626  32.192  1.00  0.00     0.173 A 
ATOM     62  C   UNL A   1      38.001  31.623  30.195  1.00  0.00     0.173 A 
ATOM     63  F   UNL A   1      39.863  29.963  32.845  1.00  0.00    -0.203 F 
ATOM     64  C   UNL A   1      37.756  31.010  32.891  1.00  0.00     0.198 A 
ATOM     65  C   UNL A   1      36.876  32.032  30.904  1.00  0.00     0.198 A 
ATOM     66  F   UNL A   1      38.102  31.949  28.897  1.00  0.00    -0.203 F 
ATOM     67  F   UNL A   1      37.634  30.701  34.189  1.00  0.00    -0.200 F 
ATOM     68  C   UNL A   1      36.752  31.720  32.249  1.00  0.00     0.200 A 
ATOM     69  F   UNL A   1      35.920  32.743  30.290  1.00  0.00    -0.200 F 
ATOM     70  F   UNL A   1      35.668  32.114  32.932  1.00  0.00    -0.200 F 
ENDBRANCH  46  60
BRANCH  47  71
ATOM     71  C   UNL A   1      47.036  27.579  26.009  1.00  0.00     0.064 A 
ATOM     72  C   UNL A   1      48.142  27.000  26.652  1.00  0.00     0.173 A 
ATOM     73  C   UNL A   1      47.071  27.678  24.613  1.00  0.00     0.173 A 
ATOM     74  F   UNL A   1      48.155  26.878  27.988  1.00  0.00    -0.203 F 
ATOM     75  C   UNL A   1      49.247  26.555  25.928  1.00  0.00     0.198 A 
ATOM     76  C   UNL A   1      48.171  27.221  23.888  1.00  0.00     0.198 A 
ATOM     77  F   UNL A   1      46.030  28.206  23.954  1.00  0.00    -0.203 F 
ATOM     78  F   UNL A   1      50.298  26.025  26.568  1.00  0.00    -0.200 F 
ATOM     79  C   UNL A   1      49.261  26.667  24.546  1.00  0.00     0.200 A 
ATOM     80  F   UNL A   1      48.177  27.317  22.552  1.00  0.00    -0.200 F 
ATOM     81  F   UNL A   1      50.323  26.241  23.847  1.00  0.00    -0.200 F 
ENDBRANCH  47  71
BRANCH  59  82
ATOM     82  C   UNL A   1      45.457  33.688  29.040  1.00  0.00     0.064 A 
ATOM     83  C   UNL A   1      45.329  34.745  28.123  1.00  0.00     0.173 A 
ATOM     84  C   UNL A   1      46.372  33.837  30.090  1.00  0.00     0.173 A 
ATOM     85  F   UNL A   1      44.465  34.652  27.101  1.00  0.00    -0.203 F 
ATOM     86  C   UNL A   1      46.114  35.888  28.232  1.00  0.00     0.198 A 
ATOM     87  C   UNL A   1      47.134  34.996  30.213  1.00  0.00     0.198 A 
ATOM     88  F   UNL A   1      46.515  32.865  31.003  1.00  0.00    -0.203 F 
ATOM     89  F   UNL A   1      46.009  36.862  27.317  1.00  0.00    -0.200 F 
ATOM     90  C   UNL A   1      47.017  36.013  29.277  1.00  0.00     0.200 A 
ATOM     91  F   UNL A   1      47.987  35.128  31.238  1.00  0.00    -0.200 F 
ATOM     92  F   UNL A   1      47.773  37.114  29.381  1.00  0.00    -0.200 F 
ENDBRANCH  59  82
ENDBRANCH  33  34
ENDBRANCH  26  28
ENDBRANCH  25  26
ENDBRANCH  24  25
ENDBRANCH  23  24
ENDBRANCH  22  23
ENDBRANCH  21  22
ENDBRANCH   1  21
TORSDOF 19
ENDMDL
MODEL 2
REMARK VINA RESULT:     -10.3      3.386      8.618
REMARK SMILES CCC1CN(c2cccc(F)c2C(=O)OCCOCCOCCOC(=O)c2ccc(-c3c4nc(c(-c5c(F)c(F)c(F)c(F)c5F)c5ccc([nH]5)c(-c5c(F)c(F)c(F)c(F)c5F)c5nc(c(-c6c(F)c(F)c(F)c(F)c6F)c6ccc3[nH]6)C=C5)C=C4)cc2)C1
REMARK SMILES IDX 19 1 18 2 17 3 16 4 15 5 13 6 14 7 12 8 6 9 7 10 8 11 10 12
REMARK SMILES IDX 9 13 11 14 5 15 3 16 4 17 90 18 2 19 1 20 20 21 21 22 22 23
REMARK SMILES IDX 23 24 24 25 25 26 26 27 27 28 28 29 89 30 29 31 88 32 30 33
REMARK SMILES IDX 31 34 32 35 82 36 33 37 87 38 81 39 83 40 34 41 86 42 80 43
REMARK SMILES IDX 79 44 35 46 67 47 47 48 66 49 48 50 51 51 65 52 84 53 49 54
REMARK SMILES IDX 50 55 64 57 85 58 52 59 36 60 37 61 45 62 38 63 39 64 43 65
REMARK SMILES IDX 46 66 40 67 41 68 44 69 42 70 68 71 69 72 77 73 70 74 71 75
REMARK SMILES IDX 75 76 78 77 72 78 73 79 76 80 74 81 53 82 54 83 62 84 55 85
REMARK SMILES IDX 56 86 60 87 63 88 57 89 58 90 61 91 59 92
REMARK H PARENT 83 45 51 56
REMARK Flexibility Score: inf
ROOT
ATOM      1  C   UNL A   1      34.931  32.651  28.013  1.00  0.00     0.188 C 
ENDROOT
BRANCH   1   2
ATOM      2  O   UNL A   1      34.143  31.491  28.215  1.00  0.00    -0.376 OA
BRANCH   2   3
ATOM      3  C   UNL A   1      34.398  30.407  27.329  1.00  0.00     0.202 C 
BRANCH   3   4
ATOM      4  C   UNL A   1      33.151  29.581  27.008  1.00  0.00     0.261 C 
BRANCH   4   5
ATOM      5  O   UNL A   1      33.401  28.519  26.071  1.00  0.00    -0.460 OA
BRANCH   5   6
ATOM      6  C   UNL A   1      32.599  27.432  26.096  1.00  0.00     0.343 C 
ATOM      7  O   UNL A   1      31.810  27.144  26.992  1.00  0.00    -0.246 OA
BRANCH   6   8
ATOM      8  C   UNL A   1      32.732  26.733  24.799  1.00  0.00     0.119 A 
ATOM      9  C   UNL A   1      31.856  26.955  23.719  1.00  0.00     0.054 A 
ATOM     10  C   UNL A   1      32.080  26.241  22.522  1.00  0.00     0.027 A 
ATOM     11  C   UNL A   1      33.155  25.363  22.376  1.00  0.00     0.005 A 
ATOM     12  C   UNL A   1      33.798  25.830  24.642  1.00  0.00     0.139 A 
ATOM     13  C   UNL A   1      34.022  25.164  23.440  1.00  0.00     0.040 A 
ATOM     14  F   UNL A   1      34.645  25.581  25.652  1.00  0.00    -0.206 F 
BRANCH   9  15
ATOM     15  N   UNL A   1      30.815  27.894  23.671  1.00  0.00    -0.370 N 
ATOM     16  C   UNL A   1      29.344  29.300  23.502  1.00  0.00     0.028 C 
ATOM     17  C   UNL A   1      29.557  27.863  23.011  1.00  0.00     0.122 C 
ATOM     18  C   UNL A   1      30.879  29.326  23.675  1.00  0.00     0.122 C 
BRANCH  16  19
ATOM     19  C   UNL A   1      28.621  30.195  22.505  1.00  0.00     0.004 C 
ATOM     20  C   UNL A   1      27.690  31.180  23.214  1.00  0.00     0.004 C 
ENDBRANCH  16  19
ENDBRANCH   9  15
ENDBRANCH   6   8
ENDBRANCH   5   6
ENDBRANCH   4   5
ENDBRANCH   3   4
ENDBRANCH   2   3
ENDBRANCH   1   2
BRANCH   1  21
ATOM     21  C   UNL A   1      34.398  33.924  28.693  1.00  0.00     0.188 C 
BRANCH  21  22
ATOM     22  O   UNL A   1      33.671  33.855  29.912  1.00  0.00    -0.376 OA
BRANCH  22  23
ATOM     23  C   UNL A   1      34.128  34.584  31.036  1.00  0.00     0.202 C 
BRANCH  23  24
ATOM     24  C   UNL A   1      34.541  33.781  32.277  1.00  0.00     0.261 C 
BRANCH  24  25
ATOM     25  O   UNL A   1      35.086  32.469  32.030  1.00  0.00    -0.460 OA
BRANCH  25  26
ATOM     26  C   UNL A   1      36.129  32.110  32.817  1.00  0.00     0.338 C 
ATOM     27  O   UNL A   1      36.257  32.329  34.011  1.00  0.00    -0.246 OA
BRANCH  26  28
ATOM     28  C   UNL A   1      37.112  31.290  32.066  1.00  0.00     0.060 A 
ATOM     29  C   UNL A   1      38.133  30.649  32.781  1.00  0.00     0.016 A 
ATOM     30  C   UNL A   1      37.115  31.253  30.671  1.00  0.00     0.016 A 
ATOM     31  C   UNL A   1      39.189  30.020  32.108  1.00  0.00     0.010 A 
ATOM     32  C   UNL A   1      38.178  30.631  29.998  1.00  0.00     0.010 A 
ATOM     33  C   UNL A   1      39.245  30.044  30.710  1.00  0.00    -0.014 A 
BRANCH  33  34
ATOM     34  C   UNL A   1      40.466  29.609  29.971  1.00  0.00     0.031 A 
ATOM     35  C   UNL A   1      40.543  28.215  29.440  1.00  0.00     0.074 A 
ATOM     36  C   UNL A   1      41.510  30.424  29.746  1.00  0.00     0.049 A 
ATOM     37  N   UNL A   1      41.548  27.615  28.859  1.00  0.00    -0.248 NA
ATOM     38  C   UNL A   1      39.318  27.411  29.526  1.00  0.00     0.031 C 
ATOM     39  C   UNL A   1      41.505  31.844  30.021  1.00  0.00     0.029 A 
ATOM     40  N   UNL A   1      42.780  30.182  29.277  1.00  0.00    -0.354 N 
ATOM     41  C   UNL A   1      41.061  26.386  28.452  1.00  0.00     0.074 A 
ATOM     42  C   UNL A   1      39.696  26.291  28.928  1.00  0.00     0.031 C 
ATOM     43  C   UNL A   1      42.740  32.340  29.836  1.00  0.00     0.029 A 
ATOM     44  C   UNL A   1      43.626  31.253  29.446  1.00  0.00     0.049 A 
ATOM     45  H   UNL A   1      43.054  29.331  28.864  1.00  0.00     0.167 HD
ATOM     46  C   UNL A   1      41.688  25.447  27.709  1.00  0.00     0.037 A 
ATOM     47  C   UNL A   1      44.967  31.343  29.349  1.00  0.00     0.037 A 
ATOM     48  C   UNL A   1      43.055  25.531  27.267  1.00  0.00     0.049 A 
ATOM     49  C   UNL A   1      45.731  30.181  28.788  1.00  0.00     0.074 A 
ATOM     50  C   UNL A   1      43.771  24.624  26.508  1.00  0.00     0.029 A 
ATOM     51  N   UNL A   1      43.925  26.571  27.571  1.00  0.00    -0.354 N 
ATOM     52  N   UNL A   1      45.266  29.024  28.389  1.00  0.00    -0.248 NA
ATOM     53  C   UNL A   1      47.178  30.347  28.600  1.00  0.00     0.031 C 
ATOM     54  C   UNL A   1      45.091  25.076  26.415  1.00  0.00     0.029 A 
ATOM     55  C   UNL A   1      45.185  26.301  27.057  1.00  0.00     0.049 A 
ATOM     56  H   UNL A   1      43.682  27.381  28.074  1.00  0.00     0.167 HD
ATOM     57  C   UNL A   1      46.341  28.355  27.825  1.00  0.00     0.074 A 
ATOM     58  C   UNL A   1      47.495  29.218  27.977  1.00  0.00     0.031 C 
ATOM     59  C   UNL A   1      46.341  27.154  27.199  1.00  0.00     0.037 A 
BRANCH  46  60
ATOM     60  C   UNL A   1      40.887  24.234  27.347  1.00  0.00     0.064 A 
ATOM     61  C   UNL A   1      39.808  24.335  26.460  1.00  0.00     0.173 A 
ATOM     62  C   UNL A   1      41.188  22.972  27.881  1.00  0.00     0.173 A 
ATOM     63  F   UNL A   1      39.482  25.521  25.924  1.00  0.00    -0.203 F 
ATOM     64  C   UNL A   1      39.060  23.214  26.116  1.00  0.00     0.198 A 
ATOM     65  C   UNL A   1      40.456  21.847  27.512  1.00  0.00     0.198 A 
ATOM     66  F   UNL A   1      42.223  22.822  28.721  1.00  0.00    -0.203 F 
ATOM     67  F   UNL A   1      38.024  23.336  25.274  1.00  0.00    -0.200 F 
ATOM     68  C   UNL A   1      39.390  21.971  26.634  1.00  0.00     0.200 A 
ATOM     69  F   UNL A   1      40.795  20.642  27.990  1.00  0.00    -0.200 F 
ATOM     70  F   UNL A   1      38.685  20.887  26.278  1.00  0.00    -0.200 F 
ENDBRANCH  46  60
BRANCH  47  71
ATOM     71  C   UNL A   1      45.651  32.583  29.798  1.00  0.00     0.064 A 
ATOM     72  C   UNL A   1      45.931  33.616  28.888  1.00  0.00     0.173 A 
ATOM     73  C   UNL A   1      46.074  32.748  31.121  1.00  0.00     0.173 A 
ATOM     74  F   UNL A   1      45.542  33.508  27.609  1.00  0.00    -0.203 F 
ATOM     75  C   UNL A   1      46.622  34.759  29.284  1.00  0.00     0.198 A 
ATOM     76  C   UNL A   1      46.755  33.897  31.520  1.00  0.00     0.198 A 
ATOM     77  F   UNL A   1      45.813  31.797  32.030  1.00  0.00    -0.203 F 
ATOM     78  F   UNL A   1      46.894  35.721  28.391  1.00  0.00    -0.200 F 
ATOM     79  C   UNL A   1      47.034  34.899  30.600  1.00  0.00     0.200 A 
ATOM     80  F   UNL A   1      47.140  34.037  32.796  1.00  0.00    -0.200 F 
ATOM     81  F   UNL A   1      47.701  35.997  30.984  1.00  0.00    -0.200 F 
ENDBRANCH  47  71
BRANCH  59  82
ATOM     82  C   UNL A   1      47.619  26.696  26.560  1.00  0.00     0.064 A 
ATOM     83  C   UNL A   1      48.519  25.899  27.288  1.00  0.00     0.173 A 
ATOM     84  C   UNL A   1      48.002  27.116  25.280  1.00  0.00     0.173 A 
ATOM     85  F   UNL A   1      48.198  25.470  28.519  1.00  0.00    -0.203 F 
ATOM     86  C   UNL A   1      49.766  25.568  26.769  1.00  0.00     0.198 A 
ATOM     87  C   UNL A   1      49.239  26.758  24.752  1.00  0.00     0.198 A 
ATOM     88  F   UNL A   1      47.169  27.862  24.537  1.00  0.00    -0.203 F 
ATOM     89  F   UNL A   1      50.626  24.848  27.502  1.00  0.00    -0.200 F 
ATOM     90  C   UNL A   1      50.126  25.998  25.501  1.00  0.00     0.200 A 
ATOM     91  F   UNL A   1      49.576  27.150  23.516  1.00  0.00    -0.200 F 
ATOM     92  F   UNL A   1      51.328  25.679  25.002  1.00  0.00    -0.200 F 
ENDBRANCH  59  82
ENDBRANCH  33  34
ENDBRANCH  26  28
ENDBRANCH  25  26
ENDBRANCH  24  25
ENDBRANCH  23  24
ENDBRANCH  22  23
ENDBRANCH  21  22
ENDBRANCH   1  21
TORSDOF 19
ENDMDL
MODEL 3
REMARK VINA RESULT:     -10.2      2.785      7.585
REMARK SMILES CCC1CN(c2cccc(F)c2C(=O)OCCOCCOCCOC(=O)c2ccc(-c3c4nc(c(-c5c(F)c(F)c(F)c(F)c5F)c5ccc([nH]5)c(-c5c(F)c(F)c(F)c(F)c5F)c5nc(c(-c6c(F)c(F)c(F)c(F)c6F)c6ccc3[nH]6)C=C5)C=C4)cc2)C1
REMARK SMILES IDX 19 1 18 2 17 3 16 4 15 5 13 6 14 7 12 8 6 9 7 10 8 11 10 12
REMARK SMILES IDX 9 13 11 14 5 15 3 16 4 17 90 18 2 19 1 20 20 21 21 22 22 23
REMARK SMILES IDX 23 24 24 25 25 26 26 27 27 28 28 29 89 30 29 31 88 32 30 33
REMARK SMILES IDX 31 34 32 35 82 36 33 37 87 38 81 39 83 40 34 41 86 42 80 43
REMARK SMILES IDX 79 44 35 46 67 47 47 48 66 49 48 50 51 51 65 52 84 53 49 54
REMARK SMILES IDX 50 55 64 57 85 58 52 59 36 60 37 61 45 62 38 63 39 64 43 65
REMARK SMILES IDX 46 66 40 67 41 68 44 69 42 70 68 71 69 72 77 73 70 74 71 75
REMARK SMILES IDX 75 76 78 77 72 78 73 79 76 80 74 81 53 82 54 83 62 84 55 85
REMARK SMILES IDX 56 86 60 87 63 88 57 89 58 90 61 91 59 92
REMARK H PARENT 83 45 51 56
REMARK Flexibility Score: inf
ROOT
ATOM      1  C   UNL A   1      32.858  21.025  24.533  1.00  0.00     0.188 C 
ENDROOT
BRANCH   1   2
ATOM      2  O   UNL A   1      32.186  21.219  25.766  1.00  0.00    -0.376 OA
BRANCH   2   3
ATOM      3  C   UNL A   1      31.090  22.126  25.738  1.00  0.00     0.202 C 
BRANCH   3   4
ATOM      4  C   UNL A   1      31.225  23.269  26.747  1.00  0.00     0.261 C 
BRANCH   4   5
ATOM      5  O   UNL A   1      31.749  24.477  26.168  1.00  0.00    -0.460 OA
BRANCH   5   6
ATOM      6  C   UNL A   1      30.886  25.367  25.633  1.00  0.00     0.343 C 
ATOM      7  O   UNL A   1      29.858  25.776  26.165  1.00  0.00    -0.246 OA
BRANCH   6   8
ATOM      8  C   UNL A   1      31.466  25.866  24.367  1.00  0.00     0.119 A 
ATOM      9  C   UNL A   1      32.345  26.964  24.311  1.00  0.00     0.054 A 
ATOM     10  C   UNL A   1      32.849  27.351  23.051  1.00  0.00     0.027 A 
ATOM     11  C   UNL A   1      32.530  26.657  21.883  1.00  0.00     0.005 A 
ATOM     12  C   UNL A   1      31.138  25.190  23.179  1.00  0.00     0.139 A 
ATOM     13  C   UNL A   1      31.677  25.566  21.950  1.00  0.00     0.040 A 
ATOM     14  F   UNL A   1      30.294  24.148  23.189  1.00  0.00    -0.206 F 
BRANCH   9  15
ATOM     15  N   UNL A   1      32.857  27.678  25.406  1.00  0.00    -0.370 N 
ATOM     16  C   UNL A   1      33.703  28.719  26.945  1.00  0.00     0.028 C 
ATOM     17  C   UNL A   1      33.006  29.074  25.625  1.00  0.00     0.122 C 
ATOM     18  C   UNL A   1      33.921  27.332  26.302  1.00  0.00     0.122 C 
BRANCH  16  19
ATOM     19  C   UNL A   1      34.860  29.642  27.303  1.00  0.00     0.004 C 
ATOM     20  C   UNL A   1      34.359  31.016  27.747  1.00  0.00     0.004 C 
ENDBRANCH  16  19
ENDBRANCH   9  15
ENDBRANCH   6   8
ENDBRANCH   5   6
ENDBRANCH   4   5
ENDBRANCH   3   4
ENDBRANCH   2   3
ENDBRANCH   1   2
BRANCH   1  21
ATOM     21  C   UNL A   1      34.297  20.497  24.656  1.00  0.00     0.188 C 
BRANCH  21  22
ATOM     22  O   UNL A   1      35.377  21.371  24.951  1.00  0.00    -0.376 OA
BRANCH  22  23
ATOM     23  C   UNL A   1      35.172  22.770  24.903  1.00  0.00     0.202 C 
BRANCH  23  24
ATOM     24  C   UNL A   1      35.938  23.631  25.916  1.00  0.00     0.261 C 
BRANCH  24  25
ATOM     25  O   UNL A   1      37.246  24.078  25.505  1.00  0.00    -0.460 OA
BRANCH  25  26
ATOM     26  C   UNL A   1      38.291  23.497  26.144  1.00  0.00     0.338 C 
ATOM     27  O   UNL A   1      38.612  22.320  26.104  1.00  0.00    -0.246 OA
BRANCH  26  28
ATOM     28  C   UNL A   1      39.114  24.505  26.856  1.00  0.00     0.060 A 
ATOM     29  C   UNL A   1      38.850  24.748  28.212  1.00  0.00     0.016 A 
ATOM     30  C   UNL A   1      40.043  25.297  26.179  1.00  0.00     0.016 A 
ATOM     31  C   UNL A   1      39.467  25.814  28.879  1.00  0.00     0.010 A 
ATOM     32  C   UNL A   1      40.654  26.370  26.846  1.00  0.00     0.010 A 
ATOM     33  C   UNL A   1      40.341  26.664  28.190  1.00  0.00    -0.014 A 
BRANCH  33  34
ATOM     34  C   UNL A   1      40.819  27.943  28.790  1.00  0.00     0.031 A 
ATOM     35  C   UNL A   1      42.206  28.022  29.338  1.00  0.00     0.074 A 
ATOM     36  C   UNL A   1      40.056  29.047  28.854  1.00  0.00     0.049 A 
ATOM     37  N   UNL A   1      42.777  29.005  29.984  1.00  0.00    -0.248 NA
ATOM     38  C   UNL A   1      43.081  26.871  29.080  1.00  0.00     0.031 C 
ATOM     39  C   UNL A   1      38.775  29.188  28.198  1.00  0.00     0.029 A 
ATOM     40  N   UNL A   1      40.218  30.238  29.523  1.00  0.00    -0.354 N 
ATOM     41  C   UNL A   1      44.094  28.621  30.155  1.00  0.00     0.074 A 
ATOM     42  C   UNL A   1      44.219  27.279  29.622  1.00  0.00     0.031 C 
ATOM     43  C   UNL A   1      38.199  30.338  28.582  1.00  0.00     0.029 A 
ATOM     44  C   UNL A   1      39.076  31.005  29.534  1.00  0.00     0.049 A 
ATOM     45  H   UNL A   1      41.062  30.512  29.949  1.00  0.00     0.167 HD
ATOM     46  C   UNL A   1      45.113  29.345  30.670  1.00  0.00     0.037 A 
ATOM     47  C   UNL A   1      38.749  32.092  30.261  1.00  0.00     0.037 A 
ATOM     48  C   UNL A   1      44.977  30.664  31.229  1.00  0.00     0.049 A 
ATOM     49  C   UNL A   1      39.810  32.756  31.086  1.00  0.00     0.074 A 
ATOM     50  C   UNL A   1      45.959  31.473  31.772  1.00  0.00     0.029 A 
ATOM     51  N   UNL A   1      43.779  31.358  31.345  1.00  0.00    -0.354 N 
ATOM     52  N   UNL A   1      41.061  32.399  31.235  1.00  0.00    -0.248 NA
ATOM     53  C   UNL A   1      39.448  33.995  31.786  1.00  0.00     0.031 C 
ATOM     54  C   UNL A   1      45.346  32.621  32.284  1.00  0.00     0.029 A 
ATOM     55  C   UNL A   1      43.990  32.563  31.999  1.00  0.00     0.049 A 
ATOM     56  H   UNL A   1      42.909  31.042  31.011  1.00  0.00     0.167 HD
ATOM     57  C   UNL A   1      41.660  33.408  31.972  1.00  0.00     0.074 A 
ATOM     58  C   UNL A   1      40.622  34.370  32.282  1.00  0.00     0.031 C 
ATOM     59  C   UNL A   1      42.966  33.532  32.310  1.00  0.00     0.037 A 
BRANCH  46  60
ATOM     60  C   UNL A   1      46.465  28.700  30.662  1.00  0.00     0.064 A 
ATOM     61  C   UNL A   1      46.904  27.962  31.768  1.00  0.00     0.173 A 
ATOM     62  C   UNL A   1      47.324  28.815  29.559  1.00  0.00     0.173 A 
ATOM     63  F   UNL A   1      46.117  27.825  32.847  1.00  0.00    -0.203 F 
ATOM     64  C   UNL A   1      48.157  27.358  31.771  1.00  0.00     0.198 A 
ATOM     65  C   UNL A   1      48.565  28.183  29.553  1.00  0.00     0.198 A 
ATOM     66  F   UNL A   1      46.940  29.497  28.470  1.00  0.00    -0.203 F 
ATOM     67  F   UNL A   1      48.562  26.666  32.845  1.00  0.00    -0.200 F 
ATOM     68  C   UNL A   1      48.982  27.461  30.660  1.00  0.00     0.200 A 
ATOM     69  F   UNL A   1      49.348  28.259  28.467  1.00  0.00    -0.200 F 
ATOM     70  F   UNL A   1      50.176  26.852  30.653  1.00  0.00    -0.200 F 
ENDBRANCH  46  60
BRANCH  47  71
ATOM     71  C   UNL A   1      37.354  32.600  30.228  1.00  0.00     0.064 A 
ATOM     72  C   UNL A   1      36.953  33.530  29.255  1.00  0.00     0.173 A 
ATOM     73  C   UNL A   1      36.407  32.205  31.181  1.00  0.00     0.173 A 
ATOM     74  F   UNL A   1      37.822  33.937  28.317  1.00  0.00    -0.203 F 
ATOM     75  C   UNL A   1      35.664  34.058  29.248  1.00  0.00     0.198 A 
ATOM     76  C   UNL A   1      35.113  32.724  31.166  1.00  0.00     0.198 A 
ATOM     77  F   UNL A   1      36.738  31.305  32.118  1.00  0.00    -0.203 F 
ATOM     78  F   UNL A   1      35.313  34.960  28.320  1.00  0.00    -0.200 F 
ATOM     79  C   UNL A   1      34.744  33.655  30.204  1.00  0.00     0.200 A 
ATOM     80  F   UNL A   1      34.222  32.323  32.082  1.00  0.00    -0.200 F 
ATOM     81  F   UNL A   1      33.503  34.162  30.201  1.00  0.00    -0.200 F 
ENDBRANCH  47  71
BRANCH  59  82
ATOM     82  C   UNL A   1      43.392  34.786  33.013  1.00  0.00     0.064 A 
ATOM     83  C   UNL A   1      43.758  35.918  32.266  1.00  0.00     0.173 A 
ATOM     84  C   UNL A   1      43.532  34.846  34.406  1.00  0.00     0.173 A 
ATOM     85  F   UNL A   1      43.641  35.911  30.929  1.00  0.00    -0.203 F 
ATOM     86  C   UNL A   1      44.278  37.050  32.885  1.00  0.00     0.198 A 
ATOM     87  C   UNL A   1      44.025  35.992  35.025  1.00  0.00     0.198 A 
ATOM     88  F   UNL A   1      43.177  33.799  35.166  1.00  0.00    -0.203 F 
ATOM     89  F   UNL A   1      44.666  38.098  32.146  1.00  0.00    -0.200 F 
ATOM     90  C   UNL A   1      44.413  37.086  34.264  1.00  0.00     0.200 A 
ATOM     91  F   UNL A   1      44.130  36.037  36.360  1.00  0.00    -0.200 F 
ATOM     92  F   UNL A   1      44.915  38.176  34.860  1.00  0.00    -0.200 F 
ENDBRANCH  59  82
ENDBRANCH  33  34
ENDBRANCH  26  28
ENDBRANCH  25  26
ENDBRANCH  24  25
ENDBRANCH  23  24
ENDBRANCH  22  23
ENDBRANCH  21  22
ENDBRANCH   1  21
TORSDOF 19
ENDMDL
