MODEL 1
REMARK VINA RESULT:     -12.0      0.000      0.000
REMARK SMILES Cc1cc(C(=O)OCCOCCOCCOC(=O)c2ccc(-c3c4nc(c(-c5c(F)c(F)c(F)c(F)c5F)c5ccc([nH]5)c(-c5c(F)c(F)c(F)c(F)c5F)c5nc(c(-c6c(F)c(F)c(F)c(F)c6F)c6ccc3[nH]6)C=C5)C=C4)cc2)nc(N2CCN(c3ccccc3Cl)CC2)n1
REMARK SMILES IDX 11 1 10 2 9 3 8 4 7 5 5 6 6 7 4 8 1 9 2 10 3 11 97 12 83 13
REMARK SMILES IDX 82 14 84 15 85 16 96 17 86 18 95 19 87 20 88 21 89 22 93 23
REMARK SMILES IDX 90 24 92 25 94 26 91 27 12 28 13 29 14 30 15 31 16 32 17 33
REMARK SMILES IDX 18 34 19 35 20 36 81 37 21 38 80 39 22 40 23 41 24 42 74 43
REMARK SMILES IDX 25 44 79 45 73 46 75 47 26 48 78 49 72 50 71 51 27 53 59 54
REMARK SMILES IDX 39 55 58 56 40 57 43 58 57 59 76 60 41 61 42 62 56 64 77 65
REMARK SMILES IDX 44 66 28 67 29 68 37 69 30 70 31 71 35 72 38 73 32 74 33 75
REMARK SMILES IDX 36 76 34 77 60 78 61 79 69 80 62 81 63 82 67 83 70 84 64 85
REMARK SMILES IDX 65 86 68 87 66 88 45 89 46 90 54 91 47 92 48 93 52 94 55 95
REMARK SMILES IDX 49 96 50 97 53 98 51 99
REMARK H PARENT 75 52 43 63
REMARK Flexibility Score: inf
ROOT
ATOM      1  C   UNL A   1      41.267  21.366  27.486  1.00  0.00     0.188 C 
ENDROOT
BRANCH   1   2
ATOM      2  O   UNL A   1      40.023  22.006  27.220  1.00  0.00    -0.376 OA
BRANCH   2   3
ATOM      3  C   UNL A   1      39.512  22.039  25.892  1.00  0.00     0.202 C 
BRANCH   3   4
ATOM      4  C   UNL A   1      38.190  21.326  25.574  1.00  0.00     0.261 C 
BRANCH   4   5
ATOM      5  O   UNL A   1      37.303  22.091  24.742  1.00  0.00    -0.459 OA
BRANCH   5   6
ATOM      6  C   UNL A   1      36.421  22.876  25.423  1.00  0.00     0.357 C 
ATOM      7  O   UNL A   1      36.687  23.711  26.257  1.00  0.00    -0.244 OA
BRANCH   6   8
ATOM      8  C   UNL A   1      35.052  22.660  24.879  1.00  0.00     0.154 A 
ATOM      9  C   UNL A   1      32.527  20.066  24.026  1.00  0.00     0.067 C 
ATOM     10  C   UNL A   1      33.235  21.370  24.243  1.00  0.00     0.044 A 
ATOM     11  C   UNL A   1      34.533  21.400  24.704  1.00  0.00     0.059 A 
ATOM     12  N   UNL A   1      32.522  22.497  24.010  1.00  0.00    -0.218 NA
ATOM     13  C   UNL A   1      33.131  23.679  24.179  1.00  0.00     0.226 A 
ATOM     14  N   UNL A   1      34.393  23.797  24.587  1.00  0.00    -0.206 NA
BRANCH  13  15
ATOM     15  N   UNL A   1      32.474  24.853  23.917  1.00  0.00    -0.337 N 
ATOM     16  C   UNL A   1      31.595  25.404  24.949  1.00  0.00     0.141 C 
ATOM     17  C   UNL A   1      31.986  24.983  22.541  1.00  0.00     0.141 C 
ATOM     18  C   UNL A   1      31.302  26.896  24.637  1.00  0.00     0.138 C 
ATOM     19  C   UNL A   1      31.668  26.460  22.222  1.00  0.00     0.138 C 
ATOM     20  N   UNL A   1      30.793  27.022  23.264  1.00  0.00    -0.367 N 
BRANCH  20  21
ATOM     21  C   UNL A   1      29.924  28.038  22.900  1.00  0.00     0.056 A 
ATOM     22  C   UNL A   1      30.389  29.181  22.233  1.00  0.00     0.027 A 
ATOM     23  C   UNL A   1      28.541  27.968  23.186  1.00  0.00     0.064 A 
ATOM     24  C   UNL A   1      29.518  30.215  21.867  1.00  0.00     0.002 A 
ATOM     25  C   UNL A   1      27.673  29.006  22.831  1.00  0.00     0.023 A 
ATOM     26  Cl  UNL A   1      27.861  26.624  24.047  1.00  0.00    -0.082 Cl
ATOM     27  C   UNL A   1      28.163  30.129  22.172  1.00  0.00     0.002 A 
ENDBRANCH  20  21
ENDBRANCH  13  15
ENDBRANCH   6   8
ENDBRANCH   5   6
ENDBRANCH   4   5
ENDBRANCH   3   4
ENDBRANCH   2   3
ENDBRANCH   1   2
BRANCH   1  28
ATOM     28  C   UNL A   1      41.584  20.003  26.834  1.00  0.00     0.188 C 
BRANCH  28  29
ATOM     29  O   UNL A   1      42.606  20.045  25.867  1.00  0.00    -0.376 OA
BRANCH  29  30
ATOM     30  C   UNL A   1      43.501  21.142  25.814  1.00  0.00     0.202 C 
BRANCH  30  31
ATOM     31  C   UNL A   1      43.660  22.095  24.613  1.00  0.00     0.261 C 
BRANCH  31  32
ATOM     32  O   UNL A   1      43.119  23.414  24.722  1.00  0.00    -0.460 OA
BRANCH  32  33
ATOM     33  C   UNL A   1      43.979  24.392  25.083  1.00  0.00     0.338 C 
ATOM     34  O   UNL A   1      45.077  24.630  24.608  1.00  0.00    -0.246 OA
BRANCH  33  35
ATOM     35  C   UNL A   1      43.303  25.259  26.065  1.00  0.00     0.060 A 
ATOM     36  C   UNL A   1      43.747  26.578  26.203  1.00  0.00     0.016 A 
ATOM     37  C   UNL A   1      42.263  24.771  26.861  1.00  0.00     0.016 A 
ATOM     38  C   UNL A   1      43.160  27.410  27.155  1.00  0.00     0.010 A 
ATOM     39  C   UNL A   1      41.682  25.606  27.821  1.00  0.00     0.010 A 
ATOM     40  C   UNL A   1      42.138  26.925  27.983  1.00  0.00    -0.014 A 
BRANCH  40  41
ATOM     41  C   UNL A   1      41.669  27.753  29.120  1.00  0.00     0.031 A 
ATOM     42  C   UNL A   1      42.418  27.680  30.421  1.00  0.00     0.074 A 
ATOM     43  C   UNL A   1      40.620  28.585  28.992  1.00  0.00     0.049 A 
ATOM     44  N   UNL A   1      42.171  28.279  31.557  1.00  0.00    -0.248 NA
ATOM     45  C   UNL A   1      43.607  26.815  30.437  1.00  0.00     0.031 C 
ATOM     46  C   UNL A   1      39.845  28.787  27.771  1.00  0.00     0.029 A 
ATOM     47  N   UNL A   1      40.030  29.418  29.910  1.00  0.00    -0.354 N 
ATOM     48  C   UNL A   1      43.175  27.866  32.422  1.00  0.00     0.074 A 
ATOM     49  C   UNL A   1      44.021  26.950  31.689  1.00  0.00     0.031 C 
ATOM     50  C   UNL A   1      38.873  29.684  28.017  1.00  0.00     0.029 A 
ATOM     51  C   UNL A   1      38.936  30.090  29.421  1.00  0.00     0.049 A 
ATOM     52  H   UNL A   1      40.360  29.525  30.831  1.00  0.00     0.167 HD
ATOM     53  C   UNL A   1      43.376  28.221  33.713  1.00  0.00     0.037 A 
ATOM     54  C   UNL A   1      38.071  30.910  30.048  1.00  0.00     0.037 A 
ATOM     55  C   UNL A   1      42.528  29.120  34.451  1.00  0.00     0.049 A 
ATOM     56  C   UNL A   1      38.260  31.211  31.515  1.00  0.00     0.074 A 
ATOM     57  C   UNL A   1      42.644  29.529  35.768  1.00  0.00     0.029 A 
ATOM     58  N   UNL A   1      41.402  29.742  33.935  1.00  0.00    -0.354 N 
ATOM     59  N   UNL A   1      39.213  30.823  32.327  1.00  0.00    -0.248 NA
ATOM     60  C   UNL A   1      37.243  32.061  32.154  1.00  0.00     0.031 C 
ATOM     61  C   UNL A   1      41.560  30.361  36.064  1.00  0.00     0.029 A 
ATOM     62  C   UNL A   1      40.799  30.513  34.916  1.00  0.00     0.049 A 
ATOM     63  H   UNL A   1      41.079  29.650  33.011  1.00  0.00     0.167 HD
ATOM     64  C   UNL A   1      38.928  31.401  33.558  1.00  0.00     0.074 A 
ATOM     65  C   UNL A   1      37.719  32.178  33.386  1.00  0.00     0.031 C 
ATOM     66  C   UNL A   1      39.605  31.295  34.728  1.00  0.00     0.037 A 
BRANCH  53  67
ATOM     67  C   UNL A   1      44.543  27.605  34.422  1.00  0.00     0.064 A 
ATOM     68  C   UNL A   1      44.430  26.382  35.100  1.00  0.00     0.173 A 
ATOM     69  C   UNL A   1      45.799  28.230  34.396  1.00  0.00     0.173 A 
ATOM     70  F   UNL A   1      43.246  25.756  35.167  1.00  0.00    -0.203 F 
ATOM     71  C   UNL A   1      45.527  25.818  35.743  1.00  0.00     0.198 A 
ATOM     72  C   UNL A   1      46.900  27.650  35.017  1.00  0.00     0.198 A 
ATOM     73  F   UNL A   1      45.959  29.400  33.760  1.00  0.00    -0.203 F 
ATOM     74  F   UNL A   1      45.389  24.669  36.420  1.00  0.00    -0.200 F 
ATOM     75  C   UNL A   1      46.763  26.448  35.695  1.00  0.00     0.200 A 
ATOM     76  F   UNL A   1      48.095  28.255  34.962  1.00  0.00    -0.200 F 
ATOM     77  F   UNL A   1      47.821  25.899  36.308  1.00  0.00    -0.200 F 
ENDBRANCH  53  67
BRANCH  54  78
ATOM     78  C   UNL A   1      36.909  31.478  29.313  1.00  0.00     0.064 A 
ATOM     79  C   UNL A   1      36.838  32.846  29.017  1.00  0.00     0.173 A 
ATOM     80  C   UNL A   1      35.819  30.675  28.947  1.00  0.00     0.173 A 
ATOM     81  F   UNL A   1      37.838  33.665  29.378  1.00  0.00    -0.203 F 
ATOM     82  C   UNL A   1      35.710  33.393  28.405  1.00  0.00     0.198 A 
ATOM     83  C   UNL A   1      34.705  31.216  28.309  1.00  0.00     0.198 A 
ATOM     84  F   UNL A   1      35.831  29.361  29.220  1.00  0.00    -0.203 F 
ATOM     85  F   UNL A   1      35.641  34.713  28.190  1.00  0.00    -0.200 F 
ATOM     86  C   UNL A   1      34.647  32.576  28.047  1.00  0.00     0.200 A 
ATOM     87  F   UNL A   1      33.682  30.422  27.963  1.00  0.00    -0.200 F 
ATOM     88  F   UNL A   1      33.560  33.104  27.469  1.00  0.00    -0.200 F 
ENDBRANCH  54  78
BRANCH  66  89
ATOM     89  C   UNL A   1      39.085  32.069  35.905  1.00  0.00     0.064 A 
ATOM     90  C   UNL A   1      38.193  31.501  36.826  1.00  0.00     0.173 A 
ATOM     91  C   UNL A   1      39.528  33.380  36.141  1.00  0.00     0.173 A 
ATOM     92  F   UNL A   1      37.729  30.257  36.638  1.00  0.00    -0.203 F 
ATOM     93  C   UNL A   1      37.746  32.227  37.929  1.00  0.00     0.198 A 
ATOM     94  C   UNL A   1      39.102  34.090  37.260  1.00  0.00     0.198 A 
ATOM     95  F   UNL A   1      40.387  33.966  35.294  1.00  0.00    -0.203 F 
ATOM     96  F   UNL A   1      36.861  31.679  38.774  1.00  0.00    -0.200 F 
ATOM     97  C   UNL A   1      38.208  33.516  38.150  1.00  0.00     0.200 A 
ATOM     98  F   UNL A   1      39.560  35.330  37.478  1.00  0.00    -0.200 F 
ATOM     99  F   UNL A   1      37.784  34.207  39.215  1.00  0.00    -0.200 F 
ENDBRANCH  66  89
ENDBRANCH  40  41
ENDBRANCH  33  35
ENDBRANCH  32  33
ENDBRANCH  31  32
ENDBRANCH  30  31
ENDBRANCH  29  30
ENDBRANCH  28  29
ENDBRANCH   1  28
TORSDOF 19
ENDMDL
MODEL 2
REMARK VINA RESULT:     -11.7      4.035      9.529
REMARK SMILES Cc1cc(C(=O)OCCOCCOCCOC(=O)c2ccc(-c3c4nc(c(-c5c(F)c(F)c(F)c(F)c5F)c5ccc([nH]5)c(-c5c(F)c(F)c(F)c(F)c5F)c5nc(c(-c6c(F)c(F)c(F)c(F)c6F)c6ccc3[nH]6)C=C5)C=C4)cc2)nc(N2CCN(c3ccccc3Cl)CC2)n1
REMARK SMILES IDX 11 1 10 2 9 3 8 4 7 5 5 6 6 7 4 8 1 9 2 10 3 11 97 12 83 13
REMARK SMILES IDX 82 14 84 15 85 16 96 17 86 18 95 19 87 20 88 21 89 22 93 23
REMARK SMILES IDX 90 24 92 25 94 26 91 27 12 28 13 29 14 30 15 31 16 32 17 33
REMARK SMILES IDX 18 34 19 35 20 36 81 37 21 38 80 39 22 40 23 41 24 42 74 43
REMARK SMILES IDX 25 44 79 45 73 46 75 47 26 48 78 49 72 50 71 51 27 53 59 54
REMARK SMILES IDX 39 55 58 56 40 57 43 58 57 59 76 60 41 61 42 62 56 64 77 65
REMARK SMILES IDX 44 66 28 67 29 68 37 69 30 70 31 71 35 72 38 73 32 74 33 75
REMARK SMILES IDX 36 76 34 77 60 78 61 79 69 80 62 81 63 82 67 83 70 84 64 85
REMARK SMILES IDX 65 86 68 87 66 88 45 89 46 90 54 91 47 92 48 93 52 94 55 95
REMARK SMILES IDX 49 96 50 97 53 98 51 99
REMARK H PARENT 75 52 43 63
REMARK Flexibility Score: inf
ROOT
ATOM      1  C   UNL A   1      35.951  32.565  28.350  1.00  0.00     0.188 C 
ENDROOT
BRANCH   1   2
ATOM      2  O   UNL A   1      35.274  31.747  27.400  1.00  0.00    -0.376 OA
BRANCH   2   3
ATOM      3  C   UNL A   1      33.925  31.359  27.633  1.00  0.00     0.202 C 
BRANCH   3   4
ATOM      4  C   UNL A   1      33.494  29.914  27.347  1.00  0.00     0.261 C 
BRANCH   4   5
ATOM      5  O   UNL A   1      32.075  29.750  27.192  1.00  0.00    -0.459 OA
BRANCH   5   6
ATOM      6  C   UNL A   1      31.637  28.463  27.290  1.00  0.00     0.357 C 
ATOM      7  O   UNL A   1      31.252  27.902  28.291  1.00  0.00    -0.244 OA
BRANCH   6   8
ATOM      8  C   UNL A   1      31.560  27.867  25.928  1.00  0.00     0.154 A 
ATOM      9  C   UNL A   1      30.947  28.627  22.339  1.00  0.00     0.067 C 
ATOM     10  C   UNL A   1      31.258  27.933  23.632  1.00  0.00     0.044 A 
ATOM     11  C   UNL A   1      31.233  28.618  24.825  1.00  0.00     0.059 A 
ATOM     12  N   UNL A   1      31.606  26.626  23.553  1.00  0.00    -0.218 NA
ATOM     13  C   UNL A   1      31.875  25.973  24.692  1.00  0.00     0.226 A 
ATOM     14  N   UNL A   1      31.839  26.550  25.890  1.00  0.00    -0.206 NA
BRANCH  13  15
ATOM     15  N   UNL A   1      32.191  24.638  24.679  1.00  0.00    -0.337 N 
ATOM     16  C   UNL A   1      32.840  24.089  23.488  1.00  0.00     0.141 C 
ATOM     17  C   UNL A   1      31.191  23.771  25.308  1.00  0.00     0.141 C 
ATOM     18  C   UNL A   1      33.481  22.717  23.834  1.00  0.00     0.138 C 
ATOM     19  C   UNL A   1      31.808  22.394  25.638  1.00  0.00     0.138 C 
ATOM     20  N   UNL A   1      32.472  21.841  24.445  1.00  0.00    -0.367 N 
BRANCH  20  21
ATOM     21  C   UNL A   1      32.532  20.463  24.319  1.00  0.00     0.056 A 
ATOM     22  C   UNL A   1      32.878  19.652  25.411  1.00  0.00     0.027 A 
ATOM     23  C   UNL A   1      32.251  19.818  23.093  1.00  0.00     0.064 A 
ATOM     24  C   UNL A   1      32.947  18.259  25.289  1.00  0.00     0.002 A 
ATOM     25  C   UNL A   1      32.331  18.427  22.968  1.00  0.00     0.023 A 
ATOM     26  Cl  UNL A   1      31.856  20.722  21.664  1.00  0.00    -0.082 Cl
ATOM     27  C   UNL A   1      32.680  17.648  24.067  1.00  0.00     0.002 A 
ENDBRANCH  20  21
ENDBRANCH  13  15
ENDBRANCH   6   8
ENDBRANCH   5   6
ENDBRANCH   4   5
ENDBRANCH   3   4
ENDBRANCH   2   3
ENDBRANCH   1   2
BRANCH   1  28
ATOM     28  C   UNL A   1      35.138  33.412  29.352  1.00  0.00     0.188 C 
BRANCH  28  29
ATOM     29  O   UNL A   1      35.048  34.778  29.023  1.00  0.00    -0.376 OA
BRANCH  29  30
ATOM     30  C   UNL A   1      33.790  35.370  28.754  1.00  0.00     0.202 C 
BRANCH  30  31
ATOM     31  C   UNL A   1      32.905  36.078  29.800  1.00  0.00     0.261 C 
BRANCH  31  32
ATOM     32  O   UNL A   1      32.453  35.320  30.925  1.00  0.00    -0.460 OA
BRANCH  32  33
ATOM     33  C   UNL A   1      32.757  35.813  32.146  1.00  0.00     0.338 C 
ATOM     34  O   UNL A   1      32.120  36.620  32.802  1.00  0.00    -0.246 OA
BRANCH  33  35
ATOM     35  C   UNL A   1      33.933  35.084  32.655  1.00  0.00     0.060 A 
ATOM     36  C   UNL A   1      35.193  35.675  32.517  1.00  0.00     0.016 A 
ATOM     37  C   UNL A   1      33.800  33.819  33.237  1.00  0.00     0.016 A 
ATOM     38  C   UNL A   1      36.329  34.992  32.947  1.00  0.00     0.010 A 
ATOM     39  C   UNL A   1      34.943  33.133  33.659  1.00  0.00     0.010 A 
ATOM     40  C   UNL A   1      36.215  33.709  33.502  1.00  0.00    -0.014 A 
BRANCH  40  41
ATOM     41  C   UNL A   1      37.442  32.918  33.762  1.00  0.00     0.031 A 
ATOM     42  C   UNL A   1      38.202  33.165  35.033  1.00  0.00     0.074 A 
ATOM     43  C   UNL A   1      37.854  31.968  32.903  1.00  0.00     0.049 A 
ATOM     44  N   UNL A   1      39.316  32.625  35.454  1.00  0.00    -0.248 NA
ATOM     45  C   UNL A   1      37.623  34.154  35.954  1.00  0.00     0.031 C 
ATOM     46  C   UNL A   1      37.177  31.596  31.664  1.00  0.00     0.029 A 
ATOM     47  N   UNL A   1      38.950  31.142  32.951  1.00  0.00    -0.354 N 
ATOM     48  C   UNL A   1      39.569  33.205  36.689  1.00  0.00     0.074 A 
ATOM     49  C   UNL A   1      38.507  34.155  36.940  1.00  0.00     0.031 C 
ATOM     50  C   UNL A   1      37.877  30.617  31.063  1.00  0.00     0.029 A 
ATOM     51  C   UNL A   1      39.070  30.322  31.857  1.00  0.00     0.049 A 
ATOM     52  H   UNL A   1      39.589  31.139  33.700  1.00  0.00     0.167 HD
ATOM     53  C   UNL A   1      40.596  32.967  37.540  1.00  0.00     0.037 A 
ATOM     54  C   UNL A   1      40.048  29.458  31.524  1.00  0.00     0.037 A 
ATOM     55  C   UNL A   1      41.662  32.035  37.287  1.00  0.00     0.049 A 
ATOM     56  C   UNL A   1      41.232  29.284  32.444  1.00  0.00     0.074 A 
ATOM     57  C   UNL A   1      42.753  31.736  38.085  1.00  0.00     0.029 A 
ATOM     58  N   UNL A   1      41.775  31.258  36.145  1.00  0.00    -0.354 N 
ATOM     59  N   UNL A   1      41.466  29.831  33.612  1.00  0.00    -0.248 NA
ATOM     60  C   UNL A   1      42.297  28.374  31.991  1.00  0.00     0.031 C 
ATOM     61  C   UNL A   1      43.552  30.813  37.403  1.00  0.00     0.029 A 
ATOM     62  C   UNL A   1      42.931  30.497  36.205  1.00  0.00     0.049 A 
ATOM     63  H   UNL A   1      41.130  31.248  35.402  1.00  0.00     0.167 HD
ATOM     64  C   UNL A   1      42.681  29.314  34.044  1.00  0.00     0.074 A 
ATOM     65  C   UNL A   1      43.134  28.399  33.018  1.00  0.00     0.031 C 
ATOM     66  C   UNL A   1      43.363  29.577  35.185  1.00  0.00     0.037 A 
BRANCH  53  67
ATOM     67  C   UNL A   1      40.631  33.757  38.813  1.00  0.00     0.064 A 
ATOM     68  C   UNL A   1      41.391  34.930  38.930  1.00  0.00     0.173 A 
ATOM     69  C   UNL A   1      39.870  33.352  39.920  1.00  0.00     0.173 A 
ATOM     70  F   UNL A   1      42.148  35.348  37.904  1.00  0.00    -0.203 F 
ATOM     71  C   UNL A   1      41.403  35.658  40.116  1.00  0.00     0.198 A 
ATOM     72  C   UNL A   1      39.863  34.097  41.095  1.00  0.00     0.198 A 
ATOM     73  F   UNL A   1      39.125  32.238  39.857  1.00  0.00    -0.203 F 
ATOM     74  F   UNL A   1      42.168  36.754  40.220  1.00  0.00    -0.200 F 
ATOM     75  C   UNL A   1      40.634  35.246  41.195  1.00  0.00     0.200 A 
ATOM     76  F   UNL A   1      39.112  33.702  42.132  1.00  0.00    -0.200 F 
ATOM     77  F   UNL A   1      40.640  35.952  42.333  1.00  0.00    -0.200 F 
ENDBRANCH  53  67
BRANCH  54  78
ATOM     78  C   UNL A   1      39.988  28.714  30.237  1.00  0.00     0.064 A 
ATOM     79  C   UNL A   1      39.395  27.446  30.160  1.00  0.00     0.173 A 
ATOM     80  C   UNL A   1      40.576  29.230  29.073  1.00  0.00     0.173 A 
ATOM     81  F   UNL A   1      38.850  26.892  31.254  1.00  0.00    -0.203 F 
ATOM     82  C   UNL A   1      39.415  26.714  28.973  1.00  0.00     0.198 A 
ATOM     83  C   UNL A   1      40.569  28.510  27.880  1.00  0.00     0.198 A 
ATOM     84  F   UNL A   1      41.169  30.434  29.097  1.00  0.00    -0.203 F 
ATOM     85  F   UNL A   1      38.897  25.479  28.944  1.00  0.00    -0.200 F 
ATOM     86  C   UNL A   1      39.997  27.248  27.834  1.00  0.00     0.200 A 
ATOM     87  F   UNL A   1      41.131  29.033  26.782  1.00  0.00    -0.200 F 
ATOM     88  F   UNL A   1      40.025  26.538  26.698  1.00  0.00    -0.200 F 
ENDBRANCH  54  78
BRANCH  66  89
ATOM     89  C   UNL A   1      44.649  28.836  35.414  1.00  0.00     0.064 A 
ATOM     90  C   UNL A   1      45.885  29.360  35.009  1.00  0.00     0.173 A 
ATOM     91  C   UNL A   1      44.646  27.608  36.094  1.00  0.00     0.173 A 
ATOM     92  F   UNL A   1      45.940  30.523  34.344  1.00  0.00    -0.203 F 
ATOM     93  C   UNL A   1      47.070  28.670  35.258  1.00  0.00     0.198 A 
ATOM     94  C   UNL A   1      45.835  26.937  36.366  1.00  0.00     0.198 A 
ATOM     95  F   UNL A   1      43.491  27.066  36.508  1.00  0.00    -0.203 F 
ATOM     96  F   UNL A   1      48.236  29.169  34.824  1.00  0.00    -0.200 F 
ATOM     97  C   UNL A   1      47.045  27.465  35.943  1.00  0.00     0.200 A 
ATOM     98  F   UNL A   1      45.810  25.779  37.041  1.00  0.00    -0.200 F 
ATOM     99  F   UNL A   1      48.186  26.809  36.189  1.00  0.00    -0.200 F 
ENDBRANCH  66  89
ENDBRANCH  40  41
ENDBRANCH  33  35
ENDBRANCH  32  33
ENDBRANCH  31  32
ENDBRANCH  30  31
ENDBRANCH  29  30
ENDBRANCH  28  29
ENDBRANCH   1  28
TORSDOF 19
ENDMDL
MODEL 3
REMARK VINA RESULT:     -11.5      3.564      9.274
REMARK SMILES Cc1cc(C(=O)OCCOCCOCCOC(=O)c2ccc(-c3c4nc(c(-c5c(F)c(F)c(F)c(F)c5F)c5ccc([nH]5)c(-c5c(F)c(F)c(F)c(F)c5F)c5nc(c(-c6c(F)c(F)c(F)c(F)c6F)c6ccc3[nH]6)C=C5)C=C4)cc2)nc(N2CCN(c3ccccc3Cl)CC2)n1
REMARK SMILES IDX 11 1 10 2 9 3 8 4 7 5 5 6 6 7 4 8 1 9 2 10 3 11 97 12 83 13
REMARK SMILES IDX 82 14 84 15 85 16 96 17 86 18 95 19 87 20 88 21 89 22 93 23
REMARK SMILES IDX 90 24 92 25 94 26 91 27 12 28 13 29 14 30 15 31 16 32 17 33
REMARK SMILES IDX 18 34 19 35 20 36 81 37 21 38 80 39 22 40 23 41 24 42 74 43
REMARK SMILES IDX 25 44 79 45 73 46 75 47 26 48 78 49 72 50 71 51 27 53 59 54
REMARK SMILES IDX 39 55 58 56 40 57 43 58 57 59 76 60 41 61 42 62 56 64 77 65
REMARK SMILES IDX 44 66 28 67 29 68 37 69 30 70 31 71 35 72 38 73 32 74 33 75
REMARK SMILES IDX 36 76 34 77 60 78 61 79 69 80 62 81 63 82 67 83 70 84 64 85
REMARK SMILES IDX 65 86 68 87 66 88 45 89 46 90 54 91 47 92 48 93 52 94 55 95
REMARK SMILES IDX 49 96 50 97 53 98 51 99
REMARK H PARENT 75 52 43 63
REMARK Flexibility Score: inf
ROOT
ATOM      1  C   UNL A   1      28.195  30.841  23.485  1.00  0.00     0.188 C 
ENDROOT
BRANCH   1   2
ATOM      2  O   UNL A   1      28.363  29.837  22.489  1.00  0.00    -0.376 OA
BRANCH   2   3
ATOM      3  C   UNL A   1      29.622  29.687  21.841  1.00  0.00     0.202 C 
BRANCH   3   4
ATOM      4  C   UNL A   1      30.682  28.761  22.454  1.00  0.00     0.261 C 
BRANCH   4   5
ATOM      5  O   UNL A   1      31.976  29.369  22.590  1.00  0.00    -0.459 OA
BRANCH   5   6
ATOM      6  C   UNL A   1      32.991  28.496  22.846  1.00  0.00     0.357 C 
ATOM      7  O   UNL A   1      34.033  28.396  22.241  1.00  0.00    -0.244 OA
BRANCH   6   8
ATOM      8  C   UNL A   1      32.692  27.755  24.103  1.00  0.00     0.154 A 
ATOM      9  C   UNL A   1      31.685  28.145  27.662  1.00  0.00     0.067 C 
ATOM     10  C   UNL A   1      32.072  27.578  26.329  1.00  0.00     0.044 A 
ATOM     11  C   UNL A   1      32.376  28.405  25.271  1.00  0.00     0.059 A 
ATOM     12  N   UNL A   1      32.061  26.229  26.214  1.00  0.00    -0.218 NA
ATOM     13  C   UNL A   1      32.418  25.690  25.039  1.00  0.00     0.226 A 
ATOM     14  N   UNL A   1      32.759  26.416  23.977  1.00  0.00    -0.206 NA
BRANCH  13  15
ATOM     15  N   UNL A   1      32.467  24.329  24.876  1.00  0.00    -0.337 N 
ATOM     16  C   UNL A   1      32.654  23.493  26.062  1.00  0.00     0.141 C 
ATOM     17  C   UNL A   1      33.179  23.886  23.675  1.00  0.00     0.141 C 
ATOM     18  C   UNL A   1      32.260  22.028  25.731  1.00  0.00     0.138 C 
ATOM     19  C   UNL A   1      32.814  22.423  23.345  1.00  0.00     0.138 C 
ATOM     20  N   UNL A   1      32.991  21.578  24.538  1.00  0.00    -0.367 N 
BRANCH  20  21
ATOM     21  C   UNL A   1      33.320  20.246  24.345  1.00  0.00     0.056 A 
ATOM     22  C   UNL A   1      32.400  19.350  23.781  1.00  0.00     0.027 A 
ATOM     23  C   UNL A   1      34.587  19.736  24.708  1.00  0.00     0.064 A 
ATOM     24  C   UNL A   1      32.723  18.001  23.589  1.00  0.00     0.002 A 
ATOM     25  C   UNL A   1      34.906  18.387  24.527  1.00  0.00     0.023 A 
ATOM     26  Cl  UNL A   1      35.788  20.742  25.455  1.00  0.00    -0.082 Cl
ATOM     27  C   UNL A   1      33.973  17.520  23.968  1.00  0.00     0.002 A 
ENDBRANCH  20  21
ENDBRANCH  13  15
ENDBRANCH   6   8
ENDBRANCH   5   6
ENDBRANCH   4   5
ENDBRANCH   3   4
ENDBRANCH   2   3
ENDBRANCH   1   2
BRANCH   1  28
ATOM     28  C   UNL A   1      28.892  32.208  23.324  1.00  0.00     0.188 C 
BRANCH  28  29
ATOM     29  O   UNL A   1      29.756  32.549  24.382  1.00  0.00    -0.376 OA
BRANCH  29  30
ATOM     30  C   UNL A   1      30.452  31.541  25.093  1.00  0.00     0.202 C 
BRANCH  30  31
ATOM     31  C   UNL A   1      31.026  31.700  26.516  1.00  0.00     0.261 C 
BRANCH  31  32
ATOM     32  O   UNL A   1      32.446  31.684  26.676  1.00  0.00    -0.460 OA
BRANCH  32  33
ATOM     33  C   UNL A   1      32.988  32.714  27.363  1.00  0.00     0.338 C 
ATOM     34  O   UNL A   1      32.486  33.803  27.588  1.00  0.00    -0.246 OA
BRANCH  33  35
ATOM     35  C   UNL A   1      34.255  32.254  27.959  1.00  0.00     0.060 A 
ATOM     36  C   UNL A   1      34.388  30.897  28.271  1.00  0.00     0.016 A 
ATOM     37  C   UNL A   1      35.290  33.153  28.233  1.00  0.00     0.016 A 
ATOM     38  C   UNL A   1      35.556  30.438  28.878  1.00  0.00     0.010 A 
ATOM     39  C   UNL A   1      36.457  32.690  28.851  1.00  0.00     0.010 A 
ATOM     40  C   UNL A   1      36.590  31.333  29.190  1.00  0.00    -0.014 A 
BRANCH  40  41
ATOM     41  C   UNL A   1      37.730  30.867  30.015  1.00  0.00     0.031 A 
ATOM     42  C   UNL A   1      38.714  29.908  29.408  1.00  0.00     0.074 A 
ATOM     43  C   UNL A   1      37.913  31.318  31.269  1.00  0.00     0.049 A 
ATOM     44  N   UNL A   1      39.760  29.338  29.947  1.00  0.00    -0.248 NA
ATOM     45  C   UNL A   1      38.485  29.546  28.001  1.00  0.00     0.031 C 
ATOM     46  C   UNL A   1      37.062  32.288  31.953  1.00  0.00     0.029 A 
ATOM     47  N   UNL A   1      38.883  31.011  32.190  1.00  0.00    -0.354 N 
ATOM     48  C   UNL A   1      40.316  28.554  28.946  1.00  0.00     0.074 A 
ATOM     49  C   UNL A   1      39.480  28.702  27.775  1.00  0.00     0.031 C 
ATOM     50  C   UNL A   1      37.545  32.493  33.191  1.00  0.00     0.029 A 
ATOM     51  C   UNL A   1      38.716  31.641  33.399  1.00  0.00     0.049 A 
ATOM     52  H   UNL A   1      39.630  30.397  32.002  1.00  0.00     0.167 HD
ATOM     53  C   UNL A   1      41.425  27.779  28.997  1.00  0.00     0.037 A 
ATOM     54  C   UNL A   1      39.410  31.516  34.546  1.00  0.00     0.037 A 
ATOM     55  C   UNL A   1      42.250  27.617  30.165  1.00  0.00     0.049 A 
ATOM     56  C   UNL A   1      40.585  30.570  34.606  1.00  0.00     0.074 A 
ATOM     57  C   UNL A   1      43.387  26.843  30.316  1.00  0.00     0.029 A 
ATOM     58  N   UNL A   1      42.020  28.234  31.385  1.00  0.00    -0.354 N 
ATOM     59  N   UNL A   1      41.109  29.834  33.656  1.00  0.00    -0.248 NA
ATOM     60  C   UNL A   1      41.260  30.431  35.906  1.00  0.00     0.031 C 
ATOM     61  C   UNL A   1      43.818  26.954  31.642  1.00  0.00     0.029 A 
ATOM     62  C   UNL A   1      42.980  27.839  32.302  1.00  0.00     0.049 A 
ATOM     63  H   UNL A   1      41.284  28.860  31.571  1.00  0.00     0.167 HD
ATOM     64  C   UNL A   1      42.186  29.172  34.232  1.00  0.00     0.074 A 
ATOM     65  C   UNL A   1      42.250  29.600  35.613  1.00  0.00     0.031 C 
ATOM     66  C   UNL A   1      43.043  28.284  33.669  1.00  0.00     0.037 A 
BRANCH  53  67
ATOM     67  C   UNL A   1      41.792  27.020  27.759  1.00  0.00     0.064 A 
ATOM     68  C   UNL A   1      42.461  27.635  26.690  1.00  0.00     0.173 A 
ATOM     69  C   UNL A   1      41.498  25.652  27.653  1.00  0.00     0.173 A 
ATOM     70  F   UNL A   1      42.748  28.944  26.738  1.00  0.00    -0.203 F 
ATOM     71  C   UNL A   1      42.804  26.912  25.552  1.00  0.00     0.198 A 
ATOM     72  C   UNL A   1      41.867  24.926  26.525  1.00  0.00     0.198 A 
ATOM     73  F   UNL A   1      40.861  25.019  28.649  1.00  0.00    -0.203 F 
ATOM     74  F   UNL A   1      43.407  27.527  24.525  1.00  0.00    -0.200 F 
ATOM     75  C   UNL A   1      42.514  25.557  25.473  1.00  0.00     0.200 A 
ATOM     76  F   UNL A   1      41.594  23.616  26.455  1.00  0.00    -0.200 F 
ATOM     77  F   UNL A   1      42.853  24.860  24.380  1.00  0.00    -0.200 F 
ENDBRANCH  53  67
BRANCH  54  78
ATOM     78  C   UNL A   1      38.996  32.269  35.760  1.00  0.00     0.064 A 
ATOM     79  C   UNL A   1      39.435  33.580  35.985  1.00  0.00     0.173 A 
ATOM     80  C   UNL A   1      38.202  31.669  36.749  1.00  0.00     0.173 A 
ATOM     81  F   UNL A   1      40.226  34.187  35.087  1.00  0.00    -0.203 F 
ATOM     82  C   UNL A   1      39.117  34.254  37.164  1.00  0.00     0.198 A 
ATOM     83  C   UNL A   1      37.860  32.353  37.914  1.00  0.00     0.198 A 
ATOM     84  F   UNL A   1      37.767  30.410  36.589  1.00  0.00    -0.203 F 
ATOM     85  F   UNL A   1      39.602  35.483  37.381  1.00  0.00    -0.200 F 
ATOM     86  C   UNL A   1      38.326  33.641  38.125  1.00  0.00     0.200 A 
ATOM     87  F   UNL A   1      37.093  31.757  38.838  1.00  0.00    -0.200 F 
ATOM     88  F   UNL A   1      38.030  34.286  39.262  1.00  0.00    -0.200 F 
ENDBRANCH  54  78
BRANCH  66  89
ATOM     89  C   UNL A   1      44.152  27.748  34.527  1.00  0.00     0.064 A 
ATOM     90  C   UNL A   1      45.366  28.433  34.677  1.00  0.00     0.173 A 
ATOM     91  C   UNL A   1      43.975  26.558  35.251  1.00  0.00     0.173 A 
ATOM     92  F   UNL A   1      45.590  29.567  33.998  1.00  0.00    -0.203 F 
ATOM     93  C   UNL A   1      46.372  27.934  35.503  1.00  0.00     0.198 A 
ATOM     94  C   UNL A   1      44.971  26.079  36.097  1.00  0.00     0.198 A 
ATOM     95  F   UNL A   1      42.829  25.868  35.148  1.00  0.00    -0.203 F 
ATOM     96  F   UNL A   1      47.541  28.583  35.598  1.00  0.00    -0.200 F 
ATOM     97  C   UNL A   1      46.170  26.763  36.218  1.00  0.00     0.200 A 
ATOM     98  F   UNL A   1      44.768  24.954  36.797  1.00  0.00    -0.200 F 
ATOM     99  F   UNL A   1      47.135  26.290  37.018  1.00  0.00    -0.200 F 
ENDBRANCH  66  89
ENDBRANCH  40  41
ENDBRANCH  33  35
ENDBRANCH  32  33
ENDBRANCH  31  32
ENDBRANCH  30  31
ENDBRANCH  29  30
ENDBRANCH  28  29
ENDBRANCH   1  28
TORSDOF 19
ENDMDL
