MODEL 1
REMARK VINA RESULT:     -11.7      0.000      0.000
REMARK SMILES Cc1cccc(C(=O)Nc2cc(C(=O)OCCOCCOCCOC(=O)c3ccc(-c4c5nc(c(-c6c(F)c(F)c(F)c(F)c6F)c6ccc([nH]6)c(-c6c(F)c(F)c(F)c(F)c6F)c6nc(c(-c7c(F)c(F)c(F)c(F)c7F)c7ccc4[nH]7)C=C6)C=C5)cc3)ccc2N2CC[NH+](CC(=O)NC(C)(C)C)CC2)c1
REMARK SMILES IDX 19 1 18 2 17 3 16 4 15 5 13 6 14 7 12 8 10 9 11 10 92 11
REMARK SMILES IDX 91 12 90 13 9 14 7 15 8 16 6 18 1 19 2 20 3 21 107 22 4 23
REMARK SMILES IDX 5 24 93 25 94 26 106 27 95 28 105 29 96 30 97 32 98 33 99 34
REMARK SMILES IDX 100 35 101 37 102 38 103 39 104 40 20 41 21 42 22 43 23 44
REMARK SMILES IDX 24 45 25 46 26 47 27 48 28 49 89 50 29 51 88 52 30 53 31 54
REMARK SMILES IDX 32 55 82 56 33 57 87 58 81 59 83 60 34 61 86 62 80 63 79 64
REMARK SMILES IDX 35 66 67 67 47 68 66 69 48 70 51 71 65 72 84 73 49 74 50 75
REMARK SMILES IDX 64 77 85 78 52 79 36 80 37 81 45 82 38 83 39 84 43 85 46 86
REMARK SMILES IDX 40 87 41 88 44 89 42 90 68 91 69 92 77 93 70 94 71 95 75 96
REMARK SMILES IDX 78 97 72 98 73 99 76 100 74 101 53 102 54 103 62 104 55 105
REMARK SMILES IDX 56 106 60 107 63 108 57 109 58 110 61 111 59 112
REMARK H PARENT 9 17 96 31 100 36 83 65 51 76
REMARK Flexibility Score: inf
ROOT
ATOM      1  C   UNL A   1      42.220  24.537  26.663  1.00  0.00     0.188 C 
ENDROOT
BRANCH   1   2
ATOM      2  O   UNL A   1      41.017  23.884  27.121  1.00  0.00    -0.376 OA
BRANCH   2   3
ATOM      3  C   UNL A   1      40.817  22.483  27.334  1.00  0.00     0.202 C 
BRANCH   3   4
ATOM      4  C   UNL A   1      39.746  21.452  26.490  1.00  0.00     0.261 C 
BRANCH   4   5
ATOM      5  O   UNL A   1      38.383  21.711  25.627  1.00  0.00    -0.460 OA
BRANCH   5   6
ATOM      6  C   UNL A   1      37.326  21.010  25.021  1.00  0.00     0.338 C 
ATOM      7  O   UNL A   1      37.012  19.819  24.985  1.00  0.00    -0.246 OA
BRANCH   6   8
ATOM      8  C   UNL A   1      36.343  21.758  24.279  1.00  0.00     0.062 A 
ATOM      9  C   UNL A   1      34.123  22.401  24.432  1.00  0.00     0.065 A 
ATOM     10  C   UNL A   1      35.063  21.409  24.568  1.00  0.00     0.044 A 
ATOM     11  C   UNL A   1      34.372  23.648  23.762  1.00  0.00     0.061 A 
ATOM     12  C   UNL A   1      35.686  23.944  23.420  1.00  0.00     0.029 A 
ATOM     13  C   UNL A   1      36.676  23.039  23.767  1.00  0.00     0.018 A 
BRANCH   9  14
ATOM     14  N   UNL A   1      32.946  22.188  25.149  1.00  0.00    -0.320 N 
ATOM     15  C   UNL A   1      32.140  21.058  25.128  1.00  0.00     0.255 C 
ATOM     16  O   UNL A   1      31.075  21.107  25.747  1.00  0.00    -0.269 OA
ATOM     17  H   UNL A   1      32.653  22.922  25.735  1.00  0.00     0.170 HD
BRANCH  15  18
ATOM     18  C   UNL A   1      32.527  19.728  24.501  1.00  0.00     0.040 A 
ATOM     19  C   UNL A   1      33.761  16.142  25.200  1.00  0.00     0.044 C 
ATOM     20  C   UNL A   1      33.196  17.353  24.504  1.00  0.00    -0.050 A 
ATOM     21  C   UNL A   1      32.901  17.268  23.142  1.00  0.00     0.003 A 
ATOM     22  C   UNL A   1      32.996  18.583  25.180  1.00  0.00     0.017 A 
ATOM     23  C   UNL A   1      32.411  18.382  22.466  1.00  0.00     0.001 A 
ATOM     24  C   UNL A   1      32.242  19.597  23.134  1.00  0.00     0.014 A 
ENDBRANCH  15  18
ENDBRANCH   9  14
BRANCH  11  25
ATOM     25  N   UNL A   1      33.393  24.619  23.663  1.00  0.00    -0.359 N 
ATOM     26  C   UNL A   1      33.071  25.411  22.459  1.00  0.00     0.178 C 
ATOM     27  C   UNL A   1      33.237  25.422  24.859  1.00  0.00     0.178 C 
ATOM     28  C   UNL A   1      31.663  26.096  22.633  1.00  0.00     0.284 C 
ATOM     29  C   UNL A   1      31.744  25.672  25.023  1.00  0.00     0.284 C 
ATOM     30  N   UNL A   1      31.230  26.560  23.983  1.00  0.00    -0.324 N 
ATOM     31  H   UNL A   1      30.214  26.497  23.949  1.00  0.00     0.348 HD
BRANCH  30  32
ATOM     32  C   UNL A   1      31.423  27.988  24.305  1.00  0.00     0.363 C 
BRANCH  32  33
ATOM     33  C   UNL A   1      31.679  28.922  23.127  1.00  0.00     0.275 C 
ATOM     34  O   UNL A   1      32.833  29.061  22.698  1.00  0.00    -0.268 OA
ATOM     35  N   UNL A   1      30.719  29.641  22.478  1.00  0.00    -0.347 N 
ATOM     36  H   UNL A   1      31.089  30.011  21.644  1.00  0.00     0.164 HD
BRANCH  35  37
ATOM     37  C   UNL A   1      29.289  30.050  22.621  1.00  0.00     0.032 C 
ATOM     38  C   UNL A   1      28.690  30.471  21.264  1.00  0.00     0.034 C 
ATOM     39  C   UNL A   1      28.516  28.783  23.047  1.00  0.00     0.034 C 
ATOM     40  C   UNL A   1      29.006  31.128  23.668  1.00  0.00     0.034 C 
ENDBRANCH  35  37
ENDBRANCH  32  33
ENDBRANCH  30  32
ENDBRANCH  11  25
ENDBRANCH   6   8
ENDBRANCH   5   6
ENDBRANCH   4   5
ENDBRANCH   3   4
ENDBRANCH   2   3
ENDBRANCH   1   2
BRANCH   1  41
ATOM     41  C   UNL A   1      43.418  23.839  25.989  1.00  0.00     0.188 C 
BRANCH  41  42
ATOM     42  O   UNL A   1      44.661  24.309  26.468  1.00  0.00    -0.376 OA
BRANCH  42  43
ATOM     43  C   UNL A   1      45.645  24.614  25.489  1.00  0.00     0.202 C 
BRANCH  43  44
ATOM     44  C   UNL A   1      45.653  26.076  24.983  1.00  0.00     0.261 C 
BRANCH  44  45
ATOM     45  O   UNL A   1      45.519  27.035  26.062  1.00  0.00    -0.460 OA
BRANCH  45  46
ATOM     46  C   UNL A   1      46.667  27.646  26.505  1.00  0.00     0.338 C 
ATOM     47  O   UNL A   1      47.634  27.896  25.799  1.00  0.00    -0.246 OA
BRANCH  46  48
ATOM     48  C   UNL A   1      46.642  27.769  27.997  1.00  0.00     0.060 A 
ATOM     49  C   UNL A   1      47.277  28.738  28.785  1.00  0.00     0.016 A 
ATOM     50  C   UNL A   1      46.262  26.658  28.653  1.00  0.00     0.016 A 
ATOM     51  C   UNL A   1      47.653  28.473  30.179  1.00  0.00     0.010 A 
ATOM     52  C   UNL A   1      46.958  26.382  29.827  1.00  0.00     0.010 A 
ATOM     53  C   UNL A   1      47.573  27.210  30.780  1.00  0.00    -0.014 A 
BRANCH  53  54
ATOM     54  C   UNL A   1      48.191  26.708  32.274  1.00  0.00     0.031 A 
ATOM     55  C   UNL A   1      49.439  25.634  32.768  1.00  0.00     0.074 A 
ATOM     56  C   UNL A   1      47.621  27.333  33.332  1.00  0.00     0.049 A 
ATOM     57  N   UNL A   1      50.135  25.737  33.898  1.00  0.00    -0.248 NA
ATOM     58  C   UNL A   1      50.075  24.455  32.059  1.00  0.00     0.031 C 
ATOM     59  C   UNL A   1      47.947  27.238  34.754  1.00  0.00     0.029 A 
ATOM     60  N   UNL A   1      46.444  28.098  33.323  1.00  0.00    -0.354 N 
ATOM     61  C   UNL A   1      51.099  24.718  33.931  1.00  0.00     0.074 A 
ATOM     62  C   UNL A   1      51.295  24.374  32.579  1.00  0.00     0.031 C 
ATOM     63  C   UNL A   1      46.860  27.561  35.469  1.00  0.00     0.029 A 
ATOM     64  C   UNL A   1      45.788  27.799  34.528  1.00  0.00     0.049 A 
ATOM     65  H   UNL A   1      46.140  28.714  32.617  1.00  0.00     0.167 HD
ATOM     66  C   UNL A   1      51.226  23.713  34.858  1.00  0.00     0.037 A 
ATOM     67  C   UNL A   1      44.607  27.127  34.500  1.00  0.00     0.037 A 
ATOM     68  C   UNL A   1      50.119  23.723  35.772  1.00  0.00     0.049 A 
ATOM     69  C   UNL A   1      44.743  25.762  35.124  1.00  0.00     0.074 A 
ATOM     70  C   UNL A   1      49.849  24.477  36.893  1.00  0.00     0.029 A 
ATOM     71  N   UNL A   1      48.930  23.113  35.383  1.00  0.00    -0.354 N 
ATOM     72  N   UNL A   1      45.833  25.040  35.136  1.00  0.00    -0.248 NA
ATOM     73  C   UNL A   1      43.637  25.153  35.846  1.00  0.00     0.031 C 
ATOM     74  C   UNL A   1      48.464  24.357  37.155  1.00  0.00     0.029 A 
ATOM     75  C   UNL A   1      47.903  23.488  36.228  1.00  0.00     0.049 A 
ATOM     76  H   UNL A   1      48.835  22.503  34.617  1.00  0.00     0.167 HD
ATOM     77  C   UNL A   1      45.595  23.901  35.865  1.00  0.00     0.074 A 
ATOM     78  C   UNL A   1      44.213  24.028  36.293  1.00  0.00     0.031 C 
ATOM     79  C   UNL A   1      46.548  22.954  36.126  1.00  0.00     0.037 A 
BRANCH  66  80
ATOM     80  C   UNL A   1      52.346  22.657  34.860  1.00  0.00     0.064 A 
ATOM     81  C   UNL A   1      52.064  21.360  34.391  1.00  0.00     0.173 A 
ATOM     82  C   UNL A   1      53.664  22.804  35.355  1.00  0.00     0.173 A 
ATOM     83  F   UNL A   1      50.883  21.090  33.817  1.00  0.00    -0.203 F 
ATOM     84  C   UNL A   1      52.977  20.295  34.509  1.00  0.00     0.198 A 
ATOM     85  C   UNL A   1      54.547  21.732  35.547  1.00  0.00     0.198 A 
ATOM     86  F   UNL A   1      54.197  24.003  35.604  1.00  0.00    -0.203 F 
ATOM     87  F   UNL A   1      52.659  19.085  34.028  1.00  0.00    -0.200 F 
ATOM     88  C   UNL A   1      54.198  20.470  35.130  1.00  0.00     0.200 A 
ATOM     89  F   UNL A   1      55.739  21.947  36.124  1.00  0.00    -0.200 F 
ATOM     90  F   UNL A   1      55.046  19.446  35.298  1.00  0.00    -0.200 F 
ENDBRANCH  66  80
BRANCH  67  91
ATOM     91  C   UNL A   1      43.712  27.501  33.365  1.00  0.00     0.064 A 
ATOM     92  C   UNL A   1      42.994  28.718  33.469  1.00  0.00     0.173 A 
ATOM     93  C   UNL A   1      43.749  26.893  32.105  1.00  0.00     0.173 A 
ATOM     94  F   UNL A   1      42.898  29.342  34.654  1.00  0.00    -0.203 F 
ATOM     95  C   UNL A   1      42.479  29.366  32.350  1.00  0.00     0.198 A 
ATOM     96  C   UNL A   1      43.199  27.533  30.984  1.00  0.00     0.198 A 
ATOM     97  F   UNL A   1      44.432  25.755  31.918  1.00  0.00    -0.203 F 
ATOM     98  F   UNL A   1      41.954  30.594  32.473  1.00  0.00    -0.200 F 
ATOM     99  C   UNL A   1      42.595  28.781  31.105  1.00  0.00     0.200 A 
ATOM    100  F   UNL A   1      43.373  27.008  29.762  1.00  0.00    -0.200 F 
ATOM    101  F   UNL A   1      42.206  29.452  30.012  1.00  0.00    -0.200 F 
ENDBRANCH  67  91
BRANCH  79 102
ATOM    102  C   UNL A   1      46.249  21.539  36.596  1.00  0.00     0.064 A 
ATOM    103  C   UNL A   1      46.207  21.151  37.949  1.00  0.00     0.173 A 
ATOM    104  C   UNL A   1      45.900  20.515  35.682  1.00  0.00     0.173 A 
ATOM    105  F   UNL A   1      46.272  22.048  38.941  1.00  0.00    -0.203 F 
ATOM    106  C   UNL A   1      46.027  19.823  38.345  1.00  0.00     0.198 A 
ATOM    107  C   UNL A   1      45.651  19.201  36.084  1.00  0.00     0.198 A 
ATOM    108  F   UNL A   1      45.736  20.761  34.375  1.00  0.00    -0.203 F 
ATOM    109  F   UNL A   1      46.092  19.507  39.645  1.00  0.00    -0.200 F 
ATOM    110  C   UNL A   1      45.757  18.846  37.412  1.00  0.00     0.200 A 
ATOM    111  F   UNL A   1      45.288  18.286  35.175  1.00  0.00    -0.200 F 
ATOM    112  F   UNL A   1      45.557  17.578  37.795  1.00  0.00    -0.200 F 
ENDBRANCH  79 102
ENDBRANCH  53  54
ENDBRANCH  46  48
ENDBRANCH  45  46
ENDBRANCH  44  45
ENDBRANCH  43  44
ENDBRANCH  42  43
ENDBRANCH  41  42
ENDBRANCH   1  41
TORSDOF 23
ENDMDL
MODEL 2
REMARK VINA RESULT:     -11.4      3.842      8.838
REMARK SMILES Cc1cccc(C(=O)Nc2cc(C(=O)OCCOCCOCCOC(=O)c3ccc(-c4c5nc(c(-c6c(F)c(F)c(F)c(F)c6F)c6ccc([nH]6)c(-c6c(F)c(F)c(F)c(F)c6F)c6nc(c(-c7c(F)c(F)c(F)c(F)c7F)c7ccc4[nH]7)C=C6)C=C5)cc3)ccc2N2CC[NH+](CC(=O)NC(C)(C)C)CC2)c1
REMARK SMILES IDX 19 1 18 2 17 3 16 4 15 5 13 6 14 7 12 8 10 9 11 10 92 11
REMARK SMILES IDX 91 12 90 13 9 14 7 15 8 16 6 18 1 19 2 20 3 21 107 22 4 23
REMARK SMILES IDX 5 24 93 25 94 26 106 27 95 28 105 29 96 30 97 32 98 33 99 34
REMARK SMILES IDX 100 35 101 37 102 38 103 39 104 40 20 41 21 42 22 43 23 44
REMARK SMILES IDX 24 45 25 46 26 47 27 48 28 49 89 50 29 51 88 52 30 53 31 54
REMARK SMILES IDX 32 55 82 56 33 57 87 58 81 59 83 60 34 61 86 62 80 63 79 64
REMARK SMILES IDX 35 66 67 67 47 68 66 69 48 70 51 71 65 72 84 73 49 74 50 75
REMARK SMILES IDX 64 77 85 78 52 79 36 80 37 81 45 82 38 83 39 84 43 85 46 86
REMARK SMILES IDX 40 87 41 88 44 89 42 90 68 91 69 92 77 93 70 94 71 95 75 96
REMARK SMILES IDX 78 97 72 98 73 99 76 100 74 101 53 102 54 103 62 104 55 105
REMARK SMILES IDX 56 106 60 107 63 108 57 109 58 110 61 111 59 112
REMARK H PARENT 9 17 96 31 100 36 83 65 51 76
REMARK Flexibility Score: inf
ROOT
ATOM      1  C   UNL A   1      32.207  30.340  27.095  1.00  0.00     0.188 C 
ENDROOT
BRANCH   1   2
ATOM      2  O   UNL A   1      31.616  29.161  26.509  1.00  0.00    -0.376 OA
BRANCH   2   3
ATOM      3  C   UNL A   1      31.289  27.934  27.168  1.00  0.00     0.202 C 
BRANCH   3   4
ATOM      4  C   UNL A   1      31.521  26.348  26.575  1.00  0.00     0.261 C 
BRANCH   4   5
ATOM      5  O   UNL A   1      30.507  25.104  26.266  1.00  0.00    -0.460 OA
BRANCH   5   6
ATOM      6  C   UNL A   1      30.368  23.726  26.502  1.00  0.00     0.338 C 
ATOM      7  O   UNL A   1      29.400  23.002  26.744  1.00  0.00    -0.246 OA
BRANCH   6   8
ATOM      8  C   UNL A   1      31.548  22.899  26.455  1.00  0.00     0.062 A 
ATOM      9  C   UNL A   1      33.200  22.257  24.964  1.00  0.00     0.065 A 
ATOM     10  C   UNL A   1      31.866  22.478  25.204  1.00  0.00     0.044 A 
ATOM     11  C   UNL A   1      34.194  22.182  26.000  1.00  0.00     0.061 A 
ATOM     12  C   UNL A   1      33.815  22.557  27.283  1.00  0.00     0.029 A 
ATOM     13  C   UNL A   1      32.520  23.004  27.483  1.00  0.00     0.018 A 
BRANCH   9  14
ATOM     14  N   UNL A   1      33.561  22.285  23.617  1.00  0.00    -0.320 N 
ATOM     15  C   UNL A   1      33.343  23.311  22.708  1.00  0.00     0.255 C 
ATOM     16  O   UNL A   1      33.636  23.098  21.529  1.00  0.00    -0.269 OA
ATOM     17  H   UNL A   1      34.023  21.487  23.272  1.00  0.00     0.170 HD
BRANCH  15  18
ATOM     18  C   UNL A   1      32.884  24.713  23.075  1.00  0.00     0.040 A 
ATOM     19  C   UNL A   1      34.015  28.196  24.286  1.00  0.00     0.044 C 
ATOM     20  C   UNL A   1      33.179  27.076  23.723  1.00  0.00    -0.050 A 
ATOM     21  C   UNL A   1      31.841  27.328  23.410  1.00  0.00     0.003 A 
ATOM     22  C   UNL A   1      33.697  25.769  23.542  1.00  0.00     0.017 A 
ATOM     23  C   UNL A   1      31.036  26.303  22.923  1.00  0.00     0.001 A 
ATOM     24  C   UNL A   1      31.548  25.012  22.772  1.00  0.00     0.014 A 
ENDBRANCH  15  18
ENDBRANCH   9  14
BRANCH  11  25
ATOM     25  N   UNL A   1      35.527  21.969  25.703  1.00  0.00    -0.359 N 
ATOM     26  C   UNL A   1      36.155  20.668  25.397  1.00  0.00     0.178 C 
ATOM     27  C   UNL A   1      36.439  22.812  26.451  1.00  0.00     0.178 C 
ATOM     28  C   UNL A   1      37.563  20.899  24.729  1.00  0.00     0.284 C 
ATOM     29  C   UNL A   1      37.553  23.205  25.492  1.00  0.00     0.284 C 
ATOM     30  N   UNL A   1      38.397  22.062  25.150  1.00  0.00    -0.324 N 
ATOM     31  H   UNL A   1      38.950  22.279  24.322  1.00  0.00     0.348 HD
BRANCH  30  32
ATOM     32  C   UNL A   1      39.454  21.812  26.150  1.00  0.00     0.363 C 
BRANCH  32  33
ATOM     33  C   UNL A   1      40.378  20.630  25.883  1.00  0.00     0.275 C 
ATOM     34  O   UNL A   1      39.896  19.495  25.760  1.00  0.00    -0.268 OA
ATOM     35  N   UNL A   1      41.734  20.710  25.758  1.00  0.00    -0.347 N 
ATOM     36  H   UNL A   1      42.085  19.863  25.399  1.00  0.00     0.164 HD
BRANCH  35  37
ATOM     37  C   UNL A   1      42.859  21.666  25.989  1.00  0.00     0.032 C 
ATOM     38  C   UNL A   1      43.002  22.010  27.485  1.00  0.00     0.034 C 
ATOM     39  C   UNL A   1      44.152  20.916  25.604  1.00  0.00     0.034 C 
ATOM     40  C   UNL A   1      42.818  22.954  25.164  1.00  0.00     0.034 C 
ENDBRANCH  35  37
ENDBRANCH  32  33
ENDBRANCH  30  32
ENDBRANCH  11  25
ENDBRANCH   6   8
ENDBRANCH   5   6
ENDBRANCH   4   5
ENDBRANCH   3   4
ENDBRANCH   2   3
ENDBRANCH   1   2
BRANCH   1  41
ATOM     41  C   UNL A   1      33.716  30.641  27.175  1.00  0.00     0.188 C 
BRANCH  41  42
ATOM     42  O   UNL A   1      33.987  32.007  27.418  1.00  0.00    -0.376 OA
BRANCH  42  43
ATOM     43  C   UNL A   1      34.521  32.329  28.695  1.00  0.00     0.202 C 
BRANCH  43  44
ATOM     44  C   UNL A   1      35.965  31.837  28.959  1.00  0.00     0.261 C 
BRANCH  44  45
ATOM     45  O   UNL A   1      36.038  30.913  30.074  1.00  0.00    -0.460 OA
BRANCH  45  46
ATOM     46  C   UNL A   1      36.097  31.455  31.335  1.00  0.00     0.338 C 
ATOM     47  O   UNL A   1      35.145  31.954  31.919  1.00  0.00    -0.246 OA
BRANCH  46  48
ATOM     48  C   UNL A   1      37.520  31.532  31.797  1.00  0.00     0.060 A 
ATOM     49  C   UNL A   1      38.458  32.533  31.513  1.00  0.00     0.016 A 
ATOM     50  C   UNL A   1      38.037  30.371  32.238  1.00  0.00     0.016 A 
ATOM     51  C   UNL A   1      39.900  32.264  31.528  1.00  0.00     0.010 A 
ATOM     52  C   UNL A   1      39.361  30.127  31.884  1.00  0.00     0.010 A 
ATOM     53  C   UNL A   1      40.452  30.982  31.652  1.00  0.00    -0.014 A 
BRANCH  53  54
ATOM     54  C   UNL A   1      42.059  30.496  31.441  1.00  0.00     0.031 A 
ATOM     55  C   UNL A   1      42.889  29.521  30.293  1.00  0.00     0.074 A 
ATOM     56  C   UNL A   1      42.911  31.042  32.342  1.00  0.00     0.049 A 
ATOM     57  N   UNL A   1      44.171  29.655  29.959  1.00  0.00    -0.248 NA
ATOM     58  C   UNL A   1      42.391  28.421  29.378  1.00  0.00     0.031 C 
ATOM     59  C   UNL A   1      44.367  30.939  32.426  1.00  0.00     0.029 A 
ATOM     60  N   UNL A   1      42.567  31.702  33.532  1.00  0.00    -0.354 N 
ATOM     61  C   UNL A   1      44.477  28.723  28.956  1.00  0.00     0.074 A 
ATOM     62  C   UNL A   1      43.237  28.433  28.355  1.00  0.00     0.031 C 
ATOM     63  C   UNL A   1      44.743  31.148  33.696  1.00  0.00     0.029 A 
ATOM     64  C   UNL A   1      43.535  31.317  34.473  1.00  0.00     0.049 A 
ATOM     65  H   UNL A   1      41.805  32.308  33.677  1.00  0.00     0.167 HD
ATOM     66  C   UNL A   1      45.402  27.709  29.007  1.00  0.00     0.037 A 
ATOM     67  C   UNL A   1      43.171  30.546  35.533  1.00  0.00     0.037 A 
ATOM     68  C   UNL A   1      45.962  27.600  30.325  1.00  0.00     0.049 A 
ATOM     69  C   UNL A   1      43.808  29.183  35.457  1.00  0.00     0.074 A 
ATOM     70  C   UNL A   1      46.959  28.298  30.969  1.00  0.00     0.029 A 
ATOM     71  N   UNL A   1      45.250  26.899  31.294  1.00  0.00    -0.354 N 
ATOM     72  N   UNL A   1      44.130  28.557  34.354  1.00  0.00    -0.248 NA
ATOM     73  C   UNL A   1      44.184  28.461  36.662  1.00  0.00     0.031 C 
ATOM     74  C   UNL A   1      46.815  28.052  32.355  1.00  0.00     0.029 A 
ATOM     75  C   UNL A   1      45.767  27.162  32.549  1.00  0.00     0.049 A 
ATOM     76  H   UNL A   1      44.488  26.303  31.113  1.00  0.00     0.167 HD
ATOM     77  C   UNL A   1      44.761  27.383  34.686  1.00  0.00     0.074 A 
ATOM     78  C   UNL A   1      44.777  27.380  36.138  1.00  0.00     0.031 C 
ATOM     79  C   UNL A   1      45.282  26.516  33.765  1.00  0.00     0.037 A 
BRANCH  66  80
ATOM     80  C   UNL A   1      45.723  26.754  27.845  1.00  0.00     0.064 A 
ATOM     81  C   UNL A   1      45.601  25.365  28.046  1.00  0.00     0.173 A 
ATOM     82  C   UNL A   1      46.209  27.098  26.560  1.00  0.00     0.173 A 
ATOM     83  F   UNL A   1      45.075  24.891  29.183  1.00  0.00    -0.203 F 
ATOM     84  C   UNL A   1      46.029  24.420  27.094  1.00  0.00     0.198 A 
ATOM     85  C   UNL A   1      46.709  26.164  25.642  1.00  0.00     0.198 A 
ATOM     86  F   UNL A   1      46.153  28.347  26.094  1.00  0.00    -0.203 F 
ATOM     87  F   UNL A   1      45.871  23.111  27.334  1.00  0.00    -0.200 F 
ATOM     88  C   UNL A   1      46.626  24.819  25.913  1.00  0.00     0.200 A 
ATOM     89  F   UNL A   1      47.252  26.587  24.490  1.00  0.00    -0.200 F 
ATOM     90  F   UNL A   1      47.089  23.922  25.032  1.00  0.00    -0.200 F 
ENDBRANCH  66  80
BRANCH  67  91
ATOM     91  C   UNL A   1      41.828  30.871  36.098  1.00  0.00     0.064 A 
ATOM     92  C   UNL A   1      41.730  31.999  36.949  1.00  0.00     0.173 A 
ATOM     93  C   UNL A   1      40.628  30.323  35.630  1.00  0.00     0.173 A 
ATOM     94  F   UNL A   1      42.841  32.560  37.453  1.00  0.00    -0.203 F 
ATOM     95  C   UNL A   1      40.516  32.636  37.189  1.00  0.00     0.198 A 
ATOM     96  C   UNL A   1      39.402  30.949  35.902  1.00  0.00     0.198 A 
ATOM     97  F   UNL A   1      40.637  29.274  34.797  1.00  0.00    -0.203 F 
ATOM     98  F   UNL A   1      40.492  33.795  37.863  1.00  0.00    -0.200 F 
ATOM     99  C   UNL A   1      39.353  32.119  36.652  1.00  0.00     0.200 A 
ATOM    100  F   UNL A   1      38.279  30.497  35.324  1.00  0.00    -0.200 F 
ATOM    101  F   UNL A   1      38.200  32.791  36.783  1.00  0.00    -0.200 F 
ENDBRANCH  67  91
BRANCH  79 102
ATOM    102  C   UNL A   1      45.647  25.069  34.056  1.00  0.00     0.064 A 
ATOM    103  C   UNL A   1      44.713  24.016  34.105  1.00  0.00     0.173 A 
ATOM    104  C   UNL A   1      46.995  24.664  34.215  1.00  0.00     0.173 A 
ATOM    105  F   UNL A   1      43.438  24.189  33.737  1.00  0.00    -0.203 F 
ATOM    106  C   UNL A   1      45.066  22.715  34.471  1.00  0.00     0.198 A 
ATOM    107  C   UNL A   1      47.354  23.347  34.512  1.00  0.00     0.198 A 
ATOM    108  F   UNL A   1      48.014  25.515  34.035  1.00  0.00    -0.203 F 
ATOM    109  F   UNL A   1      44.112  21.781  34.590  1.00  0.00    -0.200 F 
ATOM    110  C   UNL A   1      46.386  22.381  34.683  1.00  0.00     0.200 A 
ATOM    111  F   UNL A   1      48.650  23.019  34.613  1.00  0.00    -0.200 F 
ATOM    112  F   UNL A   1      46.726  21.127  35.007  1.00  0.00    -0.200 F 
ENDBRANCH  79 102
ENDBRANCH  53  54
ENDBRANCH  46  48
ENDBRANCH  45  46
ENDBRANCH  44  45
ENDBRANCH  43  44
ENDBRANCH  42  43
ENDBRANCH  41  42
ENDBRANCH   1  41
TORSDOF 23
ENDMDL
MODEL 3
REMARK VINA RESULT:     -10.6      6.758     12.009
REMARK SMILES Cc1cccc(C(=O)Nc2cc(C(=O)OCCOCCOCCOC(=O)c3ccc(-c4c5nc(c(-c6c(F)c(F)c(F)c(F)c6F)c6ccc([nH]6)c(-c6c(F)c(F)c(F)c(F)c6F)c6nc(c(-c7c(F)c(F)c(F)c(F)c7F)c7ccc4[nH]7)C=C6)C=C5)cc3)ccc2N2CC[NH+](CC(=O)NC(C)(C)C)CC2)c1
REMARK SMILES IDX 19 1 18 2 17 3 16 4 15 5 13 6 14 7 12 8 10 9 11 10 92 11
REMARK SMILES IDX 91 12 90 13 9 14 7 15 8 16 6 18 1 19 2 20 3 21 107 22 4 23
REMARK SMILES IDX 5 24 93 25 94 26 106 27 95 28 105 29 96 30 97 32 98 33 99 34
REMARK SMILES IDX 100 35 101 37 102 38 103 39 104 40 20 41 21 42 22 43 23 44
REMARK SMILES IDX 24 45 25 46 26 47 27 48 28 49 89 50 29 51 88 52 30 53 31 54
REMARK SMILES IDX 32 55 82 56 33 57 87 58 81 59 83 60 34 61 86 62 80 63 79 64
REMARK SMILES IDX 35 66 67 67 47 68 66 69 48 70 51 71 65 72 84 73 49 74 50 75
REMARK SMILES IDX 64 77 85 78 52 79 36 80 37 81 45 82 38 83 39 84 43 85 46 86
REMARK SMILES IDX 40 87 41 88 44 89 42 90 68 91 69 92 77 93 70 94 71 95 75 96
REMARK SMILES IDX 78 97 72 98 73 99 76 100 74 101 53 102 54 103 62 104 55 105
REMARK SMILES IDX 56 106 60 107 63 108 57 109 58 110 61 111 59 112
REMARK H PARENT 9 17 96 31 100 36 83 65 51 76
REMARK Flexibility Score: inf
ROOT
ATOM      1  C   UNL A   1      31.887  30.263  26.904  1.00  0.00     0.188 C 
ENDROOT
BRANCH   1   2
ATOM      2  O   UNL A   1      31.556  28.930  26.462  1.00  0.00    -0.376 OA
BRANCH   2   3
ATOM      3  C   UNL A   1      31.190  27.812  27.274  1.00  0.00     0.202 C 
BRANCH   3   4
ATOM      4  C   UNL A   1      31.455  26.157  26.935  1.00  0.00     0.261 C 
BRANCH   4   5
ATOM      5  O   UNL A   1      30.469  24.923  26.516  1.00  0.00    -0.460 OA
BRANCH   5   6
ATOM      6  C   UNL A   1      30.415  23.519  26.523  1.00  0.00     0.338 C 
ATOM      7  O   UNL A   1      29.486  22.708  26.513  1.00  0.00    -0.246 OA
BRANCH   6   8
ATOM      8  C   UNL A   1      31.655  22.785  26.526  1.00  0.00     0.062 A 
ATOM      9  C   UNL A   1      33.356  22.179  25.076  1.00  0.00     0.065 A 
ATOM     10  C   UNL A   1      32.008  22.311  25.304  1.00  0.00     0.044 A 
ATOM     11  C   UNL A   1      34.350  22.246  26.112  1.00  0.00     0.061 A 
ATOM     12  C   UNL A   1      33.940  22.671  27.370  1.00  0.00     0.029 A 
ATOM     13  C   UNL A   1      32.613  23.029  27.544  1.00  0.00     0.018 A 
BRANCH   9  14
ATOM     14  N   UNL A   1      33.718  22.149  23.729  1.00  0.00    -0.320 N 
ATOM     15  C   UNL A   1      33.581  23.170  22.798  1.00  0.00     0.255 C 
ATOM     16  O   UNL A   1      33.856  22.909  21.624  1.00  0.00    -0.269 OA
ATOM     17  H   UNL A   1      34.115  21.310  23.402  1.00  0.00     0.170 HD
BRANCH  15  18
ATOM     18  C   UNL A   1      33.235  24.610  23.134  1.00  0.00     0.040 A 
ATOM     19  C   UNL A   1      30.451  27.279  23.127  1.00  0.00     0.044 C 
ATOM     20  C   UNL A   1      31.745  26.559  23.404  1.00  0.00    -0.050 A 
ATOM     21  C   UNL A   1      32.742  27.223  24.122  1.00  0.00     0.003 A 
ATOM     22  C   UNL A   1      31.993  25.249  22.923  1.00  0.00     0.017 A 
ATOM     23  C   UNL A   1      33.961  26.595  24.361  1.00  0.00     0.001 A 
ATOM     24  C   UNL A   1      34.207  25.313  23.861  1.00  0.00     0.014 A 
ENDBRANCH  15  18
ENDBRANCH   9  14
BRANCH  11  25
ATOM     25  N   UNL A   1      35.697  22.119  25.827  1.00  0.00    -0.359 N 
ATOM     26  C   UNL A   1      36.396  20.869  25.466  1.00  0.00     0.178 C 
ATOM     27  C   UNL A   1      36.552  22.968  26.631  1.00  0.00     0.178 C 
ATOM     28  C   UNL A   1      37.799  21.207  24.834  1.00  0.00     0.284 C 
ATOM     29  C   UNL A   1      37.657  23.467  25.712  1.00  0.00     0.284 C 
ATOM     30  N   UNL A   1      38.564  22.388  25.326  1.00  0.00    -0.324 N 
ATOM     31  H   UNL A   1      39.116  22.676  24.519  1.00  0.00     0.348 HD
BRANCH  30  32
ATOM     32  C   UNL A   1      39.619  22.144  26.330  1.00  0.00     0.363 C 
BRANCH  32  33
ATOM     33  C   UNL A   1      40.586  21.001  26.036  1.00  0.00     0.275 C 
ATOM     34  O   UNL A   1      40.157  19.839  25.982  1.00  0.00    -0.268 OA
ATOM     35  N   UNL A   1      41.923  21.146  25.817  1.00  0.00    -0.347 N 
ATOM     36  H   UNL A   1      42.295  20.307  25.461  1.00  0.00     0.164 HD
BRANCH  35  37
ATOM     37  C   UNL A   1      43.009  22.166  25.941  1.00  0.00     0.032 C 
ATOM     38  C   UNL A   1      43.165  22.641  27.400  1.00  0.00     0.034 C 
ATOM     39  C   UNL A   1      44.327  21.442  25.591  1.00  0.00     0.034 C 
ATOM     40  C   UNL A   1      42.895  23.376  25.012  1.00  0.00     0.034 C 
ENDBRANCH  35  37
ENDBRANCH  32  33
ENDBRANCH  30  32
ENDBRANCH  11  25
ENDBRANCH   6   8
ENDBRANCH   5   6
ENDBRANCH   4   5
ENDBRANCH   3   4
ENDBRANCH   2   3
ENDBRANCH   1   2
BRANCH   1  41
ATOM     41  C   UNL A   1      33.256  30.951  26.731  1.00  0.00     0.188 C 
BRANCH  41  42
ATOM     42  O   UNL A   1      33.407  32.080  27.568  1.00  0.00    -0.376 OA
BRANCH  42  43
ATOM     43  C   UNL A   1      34.190  31.901  28.740  1.00  0.00     0.202 C 
BRANCH  43  44
ATOM     44  C   UNL A   1      35.720  32.033  28.549  1.00  0.00     0.261 C 
BRANCH  44  45
ATOM     45  O   UNL A   1      36.260  31.002  27.683  1.00  0.00    -0.460 OA
BRANCH  45  46
ATOM     46  C   UNL A   1      36.240  29.713  28.157  1.00  0.00     0.338 C 
ATOM     47  O   UNL A   1      35.324  28.922  27.975  1.00  0.00    -0.246 OA
BRANCH  46  48
ATOM     48  C   UNL A   1      37.392  29.487  29.088  1.00  0.00     0.060 A 
ATOM     49  C   UNL A   1      37.383  29.543  30.487  1.00  0.00     0.016 A 
ATOM     50  C   UNL A   1      38.608  29.578  28.519  1.00  0.00     0.016 A 
ATOM     51  C   UNL A   1      38.594  29.856  31.254  1.00  0.00     0.010 A 
ATOM     52  C   UNL A   1      39.588  30.203  29.286  1.00  0.00     0.010 A 
ATOM     53  C   UNL A   1      39.794  30.287  30.672  1.00  0.00    -0.014 A 
BRANCH  53  54
ATOM     54  C   UNL A   1      41.173  30.911  31.430  1.00  0.00     0.031 A 
ATOM     55  C   UNL A   1      41.589  32.426  32.129  1.00  0.00     0.074 A 
ATOM     56  C   UNL A   1      42.164  30.001  31.583  1.00  0.00     0.049 A 
ATOM     57  N   UNL A   1      42.468  32.600  33.113  1.00  0.00    -0.248 NA
ATOM     58  C   UNL A   1      41.038  33.818  31.888  1.00  0.00     0.031 C 
ATOM     59  C   UNL A   1      43.452  30.134  32.262  1.00  0.00     0.029 A 
ATOM     60  N   UNL A   1      42.261  28.749  30.955  1.00  0.00    -0.354 N 
ATOM     61  C   UNL A   1      42.502  33.960  33.455  1.00  0.00     0.074 A 
ATOM     62  C   UNL A   1      41.258  34.463  33.028  1.00  0.00     0.031 C 
ATOM     63  C   UNL A   1      44.311  29.249  31.738  1.00  0.00     0.029 A 
ATOM     64  C   UNL A   1      43.622  28.577  30.659  1.00  0.00     0.049 A 
ATOM     65  H   UNL A   1      41.526  28.123  30.762  1.00  0.00     0.167 HD
ATOM     66  C   UNL A   1      43.577  34.813  33.394  1.00  0.00     0.037 A 
ATOM     67  C   UNL A   1      44.028  28.557  29.361  1.00  0.00     0.037 A 
ATOM     68  C   UNL A   1      44.700  34.171  32.773  1.00  0.00     0.049 A 
ATOM     69  C   UNL A   1      44.897  29.748  29.046  1.00  0.00     0.074 A 
ATOM     70  C   UNL A   1      45.651  33.297  33.252  1.00  0.00     0.029 A 
ATOM     71  N   UNL A   1      44.754  34.123  31.383  1.00  0.00    -0.354 N 
ATOM     72  N   UNL A   1      44.814  30.919  29.622  1.00  0.00    -0.248 NA
ATOM     73  C   UNL A   1      45.979  29.653  28.079  1.00  0.00     0.031 C 
ATOM     74  C   UNL A   1      46.254  32.677  32.132  1.00  0.00     0.029 A 
ATOM     75  C   UNL A   1      45.709  33.213  30.972  1.00  0.00     0.049 A 
ATOM     76  H   UNL A   1      44.192  34.660  30.779  1.00  0.00     0.167 HD
ATOM     77  C   UNL A   1      45.819  31.718  29.133  1.00  0.00     0.074 A 
ATOM     78  C   UNL A   1      46.521  30.875  28.183  1.00  0.00     0.031 C 
ATOM     79  C   UNL A   1      46.056  32.993  29.572  1.00  0.00     0.037 A 
BRANCH  66  80
ATOM     80  C   UNL A   1      43.555  36.287  33.837  1.00  0.00     0.064 A 
ATOM     81  C   UNL A   1      43.601  37.297  32.857  1.00  0.00     0.173 A 
ATOM     82  C   UNL A   1      43.560  36.785  35.163  1.00  0.00     0.173 A 
ATOM     83  F   UNL A   1      43.518  36.982  31.558  1.00  0.00    -0.203 F 
ATOM     84  C   UNL A   1      43.749  38.659  33.179  1.00  0.00     0.198 A 
ATOM     85  C   UNL A   1      43.786  38.130  35.487  1.00  0.00     0.198 A 
ATOM     86  F   UNL A   1      43.267  36.011  36.210  1.00  0.00    -0.203 F 
ATOM     87  F   UNL A   1      43.769  39.578  32.203  1.00  0.00    -0.200 F 
ATOM     88  C   UNL A   1      43.889  39.070  34.491  1.00  0.00     0.200 A 
ATOM     89  F   UNL A   1      43.883  38.497  36.774  1.00  0.00    -0.200 F 
ATOM     90  F   UNL A   1      44.090  40.359  34.797  1.00  0.00    -0.200 F 
ENDBRANCH  66  80
BRANCH  67  91
ATOM     91  C   UNL A   1      43.083  27.873  28.429  1.00  0.00     0.064 A 
ATOM     92  C   UNL A   1      42.704  26.544  28.739  1.00  0.00     0.173 A 
ATOM     93  C   UNL A   1      42.335  28.535  27.449  1.00  0.00     0.173 A 
ATOM     94  F   UNL A   1      43.394  25.844  29.653  1.00  0.00    -0.203 F 
ATOM     95  C   UNL A   1      41.551  25.967  28.213  1.00  0.00     0.198 A 
ATOM     96  C   UNL A   1      41.193  27.937  26.896  1.00  0.00     0.198 A 
ATOM     97  F   UNL A   1      42.613  29.804  27.121  1.00  0.00    -0.203 F 
ATOM     98  F   UNL A   1      41.140  24.772  28.660  1.00  0.00    -0.200 F 
ATOM     99  C   UNL A   1      40.787  26.670  27.303  1.00  0.00     0.200 A 
ATOM    100  F   UNL A   1      40.404  28.640  26.069  1.00  0.00    -0.200 F 
ATOM    101  F   UNL A   1      39.617  26.167  26.884  1.00  0.00    -0.200 F 
ENDBRANCH  67  91
BRANCH  79 102
ATOM    102  C   UNL A   1      46.893  34.019  28.823  1.00  0.00     0.064 A 
ATOM    103  C   UNL A   1      46.360  35.161  28.194  1.00  0.00     0.173 A 
ATOM    104  C   UNL A   1      48.305  33.933  28.785  1.00  0.00     0.173 A 
ATOM    105  F   UNL A   1      45.079  35.516  28.347  1.00  0.00    -0.203 F 
ATOM    106  C   UNL A   1      47.143  36.032  27.432  1.00  0.00     0.198 A 
ATOM    107  C   UNL A   1      49.095  34.845  28.080  1.00  0.00     0.198 A 
ATOM    108  F   UNL A   1      48.975  32.997  29.471  1.00  0.00    -0.203 F 
ATOM    109  F   UNL A   1      46.558  37.047  26.782  1.00  0.00    -0.200 F 
ATOM    110  C   UNL A   1      48.510  35.870  27.367  1.00  0.00     0.200 A 
ATOM    111  F   UNL A   1      50.430  34.732  28.113  1.00  0.00    -0.200 F 
ATOM    112  F   UNL A   1      49.262  36.721  26.659  1.00  0.00    -0.200 F 
ENDBRANCH  79 102
ENDBRANCH  53  54
ENDBRANCH  46  48
ENDBRANCH  45  46
ENDBRANCH  44  45
ENDBRANCH  43  44
ENDBRANCH  42  43
ENDBRANCH  41  42
ENDBRANCH   1  41
TORSDOF 23
ENDMDL
