MODEL 1
REMARK VINA RESULT:     -10.8      0.000      0.000
REMARK SMILES O=C(OCCOCCOCCOC(=O)c1ccccc1C(=O)N1CCS[C@H]1c1ccccc1)c1ccc(-c2c3nc(c(-c4c(F)c(F)c(F)c(F)c4F)c4ccc([nH]4)c(-c4c(F)c(F)c(F)c(F)c4F)c4nc(c(-c5c(F)c(F)c(F)c(F)c5F)c5ccc2[nH]5)C=C4)C=C3)cc1
REMARK SMILES IDX 8 1 7 2 6 3 5 4 4 5 3 6 2 7 1 8 34 9 35 10 96 11 36 12 95 13
REMARK SMILES IDX 37 14 38 15 39 16 89 17 40 18 94 19 88 20 90 21 41 22 93 23
REMARK SMILES IDX 87 24 86 25 42 27 74 28 54 29 73 30 55 31 58 32 72 33 91 34
REMARK SMILES IDX 56 35 57 36 71 38 92 39 59 40 43 41 44 42 52 43 45 44 46 45
REMARK SMILES IDX 50 46 53 47 47 48 48 49 51 50 49 51 75 52 76 53 84 54 77 55
REMARK SMILES IDX 78 56 82 57 85 58 79 59 80 60 83 61 81 62 60 63 61 64 69 65
REMARK SMILES IDX 62 66 63 67 67 68 70 69 64 70 65 71 68 72 66 73 9 74 10 75
REMARK SMILES IDX 11 76 12 77 13 78 14 79 15 80 16 81 20 82 17 83 19 84 18 85
REMARK SMILES IDX 21 86 22 87 23 88 24 89 27 90 25 91 26 92 28 93 29 94 33 95
REMARK SMILES IDX 30 96 32 97 31 98
REMARK H PARENT 90 26 58 37
REMARK Flexibility Score: inf
ROOT
ATOM      1  C   UNL A   1      34.700  21.405  24.196  1.00  0.00     0.188 C 
ENDROOT
BRANCH   1   2
ATOM      2  C   UNL A   1      35.406  20.996  25.489  1.00  0.00     0.188 C 
BRANCH   2   3
ATOM      3  O   UNL A   1      36.732  21.551  25.501  1.00  0.00    -0.376 OA
BRANCH   3   4
ATOM      4  C   UNL A   1      37.741  20.637  25.073  1.00  0.00     0.202 C 
BRANCH   4   5
ATOM      5  C   UNL A   1      39.077  20.886  25.770  1.00  0.00     0.261 C 
BRANCH   5   6
ATOM      6  O   UNL A   1      39.892  19.701  25.768  1.00  0.00    -0.460 OA
BRANCH   6   7
ATOM      7  C   UNL A   1      41.223  19.626  26.027  1.00  0.00     0.338 C 
ATOM      8  O   UNL A   1      41.828  18.590  25.750  1.00  0.00    -0.246 OA
BRANCH   7   9
ATOM      9  C   UNL A   1      42.030  20.807  26.460  1.00  0.00     0.060 A 
ATOM     10  C   UNL A   1      42.355  21.141  27.778  1.00  0.00     0.016 A 
ATOM     11  C   UNL A   1      42.499  21.642  25.431  1.00  0.00     0.016 A 
ATOM     12  C   UNL A   1      42.948  22.368  28.077  1.00  0.00     0.010 A 
ATOM     13  C   UNL A   1      43.148  22.845  25.719  1.00  0.00     0.010 A 
ATOM     14  C   UNL A   1      43.291  23.251  27.050  1.00  0.00    -0.014 A 
BRANCH  14  15
ATOM     15  C   UNL A   1      43.584  24.664  27.377  1.00  0.00     0.031 A 
ATOM     16  C   UNL A   1      44.953  25.196  27.055  1.00  0.00     0.074 A 
ATOM     17  C   UNL A   1      42.631  25.479  27.858  1.00  0.00     0.049 A 
ATOM     18  N   UNL A   1      45.442  26.398  27.223  1.00  0.00    -0.248 NA
ATOM     19  C   UNL A   1      45.900  24.244  26.448  1.00  0.00     0.031 C 
ATOM     20  C   UNL A   1      41.254  25.085  28.135  1.00  0.00     0.029 A 
ATOM     21  N   UNL A   1      42.671  26.811  28.175  1.00  0.00    -0.354 N 
ATOM     22  C   UNL A   1      46.748  26.341  26.756  1.00  0.00     0.074 A 
ATOM     23  C   UNL A   1      46.989  24.985  26.317  1.00  0.00     0.031 C 
ATOM     24  C   UNL A   1      40.569  26.156  28.567  1.00  0.00     0.029 A 
ATOM     25  C   UNL A   1      41.470  27.304  28.623  1.00  0.00     0.049 A 
ATOM     26  H   UNL A   1      43.482  27.363  28.091  1.00  0.00     0.167 HD
ATOM     27  C   UNL A   1      47.664  27.334  26.689  1.00  0.00     0.037 A 
ATOM     28  C   UNL A   1      41.146  28.546  29.030  1.00  0.00     0.037 A 
ATOM     29  C   UNL A   1      47.423  28.679  27.125  1.00  0.00     0.049 A 
ATOM     30  C   UNL A   1      42.199  29.621  28.997  1.00  0.00     0.074 A 
ATOM     31  C   UNL A   1      48.295  29.751  27.156  1.00  0.00     0.029 A 
ATOM     32  N   UNL A   1      46.204  29.134  27.608  1.00  0.00    -0.354 N 
ATOM     33  N   UNL A   1      43.440  29.552  28.578  1.00  0.00    -0.248 NA
ATOM     34  C   UNL A   1      41.808  30.947  29.495  1.00  0.00     0.031 C 
ATOM     35  C   UNL A   1      47.607  30.854  27.679  1.00  0.00     0.029 A 
ATOM     36  C   UNL A   1      46.301  30.472  27.944  1.00  0.00     0.049 A 
ATOM     37  H   UNL A   1      45.391  28.586  27.698  1.00  0.00     0.167 HD
ATOM     38  C   UNL A   1      43.971  30.823  28.740  1.00  0.00     0.074 A 
ATOM     39  C   UNL A   1      42.913  31.650  29.284  1.00  0.00     0.031 C 
ATOM     40  C   UNL A   1      45.221  31.269  28.467  1.00  0.00     0.037 A 
BRANCH  27  41
ATOM     41  C   UNL A   1      49.014  26.969  26.156  1.00  0.00     0.064 A 
ATOM     42  C   UNL A   1      49.328  27.108  24.796  1.00  0.00     0.173 A 
ATOM     43  C   UNL A   1      49.993  26.436  27.007  1.00  0.00     0.173 A 
ATOM     44  F   UNL A   1      48.412  27.583  23.938  1.00  0.00    -0.203 F 
ATOM     45  C   UNL A   1      50.564  26.700  24.302  1.00  0.00     0.198 A 
ATOM     46  C   UNL A   1      51.235  26.047  26.514  1.00  0.00     0.198 A 
ATOM     47  F   UNL A   1      49.735  26.273  28.314  1.00  0.00    -0.203 F 
ATOM     48  F   UNL A   1      50.824  26.790  22.990  1.00  0.00    -0.200 F 
ATOM     49  C   UNL A   1      51.517  26.173  25.161  1.00  0.00     0.200 A 
ATOM     50  F   UNL A   1      52.154  25.534  27.344  1.00  0.00    -0.200 F 
ATOM     51  F   UNL A   1      52.702  25.768  24.682  1.00  0.00    -0.200 F 
ENDBRANCH  27  41
BRANCH  28  52
ATOM     52  C   UNL A   1      39.763  28.839  29.488  1.00  0.00     0.064 A 
ATOM     53  C   UNL A   1      38.797  29.327  28.597  1.00  0.00     0.173 A 
ATOM     54  C   UNL A   1      39.380  28.642  30.822  1.00  0.00     0.173 A 
ATOM     55  F   UNL A   1      39.123  29.552  27.315  1.00  0.00    -0.203 F 
ATOM     56  C   UNL A   1      37.505  29.620  29.026  1.00  0.00     0.198 A 
ATOM     57  C   UNL A   1      38.080  28.914  31.245  1.00  0.00     0.198 A 
ATOM     58  F   UNL A   1      40.268  28.180  31.714  1.00  0.00    -0.203 F 
ATOM     59  F   UNL A   1      36.613  30.124  28.162  1.00  0.00    -0.200 F 
ATOM     60  C   UNL A   1      37.146  29.409  30.349  1.00  0.00     0.200 A 
ATOM     61  F   UNL A   1      37.738  28.706  32.524  1.00  0.00    -0.200 F 
ATOM     62  F   UNL A   1      35.903  29.696  30.762  1.00  0.00    -0.200 F 
ENDBRANCH  28  52
BRANCH  40  63
ATOM     63  C   UNL A   1      45.501  32.717  28.725  1.00  0.00     0.064 A 
ATOM     64  C   UNL A   1      46.048  33.148  29.942  1.00  0.00     0.173 A 
ATOM     65  C   UNL A   1      45.272  33.672  27.725  1.00  0.00     0.173 A 
ATOM     66  F   UNL A   1      46.272  32.268  30.929  1.00  0.00    -0.203 F 
ATOM     67  C   UNL A   1      46.342  34.491  30.154  1.00  0.00     0.198 A 
ATOM     68  C   UNL A   1      45.586  35.012  27.934  1.00  0.00     0.198 A 
ATOM     69  F   UNL A   1      44.757  33.303  26.542  1.00  0.00    -0.203 F 
ATOM     70  F   UNL A   1      46.835  34.888  31.335  1.00  0.00    -0.200 F 
ATOM     71  C   UNL A   1      46.117  35.420  29.149  1.00  0.00     0.200 A 
ATOM     72  F   UNL A   1      45.375  35.907  26.960  1.00  0.00    -0.200 F 
ATOM     73  F   UNL A   1      46.406  36.713  29.353  1.00  0.00    -0.200 F 
ENDBRANCH  40  63
ENDBRANCH  14  15
ENDBRANCH   7   9
ENDBRANCH   6   7
ENDBRANCH   5   6
ENDBRANCH   4   5
ENDBRANCH   3   4
ENDBRANCH   2   3
ENDBRANCH   1   2
BRANCH   1  74
ATOM     74  O   UNL A   1      33.320  21.732  24.368  1.00  0.00    -0.376 OA
BRANCH  74  75
ATOM     75  C   UNL A   1      32.514  21.755  23.199  1.00  0.00     0.202 C 
BRANCH  75  76
ATOM     76  C   UNL A   1      32.968  22.648  22.044  1.00  0.00     0.261 C 
BRANCH  76  77
ATOM     77  O   UNL A   1      33.477  23.966  22.309  1.00  0.00    -0.460 OA
BRANCH  77  78
ATOM     78  C   UNL A   1      32.499  24.899  22.414  1.00  0.00     0.339 C 
ATOM     79  O   UNL A   1      31.303  24.720  22.270  1.00  0.00    -0.246 OA
BRANCH  78  80
ATOM     80  C   UNL A   1      33.004  26.203  22.855  1.00  0.00     0.072 A 
ATOM     81  C   UNL A   1      33.187  27.144  21.822  1.00  0.00     0.016 A 
ATOM     82  C   UNL A   1      33.532  26.442  24.131  1.00  0.00     0.054 A 
ATOM     83  C   UNL A   1      33.907  28.318  22.044  1.00  0.00     0.001 A 
ATOM     84  C   UNL A   1      34.273  27.631  24.322  1.00  0.00     0.015 A 
ATOM     85  C   UNL A   1      34.464  28.556  23.293  1.00  0.00     0.001 A 
BRANCH  82  86
ATOM     86  C   UNL A   1      33.453  25.560  25.337  1.00  0.00     0.255 C 
ATOM     87  O   UNL A   1      34.475  25.006  25.749  1.00  0.00    -0.269 OA
BRANCH  86  88
ATOM     88  N   UNL A   1      32.254  25.406  26.029  1.00  0.00    -0.322 N 
ATOM     89  C   UNL A   1      31.846  24.016  26.177  1.00  0.00     0.132 C 
ATOM     90  C   UNL A   1      31.139  26.224  25.533  1.00  0.00     0.174 C 
ATOM     91  C   UNL A   1      30.425  23.924  26.697  1.00  0.00     0.093 C 
ATOM     92  S   UNL A   1      29.608  25.429  26.131  1.00  0.00    -0.130 SA
BRANCH  90  93
ATOM     93  C   UNL A   1      31.295  27.704  25.856  1.00  0.00    -0.015 A 
ATOM     94  C   UNL A   1      31.784  28.197  27.078  1.00  0.00     0.007 A 
ATOM     95  C   UNL A   1      31.016  28.643  24.843  1.00  0.00     0.007 A 
ATOM     96  C   UNL A   1      32.051  29.560  27.251  1.00  0.00     0.000 A 
ATOM     97  C   UNL A   1      31.285  30.003  25.015  1.00  0.00     0.000 A 
ATOM     98  C   UNL A   1      31.818  30.460  26.215  1.00  0.00     0.000 A 
ENDBRANCH  90  93
ENDBRANCH  86  88
ENDBRANCH  82  86
ENDBRANCH  78  80
ENDBRANCH  77  78
ENDBRANCH  76  77
ENDBRANCH  75  76
ENDBRANCH  74  75
ENDBRANCH   1  74
TORSDOF 20
ENDMDL
MODEL 2
REMARK VINA RESULT:     -10.6      1.692      3.369
REMARK SMILES O=C(OCCOCCOCCOC(=O)c1ccccc1C(=O)N1CCS[C@H]1c1ccccc1)c1ccc(-c2c3nc(c(-c4c(F)c(F)c(F)c(F)c4F)c4ccc([nH]4)c(-c4c(F)c(F)c(F)c(F)c4F)c4nc(c(-c5c(F)c(F)c(F)c(F)c5F)c5ccc2[nH]5)C=C4)C=C3)cc1
REMARK SMILES IDX 8 1 7 2 6 3 5 4 4 5 3 6 2 7 1 8 34 9 35 10 96 11 36 12 95 13
REMARK SMILES IDX 37 14 38 15 39 16 89 17 40 18 94 19 88 20 90 21 41 22 93 23
REMARK SMILES IDX 87 24 86 25 42 27 74 28 54 29 73 30 55 31 58 32 72 33 91 34
REMARK SMILES IDX 56 35 57 36 71 38 92 39 59 40 43 41 44 42 52 43 45 44 46 45
REMARK SMILES IDX 50 46 53 47 47 48 48 49 51 50 49 51 75 52 76 53 84 54 77 55
REMARK SMILES IDX 78 56 82 57 85 58 79 59 80 60 83 61 81 62 60 63 61 64 69 65
REMARK SMILES IDX 62 66 63 67 67 68 70 69 64 70 65 71 68 72 66 73 9 74 10 75
REMARK SMILES IDX 11 76 12 77 13 78 14 79 15 80 16 81 20 82 17 83 19 84 18 85
REMARK SMILES IDX 21 86 22 87 23 88 24 89 27 90 25 91 26 92 28 93 29 94 33 95
REMARK SMILES IDX 30 96 32 97 31 98
REMARK H PARENT 90 26 58 37
REMARK Flexibility Score: inf
ROOT
ATOM      1  C   UNL A   1      39.792  21.948  26.857  1.00  0.00     0.188 C 
ENDROOT
BRANCH   1   2
ATOM      2  C   UNL A   1      41.010  22.548  26.156  1.00  0.00     0.188 C 
BRANCH   2   3
ATOM      3  O   UNL A   1      41.882  21.488  25.730  1.00  0.00    -0.376 OA
BRANCH   3   4
ATOM      4  C   UNL A   1      41.672  20.259  26.423  1.00  0.00     0.202 C 
BRANCH   4   5
ATOM      5  C   UNL A   1      42.609  19.155  25.936  1.00  0.00     0.261 C 
BRANCH   5   6
ATOM      6  O   UNL A   1      43.086  19.428  24.607  1.00  0.00    -0.460 OA
BRANCH   6   7
ATOM      7  C   UNL A   1      44.350  19.772  24.248  1.00  0.00     0.338 C 
ATOM      8  O   UNL A   1      44.938  19.090  23.410  1.00  0.00    -0.246 OA
BRANCH   7   9
ATOM      9  C   UNL A   1      44.994  21.048  24.682  1.00  0.00     0.060 A 
ATOM     10  C   UNL A   1      45.702  21.247  25.871  1.00  0.00     0.016 A 
ATOM     11  C   UNL A   1      44.869  22.133  23.797  1.00  0.00     0.016 A 
ATOM     12  C   UNL A   1      46.095  22.529  26.261  1.00  0.00     0.010 A 
ATOM     13  C   UNL A   1      45.313  23.409  24.153  1.00  0.00     0.010 A 
ATOM     14  C   UNL A   1      45.847  23.623  25.429  1.00  0.00    -0.014 A 
BRANCH  14  15
ATOM     15  C   UNL A   1      45.938  24.991  25.985  1.00  0.00     0.031 A 
ATOM     16  C   UNL A   1      47.257  25.707  25.889  1.00  0.00     0.074 A 
ATOM     17  C   UNL A   1      44.855  25.618  26.474  1.00  0.00     0.049 A 
ATOM     18  N   UNL A   1      47.581  26.913  26.278  1.00  0.00    -0.248 NA
ATOM     19  C   UNL A   1      48.361  24.966  25.254  1.00  0.00     0.031 C 
ATOM     20  C   UNL A   1      43.516  25.042  26.544  1.00  0.00     0.029 A 
ATOM     21  N   UNL A   1      44.707  26.881  26.982  1.00  0.00    -0.354 N 
ATOM     22  C   UNL A   1      48.921  27.066  25.948  1.00  0.00     0.074 A 
ATOM     23  C   UNL A   1      49.361  25.828  25.346  1.00  0.00     0.031 C 
ATOM     24  C   UNL A   1      42.673  25.956  27.051  1.00  0.00     0.029 A 
ATOM     25  C   UNL A   1      43.422  27.170  27.366  1.00  0.00     0.049 A 
ATOM     26  H   UNL A   1      45.452  27.521  27.064  1.00  0.00     0.167 HD
ATOM     27  C   UNL A   1      49.714  28.148  26.122  1.00  0.00     0.037 A 
ATOM     28  C   UNL A   1      42.916  28.293  27.911  1.00  0.00     0.037 A 
ATOM     29  C   UNL A   1      49.276  29.377  26.719  1.00  0.00     0.049 A 
ATOM     30  C   UNL A   1      43.832  29.465  28.145  1.00  0.00     0.074 A 
ATOM     31  C   UNL A   1      50.008  30.517  26.995  1.00  0.00     0.029 A 
ATOM     32  N   UNL A   1      47.974  29.621  27.130  1.00  0.00    -0.354 N 
ATOM     33  N   UNL A   1      45.105  29.591  27.853  1.00  0.00    -0.248 NA
ATOM     34  C   UNL A   1      43.243  30.649  28.784  1.00  0.00     0.031 C 
ATOM     35  C   UNL A   1      49.149  31.447  27.595  1.00  0.00     0.029 A 
ATOM     36  C   UNL A   1      47.880  30.894  27.664  1.00  0.00     0.049 A 
ATOM     37  H   UNL A   1      47.227  28.984  27.054  1.00  0.00     0.167 HD
ATOM     38  C   UNL A   1      45.463  30.871  28.251  1.00  0.00     0.074 A 
ATOM     39  C   UNL A   1      44.271  31.488  28.794  1.00  0.00     0.031 C 
ATOM     40  C   UNL A   1      46.671  31.483  28.179  1.00  0.00     0.037 A 
BRANCH  27  41
ATOM     41  C   UNL A   1      51.141  28.014  25.687  1.00  0.00     0.064 A 
ATOM     42  C   UNL A   1      51.526  28.233  24.356  1.00  0.00     0.173 A 
ATOM     43  C   UNL A   1      52.128  27.622  26.603  1.00  0.00     0.173 A 
ATOM     44  F   UNL A   1      50.611  28.578  23.438  1.00  0.00    -0.203 F 
ATOM     45  C   UNL A   1      52.844  28.037  23.952  1.00  0.00     0.198 A 
ATOM     46  C   UNL A   1      53.448  27.447  26.200  1.00  0.00     0.198 A 
ATOM     47  F   UNL A   1      51.805  27.390  27.885  1.00  0.00    -0.203 F 
ATOM     48  F   UNL A   1      53.179  28.198  22.664  1.00  0.00    -0.200 F 
ATOM     49  C   UNL A   1      53.803  27.647  24.874  1.00  0.00     0.200 A 
ATOM     50  F   UNL A   1      54.374  27.065  27.091  1.00  0.00    -0.200 F 
ATOM     51  F   UNL A   1      55.069  27.445  24.480  1.00  0.00    -0.200 F 
ENDBRANCH  27  41
BRANCH  28  52
ATOM     52  C   UNL A   1      41.474  28.365  28.257  1.00  0.00     0.064 A 
ATOM     53  C   UNL A   1      40.541  28.896  27.355  1.00  0.00     0.173 A 
ATOM     54  C   UNL A   1      40.998  27.910  29.495  1.00  0.00     0.173 A 
ATOM     55  F   UNL A   1      40.953  29.364  26.167  1.00  0.00    -0.203 F 
ATOM     56  C   UNL A   1      39.190  28.981  27.684  1.00  0.00     0.198 A 
ATOM     57  C   UNL A   1      39.642  27.975  29.814  1.00  0.00     0.198 A 
ATOM     58  F   UNL A   1      41.850  27.395  30.395  1.00  0.00    -0.203 F 
ATOM     59  F   UNL A   1      38.327  29.531  26.818  1.00  0.00    -0.200 F 
ATOM     60  C   UNL A   1      38.741  28.517  28.911  1.00  0.00     0.200 A 
ATOM     61  F   UNL A   1      39.213  27.522  31.000  1.00  0.00    -0.200 F 
ATOM     62  F   UNL A   1      37.441  28.605  29.228  1.00  0.00    -0.200 F 
ENDBRANCH  28  52
BRANCH  40  63
ATOM     63  C   UNL A   1      46.752  32.894  28.671  1.00  0.00     0.064 A 
ATOM     64  C   UNL A   1      47.077  33.185  30.003  1.00  0.00     0.173 A 
ATOM     65  C   UNL A   1      46.557  33.965  27.786  1.00  0.00     0.173 A 
ATOM     66  F   UNL A   1      47.260  32.190  30.884  1.00  0.00    -0.203 F 
ATOM     67  C   UNL A   1      47.189  34.502  30.438  1.00  0.00     0.198 A 
ATOM     68  C   UNL A   1      46.690  35.280  28.221  1.00  0.00     0.198 A 
ATOM     69  F   UNL A   1      46.252  33.733  26.501  1.00  0.00    -0.203 F 
ATOM     70  F   UNL A   1      47.471  34.759  31.722  1.00  0.00    -0.200 F 
ATOM     71  C   UNL A   1      47.002  35.547  29.545  1.00  0.00     0.200 A 
ATOM     72  F   UNL A   1      46.516  36.290  27.357  1.00  0.00    -0.200 F 
ATOM     73  F   UNL A   1      47.116  36.815  29.964  1.00  0.00    -0.200 F 
ENDBRANCH  40  63
ENDBRANCH  14  15
ENDBRANCH   7   9
ENDBRANCH   6   7
ENDBRANCH   5   6
ENDBRANCH   4   5
ENDBRANCH   3   4
ENDBRANCH   2   3
ENDBRANCH   1   2
BRANCH   1  74
ATOM     74  O   UNL A   1      38.559  22.173  26.171  1.00  0.00    -0.376 OA
BRANCH  74  75
ATOM     75  C   UNL A   1      38.107  21.143  25.305  1.00  0.00     0.202 C 
BRANCH  75  76
ATOM     76  C   UNL A   1      36.692  21.266  24.736  1.00  0.00     0.261 C 
BRANCH  76  77
ATOM     77  O   UNL A   1      35.701  20.274  25.051  1.00  0.00    -0.460 OA
BRANCH  77  78
ATOM     78  C   UNL A   1      34.555  20.809  25.538  1.00  0.00     0.339 C 
ATOM     79  O   UNL A   1      34.377  21.253  26.659  1.00  0.00    -0.246 OA
BRANCH  78  80
ATOM     80  C   UNL A   1      33.507  20.929  24.520  1.00  0.00     0.072 A 
ATOM     81  C   UNL A   1      33.080  19.705  23.966  1.00  0.00     0.016 A 
ATOM     82  C   UNL A   1      33.136  22.142  23.924  1.00  0.00     0.054 A 
ATOM     83  C   UNL A   1      32.298  19.677  22.812  1.00  0.00     0.001 A 
ATOM     84  C   UNL A   1      32.358  22.082  22.745  1.00  0.00     0.015 A 
ATOM     85  C   UNL A   1      31.948  20.868  22.191  1.00  0.00     0.001 A 
BRANCH  82  86
ATOM     86  C   UNL A   1      33.502  23.527  24.357  1.00  0.00     0.255 C 
ATOM     87  O   UNL A   1      34.607  23.982  24.055  1.00  0.00    -0.269 OA
BRANCH  86  88
ATOM     88  N   UNL A   1      32.588  24.322  25.045  1.00  0.00    -0.322 N 
ATOM     89  C   UNL A   1      31.674  23.561  25.884  1.00  0.00     0.132 C 
ATOM     90  C   UNL A   1      31.852  25.285  24.214  1.00  0.00     0.174 C 
ATOM     91  C   UNL A   1      30.552  24.442  26.394  1.00  0.00     0.093 C 
ATOM     92  S   UNL A   1      30.351  25.734  25.152  1.00  0.00    -0.130 SA
BRANCH  90  93
ATOM     93  C   UNL A   1      32.715  26.446  23.739  1.00  0.00    -0.015 A 
ATOM     94  C   UNL A   1      33.102  26.647  22.403  1.00  0.00     0.007 A 
ATOM     95  C   UNL A   1      33.082  27.433  24.676  1.00  0.00     0.007 A 
ATOM     96  C   UNL A   1      33.760  27.818  22.010  1.00  0.00     0.000 A 
ATOM     97  C   UNL A   1      33.737  28.603  24.283  1.00  0.00     0.000 A 
ATOM     98  C   UNL A   1      34.063  28.802  22.946  1.00  0.00     0.000 A 
ENDBRANCH  90  93
ENDBRANCH  86  88
ENDBRANCH  82  86
ENDBRANCH  78  80
ENDBRANCH  77  78
ENDBRANCH  76  77
ENDBRANCH  75  76
ENDBRANCH  74  75
ENDBRANCH   1  74
TORSDOF 20
ENDMDL
MODEL 3
REMARK VINA RESULT:     -10.5      3.218      8.507
REMARK SMILES O=C(OCCOCCOCCOC(=O)c1ccccc1C(=O)N1CCS[C@H]1c1ccccc1)c1ccc(-c2c3nc(c(-c4c(F)c(F)c(F)c(F)c4F)c4ccc([nH]4)c(-c4c(F)c(F)c(F)c(F)c4F)c4nc(c(-c5c(F)c(F)c(F)c(F)c5F)c5ccc2[nH]5)C=C4)C=C3)cc1
REMARK SMILES IDX 8 1 7 2 6 3 5 4 4 5 3 6 2 7 1 8 34 9 35 10 96 11 36 12 95 13
REMARK SMILES IDX 37 14 38 15 39 16 89 17 40 18 94 19 88 20 90 21 41 22 93 23
REMARK SMILES IDX 87 24 86 25 42 27 74 28 54 29 73 30 55 31 58 32 72 33 91 34
REMARK SMILES IDX 56 35 57 36 71 38 92 39 59 40 43 41 44 42 52 43 45 44 46 45
REMARK SMILES IDX 50 46 53 47 47 48 48 49 51 50 49 51 75 52 76 53 84 54 77 55
REMARK SMILES IDX 78 56 82 57 85 58 79 59 80 60 83 61 81 62 60 63 61 64 69 65
REMARK SMILES IDX 62 66 63 67 67 68 70 69 64 70 65 71 68 72 66 73 9 74 10 75
REMARK SMILES IDX 11 76 12 77 13 78 14 79 15 80 16 81 20 82 17 83 19 84 18 85
REMARK SMILES IDX 21 86 22 87 23 88 24 89 27 90 25 91 26 92 28 93 29 94 33 95
REMARK SMILES IDX 30 96 32 97 31 98
REMARK H PARENT 90 26 58 37
REMARK Flexibility Score: inf
ROOT
ATOM      1  C   UNL A   1      35.200  32.845  28.154  1.00  0.00     0.188 C 
ENDROOT
BRANCH   1   2
ATOM      2  C   UNL A   1      34.479  34.105  28.633  1.00  0.00     0.188 C 
BRANCH   2   3
ATOM      3  O   UNL A   1      34.193  33.983  30.036  1.00  0.00    -0.376 OA
BRANCH   3   4
ATOM      4  C   UNL A   1      34.917  34.903  30.852  1.00  0.00     0.202 C 
BRANCH   4   5
ATOM      5  C   UNL A   1      35.034  34.423  32.297  1.00  0.00     0.261 C 
BRANCH   5   6
ATOM      6  O   UNL A   1      36.098  33.466  32.441  1.00  0.00    -0.460 OA
BRANCH   6   7
ATOM      7  C   UNL A   1      35.980  32.114  32.474  1.00  0.00     0.338 C 
ATOM      8  O   UNL A   1      34.923  31.616  32.861  1.00  0.00    -0.246 OA
BRANCH   7   9
ATOM      9  C   UNL A   1      37.005  31.199  31.886  1.00  0.00     0.060 A 
ATOM     10  C   UNL A   1      38.100  30.652  32.560  1.00  0.00     0.016 A 
ATOM     11  C   UNL A   1      36.829  30.868  30.531  1.00  0.00     0.016 A 
ATOM     12  C   UNL A   1      39.097  29.967  31.863  1.00  0.00     0.010 A 
ATOM     13  C   UNL A   1      37.793  30.131  29.838  1.00  0.00     0.010 A 
ATOM     14  C   UNL A   1      38.974  29.757  30.487  1.00  0.00    -0.014 A 
BRANCH  14  15
ATOM     15  C   UNL A   1      40.166  29.357  29.706  1.00  0.00     0.031 A 
ATOM     16  C   UNL A   1      41.281  30.355  29.554  1.00  0.00     0.074 A 
ATOM     17  C   UNL A   1      40.297  28.109  29.226  1.00  0.00     0.049 A 
ATOM     18  N   UNL A   1      42.430  30.234  28.941  1.00  0.00    -0.248 NA
ATOM     19  C   UNL A   1      41.077  31.667  30.193  1.00  0.00     0.031 C 
ATOM     20  C   UNL A   1      39.310  27.045  29.381  1.00  0.00     0.029 A 
ATOM     21  N   UNL A   1      41.321  27.521  28.533  1.00  0.00    -0.354 N 
ATOM     22  C   UNL A   1      43.074  31.452  29.111  1.00  0.00     0.074 A 
ATOM     23  C   UNL A   1      42.187  32.308  29.864  1.00  0.00     0.031 C 
ATOM     24  C   UNL A   1      39.783  25.923  28.814  1.00  0.00     0.029 A 
ATOM     25  C   UNL A   1      41.093  26.202  28.232  1.00  0.00     0.049 A 
ATOM     26  H   UNL A   1      42.143  27.999  28.274  1.00  0.00     0.167 HD
ATOM     27  C   UNL A   1      44.304  31.822  28.684  1.00  0.00     0.037 A 
ATOM     28  C   UNL A   1      41.862  25.325  27.559  1.00  0.00     0.037 A 
ATOM     29  C   UNL A   1      45.184  30.970  27.937  1.00  0.00     0.049 A 
ATOM     30  C   UNL A   1      43.204  25.777  27.047  1.00  0.00     0.074 A 
ATOM     31  C   UNL A   1      46.428  31.259  27.407  1.00  0.00     0.029 A 
ATOM     32  N   UNL A   1      44.904  29.650  27.618  1.00  0.00    -0.354 N 
ATOM     33  N   UNL A   1      43.795  26.940  27.190  1.00  0.00    -0.248 NA
ATOM     34  C   UNL A   1      43.986  24.798  26.281  1.00  0.00     0.031 C 
ATOM     35  C   UNL A   1      46.893  30.114  26.746  1.00  0.00     0.029 A 
ATOM     36  C   UNL A   1      45.950  29.108  26.893  1.00  0.00     0.049 A 
ATOM     37  H   UNL A   1      44.083  29.168  27.871  1.00  0.00     0.167 HD
ATOM     38  C   UNL A   1      45.023  26.826  26.553  1.00  0.00     0.074 A 
ATOM     39  C   UNL A   1      45.099  25.476  26.032  1.00  0.00     0.031 C 
ATOM     40  C   UNL A   1      46.000  27.754  26.406  1.00  0.00     0.037 A 
BRANCH  27  41
ATOM     41  C   UNL A   1      44.732  33.222  28.996  1.00  0.00     0.064 A 
ATOM     42  C   UNL A   1      44.442  34.288  28.130  1.00  0.00     0.173 A 
ATOM     43  C   UNL A   1      45.475  33.496  30.153  1.00  0.00     0.173 A 
ATOM     44  F   UNL A   1      43.761  34.068  26.995  1.00  0.00    -0.203 F 
ATOM     45  C   UNL A   1      44.906  35.573  28.398  1.00  0.00     0.198 A 
ATOM     46  C   UNL A   1      45.920  34.786  30.428  1.00  0.00     0.198 A 
ATOM     47  F   UNL A   1      45.786  32.508  31.005  1.00  0.00    -0.203 F 
ATOM     48  F   UNL A   1      44.665  36.566  27.530  1.00  0.00    -0.200 F 
ATOM     49  C   UNL A   1      45.642  35.821  29.547  1.00  0.00     0.200 A 
ATOM     50  F   UNL A   1      46.635  35.024  31.537  1.00  0.00    -0.200 F 
ATOM     51  F   UNL A   1      46.100  37.056  29.797  1.00  0.00    -0.200 F 
ENDBRANCH  27  41
BRANCH  28  52
ATOM     52  C   UNL A   1      41.389  23.933  27.346  1.00  0.00     0.064 A 
ATOM     53  C   UNL A   1      42.045  22.849  27.946  1.00  0.00     0.173 A 
ATOM     54  C   UNL A   1      40.277  23.658  26.539  1.00  0.00     0.173 A 
ATOM     55  F   UNL A   1      43.127  23.062  28.709  1.00  0.00    -0.203 F 
ATOM     56  C   UNL A   1      41.614  21.541  27.733  1.00  0.00     0.198 A 
ATOM     57  C   UNL A   1      39.833  22.350  26.345  1.00  0.00     0.198 A 
ATOM     58  F   UNL A   1      39.616  24.660  25.940  1.00  0.00    -0.203 F 
ATOM     59  F   UNL A   1      42.285  20.520  28.286  1.00  0.00    -0.200 F 
ATOM     60  C   UNL A   1      40.506  21.293  26.937  1.00  0.00     0.200 A 
ATOM     61  F   UNL A   1      38.760  22.117  25.577  1.00  0.00    -0.200 F 
ATOM     62  F   UNL A   1      40.096  20.034  26.730  1.00  0.00    -0.200 F 
ENDBRANCH  28  52
BRANCH  40  63
ATOM     63  C   UNL A   1      47.239  27.331  25.682  1.00  0.00     0.064 A 
ATOM     64  C   UNL A   1      47.408  27.588  24.314  1.00  0.00     0.173 A 
ATOM     65  C   UNL A   1      48.290  26.714  26.376  1.00  0.00     0.173 A 
ATOM     66  F   UNL A   1      46.423  28.166  23.611  1.00  0.00    -0.203 F 
ATOM     67  C   UNL A   1      48.583  27.226  23.661  1.00  0.00     0.198 A 
ATOM     68  C   UNL A   1      49.471  26.372  25.724  1.00  0.00     0.198 A 
ATOM     69  F   UNL A   1      48.175  26.455  27.688  1.00  0.00    -0.203 F 
ATOM     70  F   UNL A   1      48.713  27.453  22.347  1.00  0.00    -0.200 F 
ATOM     71  C   UNL A   1      49.614  26.625  24.368  1.00  0.00     0.200 A 
ATOM     72  F   UNL A   1      50.470  25.797  26.408  1.00  0.00    -0.200 F 
ATOM     73  F   UNL A   1      50.747  26.283  23.739  1.00  0.00    -0.200 F 
ENDBRANCH  40  63
ENDBRANCH  14  15
ENDBRANCH   7   9
ENDBRANCH   6   7
ENDBRANCH   5   6
ENDBRANCH   4   5
ENDBRANCH   3   4
ENDBRANCH   2   3
ENDBRANCH   1   2
BRANCH   1  74
ATOM     74  O   UNL A   1      34.407  31.659  28.231  1.00  0.00    -0.376 OA
BRANCH  74  75
ATOM     75  C   UNL A   1      33.343  31.534  27.299  1.00  0.00     0.202 C 
BRANCH  75  76
ATOM     76  C   UNL A   1      32.677  30.164  27.164  1.00  0.00     0.261 C 
BRANCH  76  77
ATOM     77  O   UNL A   1      32.672  29.488  25.895  1.00  0.00    -0.460 OA
BRANCH  77  78
ATOM     78  C   UNL A   1      33.646  28.552  25.790  1.00  0.00     0.339 C 
ATOM     79  O   UNL A   1      34.553  28.353  26.579  1.00  0.00    -0.246 OA
BRANCH  78  80
ATOM     80  C   UNL A   1      33.455  27.660  24.643  1.00  0.00     0.072 A 
ATOM     81  C   UNL A   1      33.963  28.152  23.423  1.00  0.00     0.016 A 
ATOM     82  C   UNL A   1      32.607  26.545  24.656  1.00  0.00     0.054 A 
ATOM     83  C   UNL A   1      33.621  27.551  22.212  1.00  0.00     0.001 A 
ATOM     84  C   UNL A   1      32.262  25.967  23.413  1.00  0.00     0.015 A 
ATOM     85  C   UNL A   1      32.756  26.464  22.205  1.00  0.00     0.001 A 
BRANCH  82  86
ATOM     86  C   UNL A   1      31.964  25.895  25.841  1.00  0.00     0.255 C 
ATOM     87  O   UNL A   1      31.671  26.582  26.822  1.00  0.00    -0.269 OA
BRANCH  86  88
ATOM     88  N   UNL A   1      31.646  24.539  25.824  1.00  0.00    -0.322 N 
ATOM     89  C   UNL A   1      30.333  24.245  26.381  1.00  0.00     0.132 C 
ATOM     90  C   UNL A   1      32.665  23.653  26.401  1.00  0.00     0.174 C 
ATOM     91  C   UNL A   1      30.152  22.753  26.575  1.00  0.00     0.093 C 
ATOM     92  S   UNL A   1      31.812  22.097  26.834  1.00  0.00    -0.130 SA
BRANCH  90  93
ATOM     93  C   UNL A   1      33.902  23.515  25.524  1.00  0.00    -0.015 A 
ATOM     94  C   UNL A   1      33.896  22.967  24.230  1.00  0.00     0.007 A 
ATOM     95  C   UNL A   1      35.120  24.047  25.997  1.00  0.00     0.007 A 
ATOM     96  C   UNL A   1      35.035  23.016  23.419  1.00  0.00     0.000 A 
ATOM     97  C   UNL A   1      36.257  24.098  25.186  1.00  0.00     0.000 A 
ATOM     98  C   UNL A   1      36.209  23.596  23.890  1.00  0.00     0.000 A 
ENDBRANCH  90  93
ENDBRANCH  86  88
ENDBRANCH  82  86
ENDBRANCH  78  80
ENDBRANCH  77  78
ENDBRANCH  76  77
ENDBRANCH  75  76
ENDBRANCH  74  75
ENDBRANCH   1  74
TORSDOF 20
ENDMDL
