MODEL 1
REMARK VINA RESULT:     -10.9      0.000      0.000
REMARK SMILES O=C(OCCOCCOCCOC(=O)c1cc(-c2cccc(Cl)c2)oc1C(F)(F)F)c1ccc(-c2c3nc(c(-c4c(F)c(F)c(F)c(F)c4F)c4ccc([nH]4)c(-c4c(F)c(F)c(F)c(F)c4F)c4nc(c(-c5c(F)c(F)c(F)c(F)c5F)c5ccc2[nH]5)C=C4)C=C3)cc1
REMARK SMILES IDX 7 1 6 2 5 3 4 4 3 5 2 6 1 7 31 8 32 9 93 10 33 11 92 12
REMARK SMILES IDX 34 13 35 14 36 15 86 16 37 17 91 18 85 19 87 20 38 21 90 22
REMARK SMILES IDX 84 23 83 24 39 26 71 27 51 28 70 29 52 30 55 31 69 32 88 33
REMARK SMILES IDX 53 34 54 35 68 37 89 38 56 39 40 40 41 41 49 42 42 43 43 44
REMARK SMILES IDX 47 45 50 46 44 47 45 48 48 49 46 50 72 51 73 52 81 53 74 54
REMARK SMILES IDX 75 55 79 56 82 57 76 58 77 59 80 60 78 61 57 62 58 63 66 64
REMARK SMILES IDX 59 65 60 66 64 67 67 68 61 69 62 70 65 71 63 72 8 73 9 74
REMARK SMILES IDX 10 75 11 76 12 77 13 78 14 79 15 80 16 81 26 82 17 83 25 84
REMARK SMILES IDX 27 85 28 86 29 87 30 88 18 89 19 90 24 91 20 92 22 93 21 94
REMARK SMILES IDX 23 95
REMARK H PARENT 87 25 55 36
REMARK Flexibility Score: inf
ROOT
ATOM      1  C   UNL A   1      33.620  19.503  24.864  1.00  0.00     0.188 C 
ENDROOT
BRANCH   1   2
ATOM      2  O   UNL A   1      34.740  20.407  24.828  1.00  0.00    -0.376 OA
BRANCH   2   3
ATOM      3  C   UNL A   1      35.981  19.713  25.003  1.00  0.00     0.202 C 
BRANCH   3   4
ATOM      4  C   UNL A   1      37.159  20.577  24.545  1.00  0.00     0.261 C 
BRANCH   4   5
ATOM      5  O   UNL A   1      37.653  21.342  25.666  1.00  0.00    -0.460 OA
BRANCH   5   6
ATOM      6  C   UNL A   1      38.926  21.385  26.125  1.00  0.00     0.338 C 
ATOM      7  O   UNL A   1      39.646  20.393  26.079  1.00  0.00    -0.246 OA
BRANCH   6   8
ATOM      8  C   UNL A   1      39.528  22.682  26.510  1.00  0.00     0.060 A 
ATOM      9  C   UNL A   1      38.995  23.917  26.127  1.00  0.00     0.016 A 
ATOM     10  C   UNL A   1      40.636  22.642  27.366  1.00  0.00     0.016 A 
ATOM     11  C   UNL A   1      39.648  25.101  26.493  1.00  0.00     0.010 A 
ATOM     12  C   UNL A   1      41.257  23.826  27.770  1.00  0.00     0.010 A 
ATOM     13  C   UNL A   1      40.795  25.065  27.303  1.00  0.00    -0.014 A 
BRANCH  13  14
ATOM     14  C   UNL A   1      41.562  26.298  27.621  1.00  0.00     0.031 A 
ATOM     15  C   UNL A   1      40.932  27.377  28.463  1.00  0.00     0.074 A 
ATOM     16  C   UNL A   1      42.815  26.476  27.161  1.00  0.00     0.049 A 
ATOM     17  N   UNL A   1      41.360  28.588  28.723  1.00  0.00    -0.248 NA
ATOM     18  C   UNL A   1      39.641  27.051  29.089  1.00  0.00     0.031 C 
ATOM     19  C   UNL A   1      43.568  25.524  26.346  1.00  0.00     0.029 A 
ATOM     20  N   UNL A   1      43.674  27.535  27.321  1.00  0.00    -0.354 N 
ATOM     21  C   UNL A   1      40.376  29.180  29.502  1.00  0.00     0.074 A 
ATOM     22  C   UNL A   1      39.332  28.193  29.686  1.00  0.00     0.031 C 
ATOM     23  C   UNL A   1      44.788  26.032  26.099  1.00  0.00     0.029 A 
ATOM     24  C   UNL A   1      44.886  27.358  26.705  1.00  0.00     0.049 A 
ATOM     25  H   UNL A   1      43.442  28.346  27.829  1.00  0.00     0.167 HD
ATOM     26  C   UNL A   1      40.338  30.432  30.016  1.00  0.00     0.037 A 
ATOM     27  C   UNL A   1      45.948  28.179  26.618  1.00  0.00     0.037 A 
ATOM     28  C   UNL A   1      41.377  31.416  29.873  1.00  0.00     0.049 A 
ATOM     29  C   UNL A   1      45.891  29.558  27.209  1.00  0.00     0.074 A 
ATOM     30  C   UNL A   1      41.410  32.718  30.345  1.00  0.00     0.029 A 
ATOM     31  N   UNL A   1      42.581  31.194  29.225  1.00  0.00    -0.354 N 
ATOM     32  N   UNL A   1      44.912  30.141  27.851  1.00  0.00    -0.248 NA
ATOM     33  C   UNL A   1      47.087  30.399  27.039  1.00  0.00     0.031 C 
ATOM     34  C   UNL A   1      42.639  33.284  29.982  1.00  0.00     0.029 A 
ATOM     35  C   UNL A   1      43.369  32.331  29.294  1.00  0.00     0.049 A 
ATOM     36  H   UNL A   1      42.837  30.355  28.780  1.00  0.00     0.167 HD
ATOM     37  C   UNL A   1      45.354  31.427  28.126  1.00  0.00     0.074 A 
ATOM     38  C   UNL A   1      46.702  31.532  27.611  1.00  0.00     0.031 C 
ATOM     39  C   UNL A   1      44.692  32.434  28.743  1.00  0.00     0.037 A 
BRANCH  26  40
ATOM     40  C   UNL A   1      39.110  30.817  30.776  1.00  0.00     0.064 A 
ATOM     41  C   UNL A   1      38.002  31.379  30.130  1.00  0.00     0.173 A 
ATOM     42  C   UNL A   1      39.034  30.601  32.160  1.00  0.00     0.173 A 
ATOM     43  F   UNL A   1      38.038  31.616  28.810  1.00  0.00    -0.203 F 
ATOM     44  C   UNL A   1      36.860  31.725  30.846  1.00  0.00     0.198 A 
ATOM     45  C   UNL A   1      37.887  30.940  32.872  1.00  0.00     0.198 A 
ATOM     46  F   UNL A   1      40.074  30.070  32.818  1.00  0.00    -0.203 F 
ATOM     47  F   UNL A   1      35.818  32.285  30.216  1.00  0.00    -0.200 F 
ATOM     48  C   UNL A   1      36.802  31.502  32.216  1.00  0.00     0.200 A 
ATOM     49  F   UNL A   1      37.834  30.727  34.194  1.00  0.00    -0.200 F 
ATOM     50  F   UNL A   1      35.704  31.841  32.904  1.00  0.00    -0.200 F 
ENDBRANCH  26  40
BRANCH  27  51
ATOM     51  C   UNL A   1      47.161  27.733  25.899  1.00  0.00     0.064 A 
ATOM     52  C   UNL A   1      48.288  27.290  26.601  1.00  0.00     0.173 A 
ATOM     53  C   UNL A   1      47.220  27.771  24.501  1.00  0.00     0.173 A 
ATOM     54  F   UNL A   1      48.275  27.261  27.942  1.00  0.00    -0.203 F 
ATOM     55  C   UNL A   1      49.438  26.894  25.926  1.00  0.00     0.198 A 
ATOM     56  C   UNL A   1      48.376  27.388  23.828  1.00  0.00     0.198 A 
ATOM     57  F   UNL A   1      46.166  28.207  23.798  1.00  0.00    -0.203 F 
ATOM     58  F   UNL A   1      50.508  26.475  26.614  1.00  0.00    -0.200 F 
ATOM     59  C   UNL A   1      49.481  26.943  24.540  1.00  0.00     0.200 A 
ATOM     60  F   UNL A   1      48.422  27.445  22.490  1.00  0.00    -0.200 F 
ATOM     61  F   UNL A   1      50.588  26.561  23.889  1.00  0.00    -0.200 F 
ENDBRANCH  27  51
BRANCH  39  62
ATOM     62  C   UNL A   1      45.399  33.745  28.850  1.00  0.00     0.064 A 
ATOM     63  C   UNL A   1      45.230  34.731  27.868  1.00  0.00     0.173 A 
ATOM     64  C   UNL A   1      46.231  34.029  29.941  1.00  0.00     0.173 A 
ATOM     65  F   UNL A   1      44.454  34.493  26.800  1.00  0.00    -0.203 F 
ATOM     66  C   UNL A   1      45.876  35.959  27.973  1.00  0.00     0.198 A 
ATOM     67  C   UNL A   1      46.871  35.260  30.045  1.00  0.00     0.198 A 
ATOM     68  F   UNL A   1      46.428  33.110  30.897  1.00  0.00    -0.203 F 
ATOM     69  F   UNL A   1      45.715  36.884  27.016  1.00  0.00    -0.200 F 
ATOM     70  C   UNL A   1      46.694  36.224  29.061  1.00  0.00     0.200 A 
ATOM     71  F   UNL A   1      47.669  35.513  31.092  1.00  0.00    -0.200 F 
ATOM     72  F   UNL A   1      47.321  37.405  29.159  1.00  0.00    -0.200 F 
ENDBRANCH  39  62
ENDBRANCH  13  14
ENDBRANCH   6   8
ENDBRANCH   5   6
ENDBRANCH   4   5
ENDBRANCH   3   4
ENDBRANCH   2   3
ENDBRANCH   1   2
BRANCH   1  73
ATOM     73  C   UNL A   1      32.543  19.963  23.885  1.00  0.00     0.188 C 
BRANCH  73  74
ATOM     74  O   UNL A   1      32.841  21.257  23.355  1.00  0.00    -0.376 OA
BRANCH  74  75
ATOM     75  C   UNL A   1      31.963  22.294  23.797  1.00  0.00     0.202 C 
BRANCH  75  76
ATOM     76  C   UNL A   1      32.536  23.004  25.030  1.00  0.00     0.261 C 
BRANCH  76  77
ATOM     77  O   UNL A   1      33.885  23.469  24.822  1.00  0.00    -0.460 OA
BRANCH  77  78
ATOM     78  C   UNL A   1      34.053  24.446  23.894  1.00  0.00     0.342 C 
ATOM     79  O   UNL A   1      34.536  24.300  22.781  1.00  0.00    -0.246 OA
BRANCH  78  80
ATOM     80  C   UNL A   1      33.592  25.733  24.367  1.00  0.00     0.111 A 
ATOM     81  C   UNL A   1      33.887  26.406  25.588  1.00  0.00     0.067 A 
ATOM     82  C   UNL A   1      32.800  26.600  23.636  1.00  0.00     0.223 A 
ATOM     83  C   UNL A   1      33.364  27.679  25.476  1.00  0.00     0.135 A 
ATOM     84  O   UNL A   1      32.651  27.773  24.316  1.00  0.00    -0.451 OA
BRANCH  82  85
ATOM     85  C   UNL A   1      32.131  26.481  22.315  1.00  0.00     0.450 C 
ATOM     86  F   UNL A   1      31.250  27.492  22.101  1.00  0.00    -0.163 F 
ATOM     87  F   UNL A   1      33.016  26.496  21.289  1.00  0.00    -0.163 F 
ATOM     88  F   UNL A   1      31.423  25.328  22.229  1.00  0.00    -0.163 F 
ENDBRANCH  82  85
BRANCH  83  89
ATOM     89  C   UNL A   1      33.481  28.909  26.254  1.00  0.00     0.019 A 
ATOM     90  C   UNL A   1      34.647  29.177  26.990  1.00  0.00     0.012 A 
ATOM     91  C   UNL A   1      32.473  29.885  26.221  1.00  0.00     0.032 A 
ATOM     92  C   UNL A   1      34.819  30.402  27.642  1.00  0.00     0.002 A 
ATOM     93  C   UNL A   1      32.647  31.104  26.875  1.00  0.00     0.041 A 
ATOM     94  C   UNL A   1      33.821  31.372  27.572  1.00  0.00     0.020 A 
ATOM     95  Cl  UNL A   1      31.403  32.290  26.814  1.00  0.00    -0.084 Cl
ENDBRANCH  83  89
ENDBRANCH  78  80
ENDBRANCH  77  78
ENDBRANCH  76  77
ENDBRANCH  75  76
ENDBRANCH  74  75
ENDBRANCH  73  74
ENDBRANCH   1  73
TORSDOF 19
ENDMDL
MODEL 2
REMARK VINA RESULT:     -10.8      4.564      8.498
REMARK SMILES O=C(OCCOCCOCCOC(=O)c1cc(-c2cccc(Cl)c2)oc1C(F)(F)F)c1ccc(-c2c3nc(c(-c4c(F)c(F)c(F)c(F)c4F)c4ccc([nH]4)c(-c4c(F)c(F)c(F)c(F)c4F)c4nc(c(-c5c(F)c(F)c(F)c(F)c5F)c5ccc2[nH]5)C=C4)C=C3)cc1
REMARK SMILES IDX 7 1 6 2 5 3 4 4 3 5 2 6 1 7 31 8 32 9 93 10 33 11 92 12
REMARK SMILES IDX 34 13 35 14 36 15 86 16 37 17 91 18 85 19 87 20 38 21 90 22
REMARK SMILES IDX 84 23 83 24 39 26 71 27 51 28 70 29 52 30 55 31 69 32 88 33
REMARK SMILES IDX 53 34 54 35 68 37 89 38 56 39 40 40 41 41 49 42 42 43 43 44
REMARK SMILES IDX 47 45 50 46 44 47 45 48 48 49 46 50 72 51 73 52 81 53 74 54
REMARK SMILES IDX 75 55 79 56 82 57 76 58 77 59 80 60 78 61 57 62 58 63 66 64
REMARK SMILES IDX 59 65 60 66 64 67 67 68 61 69 62 70 65 71 63 72 8 73 9 74
REMARK SMILES IDX 10 75 11 76 12 77 13 78 14 79 15 80 16 81 26 82 17 83 25 84
REMARK SMILES IDX 27 85 28 86 29 87 30 88 18 89 19 90 24 91 20 92 22 93 21 94
REMARK SMILES IDX 23 95
REMARK H PARENT 87 25 55 36
REMARK Flexibility Score: inf
ROOT
ATOM      1  C   UNL A   1      39.957  20.987  26.456  1.00  0.00     0.188 C 
ENDROOT
BRANCH   1   2
ATOM      2  O   UNL A   1      40.944  20.025  26.042  1.00  0.00    -0.376 OA
BRANCH   2   3
ATOM      3  C   UNL A   1      42.196  20.237  26.704  1.00  0.00     0.202 C 
BRANCH   3   4
ATOM      4  C   UNL A   1      43.231  20.828  25.742  1.00  0.00     0.261 C 
BRANCH   4   5
ATOM      5  O   UNL A   1      42.716  22.056  25.186  1.00  0.00    -0.460 OA
BRANCH   5   6
ATOM      6  C   UNL A   1      43.333  23.262  25.162  1.00  0.00     0.338 C 
ATOM      7  O   UNL A   1      44.131  23.543  24.274  1.00  0.00    -0.246 OA
BRANCH   6   8
ATOM      8  C   UNL A   1      42.907  24.328  26.097  1.00  0.00     0.060 A 
ATOM      9  C   UNL A   1      43.316  25.660  25.977  1.00  0.00     0.016 A 
ATOM     10  C   UNL A   1      41.985  23.974  27.090  1.00  0.00     0.016 A 
ATOM     11  C   UNL A   1      42.906  26.602  26.929  1.00  0.00     0.010 A 
ATOM     12  C   UNL A   1      41.538  24.927  28.009  1.00  0.00     0.010 A 
ATOM     13  C   UNL A   1      42.028  26.241  27.963  1.00  0.00    -0.014 A 
BRANCH  13  14
ATOM     14  C   UNL A   1      41.658  27.196  29.041  1.00  0.00     0.031 A 
ATOM     15  C   UNL A   1      42.492  27.270  30.294  1.00  0.00     0.074 A 
ATOM     16  C   UNL A   1      40.581  27.995  28.924  1.00  0.00     0.049 A 
ATOM     17  N   UNL A   1      42.258  27.911  31.413  1.00  0.00    -0.248 NA
ATOM     18  C   UNL A   1      43.754  26.514  30.289  1.00  0.00     0.031 C 
ATOM     19  C   UNL A   1      39.681  28.052  27.772  1.00  0.00     0.029 A 
ATOM     20  N   UNL A   1      40.064  28.917  29.800  1.00  0.00    -0.354 N 
ATOM     21  C   UNL A   1      43.316  27.602  32.256  1.00  0.00     0.074 A 
ATOM     22  C   UNL A   1      44.203  26.726  31.518  1.00  0.00     0.031 C 
ATOM     23  C   UNL A   1      38.738  28.980  28.002  1.00  0.00     0.029 A 
ATOM     24  C   UNL A   1      38.944  29.554  29.330  1.00  0.00     0.049 A 
ATOM     25  H   UNL A   1      40.459  29.103  30.682  1.00  0.00     0.167 HD
ATOM     26  C   UNL A   1      43.532  28.004  33.531  1.00  0.00     0.037 A 
ATOM     27  C   UNL A   1      38.159  30.479  29.912  1.00  0.00     0.037 A 
ATOM     28  C   UNL A   1      42.683  28.898  34.271  1.00  0.00     0.049 A 
ATOM     29  C   UNL A   1      38.425  30.922  31.321  1.00  0.00     0.074 A 
ATOM     30  C   UNL A   1      42.817  29.340  35.576  1.00  0.00     0.029 A 
ATOM     31  N   UNL A   1      41.550  29.504  33.757  1.00  0.00    -0.354 N 
ATOM     32  N   UNL A   1      39.369  30.540  32.142  1.00  0.00    -0.248 NA
ATOM     33  C   UNL A   1      37.497  31.914  31.889  1.00  0.00     0.031 C 
ATOM     34  C   UNL A   1      41.763  30.220  35.852  1.00  0.00     0.029 A 
ATOM     35  C   UNL A   1      40.981  30.327  34.715  1.00  0.00     0.049 A 
ATOM     36  H   UNL A   1      41.199  29.370  32.847  1.00  0.00     0.167 HD
ATOM     37  C   UNL A   1      39.128  31.209  33.333  1.00  0.00     0.074 A 
ATOM     38  C   UNL A   1      37.967  32.047  33.121  1.00  0.00     0.031 C 
ATOM     39  C   UNL A   1      39.804  31.124  34.502  1.00  0.00     0.037 A 
BRANCH  26  40
ATOM     40  C   UNL A   1      44.742  27.458  34.219  1.00  0.00     0.064 A 
ATOM     41  C   UNL A   1      44.703  26.231  34.893  1.00  0.00     0.173 A 
ATOM     42  C   UNL A   1      45.956  28.159  34.184  1.00  0.00     0.173 A 
ATOM     43  F   UNL A   1      43.558  25.535  34.964  1.00  0.00    -0.203 F 
ATOM     44  C   UNL A   1      45.838  25.728  35.522  1.00  0.00     0.198 A 
ATOM     45  C   UNL A   1      47.092  27.648  34.806  1.00  0.00     0.198 A 
ATOM     46  F   UNL A   1      46.036  29.339  33.553  1.00  0.00    -0.203 F 
ATOM     47  F   UNL A   1      45.776  24.564  36.185  1.00  0.00    -0.200 F 
ATOM     48  C   UNL A   1      47.032  26.435  35.476  1.00  0.00     0.200 A 
ATOM     49  F   UNL A   1      48.243  28.334  34.763  1.00  0.00    -0.200 F 
ATOM     50  F   UNL A   1      48.121  25.952  36.087  1.00  0.00    -0.200 F 
ENDBRANCH  26  40
BRANCH  27  51
ATOM     51  C   UNL A   1      37.002  31.027  29.171  1.00  0.00     0.064 A 
ATOM     52  C   UNL A   1      36.990  32.362  28.749  1.00  0.00     0.173 A 
ATOM     53  C   UNL A   1      35.882  30.233  28.901  1.00  0.00     0.173 A 
ATOM     54  F   UNL A   1      38.037  33.158  29.010  1.00  0.00    -0.203 F 
ATOM     55  C   UNL A   1      35.892  32.885  28.073  1.00  0.00     0.198 A 
ATOM     56  C   UNL A   1      34.779  30.761  28.238  1.00  0.00     0.198 A 
ATOM     57  F   UNL A   1      35.853  28.956  29.307  1.00  0.00    -0.203 F 
ATOM     58  F   UNL A   1      35.897  34.165  27.679  1.00  0.00    -0.200 F 
ATOM     59  C   UNL A   1      34.788  32.085  27.819  1.00  0.00     0.200 A 
ATOM     60  F   UNL A   1      33.708  29.993  28.001  1.00  0.00    -0.200 F 
ATOM     61  F   UNL A   1      33.730  32.588  27.168  1.00  0.00    -0.200 F 
ENDBRANCH  27  51
BRANCH  39  62
ATOM     62  C   UNL A   1      39.277  31.922  35.650  1.00  0.00     0.064 A 
ATOM     63  C   UNL A   1      39.651  33.263  35.820  1.00  0.00     0.173 A 
ATOM     64  C   UNL A   1      38.383  31.360  36.569  1.00  0.00     0.173 A 
ATOM     65  F   UNL A   1      40.517  33.834  34.970  1.00  0.00    -0.203 F 
ATOM     66  C   UNL A   1      39.149  34.013  36.880  1.00  0.00     0.198 A 
ATOM     67  C   UNL A   1      37.879  32.114  37.625  1.00  0.00     0.198 A 
ATOM     68  F   UNL A   1      38.008  30.078  36.448  1.00  0.00    -0.203 F 
ATOM     69  F   UNL A   1      39.530  35.288  37.037  1.00  0.00    -0.200 F 
ATOM     70  C   UNL A   1      38.263  33.439  37.780  1.00  0.00     0.200 A 
ATOM     71  F   UNL A   1      37.030  31.558  38.499  1.00  0.00    -0.200 F 
ATOM     72  F   UNL A   1      37.784  34.160  38.803  1.00  0.00    -0.200 F 
ENDBRANCH  39  62
ENDBRANCH  13  14
ENDBRANCH   6   8
ENDBRANCH   5   6
ENDBRANCH   4   5
ENDBRANCH   3   4
ENDBRANCH   2   3
ENDBRANCH   1   2
BRANCH   1  73
ATOM     73  C   UNL A   1      38.876  21.123  25.388  1.00  0.00     0.188 C 
BRANCH  73  74
ATOM     74  O   UNL A   1      37.908  22.111  25.751  1.00  0.00    -0.376 OA
BRANCH  74  75
ATOM     75  C   UNL A   1      36.988  22.449  24.712  1.00  0.00     0.202 C 
BRANCH  75  76
ATOM     76  C   UNL A   1      36.017  23.541  25.177  1.00  0.00     0.261 C 
BRANCH  76  77
ATOM     77  O   UNL A   1      35.546  23.325  26.523  1.00  0.00    -0.460 OA
BRANCH  77  78
ATOM     78  C   UNL A   1      34.284  22.840  26.652  1.00  0.00     0.342 C 
ATOM     79  O   UNL A   1      33.961  21.845  27.283  1.00  0.00    -0.246 OA
BRANCH  78  80
ATOM     80  C   UNL A   1      33.315  23.643  25.939  1.00  0.00     0.111 A 
ATOM     81  C   UNL A   1      32.964  25.012  26.122  1.00  0.00     0.067 A 
ATOM     82  C   UNL A   1      32.579  23.204  24.853  1.00  0.00     0.223 A 
ATOM     83  C   UNL A   1      32.137  25.355  25.071  1.00  0.00     0.135 A 
ATOM     84  O   UNL A   1      31.855  24.238  24.337  1.00  0.00    -0.451 OA
BRANCH  82  85
ATOM     85  C   UNL A   1      32.457  21.881  24.190  1.00  0.00     0.450 C 
ATOM     86  F   UNL A   1      33.670  21.360  23.871  1.00  0.00    -0.163 F 
ATOM     87  F   UNL A   1      31.822  20.972  24.970  1.00  0.00    -0.163 F 
ATOM     88  F   UNL A   1      31.763  21.979  23.028  1.00  0.00    -0.163 F 
ENDBRANCH  82  85
BRANCH  83  89
ATOM     89  C   UNL A   1      31.600  26.610  24.554  1.00  0.00     0.019 A 
ATOM     90  C   UNL A   1      30.777  26.616  23.415  1.00  0.00     0.012 A 
ATOM     91  C   UNL A   1      31.824  27.823  25.223  1.00  0.00     0.032 A 
ATOM     92  C   UNL A   1      30.163  27.794  22.981  1.00  0.00     0.002 A 
ATOM     93  C   UNL A   1      31.211  28.997  24.784  1.00  0.00     0.041 A 
ATOM     94  C   UNL A   1      30.370  28.983  23.676  1.00  0.00     0.020 A 
ATOM     95  Cl  UNL A   1      31.492  30.471  25.624  1.00  0.00    -0.084 Cl
ENDBRANCH  83  89
ENDBRANCH  78  80
ENDBRANCH  77  78
ENDBRANCH  76  77
ENDBRANCH  75  76
ENDBRANCH  74  75
ENDBRANCH  73  74
ENDBRANCH   1  73
TORSDOF 19
ENDMDL
MODEL 3
REMARK VINA RESULT:     -10.8      1.190      1.945
REMARK SMILES O=C(OCCOCCOCCOC(=O)c1cc(-c2cccc(Cl)c2)oc1C(F)(F)F)c1ccc(-c2c3nc(c(-c4c(F)c(F)c(F)c(F)c4F)c4ccc([nH]4)c(-c4c(F)c(F)c(F)c(F)c4F)c4nc(c(-c5c(F)c(F)c(F)c(F)c5F)c5ccc2[nH]5)C=C4)C=C3)cc1
REMARK SMILES IDX 7 1 6 2 5 3 4 4 3 5 2 6 1 7 31 8 32 9 93 10 33 11 92 12
REMARK SMILES IDX 34 13 35 14 36 15 86 16 37 17 91 18 85 19 87 20 38 21 90 22
REMARK SMILES IDX 84 23 83 24 39 26 71 27 51 28 70 29 52 30 55 31 69 32 88 33
REMARK SMILES IDX 53 34 54 35 68 37 89 38 56 39 40 40 41 41 49 42 42 43 43 44
REMARK SMILES IDX 47 45 50 46 44 47 45 48 48 49 46 50 72 51 73 52 81 53 74 54
REMARK SMILES IDX 75 55 79 56 82 57 76 58 77 59 80 60 78 61 57 62 58 63 66 64
REMARK SMILES IDX 59 65 60 66 64 67 67 68 61 69 62 70 65 71 63 72 8 73 9 74
REMARK SMILES IDX 10 75 11 76 12 77 13 78 14 79 15 80 16 81 26 82 17 83 25 84
REMARK SMILES IDX 27 85 28 86 29 87 30 88 18 89 19 90 24 91 20 92 22 93 21 94
REMARK SMILES IDX 23 95
REMARK H PARENT 87 25 55 36
REMARK Flexibility Score: inf
ROOT
ATOM      1  C   UNL A   1      33.534  21.660  23.880  1.00  0.00     0.188 C 
ENDROOT
BRANCH   1   2
ATOM      2  O   UNL A   1      34.819  22.102  24.356  1.00  0.00    -0.376 OA
BRANCH   2   3
ATOM      3  C   UNL A   1      35.185  21.441  25.573  1.00  0.00     0.202 C 
BRANCH   3   4
ATOM      4  C   UNL A   1      36.462  20.618  25.386  1.00  0.00     0.261 C 
BRANCH   4   5
ATOM      5  O   UNL A   1      37.597  21.508  25.313  1.00  0.00    -0.460 OA
BRANCH   5   6
ATOM      6  C   UNL A   1      38.703  21.486  26.094  1.00  0.00     0.338 C 
ATOM      7  O   UNL A   1      39.276  20.430  26.342  1.00  0.00    -0.246 OA
BRANCH   6   8
ATOM      8  C   UNL A   1      39.347  22.755  26.499  1.00  0.00     0.060 A 
ATOM      9  C   UNL A   1      38.867  24.012  26.118  1.00  0.00     0.016 A 
ATOM     10  C   UNL A   1      40.438  22.667  27.372  1.00  0.00     0.016 A 
ATOM     11  C   UNL A   1      39.559  25.168  26.504  1.00  0.00     0.010 A 
ATOM     12  C   UNL A   1      41.097  23.823  27.796  1.00  0.00     0.010 A 
ATOM     13  C   UNL A   1      40.690  25.082  27.332  1.00  0.00    -0.014 A 
BRANCH  13  14
ATOM     14  C   UNL A   1      41.498  26.283  27.673  1.00  0.00     0.031 A 
ATOM     15  C   UNL A   1      40.914  27.354  28.558  1.00  0.00     0.074 A 
ATOM     16  C   UNL A   1      42.747  26.440  27.195  1.00  0.00     0.049 A 
ATOM     17  N   UNL A   1      41.381  28.543  28.847  1.00  0.00    -0.248 NA
ATOM     18  C   UNL A   1      39.625  27.045  29.198  1.00  0.00     0.031 C 
ATOM     19  C   UNL A   1      43.458  25.492  26.339  1.00  0.00     0.029 A 
ATOM     20  N   UNL A   1      43.639  27.468  27.372  1.00  0.00    -0.354 N 
ATOM     21  C   UNL A   1      40.429  29.139  29.661  1.00  0.00     0.074 A 
ATOM     22  C   UNL A   1      39.360  28.177  29.835  1.00  0.00     0.031 C 
ATOM     23  C   UNL A   1      44.688  25.972  26.084  1.00  0.00     0.029 A 
ATOM     24  C   UNL A   1      44.835  27.275  26.727  1.00  0.00     0.049 A 
ATOM     25  H   UNL A   1      43.439  28.269  27.908  1.00  0.00     0.167 HD
ATOM     26  C   UNL A   1      40.436  30.375  30.213  1.00  0.00     0.037 A 
ATOM     27  C   UNL A   1      45.918  28.069  26.646  1.00  0.00     0.037 A 
ATOM     28  C   UNL A   1      41.501  31.333  30.081  1.00  0.00     0.049 A 
ATOM     29  C   UNL A   1      45.912  29.430  27.279  1.00  0.00     0.074 A 
ATOM     30  C   UNL A   1      41.580  32.619  30.590  1.00  0.00     0.029 A 
ATOM     31  N   UNL A   1      42.685  31.097  29.404  1.00  0.00    -0.354 N 
ATOM     32  N   UNL A   1      44.961  30.020  27.956  1.00  0.00    -0.248 NA
ATOM     33  C   UNL A   1      47.128  30.242  27.112  1.00  0.00     0.031 C 
ATOM     34  C   UNL A   1      42.818  33.161  30.222  1.00  0.00     0.029 A 
ATOM     35  C   UNL A   1      43.507  32.208  29.492  1.00  0.00     0.049 A 
ATOM     36  H   UNL A   1      42.910  30.264  28.930  1.00  0.00     0.167 HD
ATOM     37  C   UNL A   1      45.444  31.284  28.262  1.00  0.00     0.074 A 
ATOM     38  C   UNL A   1      46.786  31.367  27.724  1.00  0.00     0.031 C 
ATOM     39  C   UNL A   1      44.823  32.290  28.920  1.00  0.00     0.037 A 
BRANCH  26  40
ATOM     40  C   UNL A   1      39.233  30.771  31.007  1.00  0.00     0.064 A 
ATOM     41  C   UNL A   1      39.107  30.422  32.358  1.00  0.00     0.173 A 
ATOM     42  C   UNL A   1      38.209  31.525  30.416  1.00  0.00     0.173 A 
ATOM     43  F   UNL A   1      40.057  29.689  32.957  1.00  0.00    -0.203 F 
ATOM     44  C   UNL A   1      37.987  30.805  33.090  1.00  0.00     0.198 A 
ATOM     45  C   UNL A   1      37.094  31.914  31.154  1.00  0.00     0.198 A 
ATOM     46  F   UNL A   1      38.288  31.876  29.125  1.00  0.00    -0.203 F 
ATOM     47  F   UNL A   1      37.870  30.440  34.374  1.00  0.00    -0.200 F 
ATOM     48  C   UNL A   1      36.983  31.552  32.488  1.00  0.00     0.200 A 
ATOM     49  F   UNL A   1      36.125  32.633  30.571  1.00  0.00    -0.200 F 
ATOM     50  F   UNL A   1      35.903  31.914  33.193  1.00  0.00    -0.200 F 
ENDBRANCH  26  40
BRANCH  27  51
ATOM     51  C   UNL A   1      47.105  27.611  25.892  1.00  0.00     0.064 A 
ATOM     52  C   UNL A   1      48.188  27.018  26.551  1.00  0.00     0.173 A 
ATOM     53  C   UNL A   1      47.184  27.785  24.505  1.00  0.00     0.173 A 
ATOM     54  F   UNL A   1      48.157  26.856  27.882  1.00  0.00    -0.203 F 
ATOM     55  C   UNL A   1      49.315  26.610  25.844  1.00  0.00     0.198 A 
ATOM     56  C   UNL A   1      48.317  27.388  23.802  1.00  0.00     0.198 A 
ATOM     57  F   UNL A   1      46.172  28.365  23.844  1.00  0.00    -0.203 F 
ATOM     58  F   UNL A   1      50.344  26.047  26.493  1.00  0.00    -0.200 F 
ATOM     59  C   UNL A   1      49.379  26.796  24.471  1.00  0.00     0.200 A 
ATOM     60  F   UNL A   1      48.384  27.577  22.477  1.00  0.00    -0.200 F 
ATOM     61  F   UNL A   1      50.464  26.402  23.790  1.00  0.00    -0.200 F 
ENDBRANCH  27  51
BRANCH  39  62
ATOM     62  C   UNL A   1      45.570  33.577  29.053  1.00  0.00     0.064 A 
ATOM     63  C   UNL A   1      45.431  34.587  28.091  1.00  0.00     0.173 A 
ATOM     64  C   UNL A   1      46.408  33.815  30.150  1.00  0.00     0.173 A 
ATOM     65  F   UNL A   1      44.649  34.394  27.018  1.00  0.00    -0.203 F 
ATOM     66  C   UNL A   1      46.115  35.793  28.220  1.00  0.00     0.198 A 
ATOM     67  C   UNL A   1      47.086  35.023  30.279  1.00  0.00     0.198 A 
ATOM     68  F   UNL A   1      46.576  32.870  31.088  1.00  0.00    -0.203 F 
ATOM     69  F   UNL A   1      45.982  36.741  27.282  1.00  0.00    -0.200 F 
ATOM     70  C   UNL A   1      46.939  36.011  29.314  1.00  0.00     0.200 A 
ATOM     71  F   UNL A   1      47.890  35.231  31.331  1.00  0.00    -0.200 F 
ATOM     72  F   UNL A   1      47.601  37.170  29.436  1.00  0.00    -0.200 F 
ENDBRANCH  39  62
ENDBRANCH  13  14
ENDBRANCH   6   8
ENDBRANCH   5   6
ENDBRANCH   4   5
ENDBRANCH   3   4
ENDBRANCH   2   3
ENDBRANCH   1   2
BRANCH   1  73
ATOM     73  C   UNL A   1      33.021  22.607  22.798  1.00  0.00     0.188 C 
BRANCH  73  74
ATOM     74  O   UNL A   1      33.837  23.777  22.703  1.00  0.00    -0.376 OA
BRANCH  74  75
ATOM     75  C   UNL A   1      33.108  25.003  22.632  1.00  0.00     0.202 C 
BRANCH  75  76
ATOM     76  C   UNL A   1      31.654  24.799  23.072  1.00  0.00     0.261 C 
BRANCH  76  77
ATOM     77  O   UNL A   1      30.879  26.013  22.997  1.00  0.00    -0.460 OA
BRANCH  77  78
ATOM     78  C   UNL A   1      30.239  26.394  24.133  1.00  0.00     0.342 C 
ATOM     79  O   UNL A   1      29.251  25.857  24.612  1.00  0.00    -0.246 OA
BRANCH  78  80
ATOM     80  C   UNL A   1      30.858  27.547  24.748  1.00  0.00     0.111 A 
ATOM     81  C   UNL A   1      31.712  27.616  25.886  1.00  0.00     0.067 A 
ATOM     82  C   UNL A   1      30.771  28.838  24.258  1.00  0.00     0.223 A 
ATOM     83  C   UNL A   1      32.189  28.911  25.948  1.00  0.00     0.135 A 
ATOM     84  O   UNL A   1      31.566  29.666  24.996  1.00  0.00    -0.451 OA
BRANCH  82  85
ATOM     85  C   UNL A   1      30.011  29.438  23.133  1.00  0.00     0.450 C 
ATOM     86  F   UNL A   1      29.528  30.668  23.446  1.00  0.00    -0.163 F 
ATOM     87  F   UNL A   1      30.769  29.577  22.018  1.00  0.00    -0.163 F 
ATOM     88  F   UNL A   1      28.938  28.675  22.806  1.00  0.00    -0.163 F 
ENDBRANCH  82  85
BRANCH  83  89
ATOM     89  C   UNL A   1      33.228  29.587  26.718  1.00  0.00     0.019 A 
ATOM     90  C   UNL A   1      34.444  28.941  26.992  1.00  0.00     0.012 A 
ATOM     91  C   UNL A   1      33.071  30.919  27.132  1.00  0.00     0.032 A 
ATOM     92  C   UNL A   1      35.490  29.618  27.626  1.00  0.00     0.002 A 
ATOM     93  C   UNL A   1      34.116  31.591  27.766  1.00  0.00     0.041 A 
ATOM     94  C   UNL A   1      35.329  30.950  28.000  1.00  0.00     0.020 A 
ATOM     95  Cl  UNL A   1      33.907  33.226  28.256  1.00  0.00    -0.084 Cl
ENDBRANCH  83  89
ENDBRANCH  78  80
ENDBRANCH  77  78
ENDBRANCH  76  77
ENDBRANCH  75  76
ENDBRANCH  74  75
ENDBRANCH  73  74
ENDBRANCH   1  73
TORSDOF 19
ENDMDL
