MODEL 1
REMARK VINA RESULT:     -12.4      0.000      0.000
REMARK SMILES CCc1cc(S(F)(F)(F)(F)F)cc2c1O[C@@H](C(F)(F)F)C(C(=O)OCCOCCOCCOC(=O)c1ccc(-c3c4nc(c(-c5c(F)c(F)c(F)c(F)c5F)c5ccc([nH]5)c(-c5c(F)c(F)c(F)c(F)c5F)c5nc(c(-c6c(F)c(F)c(F)c(F)c6F)c6ccc3[nH]6)C=C5)C=C4)cc1)=C2
REMARK SMILES IDX 29 1 28 2 27 3 26 4 25 5 24 6 22 7 23 8 21 9 3 10 4 11 14 12
REMARK SMILES IDX 5 13 13 14 15 15 12 16 99 17 16 18 2 19 1 20 6 21 7 22 8 23
REMARK SMILES IDX 9 24 10 25 11 26 17 27 18 28 19 29 20 30 30 31 31 32 32 33
REMARK SMILES IDX 33 34 34 35 35 36 36 37 37 38 98 39 38 40 97 41 39 42 40 43
REMARK SMILES IDX 41 44 91 45 42 46 96 47 90 48 92 49 43 50 95 51 89 52 88 53
REMARK SMILES IDX 44 55 76 56 56 57 75 58 57 59 60 60 74 61 93 62 58 63 59 64
REMARK SMILES IDX 73 66 94 67 61 68 45 69 46 70 54 71 47 72 48 73 52 74 55 75
REMARK SMILES IDX 49 76 50 77 53 78 51 79 77 80 78 81 86 82 79 83 80 84 84 85
REMARK SMILES IDX 87 86 81 87 82 88 85 89 83 90 62 91 63 92 71 93 64 94 65 95
REMARK SMILES IDX 69 96 72 97 66 98 67 99 70 100 68 101
REMARK H PARENT 92 54 60 65
REMARK Flexibility Score: inf
ROOT
ATOM      1  C   UNL A   1      29.674  29.959  23.498  1.00  0.00     0.188 C 
ENDROOT
BRANCH   1   2
ATOM      2  C   UNL A   1      29.676  28.524  22.999  1.00  0.00     0.188 C 
BRANCH   2   3
ATOM      3  O   UNL A   1      28.400  27.942  23.229  1.00  0.00    -0.376 OA
BRANCH   3   4
ATOM      4  C   UNL A   1      28.564  26.680  23.859  1.00  0.00     0.202 C 
BRANCH   4   5
ATOM      5  C   UNL A   1      30.037  26.305  23.869  1.00  0.00     0.261 C 
BRANCH   5   6
ATOM      6  O   UNL A   1      30.171  24.921  24.155  1.00  0.00    -0.460 OA
BRANCH   6   7
ATOM      7  C   UNL A   1      30.743  24.502  25.385  1.00  0.00     0.338 C 
ATOM      8  O   UNL A   1      30.308  24.974  26.482  1.00  0.00    -0.246 OA
BRANCH   7   9
ATOM      9  C   UNL A   1      31.875  23.487  25.391  1.00  0.00     0.087 C 
ATOM     10  C   UNL A   1      35.131  20.905  24.963  1.00  0.00    -0.004 A 
ATOM     11  C   UNL A   1      34.918  19.558  24.744  1.00  0.00     0.032 A 
ATOM     12  C   UNL A   1      34.043  21.741  25.047  1.00  0.00     0.131 A 
ATOM     13  C   UNL A   1      33.650  19.057  24.606  1.00  0.00     0.108 A 
ATOM     14  C   UNL A   1      32.747  21.269  24.932  1.00  0.00     0.019 A 
ATOM     15  O   UNL A   1      34.273  23.091  25.152  1.00  0.00    -0.475 OA
ATOM     16  C   UNL A   1      32.569  19.909  24.708  1.00  0.00     0.036 A 
ATOM     17  C   UNL A   1      31.667  22.237  24.995  1.00  0.00     0.027 C 
ATOM     18  C   UNL A   1      33.272  23.882  25.851  1.00  0.00     0.316 C 
BRANCH  10  19
ATOM     19  C   UNL A   1      36.503  21.561  24.932  1.00  0.00     0.036 C 
ATOM     20  C   UNL A   1      37.577  20.487  24.903  1.00  0.00     0.009 C 
ENDBRANCH  10  19
BRANCH  13  21
ATOM     21  S   UNL A   1      33.394  17.292  24.295  1.00  0.00     0.310 S 
ATOM     22  F   UNL A   1      34.959  17.073  24.421  1.00  0.00    -0.094 F 
ATOM     23  F   UNL A   1      33.620  17.534  22.755  1.00  0.00    -0.094 F 
ATOM     24  F   UNL A   1      33.259  15.761  24.063  1.00  0.00    -0.094 F 
ATOM     25  F   UNL A   1      33.309  17.055  25.855  1.00  0.00    -0.094 F 
ATOM     26  F   UNL A   1      33.641  18.832  24.557  1.00  0.00    -0.094 F 
ENDBRANCH  13  21
BRANCH  18  27
ATOM     27  C   UNL A   1      33.498  25.353  25.542  1.00  0.00     0.430 C 
ATOM     28  F   UNL A   1      32.817  26.098  26.408  1.00  0.00    -0.167 F 
ATOM     29  F   UNL A   1      34.795  25.633  25.641  1.00  0.00    -0.167 F 
ATOM     30  F   UNL A   1      33.081  25.617  24.307  1.00  0.00    -0.167 F 
ENDBRANCH  18  27
ENDBRANCH   7   9
ENDBRANCH   6   7
ENDBRANCH   5   6
ENDBRANCH   4   5
ENDBRANCH   3   4
ENDBRANCH   2   3
ENDBRANCH   1   2
BRANCH   1  31
ATOM     31  O   UNL A   1      30.651  30.107  24.518  1.00  0.00    -0.376 OA
BRANCH  31  32
ATOM     32  C   UNL A   1      31.788  29.316  24.202  1.00  0.00     0.202 C 
BRANCH  32  33
ATOM     33  C   UNL A   1      32.917  29.642  25.165  1.00  0.00     0.261 C 
BRANCH  33  34
ATOM     34  O   UNL A   1      32.376  30.186  26.361  1.00  0.00    -0.460 OA
BRANCH  34  35
ATOM     35  C   UNL A   1      33.041  31.255  27.018  1.00  0.00     0.338 C 
ATOM     36  O   UNL A   1      32.546  32.424  26.990  1.00  0.00    -0.246 OA
BRANCH  35  37
ATOM     37  C   UNL A   1      34.346  31.000  27.754  1.00  0.00     0.060 A 
ATOM     38  C   UNL A   1      35.237  32.028  28.013  1.00  0.00     0.016 A 
ATOM     39  C   UNL A   1      34.583  29.761  28.173  1.00  0.00     0.016 A 
ATOM     40  C   UNL A   1      36.500  31.590  28.475  1.00  0.00     0.010 A 
ATOM     41  C   UNL A   1      35.791  29.433  28.739  1.00  0.00     0.010 A 
ATOM     42  C   UNL A   1      36.741  30.389  28.970  1.00  0.00    -0.014 A 
BRANCH  42  43
ATOM     43  C   UNL A   1      38.007  30.087  29.755  1.00  0.00     0.031 A 
ATOM     44  C   UNL A   1      38.944  29.234  29.166  1.00  0.00     0.074 A 
ATOM     45  C   UNL A   1      38.132  30.609  31.030  1.00  0.00     0.049 A 
ATOM     46  N   UNL A   1      40.097  28.810  29.684  1.00  0.00    -0.248 NA
ATOM     47  C   UNL A   1      38.797  28.650  27.825  1.00  0.00     0.031 C 
ATOM     48  C   UNL A   1      37.197  31.476  31.628  1.00  0.00     0.029 A 
ATOM     49  N   UNL A   1      39.149  30.397  31.935  1.00  0.00    -0.354 N 
ATOM     50  C   UNL A   1      40.731  28.022  28.814  1.00  0.00     0.074 A 
ATOM     51  C   UNL A   1      39.901  27.903  27.607  1.00  0.00     0.031 C 
ATOM     52  C   UNL A   1      37.638  31.773  32.879  1.00  0.00     0.029 A 
ATOM     53  C   UNL A   1      38.855  31.098  33.084  1.00  0.00     0.049 A 
ATOM     54  H   UNL A   1      39.948  29.842  31.787  1.00  0.00     0.167 HD
ATOM     55  C   UNL A   1      41.969  27.399  28.978  1.00  0.00     0.037 A 
ATOM     56  C   UNL A   1      39.594  31.156  34.255  1.00  0.00     0.037 A 
ATOM     57  C   UNL A   1      42.729  27.491  30.133  1.00  0.00     0.049 A 
ATOM     58  C   UNL A   1      40.806  30.486  34.441  1.00  0.00     0.074 A 
ATOM     59  C   UNL A   1      43.983  26.876  30.313  1.00  0.00     0.029 A 
ATOM     60  N   UNL A   1      42.423  28.173  31.291  1.00  0.00    -0.354 N 
ATOM     61  N   UNL A   1      41.458  29.730  33.557  1.00  0.00    -0.248 NA
ATOM     62  C   UNL A   1      41.581  30.514  35.689  1.00  0.00     0.031 C 
ATOM     63  C   UNL A   1      44.424  27.173  31.564  1.00  0.00     0.029 A 
ATOM     64  C   UNL A   1      43.451  27.979  32.188  1.00  0.00     0.049 A 
ATOM     65  H   UNL A   1      41.610  28.705  31.450  1.00  0.00     0.167 HD
ATOM     66  C   UNL A   1      42.592  29.272  34.091  1.00  0.00     0.074 A 
ATOM     67  C   UNL A   1      42.684  29.764  35.472  1.00  0.00     0.031 C 
ATOM     68  C   UNL A   1      43.555  28.467  33.481  1.00  0.00     0.037 A 
BRANCH  55  69
ATOM     69  C   UNL A   1      42.515  26.571  27.825  1.00  0.00     0.064 A 
ATOM     70  C   UNL A   1      43.348  27.169  26.895  1.00  0.00     0.173 A 
ATOM     71  C   UNL A   1      42.182  25.289  27.729  1.00  0.00     0.173 A 
ATOM     72  F   UNL A   1      43.907  28.362  27.082  1.00  0.00    -0.203 F 
ATOM     73  C   UNL A   1      43.552  26.396  25.727  1.00  0.00     0.198 A 
ATOM     74  C   UNL A   1      42.532  24.557  26.620  1.00  0.00     0.198 A 
ATOM     75  F   UNL A   1      41.506  24.708  28.715  1.00  0.00    -0.203 F 
ATOM     76  F   UNL A   1      44.024  27.017  24.650  1.00  0.00    -0.200 F 
ATOM     77  C   UNL A   1      43.305  25.102  25.634  1.00  0.00     0.200 A 
ATOM     78  F   UNL A   1      42.112  23.301  26.504  1.00  0.00    -0.200 F 
ATOM     79  F   UNL A   1      43.784  24.369  24.633  1.00  0.00    -0.200 F 
ENDBRANCH  55  69
BRANCH  56  80
ATOM     80  C   UNL A   1      39.056  31.996  35.401  1.00  0.00     0.064 A 
ATOM     81  C   UNL A   1      39.343  33.351  35.444  1.00  0.00     0.173 A 
ATOM     82  C   UNL A   1      38.320  31.419  36.343  1.00  0.00     0.173 A 
ATOM     83  F   UNL A   1      39.853  34.018  34.411  1.00  0.00    -0.203 F 
ATOM     84  C   UNL A   1      39.046  33.961  36.686  1.00  0.00     0.198 A 
ATOM     85  C   UNL A   1      37.950  32.116  37.468  1.00  0.00     0.198 A 
ATOM     86  F   UNL A   1      37.936  30.154  36.195  1.00  0.00    -0.203 F 
ATOM     87  F   UNL A   1      39.607  35.139  36.946  1.00  0.00    -0.200 F 
ATOM     88  C   UNL A   1      38.251  33.442  37.604  1.00  0.00     0.200 A 
ATOM     89  F   UNL A   1      37.289  31.491  38.438  1.00  0.00    -0.200 F 
ATOM     90  F   UNL A   1      37.771  34.171  38.607  1.00  0.00    -0.200 F 
ENDBRANCH  56  80
BRANCH  68  91
ATOM     91  C   UNL A   1      44.794  28.104  34.283  1.00  0.00     0.064 A 
ATOM     92  C   UNL A   1      44.841  26.949  35.048  1.00  0.00     0.173 A 
ATOM     93  C   UNL A   1      45.848  28.905  34.181  1.00  0.00     0.173 A 
ATOM     94  F   UNL A   1      43.914  25.997  34.980  1.00  0.00    -0.203 F 
ATOM     95  C   UNL A   1      45.963  26.875  35.906  1.00  0.00     0.198 A 
ATOM     96  C   UNL A   1      46.965  28.693  34.953  1.00  0.00     0.198 A 
ATOM     97  F   UNL A   1      45.823  29.922  33.323  1.00  0.00    -0.203 F 
ATOM     98  F   UNL A   1      45.914  26.010  36.915  1.00  0.00    -0.200 F 
ATOM     99  C   UNL A   1      47.055  27.605  35.775  1.00  0.00     0.200 A 
ATOM    100  F   UNL A   1      47.973  29.560  34.899  1.00  0.00    -0.200 F 
ATOM    101  F   UNL A   1      48.183  27.297  36.409  1.00  0.00    -0.200 F 
ENDBRANCH  68  91
ENDBRANCH  42  43
ENDBRANCH  35  37
ENDBRANCH  34  35
ENDBRANCH  33  34
ENDBRANCH  32  33
ENDBRANCH  31  32
ENDBRANCH   1  31
TORSDOF 20
ENDMDL
MODEL 2
REMARK VINA RESULT:     -12.2      1.267      2.158
REMARK SMILES CCc1cc(S(F)(F)(F)(F)F)cc2c1O[C@@H](C(F)(F)F)C(C(=O)OCCOCCOCCOC(=O)c1ccc(-c3c4nc(c(-c5c(F)c(F)c(F)c(F)c5F)c5ccc([nH]5)c(-c5c(F)c(F)c(F)c(F)c5F)c5nc(c(-c6c(F)c(F)c(F)c(F)c6F)c6ccc3[nH]6)C=C5)C=C4)cc1)=C2
REMARK SMILES IDX 29 1 28 2 27 3 26 4 25 5 24 6 22 7 23 8 21 9 3 10 4 11 14 12
REMARK SMILES IDX 5 13 13 14 15 15 12 16 99 17 16 18 2 19 1 20 6 21 7 22 8 23
REMARK SMILES IDX 9 24 10 25 11 26 17 27 18 28 19 29 20 30 30 31 31 32 32 33
REMARK SMILES IDX 33 34 34 35 35 36 36 37 37 38 98 39 38 40 97 41 39 42 40 43
REMARK SMILES IDX 41 44 91 45 42 46 96 47 90 48 92 49 43 50 95 51 89 52 88 53
REMARK SMILES IDX 44 55 76 56 56 57 75 58 57 59 60 60 74 61 93 62 58 63 59 64
REMARK SMILES IDX 73 66 94 67 61 68 45 69 46 70 54 71 47 72 48 73 52 74 55 75
REMARK SMILES IDX 49 76 50 77 53 78 51 79 77 80 78 81 86 82 79 83 80 84 84 85
REMARK SMILES IDX 87 86 81 87 82 88 85 89 83 90 62 91 63 92 71 93 64 94 65 95
REMARK SMILES IDX 69 96 72 97 66 98 67 99 70 100 68 101
REMARK H PARENT 92 54 60 65
REMARK Flexibility Score: inf
ROOT
ATOM      1  C   UNL A   1      32.862  29.416  26.216  1.00  0.00     0.188 C 
ENDROOT
BRANCH   1   2
ATOM      2  C   UNL A   1      32.502  27.993  26.607  1.00  0.00     0.188 C 
BRANCH   2   3
ATOM      3  O   UNL A   1      31.135  27.751  26.305  1.00  0.00    -0.376 OA
BRANCH   3   4
ATOM      4  C   UNL A   1      31.023  27.272  24.973  1.00  0.00     0.202 C 
BRANCH   4   5
ATOM      5  C   UNL A   1      30.224  25.980  24.964  1.00  0.00     0.261 C 
BRANCH   5   6
ATOM      6  O   UNL A   1      31.107  24.879  24.803  1.00  0.00    -0.460 OA
BRANCH   6   7
ATOM      7  C   UNL A   1      31.440  24.067  25.919  1.00  0.00     0.338 C 
ATOM      8  O   UNL A   1      30.877  24.266  27.041  1.00  0.00    -0.246 OA
BRANCH   7   9
ATOM      9  C   UNL A   1      32.469  22.958  25.773  1.00  0.00     0.087 C 
ATOM     10  C   UNL A   1      35.393  20.103  24.906  1.00  0.00    -0.004 A 
ATOM     11  C   UNL A   1      35.036  18.778  24.738  1.00  0.00     0.032 A 
ATOM     12  C   UNL A   1      34.405  21.030  25.137  1.00  0.00     0.131 A 
ATOM     13  C   UNL A   1      33.723  18.390  24.794  1.00  0.00     0.108 A 
ATOM     14  C   UNL A   1      33.071  20.672  25.220  1.00  0.00     0.019 A 
ATOM     15  O   UNL A   1      34.763  22.354  25.190  1.00  0.00    -0.475 OA
ATOM     16  C   UNL A   1      32.746  19.332  25.042  1.00  0.00     0.036 A 
ATOM     17  C   UNL A   1      32.099  21.730  25.428  1.00  0.00     0.027 C 
ATOM     18  C   UNL A   1      33.947  23.230  26.018  1.00  0.00     0.316 C 
BRANCH  10  19
ATOM     19  C   UNL A   1      36.797  20.637  24.666  1.00  0.00     0.036 C 
ATOM     20  C   UNL A   1      37.795  19.494  24.750  1.00  0.00     0.009 C 
ENDBRANCH  10  19
BRANCH  13  21
ATOM     21  S   UNL A   1      33.274  16.654  24.547  1.00  0.00     0.310 S 
ATOM     22  F   UNL A   1      34.772  16.251  24.869  1.00  0.00    -0.094 F 
ATOM     23  F   UNL A   1      33.699  16.762  23.034  1.00  0.00    -0.094 F 
ATOM     24  F   UNL A   1      32.965  15.139  24.381  1.00  0.00    -0.094 F 
ATOM     25  F   UNL A   1      32.985  16.534  26.096  1.00  0.00    -0.094 F 
ATOM     26  F   UNL A   1      33.690  18.165  24.756  1.00  0.00    -0.094 F 
ENDBRANCH  13  21
BRANCH  18  27
ATOM     27  C   UNL A   1      34.251  24.675  25.660  1.00  0.00     0.430 C 
ATOM     28  F   UNL A   1      35.562  24.888  25.748  1.00  0.00    -0.167 F 
ATOM     29  F   UNL A   1      33.845  24.920  24.417  1.00  0.00    -0.167 F 
ATOM     30  F   UNL A   1      33.614  25.485  26.501  1.00  0.00    -0.167 F 
ENDBRANCH  18  27
ENDBRANCH   7   9
ENDBRANCH   6   7
ENDBRANCH   5   6
ENDBRANCH   4   5
ENDBRANCH   3   4
ENDBRANCH   2   3
ENDBRANCH   1   2
BRANCH   1  31
ATOM     31  O   UNL A   1      32.129  30.328  27.019  1.00  0.00    -0.376 OA
BRANCH  31  32
ATOM     32  C   UNL A   1      31.448  31.254  26.184  1.00  0.00     0.202 C 
BRANCH  32  33
ATOM     33  C   UNL A   1      31.377  32.605  26.876  1.00  0.00     0.261 C 
BRANCH  33  34
ATOM     34  O   UNL A   1      32.643  33.244  26.797  1.00  0.00    -0.460 OA
BRANCH  34  35
ATOM     35  C   UNL A   1      33.207  33.846  27.952  1.00  0.00     0.338 C 
ATOM     36  O   UNL A   1      32.684  34.894  28.443  1.00  0.00    -0.246 OA
BRANCH  35  37
ATOM     37  C   UNL A   1      34.439  33.236  28.601  1.00  0.00     0.060 A 
ATOM     38  C   UNL A   1      35.618  33.953  28.718  1.00  0.00     0.016 A 
ATOM     39  C   UNL A   1      34.332  32.004  29.085  1.00  0.00     0.016 A 
ATOM     40  C   UNL A   1      36.729  33.171  29.110  1.00  0.00     0.010 A 
ATOM     41  C   UNL A   1      35.434  31.347  29.578  1.00  0.00     0.010 A 
ATOM     42  C   UNL A   1      36.645  31.976  29.668  1.00  0.00    -0.014 A 
BRANCH  42  43
ATOM     43  C   UNL A   1      37.830  31.336  30.371  1.00  0.00     0.031 A 
ATOM     44  C   UNL A   1      38.570  30.390  29.658  1.00  0.00     0.074 A 
ATOM     45  C   UNL A   1      38.068  31.667  31.694  1.00  0.00     0.049 A 
ATOM     46  N   UNL A   1      39.619  29.686  30.086  1.00  0.00    -0.248 NA
ATOM     47  C   UNL A   1      38.297  30.011  28.264  1.00  0.00     0.031 C 
ATOM     48  C   UNL A   1      37.333  32.626  32.417  1.00  0.00     0.029 A 
ATOM     49  N   UNL A   1      39.029  31.150  32.535  1.00  0.00    -0.354 N 
ATOM     50  C   UNL A   1      40.072  28.896  29.112  1.00  0.00     0.074 A 
ATOM     51  C   UNL A   1      39.225  29.090  27.927  1.00  0.00     0.031 C 
ATOM     52  C   UNL A   1      37.835  32.678  33.679  1.00  0.00     0.029 A 
ATOM     53  C   UNL A   1      38.893  31.754  33.765  1.00  0.00     0.049 A 
ATOM     54  H   UNL A   1      39.698  30.468  32.298  1.00  0.00     0.167 HD
ATOM     55  C   UNL A   1      41.160  28.023  29.163  1.00  0.00     0.037 A 
ATOM     56  C   UNL A   1      39.637  31.523  34.911  1.00  0.00     0.037 A 
ATOM     57  C   UNL A   1      41.933  27.824  30.296  1.00  0.00     0.049 A 
ATOM     58  C   UNL A   1      40.690  30.607  34.980  1.00  0.00     0.074 A 
ATOM     59  C   UNL A   1      43.038  26.954  30.364  1.00  0.00     0.029 A 
ATOM     60  N   UNL A   1      41.781  28.410  31.534  1.00  0.00    -0.354 N 
ATOM     61  N   UNL A   1      41.168  29.846  33.994  1.00  0.00    -0.248 NA
ATOM     62  C   UNL A   1      41.466  30.330  36.197  1.00  0.00     0.031 C 
ATOM     63  C   UNL A   1      43.540  27.006  31.626  1.00  0.00     0.029 A 
ATOM     64  C   UNL A   1      42.755  27.909  32.369  1.00  0.00     0.049 A 
ATOM     65  H   UNL A   1      41.094  29.070  31.780  1.00  0.00     0.167 HD
ATOM     66  C   UNL A   1      42.191  29.111  34.435  1.00  0.00     0.074 A 
ATOM     67  C   UNL A   1      42.392  29.407  35.860  1.00  0.00     0.031 C 
ATOM     68  C   UNL A   1      42.967  28.209  33.706  1.00  0.00     0.037 A 
BRANCH  55  69
ATOM     69  C   UNL A   1      41.518  27.247  27.905  1.00  0.00     0.064 A 
ATOM     70  C   UNL A   1      40.982  25.986  27.709  1.00  0.00     0.173 A 
ATOM     71  C   UNL A   1      42.340  27.793  27.016  1.00  0.00     0.173 A 
ATOM     72  F   UNL A   1      39.972  25.507  28.432  1.00  0.00    -0.203 F 
ATOM     73  C   UNL A   1      41.605  25.253  26.672  1.00  0.00     0.198 A 
ATOM     74  C   UNL A   1      42.803  27.059  25.950  1.00  0.00     0.198 A 
ATOM     75  F   UNL A   1      42.718  29.060  27.157  1.00  0.00    -0.203 F 
ATOM     76  F   UNL A   1      41.416  23.937  26.645  1.00  0.00    -0.200 F 
ATOM     77  C   UNL A   1      42.360  25.786  25.728  1.00  0.00     0.200 A 
ATOM     78  F   UNL A   1      43.695  27.597  25.123  1.00  0.00    -0.200 F 
ATOM     79  F   UNL A   1      42.673  25.117  24.622  1.00  0.00    -0.200 F 
ENDBRANCH  55  69
BRANCH  56  80
ATOM     80  C   UNL A   1      39.290  32.311  36.163  1.00  0.00     0.064 A 
ATOM     81  C   UNL A   1      38.293  31.845  37.005  1.00  0.00     0.173 A 
ATOM     82  C   UNL A   1      39.947  33.433  36.430  1.00  0.00     0.173 A 
ATOM     83  F   UNL A   1      37.787  30.617  36.921  1.00  0.00    -0.203 F 
ATOM     84  C   UNL A   1      37.860  32.793  37.962  1.00  0.00     0.198 A 
ATOM     85  C   UNL A   1      39.553  34.245  37.467  1.00  0.00     0.198 A 
ATOM     86  F   UNL A   1      40.996  33.774  35.688  1.00  0.00    -0.203 F 
ATOM     87  F   UNL A   1      36.691  32.579  38.559  1.00  0.00    -0.200 F 
ATOM     88  C   UNL A   1      38.536  33.875  38.302  1.00  0.00     0.200 A 
ATOM     89  F   UNL A   1      40.170  35.407  37.660  1.00  0.00    -0.200 F 
ATOM     90  F   UNL A   1      38.244  34.567  39.399  1.00  0.00    -0.200 F 
ENDBRANCH  56  80
BRANCH  68  91
ATOM     91  C   UNL A   1      44.114  27.513  34.421  1.00  0.00     0.064 A 
ATOM     92  C   UNL A   1      43.955  26.252  34.973  1.00  0.00     0.173 A 
ATOM     93  C   UNL A   1      45.287  28.134  34.449  1.00  0.00     0.173 A 
ATOM     94  F   UNL A   1      42.886  25.492  34.749  1.00  0.00    -0.203 F 
ATOM     95  C   UNL A   1      45.033  25.845  35.793  1.00  0.00     0.198 A 
ATOM     96  C   UNL A   1      46.339  27.610  35.161  1.00  0.00     0.198 A 
ATOM     97  F   UNL A   1      45.446  29.274  33.781  1.00  0.00    -0.203 F 
ATOM     98  F   UNL A   1      44.823  24.839  36.637  1.00  0.00    -0.200 F 
ATOM     99  C   UNL A   1      46.233  26.396  35.781  1.00  0.00     0.200 A 
ATOM    100  F   UNL A   1      47.476  28.294  35.249  1.00  0.00    -0.200 F 
ATOM    101  F   UNL A   1      47.282  25.802  36.341  1.00  0.00    -0.200 F 
ENDBRANCH  68  91
ENDBRANCH  42  43
ENDBRANCH  35  37
ENDBRANCH  34  35
ENDBRANCH  33  34
ENDBRANCH  32  33
ENDBRANCH  31  32
ENDBRANCH   1  31
TORSDOF 20
ENDMDL
MODEL 3
REMARK VINA RESULT:     -12.1      4.410     10.018
REMARK SMILES CCc1cc(S(F)(F)(F)(F)F)cc2c1O[C@@H](C(F)(F)F)C(C(=O)OCCOCCOCCOC(=O)c1ccc(-c3c4nc(c(-c5c(F)c(F)c(F)c(F)c5F)c5ccc([nH]5)c(-c5c(F)c(F)c(F)c(F)c5F)c5nc(c(-c6c(F)c(F)c(F)c(F)c6F)c6ccc3[nH]6)C=C5)C=C4)cc1)=C2
REMARK SMILES IDX 29 1 28 2 27 3 26 4 25 5 24 6 22 7 23 8 21 9 3 10 4 11 14 12
REMARK SMILES IDX 5 13 13 14 15 15 12 16 99 17 16 18 2 19 1 20 6 21 7 22 8 23
REMARK SMILES IDX 9 24 10 25 11 26 17 27 18 28 19 29 20 30 30 31 31 32 32 33
REMARK SMILES IDX 33 34 34 35 35 36 36 37 37 38 98 39 38 40 97 41 39 42 40 43
REMARK SMILES IDX 41 44 91 45 42 46 96 47 90 48 92 49 43 50 95 51 89 52 88 53
REMARK SMILES IDX 44 55 76 56 56 57 75 58 57 59 60 60 74 61 93 62 58 63 59 64
REMARK SMILES IDX 73 66 94 67 61 68 45 69 46 70 54 71 47 72 48 73 52 74 55 75
REMARK SMILES IDX 49 76 50 77 53 78 51 79 77 80 78 81 86 82 79 83 80 84 84 85
REMARK SMILES IDX 87 86 81 87 82 88 85 89 83 90 62 91 63 92 71 93 64 94 65 95
REMARK SMILES IDX 69 96 72 97 66 98 67 99 70 100 68 101
REMARK H PARENT 92 54 60 65
REMARK Flexibility Score: inf
ROOT
ATOM      1  C   UNL A   1      33.604  19.151  24.892  1.00  0.00     0.188 C 
ENDROOT
BRANCH   1   2
ATOM      2  C   UNL A   1      32.902  18.331  23.824  1.00  0.00     0.188 C 
BRANCH   2   3
ATOM      3  O   UNL A   1      32.161  19.196  22.974  1.00  0.00    -0.376 OA
BRANCH   3   4
ATOM      4  C   UNL A   1      32.203  20.517  23.492  1.00  0.00     0.202 C 
BRANCH   4   5
ATOM      5  C   UNL A   1      32.172  21.513  22.344  1.00  0.00     0.261 C 
BRANCH   5   6
ATOM      6  O   UNL A   1      31.956  22.819  22.856  1.00  0.00    -0.460 OA
BRANCH   6   7
ATOM      7  C   UNL A   1      32.752  23.902  22.398  1.00  0.00     0.338 C 
ATOM      8  O   UNL A   1      33.677  23.697  21.551  1.00  0.00    -0.246 OA
BRANCH   7   9
ATOM      9  C   UNL A   1      32.497  25.307  22.920  1.00  0.00     0.087 C 
ATOM     10  C   UNL A   1      31.630  28.945  24.782  1.00  0.00    -0.004 A 
ATOM     11  C   UNL A   1      30.604  29.737  24.304  1.00  0.00     0.032 A 
ATOM     12  C   UNL A   1      31.860  27.729  24.185  1.00  0.00     0.131 A 
ATOM     13  C   UNL A   1      29.822  29.323  23.258  1.00  0.00     0.108 A 
ATOM     14  C   UNL A   1      31.103  27.285  23.114  1.00  0.00     0.019 A 
ATOM     15  O   UNL A   1      32.807  26.905  24.741  1.00  0.00    -0.475 OA
ATOM     16  C   UNL A   1      30.076  28.105  22.661  1.00  0.00     0.036 A 
ATOM     17  C   UNL A   1      31.398  25.968  22.577  1.00  0.00     0.027 C 
ATOM     18  C   UNL A   1      33.496  25.986  23.847  1.00  0.00     0.316 C 
BRANCH  10  19
ATOM     19  C   UNL A   1      32.410  29.246  26.053  1.00  0.00     0.036 C 
ATOM     20  C   UNL A   1      31.700  28.622  27.242  1.00  0.00     0.009 C 
ENDBRANCH  10  19
BRANCH  13  21
ATOM     21  S   UNL A   1      28.467  30.365  22.662  1.00  0.00     0.310 S 
ATOM     22  F   UNL A   1      28.650  31.283  23.942  1.00  0.00    -0.094 F 
ATOM     23  F   UNL A   1      27.445  29.512  23.504  1.00  0.00    -0.094 F 
ATOM     24  F   UNL A   1      27.333  31.327  22.208  1.00  0.00    -0.094 F 
ATOM     25  F   UNL A   1      29.527  31.286  21.939  1.00  0.00    -0.094 F 
ATOM     26  F   UNL A   1      29.645  29.461  23.206  1.00  0.00    -0.094 F 
ENDBRANCH  13  21
BRANCH  18  27
ATOM     27  C   UNL A   1      34.204  24.927  24.674  1.00  0.00     0.430 C 
ATOM     28  F   UNL A   1      34.777  25.499  25.730  1.00  0.00    -0.167 F 
ATOM     29  F   UNL A   1      33.322  24.020  25.085  1.00  0.00    -0.167 F 
ATOM     30  F   UNL A   1      35.136  24.334  23.933  1.00  0.00    -0.167 F 
ENDBRANCH  18  27
ENDBRANCH   7   9
ENDBRANCH   6   7
ENDBRANCH   5   6
ENDBRANCH   4   5
ENDBRANCH   3   4
ENDBRANCH   2   3
ENDBRANCH   1   2
BRANCH   1  31
ATOM     31  O   UNL A   1      35.003  19.150  24.646  1.00  0.00    -0.376 OA
BRANCH  31  32
ATOM     32  C   UNL A   1      35.544  20.419  24.986  1.00  0.00     0.202 C 
BRANCH  32  33
ATOM     33  C   UNL A   1      37.062  20.352  24.941  1.00  0.00     0.261 C 
BRANCH  33  34
ATOM     34  O   UNL A   1      37.605  21.355  25.787  1.00  0.00    -0.460 OA
BRANCH  34  35
ATOM     35  C   UNL A   1      38.980  21.317  26.140  1.00  0.00     0.338 C 
ATOM     36  O   UNL A   1      39.615  20.218  26.106  1.00  0.00    -0.246 OA
BRANCH  35  37
ATOM     37  C   UNL A   1      39.691  22.594  26.558  1.00  0.00     0.060 A 
ATOM     38  C   UNL A   1      40.775  22.562  27.420  1.00  0.00     0.016 A 
ATOM     39  C   UNL A   1      39.259  23.737  26.036  1.00  0.00     0.016 A 
ATOM     40  C   UNL A   1      41.161  23.834  27.903  1.00  0.00     0.010 A 
ATOM     41  C   UNL A   1      39.777  24.938  26.457  1.00  0.00     0.010 A 
ATOM     42  C   UNL A   1      40.810  24.983  27.353  1.00  0.00    -0.014 A 
BRANCH  42  43
ATOM     43  C   UNL A   1      41.515  26.284  27.696  1.00  0.00     0.031 A 
ATOM     44  C   UNL A   1      40.788  27.246  28.401  1.00  0.00     0.074 A 
ATOM     45  C   UNL A   1      42.806  26.474  27.235  1.00  0.00     0.049 A 
ATOM     46  N   UNL A   1      41.194  28.460  28.774  1.00  0.00    -0.248 NA
ATOM     47  C   UNL A   1      39.405  27.059  28.862  1.00  0.00     0.031 C 
ATOM     48  C   UNL A   1      43.550  25.507  26.532  1.00  0.00     0.029 A 
ATOM     49  N   UNL A   1      43.593  27.599  27.362  1.00  0.00    -0.354 N 
ATOM     50  C   UNL A   1      40.225  29.083  29.448  1.00  0.00     0.074 A 
ATOM     51  C   UNL A   1      39.058  28.193  29.509  1.00  0.00     0.031 C 
ATOM     52  C   UNL A   1      44.761  26.043  26.229  1.00  0.00     0.029 A 
ATOM     53  C   UNL A   1      44.796  27.354  26.739  1.00  0.00     0.049 A 
ATOM     54  H   UNL A   1      43.338  28.432  27.820  1.00  0.00     0.167 HD
ATOM     55  C   UNL A   1      40.269  30.357  30.015  1.00  0.00     0.037 A 
ATOM     56  C   UNL A   1      45.875  28.215  26.610  1.00  0.00     0.037 A 
ATOM     57  C   UNL A   1      41.364  31.203  29.923  1.00  0.00     0.049 A 
ATOM     58  C   UNL A   1      45.898  29.512  27.128  1.00  0.00     0.074 A 
ATOM     59  C   UNL A   1      41.429  32.487  30.496  1.00  0.00     0.029 A 
ATOM     60  N   UNL A   1      42.559  30.967  29.279  1.00  0.00    -0.354 N 
ATOM     61  N   UNL A   1      44.944  30.120  27.835  1.00  0.00    -0.248 NA
ATOM     62  C   UNL A   1      47.023  30.445  26.970  1.00  0.00     0.031 C 
ATOM     63  C   UNL A   1      42.641  33.024  30.194  1.00  0.00     0.029 A 
ATOM     64  C   UNL A   1      43.354  32.082  29.426  1.00  0.00     0.049 A 
ATOM     65  H   UNL A   1      42.803  30.144  28.796  1.00  0.00     0.167 HD
ATOM     66  C   UNL A   1      45.335  31.350  28.173  1.00  0.00     0.074 A 
ATOM     67  C   UNL A   1      46.675  31.579  27.615  1.00  0.00     0.031 C 
ATOM     68  C   UNL A   1      44.630  32.290  28.926  1.00  0.00     0.037 A 
BRANCH  55  69
ATOM     69  C   UNL A   1      39.048  30.847  30.776  1.00  0.00     0.064 A 
ATOM     70  C   UNL A   1      39.005  30.710  32.153  1.00  0.00     0.173 A 
ATOM     71  C   UNL A   1      38.042  31.398  30.107  1.00  0.00     0.173 A 
ATOM     72  F   UNL A   1      40.074  30.404  32.885  1.00  0.00    -0.203 F 
ATOM     73  C   UNL A   1      37.723  30.925  32.712  1.00  0.00     0.198 A 
ATOM     74  C   UNL A   1      36.865  31.708  30.745  1.00  0.00     0.198 A 
ATOM     75  F   UNL A   1      38.174  31.653  28.809  1.00  0.00    -0.203 F 
ATOM     76  F   UNL A   1      37.501  30.473  33.943  1.00  0.00    -0.200 F 
ATOM     77  C   UNL A   1      36.732  31.543  32.095  1.00  0.00     0.200 A 
ATOM     78  F   UNL A   1      35.839  32.175  30.038  1.00  0.00    -0.200 F 
ATOM     79  F   UNL A   1      35.663  31.981  32.753  1.00  0.00    -0.200 F 
ENDBRANCH  55  69
BRANCH  56  80
ATOM     80  C   UNL A   1      47.102  27.719  25.863  1.00  0.00     0.064 A 
ATOM     81  C   UNL A   1      48.173  27.207  26.579  1.00  0.00     0.173 A 
ATOM     82  C   UNL A   1      47.129  27.784  24.537  1.00  0.00     0.173 A 
ATOM     83  F   UNL A   1      48.097  26.889  27.869  1.00  0.00    -0.203 F 
ATOM     84  C   UNL A   1      49.353  27.054  25.814  1.00  0.00     0.198 A 
ATOM     85  C   UNL A   1      48.278  27.489  23.845  1.00  0.00     0.198 A 
ATOM     86  F   UNL A   1      46.032  28.137  23.874  1.00  0.00    -0.203 F 
ATOM     87  F   UNL A   1      50.502  26.922  26.470  1.00  0.00    -0.200 F 
ATOM     88  C   UNL A   1      49.393  27.035  24.494  1.00  0.00     0.200 A 
ATOM     89  F   UNL A   1      48.307  27.647  22.525  1.00  0.00    -0.200 F 
ATOM     90  F   UNL A   1      50.459  26.597  23.832  1.00  0.00    -0.200 F 
ENDBRANCH  56  80
BRANCH  68  91
ATOM     91  C   UNL A   1      45.303  33.621  29.218  1.00  0.00     0.064 A 
ATOM     92  C   UNL A   1      45.078  34.730  28.418  1.00  0.00     0.173 A 
ATOM     93  C   UNL A   1      46.071  33.697  30.298  1.00  0.00     0.173 A 
ATOM     94  F   UNL A   1      44.129  34.770  27.486  1.00  0.00    -0.203 F 
ATOM     95  C   UNL A   1      45.946  35.814  28.682  1.00  0.00     0.198 A 
ATOM     96  C   UNL A   1      46.788  34.838  30.568  1.00  0.00     0.198 A 
ATOM     97  F   UNL A   1      46.147  32.660  31.127  1.00  0.00    -0.203 F 
ATOM     98  F   UNL A   1      46.053  36.761  27.755  1.00  0.00    -0.200 F 
ATOM     99  C   UNL A   1      46.658  35.951  29.785  1.00  0.00     0.200 A 
ATOM    100  F   UNL A   1      47.620  34.859  31.606  1.00  0.00    -0.200 F 
ATOM    101  F   UNL A   1      47.220  37.110  30.117  1.00  0.00    -0.200 F 
ENDBRANCH  68  91
ENDBRANCH  42  43
ENDBRANCH  35  37
ENDBRANCH  34  35
ENDBRANCH  33  34
ENDBRANCH  32  33
ENDBRANCH  31  32
ENDBRANCH   1  31
TORSDOF 20
ENDMDL
