MODEL 1
REMARK VINA RESULT:     -11.1      0.000      0.000
REMARK SMILES O=C(OCCOCCOCCOC(=O)[C@H](Cc1ccccn1)[C@H]1CCS(=O)(=O)C1)c1ccc(-c2c3nc(c(-c4c(F)c(F)c(F)c(F)c4F)c4ccc([nH]4)c(-c4c(F)c(F)c(F)c(F)c4F)c4nc(c(-c5c(F)c(F)c(F)c(F)c5F)c5ccc2[nH]5)C=C4)C=C3)cc1
REMARK SMILES IDX 7 1 6 2 5 3 4 4 3 5 2 6 1 7 30 8 31 9 92 10 32 11 91 12
REMARK SMILES IDX 33 13 34 14 35 15 85 16 36 17 90 18 84 19 86 20 37 21 89 22
REMARK SMILES IDX 83 23 82 24 38 26 70 27 50 28 69 29 51 30 54 31 68 32 87 33
REMARK SMILES IDX 52 34 53 35 67 37 88 38 55 39 39 40 40 41 48 42 41 43 42 44
REMARK SMILES IDX 46 45 49 46 43 47 44 48 47 49 45 50 71 51 72 52 80 53 73 54
REMARK SMILES IDX 74 55 78 56 81 57 75 58 76 59 79 60 77 61 56 62 57 63 65 64
REMARK SMILES IDX 58 65 59 66 63 67 66 68 60 69 61 70 64 71 62 72 8 73 9 74
REMARK SMILES IDX 10 75 11 76 12 77 13 78 14 79 15 80 16 81 17 82 18 83 22 84
REMARK SMILES IDX 19 85 21 86 20 87 23 88 24 89 29 90 25 91 26 92 27 93 28 94
REMARK H PARENT 86 25 54 36
REMARK Flexibility Score: inf
ROOT
ATOM      1  C   UNL A   1      34.771  33.198  29.206  1.00  0.00     0.188 C 
ENDROOT
BRANCH   1   2
ATOM      2  O   UNL A   1      34.575  34.536  28.753  1.00  0.00    -0.376 OA
BRANCH   2   3
ATOM      3  C   UNL A   1      33.248  35.055  28.816  1.00  0.00     0.202 C 
BRANCH   3   4
ATOM      4  C   UNL A   1      33.099  36.440  29.451  1.00  0.00     0.261 C 
BRANCH   4   5
ATOM      5  O   UNL A   1      32.291  36.439  30.628  1.00  0.00    -0.460 OA
BRANCH   5   6
ATOM      6  C   UNL A   1      32.728  36.323  31.903  1.00  0.00     0.338 C 
ATOM      7  O   UNL A   1      32.392  37.196  32.704  1.00  0.00    -0.246 OA
BRANCH   6   8
ATOM      8  C   UNL A   1      33.700  35.273  32.377  1.00  0.00     0.060 A 
ATOM      9  C   UNL A   1      33.415  34.003  32.905  1.00  0.00     0.016 A 
ATOM     10  C   UNL A   1      35.051  35.594  32.209  1.00  0.00     0.016 A 
ATOM     11  C   UNL A   1      34.410  33.057  33.191  1.00  0.00     0.010 A 
ATOM     12  C   UNL A   1      36.048  34.667  32.509  1.00  0.00     0.010 A 
ATOM     13  C   UNL A   1      35.740  33.376  32.980  1.00  0.00    -0.014 A 
BRANCH  13  14
ATOM     14  C   UNL A   1      36.861  32.493  33.385  1.00  0.00     0.031 A 
ATOM     15  C   UNL A   1      37.660  32.961  34.556  1.00  0.00     0.074 A 
ATOM     16  C   UNL A   1      37.262  31.419  32.675  1.00  0.00     0.049 A 
ATOM     17  N   UNL A   1      38.861  32.627  34.936  1.00  0.00    -0.248 NA
ATOM     18  C   UNL A   1      37.027  34.011  35.375  1.00  0.00     0.031 C 
ATOM     19  C   UNL A   1      36.552  30.801  31.563  1.00  0.00     0.029 A 
ATOM     20  N   UNL A   1      38.445  30.719  32.732  1.00  0.00    -0.354 N 
ATOM     21  C   UNL A   1      39.104  33.416  36.044  1.00  0.00     0.074 A 
ATOM     22  C   UNL A   1      38.040  34.388  36.131  1.00  0.00     0.031 C 
ATOM     23  C   UNL A   1      37.375  29.948  30.926  1.00  0.00     0.029 A 
ATOM     24  C   UNL A   1      38.651  29.917  31.630  1.00  0.00     0.049 A 
ATOM     25  H   UNL A   1      39.080  30.786  33.480  1.00  0.00     0.167 HD
ATOM     26  C   UNL A   1      40.054  33.258  36.991  1.00  0.00     0.037 A 
ATOM     27  C   UNL A   1      39.754  29.250  31.238  1.00  0.00     0.037 A 
ATOM     28  C   UNL A   1      41.075  32.259  36.911  1.00  0.00     0.049 A 
ATOM     29  C   UNL A   1      40.918  29.193  32.191  1.00  0.00     0.074 A 
ATOM     30  C   UNL A   1      42.052  31.936  37.828  1.00  0.00     0.029 A 
ATOM     31  N   UNL A   1      41.244  31.416  35.820  1.00  0.00    -0.354 N 
ATOM     32  N   UNL A   1      41.094  29.843  33.317  1.00  0.00    -0.248 NA
ATOM     33  C   UNL A   1      41.992  28.242  31.872  1.00  0.00     0.031 C 
ATOM     34  C   UNL A   1      42.842  30.923  37.272  1.00  0.00     0.029 A 
ATOM     35  C   UNL A   1      42.324  30.583  36.029  1.00  0.00     0.049 A 
ATOM     36  H   UNL A   1      40.676  31.413  35.015  1.00  0.00     0.167 HD
ATOM     37  C   UNL A   1      42.237  29.308  33.892  1.00  0.00     0.074 A 
ATOM     38  C   UNL A   1      42.744  28.318  32.963  1.00  0.00     0.031 C 
ATOM     39  C   UNL A   1      42.784  29.577  35.102  1.00  0.00     0.037 A 
BRANCH  26  40
ATOM     40  C   UNL A   1      39.934  34.157  38.182  1.00  0.00     0.064 A 
ATOM     41  C   UNL A   1      39.104  33.809  39.266  1.00  0.00     0.173 A 
ATOM     42  C   UNL A   1      40.515  35.429  38.181  1.00  0.00     0.173 A 
ATOM     43  F   UNL A   1      38.497  32.611  39.296  1.00  0.00    -0.203 F 
ATOM     44  C   UNL A   1      38.788  34.736  40.253  1.00  0.00     0.198 A 
ATOM     45  C   UNL A   1      40.232  36.339  39.196  1.00  0.00     0.198 A 
ATOM     46  F   UNL A   1      41.310  35.809  37.171  1.00  0.00    -0.203 F 
ATOM     47  F   UNL A   1      37.889  34.426  41.197  1.00  0.00    -0.200 F 
ATOM     48  C   UNL A   1      39.351  36.002  40.215  1.00  0.00     0.200 A 
ATOM     49  F   UNL A   1      40.777  37.563  39.165  1.00  0.00    -0.200 F 
ATOM     50  F   UNL A   1      39.019  36.908  41.145  1.00  0.00    -0.200 F 
ENDBRANCH  26  40
BRANCH  27  51
ATOM     51  C   UNL A   1      39.787  28.511  29.948  1.00  0.00     0.064 A 
ATOM     52  C   UNL A   1      39.289  27.204  29.855  1.00  0.00     0.173 A 
ATOM     53  C   UNL A   1      40.358  29.073  28.796  1.00  0.00     0.173 A 
ATOM     54  F   UNL A   1      38.762  26.612  30.937  1.00  0.00    -0.203 F 
ATOM     55  C   UNL A   1      39.381  26.478  28.667  1.00  0.00     0.198 A 
ATOM     56  C   UNL A   1      40.434  28.351  27.603  1.00  0.00     0.198 A 
ATOM     57  F   UNL A   1      40.874  30.310  28.835  1.00  0.00    -0.203 F 
ATOM     58  F   UNL A   1      38.942  25.212  28.624  1.00  0.00    -0.200 F 
ATOM     59  C   UNL A   1      39.951  27.051  27.542  1.00  0.00     0.200 A 
ATOM     60  F   UNL A   1      40.998  28.902  26.519  1.00  0.00    -0.200 F 
ATOM     61  F   UNL A   1      40.056  26.345  26.407  1.00  0.00    -0.200 F 
ENDBRANCH  27  51
BRANCH  39  62
ATOM     62  C   UNL A   1      43.931  28.726  35.551  1.00  0.00     0.064 A 
ATOM     63  C   UNL A   1      43.740  27.534  36.260  1.00  0.00     0.173 A 
ATOM     64  C   UNL A   1      45.239  29.071  35.173  1.00  0.00     0.173 A 
ATOM     65  F   UNL A   1      42.511  27.174  36.660  1.00  0.00    -0.203 F 
ATOM     66  C   UNL A   1      44.821  26.715  36.576  1.00  0.00     0.198 A 
ATOM     67  C   UNL A   1      46.311  28.234  35.460  1.00  0.00     0.198 A 
ATOM     68  F   UNL A   1      45.468  30.204  34.491  1.00  0.00    -0.203 F 
ATOM     69  F   UNL A   1      44.623  25.592  37.279  1.00  0.00    -0.200 F 
ATOM     70  C   UNL A   1      46.101  27.058  36.163  1.00  0.00     0.200 A 
ATOM     71  F   UNL A   1      47.542  28.559  35.044  1.00  0.00    -0.200 F 
ATOM     72  F   UNL A   1      47.135  26.252  36.443  1.00  0.00    -0.200 F 
ENDBRANCH  39  62
ENDBRANCH  13  14
ENDBRANCH   6   8
ENDBRANCH   5   6
ENDBRANCH   4   5
ENDBRANCH   3   4
ENDBRANCH   2   3
ENDBRANCH   1   2
BRANCH   1  73
ATOM     73  C   UNL A   1      35.319  32.211  28.169  1.00  0.00     0.188 C 
BRANCH  73  74
ATOM     74  O   UNL A   1      34.981  30.857  28.434  1.00  0.00    -0.376 OA
BRANCH  74  75
ATOM     75  C   UNL A   1      34.829  30.027  27.291  1.00  0.00     0.202 C 
BRANCH  75  76
ATOM     76  C   UNL A   1      33.419  29.464  27.070  1.00  0.00     0.261 C 
BRANCH  76  77
ATOM     77  O   UNL A   1      33.314  28.203  26.367  1.00  0.00    -0.463 OA
BRANCH  77  78
ATOM     78  C   UNL A   1      32.117  27.579  26.288  1.00  0.00     0.309 C 
ATOM     79  O   UNL A   1      31.386  27.378  27.249  1.00  0.00    -0.252 OA
BRANCH  78  80
ATOM     80  C   UNL A   1      31.738  27.160  24.863  1.00  0.00     0.109 C 
BRANCH  80  81
ATOM     81  C   UNL A   1      32.962  26.936  23.915  1.00  0.00     0.071 C 
BRANCH  81  82
ATOM     82  C   UNL A   1      33.382  25.488  23.727  1.00  0.00     0.041 A 
ATOM     83  C   UNL A   1      34.454  24.982  24.458  1.00  0.00     0.024 A 
ATOM     84  N   UNL A   1      32.784  24.769  22.752  1.00  0.00    -0.261 NA
ATOM     85  C   UNL A   1      34.906  23.692  24.201  1.00  0.00     0.003 A 
ATOM     86  C   UNL A   1      33.280  23.530  22.496  1.00  0.00     0.111 A 
ATOM     87  C   UNL A   1      34.320  22.949  23.195  1.00  0.00     0.020 A 
ENDBRANCH  81  82
ENDBRANCH  80  81
BRANCH  80  88
ATOM     88  C   UNL A   1      30.624  28.018  24.208  1.00  0.00     0.020 C 
ATOM     89  C   UNL A   1      30.947  29.527  24.283  1.00  0.00     0.021 C 
ATOM     90  C   UNL A   1      30.205  27.842  22.751  1.00  0.00     0.141 C 
ATOM     91  C   UNL A   1      29.681  30.237  23.818  1.00  0.00     0.137 C 
ATOM     92  S   UNL A   1      29.042  29.200  22.508  1.00  0.00     0.150 S 
ATOM     93  O   UNL A   1      27.725  28.737  22.890  1.00  0.00    -0.229 OA
ATOM     94  O   UNL A   1      29.304  29.824  21.228  1.00  0.00    -0.229 OA
ENDBRANCH  80  88
ENDBRANCH  78  80
ENDBRANCH  77  78
ENDBRANCH  76  77
ENDBRANCH  75  76
ENDBRANCH  74  75
ENDBRANCH  73  74
ENDBRANCH   1  73
TORSDOF 20
ENDMDL
MODEL 2
REMARK VINA RESULT:     -10.9      4.206      9.416
REMARK SMILES O=C(OCCOCCOCCOC(=O)[C@H](Cc1ccccn1)[C@H]1CCS(=O)(=O)C1)c1ccc(-c2c3nc(c(-c4c(F)c(F)c(F)c(F)c4F)c4ccc([nH]4)c(-c4c(F)c(F)c(F)c(F)c4F)c4nc(c(-c5c(F)c(F)c(F)c(F)c5F)c5ccc2[nH]5)C=C4)C=C3)cc1
REMARK SMILES IDX 7 1 6 2 5 3 4 4 3 5 2 6 1 7 30 8 31 9 92 10 32 11 91 12
REMARK SMILES IDX 33 13 34 14 35 15 85 16 36 17 90 18 84 19 86 20 37 21 89 22
REMARK SMILES IDX 83 23 82 24 38 26 70 27 50 28 69 29 51 30 54 31 68 32 87 33
REMARK SMILES IDX 52 34 53 35 67 37 88 38 55 39 39 40 40 41 48 42 41 43 42 44
REMARK SMILES IDX 46 45 49 46 43 47 44 48 47 49 45 50 71 51 72 52 80 53 73 54
REMARK SMILES IDX 74 55 78 56 81 57 75 58 76 59 79 60 77 61 56 62 57 63 65 64
REMARK SMILES IDX 58 65 59 66 63 67 66 68 60 69 61 70 64 71 62 72 8 73 9 74
REMARK SMILES IDX 10 75 11 76 12 77 13 78 14 79 15 80 16 81 17 82 18 83 22 84
REMARK SMILES IDX 19 85 21 86 20 87 23 88 24 89 29 90 25 91 26 92 27 93 28 94
REMARK H PARENT 86 25 54 36
REMARK Flexibility Score: inf
ROOT
ATOM      1  C   UNL A   1      40.834  21.210  26.878  1.00  0.00     0.188 C 
ENDROOT
BRANCH   1   2
ATOM      2  O   UNL A   1      41.679  21.151  25.731  1.00  0.00    -0.376 OA
BRANCH   2   3
ATOM      3  C   UNL A   1      43.044  20.795  25.948  1.00  0.00     0.202 C 
BRANCH   3   4
ATOM      4  C   UNL A   1      44.081  21.615  25.177  1.00  0.00     0.261 C 
BRANCH   4   5
ATOM      5  O   UNL A   1      43.567  22.848  24.673  1.00  0.00    -0.460 OA
BRANCH   5   6
ATOM      6  C   UNL A   1      43.987  24.090  25.006  1.00  0.00     0.338 C 
ATOM      7  O   UNL A   1      45.017  24.506  24.475  1.00  0.00    -0.246 OA
BRANCH   6   8
ATOM      8  C   UNL A   1      43.355  24.945  26.075  1.00  0.00     0.060 A 
ATOM      9  C   UNL A   1      42.262  24.632  26.901  1.00  0.00     0.016 A 
ATOM     10  C   UNL A   1      43.983  26.174  26.302  1.00  0.00     0.016 A 
ATOM     11  C   UNL A   1      41.844  25.459  27.954  1.00  0.00     0.010 A 
ATOM     12  C   UNL A   1      43.562  27.010  27.335  1.00  0.00     0.010 A 
ATOM     13  C   UNL A   1      42.502  26.652  28.192  1.00  0.00    -0.014 A 
BRANCH  13  14
ATOM     14  C   UNL A   1      42.042  27.648  29.190  1.00  0.00     0.031 A 
ATOM     15  C   UNL A   1      42.609  27.495  30.562  1.00  0.00     0.074 A 
ATOM     16  C   UNL A   1      41.062  28.544  28.957  1.00  0.00     0.049 A 
ATOM     17  N   UNL A   1      42.175  27.955  31.702  1.00  0.00    -0.248 NA
ATOM     18  C   UNL A   1      43.805  26.638  30.661  1.00  0.00     0.031 C 
ATOM     19  C   UNL A   1      40.466  28.859  27.665  1.00  0.00     0.029 A 
ATOM     20  N   UNL A   1      40.317  29.284  29.846  1.00  0.00    -0.354 N 
ATOM     21  C   UNL A   1      43.063  27.453  32.636  1.00  0.00     0.074 A 
ATOM     22  C   UNL A   1      43.901  26.486  31.968  1.00  0.00     0.031 C 
ATOM     23  C   UNL A   1      39.342  29.574  27.855  1.00  0.00     0.029 A 
ATOM     24  C   UNL A   1      39.178  29.818  29.282  1.00  0.00     0.049 A 
ATOM     25  H   UNL A   1      40.570  29.418  30.787  1.00  0.00     0.167 HD
ATOM     26  C   UNL A   1      43.258  27.864  33.908  1.00  0.00     0.037 A 
ATOM     27  C   UNL A   1      38.123  30.419  29.865  1.00  0.00     0.037 A 
ATOM     28  C   UNL A   1      42.445  28.857  34.540  1.00  0.00     0.049 A 
ATOM     29  C   UNL A   1      38.218  30.741  31.333  1.00  0.00     0.074 A 
ATOM     30  C   UNL A   1      42.574  29.421  35.791  1.00  0.00     0.029 A 
ATOM     31  N   UNL A   1      41.329  29.431  33.945  1.00  0.00    -0.354 N 
ATOM     32  N   UNL A   1      39.134  30.376  32.198  1.00  0.00    -0.248 NA
ATOM     33  C   UNL A   1      37.191  31.634  31.886  1.00  0.00     0.031 C 
ATOM     34  C   UNL A   1      41.506  30.309  35.971  1.00  0.00     0.029 A 
ATOM     35  C   UNL A   1      40.743  30.332  34.811  1.00  0.00     0.049 A 
ATOM     36  H   UNL A   1      41.003  29.225  33.039  1.00  0.00     0.167 HD
ATOM     37  C   UNL A   1      38.857  31.075  33.364  1.00  0.00     0.074 A 
ATOM     38  C   UNL A   1      37.654  31.842  33.112  1.00  0.00     0.031 C 
ATOM     39  C   UNL A   1      39.566  31.114  34.519  1.00  0.00     0.037 A 
BRANCH  26  40
ATOM     40  C   UNL A   1      44.437  27.260  34.607  1.00  0.00     0.064 A 
ATOM     41  C   UNL A   1      44.285  26.117  35.417  1.00  0.00     0.173 A 
ATOM     42  C   UNL A   1      45.680  27.900  34.600  1.00  0.00     0.173 A 
ATOM     43  F   UNL A   1      43.101  25.486  35.481  1.00  0.00    -0.203 F 
ATOM     44  C   UNL A   1      45.306  25.698  36.262  1.00  0.00     0.198 A 
ATOM     45  C   UNL A   1      46.714  27.450  35.416  1.00  0.00     0.198 A 
ATOM     46  F   UNL A   1      45.874  28.994  33.848  1.00  0.00    -0.203 F 
ATOM     47  F   UNL A   1      45.090  24.693  37.123  1.00  0.00    -0.200 F 
ATOM     48  C   UNL A   1      46.519  26.367  36.263  1.00  0.00     0.200 A 
ATOM     49  F   UNL A   1      47.890  28.093  35.417  1.00  0.00    -0.200 F 
ATOM     50  F   UNL A   1      47.490  25.988  37.104  1.00  0.00    -0.200 F 
ENDBRANCH  26  40
BRANCH  27  51
ATOM     51  C   UNL A   1      36.941  30.841  29.067  1.00  0.00     0.064 A 
ATOM     52  C   UNL A   1      36.770  32.179  28.688  1.00  0.00     0.173 A 
ATOM     53  C   UNL A   1      35.936  29.930  28.708  1.00  0.00     0.173 A 
ATOM     54  F   UNL A   1      37.687  33.094  29.036  1.00  0.00    -0.203 F 
ATOM     55  C   UNL A   1      35.630  32.597  28.001  1.00  0.00     0.198 A 
ATOM     56  C   UNL A   1      34.803  30.346  28.006  1.00  0.00     0.198 A 
ATOM     57  F   UNL A   1      36.035  28.642  29.067  1.00  0.00    -0.203 F 
ATOM     58  F   UNL A   1      35.471  33.893  27.698  1.00  0.00    -0.200 F 
ATOM     59  C   UNL A   1      34.648  31.681  27.659  1.00  0.00     0.200 A 
ATOM     60  F   UNL A   1      33.847  29.461  27.687  1.00  0.00    -0.200 F 
ATOM     61  F   UNL A   1      33.544  32.087  27.015  1.00  0.00    -0.200 F 
ENDBRANCH  27  51
BRANCH  39  62
ATOM     62  C   UNL A   1      39.132  32.091  35.567  1.00  0.00     0.064 A 
ATOM     63  C   UNL A   1      38.302  31.721  36.632  1.00  0.00     0.173 A 
ATOM     64  C   UNL A   1      39.645  33.398  35.548  1.00  0.00     0.173 A 
ATOM     65  F   UNL A   1      37.772  30.490  36.680  1.00  0.00    -0.203 F 
ATOM     66  C   UNL A   1      37.998  32.628  37.643  1.00  0.00     0.198 A 
ATOM     67  C   UNL A   1      39.367  34.291  36.577  1.00  0.00     0.198 A 
ATOM     68  F   UNL A   1      40.447  33.796  34.548  1.00  0.00    -0.203 F 
ATOM     69  F   UNL A   1      37.179  32.266  38.639  1.00  0.00    -0.200 F 
ATOM     70  C   UNL A   1      38.542  33.905  37.623  1.00  0.00     0.200 A 
ATOM     71  F   UNL A   1      39.909  35.515  36.564  1.00  0.00    -0.200 F 
ATOM     72  F   UNL A   1      38.272  34.766  38.613  1.00  0.00    -0.200 F 
ENDBRANCH  39  62
ENDBRANCH  13  14
ENDBRANCH   6   8
ENDBRANCH   5   6
ENDBRANCH   4   5
ENDBRANCH   3   4
ENDBRANCH   2   3
ENDBRANCH   1   2
BRANCH   1  73
ATOM     73  C   UNL A   1      39.566  22.058  26.736  1.00  0.00     0.188 C 
BRANCH  73  74
ATOM     74  O   UNL A   1      38.882  21.864  25.507  1.00  0.00    -0.376 OA
BRANCH  74  75
ATOM     75  C   UNL A   1      37.526  22.290  25.484  1.00  0.00     0.202 C 
BRANCH  75  76
ATOM     76  C   UNL A   1      37.024  22.806  24.129  1.00  0.00     0.261 C 
BRANCH  76  77
ATOM     77  O   UNL A   1      35.812  23.598  24.134  1.00  0.00    -0.463 OA
BRANCH  77  78
ATOM     78  C   UNL A   1      34.766  23.225  23.362  1.00  0.00     0.309 C 
ATOM     79  O   UNL A   1      34.752  23.308  22.141  1.00  0.00    -0.252 OA
BRANCH  78  80
ATOM     80  C   UNL A   1      33.589  22.655  24.162  1.00  0.00     0.109 C 
BRANCH  80  81
ATOM     81  C   UNL A   1      33.469  23.219  25.616  1.00  0.00     0.071 C 
BRANCH  81  82
ATOM     82  C   UNL A   1      32.609  24.463  25.762  1.00  0.00     0.041 A 
ATOM     83  C   UNL A   1      33.200  25.669  26.129  1.00  0.00     0.024 A 
ATOM     84  N   UNL A   1      31.268  24.329  25.662  1.00  0.00    -0.261 NA
ATOM     85  C   UNL A   1      32.395  26.777  26.371  1.00  0.00     0.003 A 
ATOM     86  C   UNL A   1      30.509  25.419  25.950  1.00  0.00     0.111 A 
ATOM     87  C   UNL A   1      31.022  26.655  26.292  1.00  0.00     0.020 A 
ENDBRANCH  81  82
ENDBRANCH  80  81
BRANCH  80  88
ATOM     88  C   UNL A   1      33.453  21.111  24.107  1.00  0.00     0.020 C 
ATOM     89  C   UNL A   1      34.535  20.412  24.961  1.00  0.00     0.021 C 
ATOM     90  C   UNL A   1      32.178  20.385  24.530  1.00  0.00     0.141 C 
ATOM     91  C   UNL A   1      34.418  18.929  24.629  1.00  0.00     0.137 C 
ATOM     92  S   UNL A   1      32.661  18.650  24.435  1.00  0.00     0.150 S 
ATOM     93  O   UNL A   1      32.417  18.188  23.085  1.00  0.00    -0.229 OA
ATOM     94  O   UNL A   1      32.153  17.952  25.598  1.00  0.00    -0.229 OA
ENDBRANCH  80  88
ENDBRANCH  78  80
ENDBRANCH  77  78
ENDBRANCH  76  77
ENDBRANCH  75  76
ENDBRANCH  74  75
ENDBRANCH  73  74
ENDBRANCH   1  73
TORSDOF 20
ENDMDL
MODEL 3
REMARK VINA RESULT:     -10.9      7.266     12.804
REMARK SMILES O=C(OCCOCCOCCOC(=O)[C@H](Cc1ccccn1)[C@H]1CCS(=O)(=O)C1)c1ccc(-c2c3nc(c(-c4c(F)c(F)c(F)c(F)c4F)c4ccc([nH]4)c(-c4c(F)c(F)c(F)c(F)c4F)c4nc(c(-c5c(F)c(F)c(F)c(F)c5F)c5ccc2[nH]5)C=C4)C=C3)cc1
REMARK SMILES IDX 7 1 6 2 5 3 4 4 3 5 2 6 1 7 30 8 31 9 92 10 32 11 91 12
REMARK SMILES IDX 33 13 34 14 35 15 85 16 36 17 90 18 84 19 86 20 37 21 89 22
REMARK SMILES IDX 83 23 82 24 38 26 70 27 50 28 69 29 51 30 54 31 68 32 87 33
REMARK SMILES IDX 52 34 53 35 67 37 88 38 55 39 39 40 40 41 48 42 41 43 42 44
REMARK SMILES IDX 46 45 49 46 43 47 44 48 47 49 45 50 71 51 72 52 80 53 73 54
REMARK SMILES IDX 74 55 78 56 81 57 75 58 76 59 79 60 77 61 56 62 57 63 65 64
REMARK SMILES IDX 58 65 59 66 63 67 66 68 60 69 61 70 64 71 62 72 8 73 9 74
REMARK SMILES IDX 10 75 11 76 12 77 13 78 14 79 15 80 16 81 17 82 18 83 22 84
REMARK SMILES IDX 19 85 21 86 20 87 23 88 24 89 29 90 25 91 26 92 27 93 28 94
REMARK H PARENT 86 25 54 36
REMARK Flexibility Score: inf
ROOT
ATOM      1  C   UNL A   1      41.206  20.810  26.072  1.00  0.00     0.188 C 
ENDROOT
BRANCH   1   2
ATOM      2  O   UNL A   1      41.704  20.298  27.307  1.00  0.00    -0.376 OA
BRANCH   2   3
ATOM      3  C   UNL A   1      42.459  19.089  27.250  1.00  0.00     0.202 C 
BRANCH   3   4
ATOM      4  C   UNL A   1      42.704  18.518  25.851  1.00  0.00     0.261 C 
BRANCH   4   5
ATOM      5  O   UNL A   1      44.089  18.386  25.528  1.00  0.00    -0.460 OA
BRANCH   5   6
ATOM      6  C   UNL A   1      44.798  19.179  24.692  1.00  0.00     0.338 C 
ATOM      7  O   UNL A   1      45.548  18.630  23.884  1.00  0.00    -0.246 OA
BRANCH   6   8
ATOM      8  C   UNL A   1      44.833  20.684  24.771  1.00  0.00     0.060 A 
ATOM      9  C   UNL A   1      44.525  21.612  23.762  1.00  0.00     0.016 A 
ATOM     10  C   UNL A   1      45.157  21.207  26.028  1.00  0.00     0.016 A 
ATOM     11  C   UNL A   1      44.467  22.994  23.992  1.00  0.00     0.010 A 
ATOM     12  C   UNL A   1      45.120  22.580  26.260  1.00  0.00     0.010 A 
ATOM     13  C   UNL A   1      44.749  23.492  25.252  1.00  0.00    -0.014 A 
BRANCH  13  14
ATOM     14  C   UNL A   1      44.848  24.942  25.548  1.00  0.00     0.031 A 
ATOM     15  C   UNL A   1      46.234  25.489  25.639  1.00  0.00     0.074 A 
ATOM     16  C   UNL A   1      43.792  25.712  25.878  1.00  0.00     0.049 A 
ATOM     17  N   UNL A   1      46.666  26.582  26.201  1.00  0.00    -0.248 NA
ATOM     18  C   UNL A   1      47.290  24.633  25.067  1.00  0.00     0.031 C 
ATOM     19  C   UNL A   1      42.385  25.348  25.768  1.00  0.00     0.029 A 
ATOM     20  N   UNL A   1      43.759  26.947  26.483  1.00  0.00    -0.354 N 
ATOM     21  C   UNL A   1      48.037  26.541  26.025  1.00  0.00     0.074 A 
ATOM     22  C   UNL A   1      48.375  25.230  25.522  1.00  0.00     0.031 C 
ATOM     23  C   UNL A   1      41.639  26.238  26.447  1.00  0.00     0.029 A 
ATOM     24  C   UNL A   1      42.516  27.270  26.985  1.00  0.00     0.049 A 
ATOM     25  H   UNL A   1      44.542  27.539  26.552  1.00  0.00     0.167 HD
ATOM     26  C   UNL A   1      48.925  27.552  26.138  1.00  0.00     0.037 A 
ATOM     27  C   UNL A   1      42.145  28.278  27.797  1.00  0.00     0.037 A 
ATOM     28  C   UNL A   1      48.563  28.859  26.596  1.00  0.00     0.049 A 
ATOM     29  C   UNL A   1      43.160  29.348  28.101  1.00  0.00     0.074 A 
ATOM     30  C   UNL A   1      49.339  29.995  26.689  1.00  0.00     0.029 A 
ATOM     31  N   UNL A   1      47.293  29.192  27.050  1.00  0.00    -0.354 N 
ATOM     32  N   UNL A   1      44.441  29.373  27.817  1.00  0.00    -0.248 NA
ATOM     33  C   UNL A   1      42.665  30.569  28.751  1.00  0.00     0.031 C 
ATOM     34  C   UNL A   1      48.546  31.009  27.241  1.00  0.00     0.029 A 
ATOM     35  C   UNL A   1      47.265  30.514  27.445  1.00  0.00     0.049 A 
ATOM     36  H   UNL A   1      46.526  28.575  27.085  1.00  0.00     0.167 HD
ATOM     37  C   UNL A   1      44.881  30.644  28.154  1.00  0.00     0.074 A 
ATOM     38  C   UNL A   1      43.743  31.342  28.716  1.00  0.00     0.031 C 
ATOM     39  C   UNL A   1      46.105  31.196  27.966  1.00  0.00     0.037 A 
BRANCH  26  40
ATOM     40  C   UNL A   1      50.317  27.243  25.683  1.00  0.00     0.064 A 
ATOM     41  C   UNL A   1      50.666  27.332  24.321  1.00  0.00     0.173 A 
ATOM     42  C   UNL A   1      51.259  26.710  26.569  1.00  0.00     0.173 A 
ATOM     43  F   UNL A   1      49.784  27.806  23.426  1.00  0.00    -0.203 F 
ATOM     44  C   UNL A   1      51.868  26.812  23.854  1.00  0.00     0.198 A 
ATOM     45  C   UNL A   1      52.480  26.232  26.103  1.00  0.00     0.198 A 
ATOM     46  F   UNL A   1      50.974  26.601  27.875  1.00  0.00    -0.203 F 
ATOM     47  F   UNL A   1      52.117  26.784  22.537  1.00  0.00    -0.200 F 
ATOM     48  C   UNL A   1      52.773  26.259  24.746  1.00  0.00     0.200 A 
ATOM     49  F   UNL A   1      53.360  25.699  26.963  1.00  0.00    -0.200 F 
ATOM     50  F   UNL A   1      53.915  25.724  24.293  1.00  0.00    -0.200 F 
ENDBRANCH  26  40
BRANCH  27  51
ATOM     51  C   UNL A   1      40.749  28.387  28.300  1.00  0.00     0.064 A 
ATOM     52  C   UNL A   1      39.742  28.954  27.508  1.00  0.00     0.173 A 
ATOM     53  C   UNL A   1      40.402  27.970  29.594  1.00  0.00     0.173 A 
ATOM     54  F   UNL A   1      40.032  29.396  26.275  1.00  0.00    -0.203 F 
ATOM     55  C   UNL A   1      38.447  29.124  27.997  1.00  0.00     0.198 A 
ATOM     56  C   UNL A   1      39.101  28.126  30.076  1.00  0.00     0.198 A 
ATOM     57  F   UNL A   1      41.332  27.444  30.404  1.00  0.00    -0.203 F 
ATOM     58  F   UNL A   1      37.518  29.718  27.234  1.00  0.00    -0.200 F 
ATOM     59  C   UNL A   1      38.126  28.709  29.280  1.00  0.00     0.200 A 
ATOM     60  F   UNL A   1      38.795  27.736  31.322  1.00  0.00    -0.200 F 
ATOM     61  F   UNL A   1      36.885  28.891  29.755  1.00  0.00    -0.200 F 
ENDBRANCH  27  51
BRANCH  39  62
ATOM     62  C   UNL A   1      46.263  32.654  28.267  1.00  0.00     0.064 A 
ATOM     63  C   UNL A   1      46.770  33.111  29.489  1.00  0.00     0.173 A 
ATOM     64  C   UNL A   1      45.988  33.601  27.267  1.00  0.00     0.173 A 
ATOM     65  F   UNL A   1      47.027  32.245  30.481  1.00  0.00    -0.203 F 
ATOM     66  C   UNL A   1      46.997  34.468  29.701  1.00  0.00     0.198 A 
ATOM     67  C   UNL A   1      46.248  34.951  27.469  1.00  0.00     0.198 A 
ATOM     68  F   UNL A   1      45.503  33.208  26.079  1.00  0.00    -0.203 F 
ATOM     69  F   UNL A   1      47.456  34.890  30.886  1.00  0.00    -0.200 F 
ATOM     70  C   UNL A   1      46.751  35.384  28.687  1.00  0.00     0.200 A 
ATOM     71  F   UNL A   1      46.028  35.829  26.482  1.00  0.00    -0.200 F 
ATOM     72  F   UNL A   1      47.000  36.686  28.883  1.00  0.00    -0.200 F 
ENDBRANCH  39  62
ENDBRANCH  13  14
ENDBRANCH   6   8
ENDBRANCH   5   6
ENDBRANCH   4   5
ENDBRANCH   3   4
ENDBRANCH   2   3
ENDBRANCH   1   2
BRANCH   1  73
ATOM     73  C   UNL A   1      39.921  21.641  26.158  1.00  0.00     0.188 C 
BRANCH  73  74
ATOM     74  O   UNL A   1      38.733  20.865  26.098  1.00  0.00    -0.376 OA
BRANCH  74  75
ATOM     75  C   UNL A   1      37.640  21.467  25.418  1.00  0.00     0.202 C 
BRANCH  75  76
ATOM     76  C   UNL A   1      36.518  20.507  25.001  1.00  0.00     0.261 C 
BRANCH  76  77
ATOM     77  O   UNL A   1      35.311  21.097  24.462  1.00  0.00    -0.463 OA
BRANCH  77  78
ATOM     78  C   UNL A   1      34.186  21.123  25.213  1.00  0.00     0.309 C 
ATOM     79  O   UNL A   1      34.180  21.098  26.437  1.00  0.00    -0.252 OA
BRANCH  78  80
ATOM     80  C   UNL A   1      32.899  21.213  24.385  1.00  0.00     0.109 C 
BRANCH  80  81
ATOM     81  C   UNL A   1      32.585  19.928  23.549  1.00  0.00     0.071 C 
BRANCH  81  82
ATOM     82  C   UNL A   1      32.967  18.614  24.208  1.00  0.00     0.041 A 
ATOM     83  C   UNL A   1      33.945  17.811  23.626  1.00  0.00     0.024 A 
ATOM     84  N   UNL A   1      32.246  18.198  25.272  1.00  0.00    -0.261 NA
ATOM     85  C   UNL A   1      34.211  16.559  24.169  1.00  0.00     0.003 A 
ATOM     86  C   UNL A   1      32.500  16.951  25.749  1.00  0.00     0.111 A 
ATOM     87  C   UNL A   1      33.472  16.108  25.245  1.00  0.00     0.020 A 
ENDBRANCH  81  82
ENDBRANCH  80  81
BRANCH  80  88
ATOM     88  C   UNL A   1      32.748  22.515  23.558  1.00  0.00     0.020 C 
ATOM     89  C   UNL A   1      31.526  23.344  24.014  1.00  0.00     0.021 C 
ATOM     90  C   UNL A   1      33.850  23.569  23.479  1.00  0.00     0.141 C 
ATOM     91  C   UNL A   1      31.378  24.452  22.978  1.00  0.00     0.137 C 
ATOM     92  S   UNL A   1      33.057  24.903  22.560  1.00  0.00     0.150 S 
ATOM     93  O   UNL A   1      33.259  24.658  21.148  1.00  0.00    -0.229 OA
ATOM     94  O   UNL A   1      33.387  26.168  23.183  1.00  0.00    -0.229 OA
ENDBRANCH  80  88
ENDBRANCH  78  80
ENDBRANCH  77  78
ENDBRANCH  76  77
ENDBRANCH  75  76
ENDBRANCH  74  75
ENDBRANCH  73  74
ENDBRANCH   1  73
TORSDOF 20
ENDMDL
