MODEL 1
REMARK VINA RESULT:     -10.9      0.000      0.000
REMARK SMILES CC(C)N1C(=O)C[C@@H]([N@@H+]2CC[C@H](C(=O)OCCOCCOCCOC(=O)c3ccc(-c4c5nc(c(-c6c(F)c(F)c(F)c(F)c6F)c6ccc([nH]6)c(-c6c(F)c(F)c(F)c(F)c6F)c6nc(c(-c7c(F)c(F)c(F)c(F)c7F)c7ccc4[nH]7)C=C6)C=C5)cc3)[C@@H]2C)C1=O
REMARK SMILES IDX 19 1 18 2 17 3 16 4 15 5 13 6 14 7 12 8 9 9 10 10 90 11
REMARK SMILES IDX 11 13 91 14 8 15 4 16 5 17 92 18 6 19 7 20 93 21 2 22 1 23
REMARK SMILES IDX 3 24 20 25 21 26 22 27 23 28 24 29 25 30 26 31 27 32 28 33
REMARK SMILES IDX 89 34 29 35 88 36 30 37 31 38 32 39 82 40 33 41 87 42 81 43
REMARK SMILES IDX 83 44 34 45 86 46 80 47 79 48 35 50 67 51 47 52 66 53 48 54
REMARK SMILES IDX 51 55 65 56 84 57 49 58 50 59 64 61 85 62 52 63 36 64 37 65
REMARK SMILES IDX 45 66 38 67 39 68 43 69 46 70 40 71 41 72 44 73 42 74 68 75
REMARK SMILES IDX 69 76 77 77 70 78 71 79 75 80 78 81 72 82 73 83 76 84 74 85
REMARK SMILES IDX 53 86 54 87 62 88 55 89 56 90 60 91 63 92 57 93 58 94 61 95
REMARK SMILES IDX 59 96
REMARK H PARENT 9 12 83 49 51 60
REMARK Flexibility Score: inf
ROOT
ATOM      1  C   UNL A   1      32.929  28.544  27.066  1.00  0.00     0.188 C 
ENDROOT
BRANCH   1   2
ATOM      2  O   UNL A   1      31.641  28.311  26.527  1.00  0.00    -0.376 OA
BRANCH   2   3
ATOM      3  C   UNL A   1      31.168  26.978  26.512  1.00  0.00     0.202 C 
BRANCH   3   4
ATOM      4  C   UNL A   1      31.936  25.921  25.699  1.00  0.00     0.261 C 
BRANCH   4   5
ATOM      5  O   UNL A   1      32.823  25.030  26.420  1.00  0.00    -0.463 OA
BRANCH   5   6
ATOM      6  C   UNL A   1      33.713  24.331  25.659  1.00  0.00     0.315 C 
ATOM      7  O   UNL A   1      33.570  24.145  24.457  1.00  0.00    -0.252 OA
BRANCH   6   8
ATOM      8  C   UNL A   1      34.852  23.719  26.489  1.00  0.00     0.162 C 
ATOM      9  N   UNL A   1      35.089  21.347  26.003  1.00  0.00    -0.321 N 
ATOM     10  C   UNL A   1      33.966  21.529  26.935  1.00  0.00     0.264 C 
ATOM     11  C   UNL A   1      35.798  22.641  25.920  1.00  0.00     0.196 C 
ATOM     12  H   UNL A   1      35.769  20.673  26.354  1.00  0.00     0.349 HD
ATOM     13  C   UNL A   1      34.195  22.887  27.600  1.00  0.00     0.083 C 
ATOM     14  C   UNL A   1      36.655  22.931  24.701  1.00  0.00     0.076 C 
BRANCH   9  15
ATOM     15  C   UNL A   1      34.767  20.606  24.765  1.00  0.00     0.284 C 
ATOM     16  N   UNL A   1      34.198  18.314  24.585  1.00  0.00    -0.275 N 
ATOM     17  C   UNL A   1      33.038  18.984  24.358  1.00  0.00     0.236 C 
ATOM     18  C   UNL A   1      35.266  19.161  24.788  1.00  0.00     0.288 C 
ATOM     19  O   UNL A   1      31.935  18.524  24.104  1.00  0.00    -0.274 OA
ATOM     20  C   UNL A   1      33.296  20.439  24.450  1.00  0.00     0.176 C 
ATOM     21  O   UNL A   1      36.431  18.817  24.931  1.00  0.00    -0.267 OA
BRANCH  16  22
ATOM     22  C   UNL A   1      34.313  16.861  24.616  1.00  0.00     0.087 C 
ATOM     23  C   UNL A   1      33.335  16.244  25.602  1.00  0.00     0.031 C 
ATOM     24  C   UNL A   1      34.200  16.201  23.238  1.00  0.00     0.031 C 
ENDBRANCH  16  22
ENDBRANCH   9  15
ENDBRANCH   6   8
ENDBRANCH   5   6
ENDBRANCH   4   5
ENDBRANCH   3   4
ENDBRANCH   2   3
ENDBRANCH   1   2
BRANCH   1  25
ATOM     25  C   UNL A   1      33.608  29.899  26.860  1.00  0.00     0.188 C 
BRANCH  25  26
ATOM     26  O   UNL A   1      32.738  30.980  27.131  1.00  0.00    -0.376 OA
BRANCH  26  27
ATOM     27  C   UNL A   1      33.405  32.097  27.696  1.00  0.00     0.202 C 
BRANCH  27  28
ATOM     28  C   UNL A   1      32.818  33.440  27.239  1.00  0.00     0.261 C 
BRANCH  28  29
ATOM     29  O   UNL A   1      32.213  34.303  28.240  1.00  0.00    -0.460 OA
BRANCH  29  30
ATOM     30  C   UNL A   1      32.930  35.308  28.789  1.00  0.00     0.338 C 
ATOM     31  O   UNL A   1      32.627  36.494  28.765  1.00  0.00    -0.246 OA
BRANCH  30  32
ATOM     32  C   UNL A   1      34.126  34.777  29.521  1.00  0.00     0.060 A 
ATOM     33  C   UNL A   1      35.384  34.803  28.898  1.00  0.00     0.016 A 
ATOM     34  C   UNL A   1      34.026  34.186  30.787  1.00  0.00     0.016 A 
ATOM     35  C   UNL A   1      36.514  34.222  29.510  1.00  0.00     0.010 A 
ATOM     36  C   UNL A   1      35.156  33.592  31.392  1.00  0.00     0.010 A 
ATOM     37  C   UNL A   1      36.411  33.578  30.751  1.00  0.00    -0.014 A 
BRANCH  37  38
ATOM     38  C   UNL A   1      37.533  32.747  31.300  1.00  0.00     0.031 A 
ATOM     39  C   UNL A   1      38.178  33.136  32.594  1.00  0.00     0.074 A 
ATOM     40  C   UNL A   1      37.917  31.549  30.816  1.00  0.00     0.049 A 
ATOM     41  N   UNL A   1      39.088  32.484  33.274  1.00  0.00    -0.248 NA
ATOM     42  C   UNL A   1      37.655  34.330  33.264  1.00  0.00     0.031 C 
ATOM     43  C   UNL A   1      37.146  30.770  29.874  1.00  0.00     0.029 A 
ATOM     44  N   UNL A   1      39.004  30.740  31.094  1.00  0.00    -0.354 N 
ATOM     45  C   UNL A   1      39.180  33.127  34.490  1.00  0.00     0.074 A 
ATOM     46  C   UNL A   1      38.289  34.272  34.428  1.00  0.00     0.031 C 
ATOM     47  C   UNL A   1      37.815  29.640  29.593  1.00  0.00     0.029 A 
ATOM     48  C   UNL A   1      39.098  29.654  30.256  1.00  0.00     0.049 A 
ATOM     49  H   UNL A   1      39.645  30.923  31.819  1.00  0.00     0.167 HD
ATOM     50  C   UNL A   1      39.905  32.766  35.572  1.00  0.00     0.037 A 
ATOM     51  C   UNL A   1      40.073  28.754  30.028  1.00  0.00     0.037 A 
ATOM     52  C   UNL A   1      40.816  31.649  35.641  1.00  0.00     0.049 A 
ATOM     53  C   UNL A   1      41.131  28.596  31.063  1.00  0.00     0.074 A 
ATOM     54  C   UNL A   1      41.620  31.270  36.704  1.00  0.00     0.029 A 
ATOM     55  N   UNL A   1      41.071  30.747  34.617  1.00  0.00    -0.354 N 
ATOM     56  N   UNL A   1      41.242  29.237  32.194  1.00  0.00    -0.248 NA
ATOM     57  C   UNL A   1      42.102  27.510  30.876  1.00  0.00     0.031 C 
ATOM     58  C   UNL A   1      42.425  30.200  36.296  1.00  0.00     0.029 A 
ATOM     59  C   UNL A   1      42.071  29.859  35.003  1.00  0.00     0.049 A 
ATOM     60  H   UNL A   1      40.613  30.738  33.745  1.00  0.00     0.167 HD
ATOM     61  C   UNL A   1      42.212  28.564  32.909  1.00  0.00     0.074 A 
ATOM     62  C   UNL A   1      42.695  27.492  32.061  1.00  0.00     0.031 C 
ATOM     63  C   UNL A   1      42.597  28.796  34.184  1.00  0.00     0.037 A 
BRANCH  50  64
ATOM     64  C   UNL A   1      39.787  33.652  36.769  1.00  0.00     0.064 A 
ATOM     65  C   UNL A   1      40.594  34.786  36.937  1.00  0.00     0.173 A 
ATOM     66  C   UNL A   1      38.837  33.358  37.755  1.00  0.00     0.173 A 
ATOM     67  F   UNL A   1      41.538  35.088  36.032  1.00  0.00    -0.203 F 
ATOM     68  C   UNL A   1      40.459  35.591  38.065  1.00  0.00     0.198 A 
ATOM     69  C   UNL A   1      38.688  34.179  38.867  1.00  0.00     0.198 A 
ATOM     70  F   UNL A   1      38.052  32.277  37.636  1.00  0.00    -0.203 F 
ATOM     71  F   UNL A   1      41.266  36.647  38.234  1.00  0.00    -0.200 F 
ATOM     72  C   UNL A   1      39.501  35.290  39.024  1.00  0.00     0.200 A 
ATOM     73  F   UNL A   1      37.760  33.888  39.788  1.00  0.00    -0.200 F 
ATOM     74  F   UNL A   1      39.370  36.068  40.107  1.00  0.00    -0.200 F 
ENDBRANCH  50  64
BRANCH  51  75
ATOM     75  C   UNL A   1      40.102  27.913  28.798  1.00  0.00     0.064 A 
ATOM     76  C   UNL A   1      39.547  26.630  28.740  1.00  0.00     0.173 A 
ATOM     77  C   UNL A   1      40.821  28.360  27.677  1.00  0.00     0.173 A 
ATOM     78  F   UNL A   1      38.904  26.132  29.804  1.00  0.00    -0.203 F 
ATOM     79  C   UNL A   1      39.712  25.823  27.610  1.00  0.00     0.198 A 
ATOM     80  C   UNL A   1      40.968  27.562  26.541  1.00  0.00     0.198 A 
ATOM     81  F   UNL A   1      41.399  29.569  27.690  1.00  0.00    -0.203 F 
ATOM     82  F   UNL A   1      39.219  24.577  27.602  1.00  0.00    -0.200 F 
ATOM     83  C   UNL A   1      40.418  26.291  26.511  1.00  0.00     0.200 A 
ATOM     84  F   UNL A   1      41.652  28.020  25.484  1.00  0.00    -0.200 F 
ATOM     85  F   UNL A   1      40.585  25.511  25.434  1.00  0.00    -0.200 F 
ENDBRANCH  51  75
BRANCH  63  86
ATOM     86  C   UNL A   1      43.579  27.828  34.775  1.00  0.00     0.064 A 
ATOM     87  C   UNL A   1      43.174  26.609  35.338  1.00  0.00     0.173 A 
ATOM     88  C   UNL A   1      44.946  28.143  34.807  1.00  0.00     0.173 A 
ATOM     89  F   UNL A   1      41.875  26.272  35.357  1.00  0.00    -0.203 F 
ATOM     90  C   UNL A   1      44.094  25.762  35.949  1.00  0.00     0.198 A 
ATOM     91  C   UNL A   1      45.868  27.275  35.383  1.00  0.00     0.198 A 
ATOM     92  F   UNL A   1      45.389  29.299  34.289  1.00  0.00    -0.203 F 
ATOM     93  F   UNL A   1      43.672  24.641  36.550  1.00  0.00    -0.200 F 
ATOM     94  C   UNL A   1      45.440  26.092  35.966  1.00  0.00     0.200 A 
ATOM     95  F   UNL A   1      47.171  27.592  35.388  1.00  0.00    -0.200 F 
ATOM     96  F   UNL A   1      46.324  25.277  36.557  1.00  0.00    -0.200 F 
ENDBRANCH  63  86
ENDBRANCH  37  38
ENDBRANCH  30  32
ENDBRANCH  29  30
ENDBRANCH  28  29
ENDBRANCH  27  28
ENDBRANCH  26  27
ENDBRANCH  25  26
ENDBRANCH   1  25
TORSDOF 19
ENDMDL
MODEL 2
REMARK VINA RESULT:     -10.7      1.974      3.034
REMARK SMILES CC(C)N1C(=O)C[C@@H]([N@@H+]2CC[C@H](C(=O)OCCOCCOCCOC(=O)c3ccc(-c4c5nc(c(-c6c(F)c(F)c(F)c(F)c6F)c6ccc([nH]6)c(-c6c(F)c(F)c(F)c(F)c6F)c6nc(c(-c7c(F)c(F)c(F)c(F)c7F)c7ccc4[nH]7)C=C6)C=C5)cc3)[C@@H]2C)C1=O
REMARK SMILES IDX 19 1 18 2 17 3 16 4 15 5 13 6 14 7 12 8 9 9 10 10 90 11
REMARK SMILES IDX 11 13 91 14 8 15 4 16 5 17 92 18 6 19 7 20 93 21 2 22 1 23
REMARK SMILES IDX 3 24 20 25 21 26 22 27 23 28 24 29 25 30 26 31 27 32 28 33
REMARK SMILES IDX 89 34 29 35 88 36 30 37 31 38 32 39 82 40 33 41 87 42 81 43
REMARK SMILES IDX 83 44 34 45 86 46 80 47 79 48 35 50 67 51 47 52 66 53 48 54
REMARK SMILES IDX 51 55 65 56 84 57 49 58 50 59 64 61 85 62 52 63 36 64 37 65
REMARK SMILES IDX 45 66 38 67 39 68 43 69 46 70 40 71 41 72 44 73 42 74 68 75
REMARK SMILES IDX 69 76 77 77 70 78 71 79 75 80 78 81 72 82 73 83 76 84 74 85
REMARK SMILES IDX 53 86 54 87 62 88 55 89 56 90 60 91 63 92 57 93 58 94 61 95
REMARK SMILES IDX 59 96
REMARK H PARENT 9 12 83 49 51 60
REMARK Flexibility Score: inf
ROOT
ATOM      1  C   UNL A   1      33.653  28.039  24.261  1.00  0.00     0.188 C 
ENDROOT
BRANCH   1   2
ATOM      2  O   UNL A   1      33.588  27.222  23.107  1.00  0.00    -0.376 OA
BRANCH   2   3
ATOM      3  C   UNL A   1      32.324  27.043  22.499  1.00  0.00     0.202 C 
BRANCH   3   4
ATOM      4  C   UNL A   1      31.779  25.615  22.316  1.00  0.00     0.261 C 
BRANCH   4   5
ATOM      5  O   UNL A   1      32.100  24.635  23.335  1.00  0.00    -0.463 OA
BRANCH   5   6
ATOM      6  C   UNL A   1      31.468  24.791  24.533  1.00  0.00     0.315 C 
ATOM      7  O   UNL A   1      30.306  25.163  24.636  1.00  0.00    -0.252 OA
BRANCH   6   8
ATOM      8  C   UNL A   1      32.398  24.549  25.731  1.00  0.00     0.162 C 
ATOM      9  N   UNL A   1      33.413  22.342  25.597  1.00  0.00    -0.321 N 
ATOM     10  C   UNL A   1      32.044  22.203  26.118  1.00  0.00     0.264 C 
ATOM     11  C   UNL A   1      33.732  23.784  25.596  1.00  0.00     0.196 C 
ATOM     12  H   UNL A   1      34.100  21.900  26.209  1.00  0.00     0.349 HD
ATOM     13  C   UNL A   1      31.670  23.578  26.671  1.00  0.00     0.083 C 
ATOM     14  C   UNL A   1      34.824  24.294  24.671  1.00  0.00     0.076 C 
BRANCH   9  15
ATOM     15  C   UNL A   1      33.721  21.521  24.407  1.00  0.00     0.284 C 
ATOM     16  N   UNL A   1      33.689  19.157  24.260  1.00  0.00    -0.275 N 
ATOM     17  C   UNL A   1      32.598  19.568  23.562  1.00  0.00     0.236 C 
ATOM     18  C   UNL A   1      34.428  20.211  24.753  1.00  0.00     0.288 C 
ATOM     19  O   UNL A   1      31.776  18.885  22.972  1.00  0.00    -0.274 OA
ATOM     20  C   UNL A   1      32.533  21.047  23.597  1.00  0.00     0.176 C 
ATOM     21  O   UNL A   1      35.496  20.118  25.343  1.00  0.00    -0.267 OA
BRANCH  16  22
ATOM     22  C   UNL A   1      34.046  17.760  24.475  1.00  0.00     0.087 C 
ATOM     23  C   UNL A   1      33.087  17.079  25.438  1.00  0.00     0.031 C 
ATOM     24  C   UNL A   1      34.197  16.954  23.182  1.00  0.00     0.031 C 
ENDBRANCH  16  22
ENDBRANCH   9  15
ENDBRANCH   6   8
ENDBRANCH   5   6
ENDBRANCH   4   5
ENDBRANCH   3   4
ENDBRANCH   2   3
ENDBRANCH   1   2
BRANCH   1  25
ATOM     25  C   UNL A   1      32.391  28.293  25.087  1.00  0.00     0.188 C 
BRANCH  25  26
ATOM     26  O   UNL A   1      32.650  28.283  26.476  1.00  0.00    -0.376 OA
BRANCH  26  27
ATOM     27  C   UNL A   1      31.774  29.124  27.209  1.00  0.00     0.202 C 
BRANCH  27  28
ATOM     28  C   UNL A   1      31.842  30.592  26.767  1.00  0.00     0.261 C 
BRANCH  28  29
ATOM     29  O   UNL A   1      33.149  31.182  26.537  1.00  0.00    -0.460 OA
BRANCH  29  30
ATOM     30  C   UNL A   1      33.693  32.004  27.461  1.00  0.00     0.338 C 
ATOM     31  O   UNL A   1      33.156  32.998  27.934  1.00  0.00    -0.246 OA
BRANCH  30  32
ATOM     32  C   UNL A   1      35.030  31.495  27.911  1.00  0.00     0.060 A 
ATOM     33  C   UNL A   1      35.207  30.119  28.126  1.00  0.00     0.016 A 
ATOM     34  C   UNL A   1      36.098  32.353  28.196  1.00  0.00     0.016 A 
ATOM     35  C   UNL A   1      36.415  29.611  28.648  1.00  0.00     0.010 A 
ATOM     36  C   UNL A   1      37.303  31.845  28.732  1.00  0.00     0.010 A 
ATOM     37  C   UNL A   1      37.470  30.469  28.989  1.00  0.00    -0.014 A 
BRANCH  37  38
ATOM     38  C   UNL A   1      38.658  29.982  29.766  1.00  0.00     0.031 A 
ATOM     39  C   UNL A   1      38.970  30.588  31.100  1.00  0.00     0.074 A 
ATOM     40  C   UNL A   1      39.396  28.900  29.452  1.00  0.00     0.049 A 
ATOM     41  N   UNL A   1      39.889  30.226  31.959  1.00  0.00    -0.248 NA
ATOM     42  C   UNL A   1      38.068  31.641  31.577  1.00  0.00     0.031 C 
ATOM     43  C   UNL A   1      39.004  27.903  28.482  1.00  0.00     0.029 A 
ATOM     44  N   UNL A   1      40.589  28.411  29.955  1.00  0.00    -0.354 N 
ATOM     45  C   UNL A   1      39.622  30.932  33.113  1.00  0.00     0.074 A 
ATOM     46  C   UNL A   1      38.500  31.805  32.820  1.00  0.00     0.031 C 
ATOM     47  C   UNL A   1      39.965  26.969  28.403  1.00  0.00     0.029 A 
ATOM     48  C   UNL A   1      41.081  27.344  29.239  1.00  0.00     0.049 A 
ATOM     49  H   UNL A   1      41.040  28.789  30.745  1.00  0.00     0.167 HD
ATOM     50  C   UNL A   1      40.229  30.823  34.316  1.00  0.00     0.037 A 
ATOM     51  C   UNL A   1      42.270  26.713  29.236  1.00  0.00     0.037 A 
ATOM     52  C   UNL A   1      41.363  29.981  34.615  1.00  0.00     0.049 A 
ATOM     53  C   UNL A   1      43.153  26.884  30.423  1.00  0.00     0.074 A 
ATOM     54  C   UNL A   1      42.052  29.875  35.812  1.00  0.00     0.029 A 
ATOM     55  N   UNL A   1      41.993  29.125  33.723  1.00  0.00    -0.354 N 
ATOM     56  N   UNL A   1      42.918  27.589  31.496  1.00  0.00    -0.248 NA
ATOM     57  C   UNL A   1      44.377  26.074  30.475  1.00  0.00     0.031 C 
ATOM     58  C   UNL A   1      43.149  29.028  35.622  1.00  0.00     0.029 A 
ATOM     59  C   UNL A   1      43.103  28.542  34.328  1.00  0.00     0.049 A 
ATOM     60  H   UNL A   1      41.698  28.954  32.800  1.00  0.00     0.167 HD
ATOM     61  C   UNL A   1      43.894  27.223  32.400  1.00  0.00     0.074 A 
ATOM     62  C   UNL A   1      44.756  26.269  31.730  1.00  0.00     0.031 C 
ATOM     63  C   UNL A   1      44.000  27.609  33.691  1.00  0.00     0.037 A 
BRANCH  50  64
ATOM     64  C   UNL A   1      39.705  31.709  35.399  1.00  0.00     0.064 A 
ATOM     65  C   UNL A   1      38.701  31.289  36.283  1.00  0.00     0.173 A 
ATOM     66  C   UNL A   1      40.234  32.997  35.556  1.00  0.00     0.173 A 
ATOM     67  F   UNL A   1      38.146  30.075  36.151  1.00  0.00    -0.203 F 
ATOM     68  C   UNL A   1      38.235  32.139  37.281  1.00  0.00     0.198 A 
ATOM     69  C   UNL A   1      39.784  33.832  36.570  1.00  0.00     0.198 A 
ATOM     70  F   UNL A   1      41.189  33.439  34.725  1.00  0.00    -0.203 F 
ATOM     71  F   UNL A   1      37.244  31.740  38.092  1.00  0.00    -0.200 F 
ATOM     72  C   UNL A   1      38.782  33.406  37.428  1.00  0.00     0.200 A 
ATOM     73  F   UNL A   1      40.317  35.053  36.712  1.00  0.00    -0.200 F 
ATOM     74  F   UNL A   1      38.335  34.222  38.393  1.00  0.00    -0.200 F 
ENDBRANCH  50  64
BRANCH  51  75
ATOM     75  C   UNL A   1      42.703  25.847  28.104  1.00  0.00     0.064 A 
ATOM     76  C   UNL A   1      42.539  24.457  28.103  1.00  0.00     0.173 A 
ATOM     77  C   UNL A   1      43.419  26.416  27.038  1.00  0.00     0.173 A 
ATOM     78  F   UNL A   1      41.917  23.858  29.126  1.00  0.00    -0.203 F 
ATOM     79  C   UNL A   1      43.078  23.668  27.082  1.00  0.00     0.198 A 
ATOM     80  C   UNL A   1      43.939  25.630  26.008  1.00  0.00     0.198 A 
ATOM     81  F   UNL A   1      43.632  27.739  27.004  1.00  0.00    -0.203 F 
ATOM     82  F   UNL A   1      42.955  22.335  27.134  1.00  0.00    -0.200 F 
ATOM     83  C   UNL A   1      43.773  24.255  26.035  1.00  0.00     0.200 A 
ATOM     84  F   UNL A   1      44.611  26.204  25.001  1.00  0.00    -0.200 F 
ATOM     85  F   UNL A   1      44.299  23.496  25.064  1.00  0.00    -0.200 F 
ENDBRANCH  51  75
BRANCH  63  86
ATOM     86  C   UNL A   1      45.079  26.957  34.503  1.00  0.00     0.064 A 
ATOM     87  C   UNL A   1      44.868  25.751  35.189  1.00  0.00     0.173 A 
ATOM     88  C   UNL A   1      46.338  27.566  34.619  1.00  0.00     0.173 A 
ATOM     89  F   UNL A   1      43.674  25.142  35.131  1.00  0.00    -0.203 F 
ATOM     90  C   UNL A   1      45.861  25.204  35.996  1.00  0.00     0.198 A 
ATOM     91  C   UNL A   1      47.342  26.994  35.396  1.00  0.00     0.198 A 
ATOM     92  F   UNL A   1      46.594  28.722  33.990  1.00  0.00    -0.203 F 
ATOM     93  F   UNL A   1      45.608  24.095  36.705  1.00  0.00    -0.200 F 
ATOM     94  C   UNL A   1      47.098  25.822  36.095  1.00  0.00     0.200 A 
ATOM     95  F   UNL A   1      48.541  27.588  35.480  1.00  0.00    -0.200 F 
ATOM     96  F   UNL A   1      48.051  25.295  36.875  1.00  0.00    -0.200 F 
ENDBRANCH  63  86
ENDBRANCH  37  38
ENDBRANCH  30  32
ENDBRANCH  29  30
ENDBRANCH  28  29
ENDBRANCH  27  28
ENDBRANCH  26  27
ENDBRANCH  25  26
ENDBRANCH   1  25
TORSDOF 19
ENDMDL
MODEL 3
REMARK VINA RESULT:     -10.7      3.065      9.235
REMARK SMILES CC(C)N1C(=O)C[C@@H]([N@@H+]2CC[C@H](C(=O)OCCOCCOCCOC(=O)c3ccc(-c4c5nc(c(-c6c(F)c(F)c(F)c(F)c6F)c6ccc([nH]6)c(-c6c(F)c(F)c(F)c(F)c6F)c6nc(c(-c7c(F)c(F)c(F)c(F)c7F)c7ccc4[nH]7)C=C6)C=C5)cc3)[C@@H]2C)C1=O
REMARK SMILES IDX 19 1 18 2 17 3 16 4 15 5 13 6 14 7 12 8 9 9 10 10 90 11
REMARK SMILES IDX 11 13 91 14 8 15 4 16 5 17 92 18 6 19 7 20 93 21 2 22 1 23
REMARK SMILES IDX 3 24 20 25 21 26 22 27 23 28 24 29 25 30 26 31 27 32 28 33
REMARK SMILES IDX 89 34 29 35 88 36 30 37 31 38 32 39 82 40 33 41 87 42 81 43
REMARK SMILES IDX 83 44 34 45 86 46 80 47 79 48 35 50 67 51 47 52 66 53 48 54
REMARK SMILES IDX 51 55 65 56 84 57 49 58 50 59 64 61 85 62 52 63 36 64 37 65
REMARK SMILES IDX 45 66 38 67 39 68 43 69 46 70 40 71 41 72 44 73 42 74 68 75
REMARK SMILES IDX 69 76 77 77 70 78 71 79 75 80 78 81 72 82 73 83 76 84 74 85
REMARK SMILES IDX 53 86 54 87 62 88 55 89 56 90 60 91 63 92 57 93 58 94 61 95
REMARK SMILES IDX 59 96
REMARK H PARENT 9 12 83 49 51 60
REMARK Flexibility Score: inf
ROOT
ATOM      1  C   UNL A   1      40.261  21.384  26.631  1.00  0.00     0.188 C 
ENDROOT
BRANCH   1   2
ATOM      2  O   UNL A   1      39.379  22.472  26.427  1.00  0.00    -0.376 OA
BRANCH   2   3
ATOM      3  C   UNL A   1      38.155  22.211  25.769  1.00  0.00     0.202 C 
BRANCH   3   4
ATOM      4  C   UNL A   1      37.295  23.395  25.294  1.00  0.00     0.261 C 
BRANCH   4   5
ATOM      5  O   UNL A   1      35.879  23.365  25.601  1.00  0.00    -0.463 OA
BRANCH   5   6
ATOM      6  C   UNL A   1      35.180  22.309  25.093  1.00  0.00     0.315 C 
ATOM      7  O   UNL A   1      34.917  22.188  23.903  1.00  0.00    -0.252 OA
BRANCH   6   8
ATOM      8  C   UNL A   1      34.675  21.352  26.182  1.00  0.00     0.162 C 
ATOM      9  N   UNL A   1      32.304  21.702  26.600  1.00  0.00    -0.321 N 
ATOM     10  C   UNL A   1      33.069  22.743  27.305  1.00  0.00     0.264 C 
ATOM     11  C   UNL A   1      33.278  20.699  26.121  1.00  0.00     0.196 C 
ATOM     12  H   UNL A   1      31.671  21.206  27.227  1.00  0.00     0.349 HD
ATOM     13  C   UNL A   1      34.485  22.187  27.456  1.00  0.00     0.083 C 
ATOM     14  C   UNL A   1      32.895  19.802  24.958  1.00  0.00     0.076 C 
BRANCH   9  15
ATOM     15  C   UNL A   1      31.254  22.200  25.688  1.00  0.00     0.284 C 
ATOM     16  N   UNL A   1      30.579  24.451  25.386  1.00  0.00    -0.275 N 
ATOM     17  C   UNL A   1      31.261  24.132  24.254  1.00  0.00     0.236 C 
ATOM     18  C   UNL A   1      30.482  23.389  26.259  1.00  0.00     0.288 C 
ATOM     19  O   UNL A   1      31.480  24.834  23.279  1.00  0.00    -0.274 OA
ATOM     20  C   UNL A   1      31.726  22.730  24.351  1.00  0.00     0.176 C 
ATOM     21  O   UNL A   1      29.852  23.385  27.308  1.00  0.00    -0.267 OA
BRANCH  16  22
ATOM     22  C   UNL A   1      30.013  25.766  25.659  1.00  0.00     0.087 C 
ATOM     23  C   UNL A   1      31.082  26.756  26.094  1.00  0.00     0.031 C 
ATOM     24  C   UNL A   1      29.173  26.329  24.509  1.00  0.00     0.031 C 
ENDBRANCH  16  22
ENDBRANCH   9  15
ENDBRANCH   6   8
ENDBRANCH   5   6
ENDBRANCH   4   5
ENDBRANCH   3   4
ENDBRANCH   2   3
ENDBRANCH   1   2
BRANCH   1  25
ATOM     25  C   UNL A   1      41.224  21.394  27.819  1.00  0.00     0.188 C 
BRANCH  25  26
ATOM     26  O   UNL A   1      42.517  21.834  27.456  1.00  0.00    -0.376 OA
BRANCH  26  27
ATOM     27  C   UNL A   1      42.907  21.397  26.165  1.00  0.00     0.202 C 
BRANCH  27  28
ATOM     28  C   UNL A   1      44.281  21.933  25.738  1.00  0.00     0.261 C 
BRANCH  28  29
ATOM     29  O   UNL A   1      44.725  23.203  26.287  1.00  0.00    -0.460 OA
BRANCH  29  30
ATOM     30  C   UNL A   1      44.459  24.354  25.631  1.00  0.00     0.338 C 
ATOM     31  O   UNL A   1      44.667  24.561  24.443  1.00  0.00    -0.246 OA
BRANCH  30  32
ATOM     32  C   UNL A   1      43.783  25.342  26.535  1.00  0.00     0.060 A 
ATOM     33  C   UNL A   1      44.432  26.547  26.848  1.00  0.00     0.016 A 
ATOM     34  C   UNL A   1      42.548  25.078  27.140  1.00  0.00     0.016 A 
ATOM     35  C   UNL A   1      43.878  27.456  27.773  1.00  0.00     0.010 A 
ATOM     36  C   UNL A   1      42.001  25.983  28.076  1.00  0.00     0.010 A 
ATOM     37  C   UNL A   1      42.670  27.173  28.426  1.00  0.00    -0.014 A 
BRANCH  37  38
ATOM     38  C   UNL A   1      42.191  28.000  29.583  1.00  0.00     0.031 A 
ATOM     39  C   UNL A   1      40.997  28.889  29.414  1.00  0.00     0.074 A 
ATOM     40  C   UNL A   1      42.638  27.891  30.849  1.00  0.00     0.049 A 
ATOM     41  N   UNL A   1      40.378  29.595  30.326  1.00  0.00    -0.248 NA
ATOM     42  C   UNL A   1      40.351  28.890  28.098  1.00  0.00     0.031 C 
ATOM     43  C   UNL A   1      43.445  26.794  31.333  1.00  0.00     0.029 A 
ATOM     44  N   UNL A   1      42.426  28.661  31.979  1.00  0.00    -0.354 N 
ATOM     45  C   UNL A   1      39.220  30.045  29.729  1.00  0.00     0.074 A 
ATOM     46  C   UNL A   1      39.259  29.599  28.348  1.00  0.00     0.031 C 
ATOM     47  C   UNL A   1      43.725  26.998  32.631  1.00  0.00     0.029 A 
ATOM     48  C   UNL A   1      43.202  28.277  33.048  1.00  0.00     0.049 A 
ATOM     49  H   UNL A   1      41.785  29.407  32.014  1.00  0.00     0.167 HD
ATOM     50  C   UNL A   1      38.199  30.727  30.296  1.00  0.00     0.037 A 
ATOM     51  C   UNL A   1      43.474  28.851  34.235  1.00  0.00     0.037 A 
ATOM     52  C   UNL A   1      38.157  31.202  31.658  1.00  0.00     0.049 A 
ATOM     53  C   UNL A   1      42.547  29.907  34.728  1.00  0.00     0.074 A 
ATOM     54  C   UNL A   1      37.163  31.948  32.269  1.00  0.00     0.029 A 
ATOM     55  N   UNL A   1      39.146  31.010  32.614  1.00  0.00    -0.354 N 
ATOM     56  N   UNL A   1      41.476  30.364  34.141  1.00  0.00    -0.248 NA
ATOM     57  C   UNL A   1      42.768  30.417  36.087  1.00  0.00     0.031 C 
ATOM     58  C   UNL A   1      37.586  32.284  33.560  1.00  0.00     0.029 A 
ATOM     59  C   UNL A   1      38.811  31.683  33.785  1.00  0.00     0.049 A 
ATOM     60  H   UNL A   1      39.962  30.475  32.483  1.00  0.00     0.167 HD
ATOM     61  C   UNL A   1      40.826  31.122  35.093  1.00  0.00     0.074 A 
ATOM     62  C   UNL A   1      41.653  31.106  36.284  1.00  0.00     0.031 C 
ATOM     63  C   UNL A   1      39.615  31.713  34.982  1.00  0.00     0.037 A 
BRANCH  50  64
ATOM     64  C   UNL A   1      37.053  31.062  29.398  1.00  0.00     0.064 A 
ATOM     65  C   UNL A   1      36.885  32.343  28.854  1.00  0.00     0.173 A 
ATOM     66  C   UNL A   1      36.116  30.073  29.074  1.00  0.00     0.173 A 
ATOM     67  F   UNL A   1      37.741  33.329  29.161  1.00  0.00    -0.203 F 
ATOM     68  C   UNL A   1      35.806  32.623  28.021  1.00  0.00     0.198 A 
ATOM     69  C   UNL A   1      35.054  30.350  28.223  1.00  0.00     0.198 A 
ATOM     70  F   UNL A   1      36.236  28.837  29.583  1.00  0.00    -0.203 F 
ATOM     71  F   UNL A   1      35.633  33.863  27.541  1.00  0.00    -0.200 F 
ATOM     72  C   UNL A   1      34.896  31.624  27.701  1.00  0.00     0.200 A 
ATOM     73  F   UNL A   1      34.181  29.382  27.912  1.00  0.00    -0.200 F 
ATOM     74  F   UNL A   1      33.859  31.894  26.896  1.00  0.00    -0.200 F 
ENDBRANCH  50  64
BRANCH  51  75
ATOM     75  C   UNL A   1      44.646  28.444  35.060  1.00  0.00     0.064 A 
ATOM     76  C   UNL A   1      45.934  28.952  34.855  1.00  0.00     0.173 A 
ATOM     77  C   UNL A   1      44.498  27.419  36.008  1.00  0.00     0.173 A 
ATOM     78  F   UNL A   1      46.141  29.888  33.920  1.00  0.00    -0.203 F 
ATOM     79  C   UNL A   1      47.029  28.447  35.562  1.00  0.00     0.198 A 
ATOM     80  C   UNL A   1      45.588  26.929  36.729  1.00  0.00     0.198 A 
ATOM     81  F   UNL A   1      43.291  26.875  36.224  1.00  0.00    -0.203 F 
ATOM     82  F   UNL A   1      48.260  28.911  35.306  1.00  0.00    -0.200 F 
ATOM     83  C   UNL A   1      46.855  27.440  36.500  1.00  0.00     0.200 A 
ATOM     84  F   UNL A   1      45.412  25.955  37.633  1.00  0.00    -0.200 F 
ATOM     85  F   UNL A   1      47.908  26.950  37.168  1.00  0.00    -0.200 F 
ENDBRANCH  51  75
BRANCH  63  86
ATOM     86  C   UNL A   1      39.070  32.368  36.217  1.00  0.00     0.064 A 
ATOM     87  C   UNL A   1      39.421  33.677  36.580  1.00  0.00     0.173 A 
ATOM     88  C   UNL A   1      38.206  31.660  37.066  1.00  0.00     0.173 A 
ATOM     89  F   UNL A   1      40.265  34.387  35.816  1.00  0.00    -0.203 F 
ATOM     90  C   UNL A   1      38.963  34.236  37.770  1.00  0.00     0.198 A 
ATOM     91  C   UNL A   1      37.718  32.237  38.235  1.00  0.00     0.198 A 
ATOM     92  F   UNL A   1      37.843  30.403  36.771  1.00  0.00    -0.203 F 
ATOM     93  F   UNL A   1      39.375  35.457  38.135  1.00  0.00    -0.200 F 
ATOM     94  C   UNL A   1      38.108  33.519  38.593  1.00  0.00     0.200 A 
ATOM     95  F   UNL A   1      36.882  31.546  39.022  1.00  0.00    -0.200 F 
ATOM     96  F   UNL A   1      37.670  34.058  39.739  1.00  0.00    -0.200 F 
ENDBRANCH  63  86
ENDBRANCH  37  38
ENDBRANCH  30  32
ENDBRANCH  29  30
ENDBRANCH  28  29
ENDBRANCH  27  28
ENDBRANCH  26  27
ENDBRANCH  25  26
ENDBRANCH   1  25
TORSDOF 19
ENDMDL
