MODEL 1
REMARK VINA RESULT:     -10.5      0.000      0.000
REMARK SMILES CC(C)Oc1ccc([C@H](O)[C@H](F)C(=O)OCCOCCOCCOC(=O)c2ccc(-c3c4nc(c(-c5c(F)c(F)c(F)c(F)c5F)c5ccc([nH]5)c(-c5c(F)c(F)c(F)c(F)c5F)c5nc(c(-c6c(F)c(F)c(F)c(F)c6F)c6ccc3[nH]6)C=C5)C=C4)cc2)cc1
REMARK SMILES IDX 19 1 18 2 17 3 16 4 15 5 13 6 14 7 11 8 12 9 9 10 8 11 5 12
REMARK SMILES IDX 6 13 91 14 7 15 90 16 4 17 2 18 1 19 3 20 10 21 20 23 21 24
REMARK SMILES IDX 22 25 23 26 24 27 25 28 26 29 27 30 28 31 89 32 29 33 88 34
REMARK SMILES IDX 30 35 31 36 32 37 82 38 33 39 87 40 81 41 83 42 34 43 86 44
REMARK SMILES IDX 80 45 79 46 35 48 67 49 47 50 66 51 48 52 51 53 65 54 84 55
REMARK SMILES IDX 49 56 50 57 64 59 85 60 52 61 36 62 37 63 45 64 38 65 39 66
REMARK SMILES IDX 43 67 46 68 40 69 41 70 44 71 42 72 68 73 69 74 77 75 70 76
REMARK SMILES IDX 71 77 75 78 78 79 72 80 73 81 76 82 74 83 53 84 54 85 62 86
REMARK SMILES IDX 55 87 56 88 60 89 63 90 57 91 58 92 61 93 59 94
REMARK H PARENT 10 22 83 47 51 58
REMARK Flexibility Score: inf
ROOT
ATOM      1  C   UNL A   1      34.175  26.120  25.688  1.00  0.00     0.188 C 
ENDROOT
BRANCH   1   2
ATOM      2  O   UNL A   1      33.594  24.840  25.480  1.00  0.00    -0.376 OA
BRANCH   2   3
ATOM      3  C   UNL A   1      33.824  23.797  26.420  1.00  0.00     0.202 C 
BRANCH   3   4
ATOM      4  C   UNL A   1      32.663  23.226  27.254  1.00  0.00     0.261 C 
BRANCH   4   5
ATOM      5  O   UNL A   1      31.469  24.027  27.250  1.00  0.00    -0.461 OA
BRANCH   5   6
ATOM      6  C   UNL A   1      30.599  23.799  26.230  1.00  0.00     0.343 C 
ATOM      7  O   UNL A   1      30.285  22.687  25.821  1.00  0.00    -0.249 OA
BRANCH   6   8
ATOM      8  C   UNL A   1      29.961  25.070  25.708  1.00  0.00     0.308 C 
ATOM      9  F   UNL A   1      30.101  26.168  26.503  1.00  0.00    -0.232 F 
BRANCH   8  10
ATOM     10  C   UNL A   1      30.436  25.384  24.285  1.00  0.00     0.190 C 
BRANCH  10  11
ATOM     11  C   UNL A   1      29.966  26.694  23.662  1.00  0.00    -0.016 A 
ATOM     12  C   UNL A   1      28.985  29.028  22.421  1.00  0.00     0.119 A 
ATOM     13  C   UNL A   1      28.119  28.198  23.121  1.00  0.00     0.047 A 
ATOM     14  C   UNL A   1      30.344  28.742  22.391  1.00  0.00     0.047 A 
ATOM     15  C   UNL A   1      28.601  27.034  23.721  1.00  0.00     0.010 A 
ATOM     16  C   UNL A   1      30.827  27.567  22.977  1.00  0.00     0.010 A 
BRANCH  12  17
ATOM     17  O   UNL A   1      28.447  30.131  21.825  1.00  0.00    -0.491 OA
BRANCH  17  18
ATOM     18  C   UNL A   1      28.839  31.411  22.357  1.00  0.00     0.167 C 
ATOM     19  C   UNL A   1      28.241  32.565  21.557  1.00  0.00     0.052 C 
ATOM     20  C   UNL A   1      28.642  31.582  23.866  1.00  0.00     0.052 C 
ENDBRANCH  17  18
ENDBRANCH  12  17
ENDBRANCH  10  11
BRANCH  10  21
ATOM     21  O   UNL A   1      30.001  24.287  23.455  1.00  0.00    -0.385 OA
ATOM     22  H   UNL A   1      29.298  24.592  22.859  1.00  0.00     0.211 HD
ENDBRANCH  10  21
ENDBRANCH   8  10
ENDBRANCH   6   8
ENDBRANCH   5   6
ENDBRANCH   4   5
ENDBRANCH   3   4
ENDBRANCH   2   3
ENDBRANCH   1   2
BRANCH   1  23
ATOM     23  C   UNL A   1      33.283  27.376  25.766  1.00  0.00     0.188 C 
BRANCH  23  24
ATOM     24  O   UNL A   1      32.815  27.690  27.051  1.00  0.00    -0.376 OA
BRANCH  24  25
ATOM     25  C   UNL A   1      31.789  28.655  27.197  1.00  0.00     0.202 C 
BRANCH  25  26
ATOM     26  C   UNL A   1      31.833  30.091  26.623  1.00  0.00     0.261 C 
BRANCH  26  27
ATOM     27  O   UNL A   1      33.108  30.700  26.384  1.00  0.00    -0.460 OA
BRANCH  27  28
ATOM     28  C   UNL A   1      33.482  31.680  27.240  1.00  0.00     0.338 C 
ATOM     29  O   UNL A   1      32.814  32.636  27.614  1.00  0.00    -0.246 OA
BRANCH  28  30
ATOM     30  C   UNL A   1      34.792  31.324  27.817  1.00  0.00     0.060 A 
ATOM     31  C   UNL A   1      35.053  29.991  28.172  1.00  0.00     0.016 A 
ATOM     32  C   UNL A   1      35.755  32.312  28.020  1.00  0.00     0.016 A 
ATOM     33  C   UNL A   1      36.282  29.643  28.740  1.00  0.00     0.010 A 
ATOM     34  C   UNL A   1      36.970  31.967  28.616  1.00  0.00     0.010 A 
ATOM     35  C   UNL A   1      37.233  30.638  28.998  1.00  0.00    -0.014 A 
BRANCH  35  36
ATOM     36  C   UNL A   1      38.420  30.360  29.842  1.00  0.00     0.031 A 
ATOM     37  C   UNL A   1      39.441  29.385  29.321  1.00  0.00     0.074 A 
ATOM     38  C   UNL A   1      38.574  30.913  31.057  1.00  0.00     0.049 A 
ATOM     39  N   UNL A   1      40.454  28.830  29.935  1.00  0.00    -0.248 NA
ATOM     40  C   UNL A   1      39.287  28.977  27.916  1.00  0.00     0.031 C 
ATOM     41  C   UNL A   1      37.692  31.916  31.649  1.00  0.00     0.029 A 
ATOM     42  N   UNL A   1      39.521  30.681  32.025  1.00  0.00    -0.354 N 
ATOM     43  C   UNL A   1      41.047  27.997  28.995  1.00  0.00     0.074 A 
ATOM     44  C   UNL A   1      40.269  28.099  27.781  1.00  0.00     0.031 C 
ATOM     45  C   UNL A   1      38.123  32.193  32.893  1.00  0.00     0.029 A 
ATOM     46  C   UNL A   1      39.279  31.350  33.200  1.00  0.00     0.049 A 
ATOM     47  H   UNL A   1      40.298  30.091  31.889  1.00  0.00     0.167 HD
ATOM     48  C   UNL A   1      42.148  27.220  29.133  1.00  0.00     0.037 A 
ATOM     49  C   UNL A   1      39.896  31.257  34.396  1.00  0.00     0.037 A 
ATOM     50  C   UNL A   1      42.911  27.111  30.347  1.00  0.00     0.049 A 
ATOM     51  C   UNL A   1      41.052  30.296  34.559  1.00  0.00     0.074 A 
ATOM     52  C   UNL A   1      44.035  26.343  30.595  1.00  0.00     0.029 A 
ATOM     53  N   UNL A   1      42.623  27.790  31.522  1.00  0.00    -0.354 N 
ATOM     54  N   UNL A   1      41.612  29.511  33.672  1.00  0.00    -0.248 NA
ATOM     55  C   UNL A   1      41.658  30.207  35.897  1.00  0.00     0.031 C 
ATOM     56  C   UNL A   1      44.394  26.514  31.934  1.00  0.00     0.029 A 
ATOM     57  C   UNL A   1      43.536  27.442  32.503  1.00  0.00     0.049 A 
ATOM     58  H   UNL A   1      41.880  28.424  31.640  1.00  0.00     0.167 HD
ATOM     59  C   UNL A   1      42.660  28.874  34.327  1.00  0.00     0.074 A 
ATOM     60  C   UNL A   1      42.660  29.365  35.688  1.00  0.00     0.031 C 
ATOM     61  C   UNL A   1      43.545  27.967  33.845  1.00  0.00     0.037 A 
BRANCH  48  62
ATOM     62  C   UNL A   1      42.573  26.406  27.947  1.00  0.00     0.064 A 
ATOM     63  C   UNL A   1      42.055  25.122  27.712  1.00  0.00     0.173 A 
ATOM     64  C   UNL A   1      43.483  26.926  27.015  1.00  0.00     0.173 A 
ATOM     65  F   UNL A   1      41.194  24.572  28.580  1.00  0.00    -0.203 F 
ATOM     66  C   UNL A   1      42.455  24.381  26.604  1.00  0.00     0.198 A 
ATOM     67  C   UNL A   1      43.855  26.195  25.890  1.00  0.00     0.198 A 
ATOM     68  F   UNL A   1      44.006  28.150  27.189  1.00  0.00    -0.203 F 
ATOM     69  F   UNL A   1      41.987  23.137  26.427  1.00  0.00    -0.200 F 
ATOM     70  C   UNL A   1      43.347  24.921  25.689  1.00  0.00     0.200 A 
ATOM     71  F   UNL A   1      44.706  26.724  25.000  1.00  0.00    -0.200 F 
ATOM     72  F   UNL A   1      43.723  24.210  24.618  1.00  0.00    -0.200 F 
ENDBRANCH  48  62
BRANCH  49  73
ATOM     73  C   UNL A   1      39.427  32.066  35.554  1.00  0.00     0.064 A 
ATOM     74  C   UNL A   1      39.978  33.327  35.822  1.00  0.00     0.173 A 
ATOM     75  C   UNL A   1      38.461  31.576  36.447  1.00  0.00     0.173 A 
ATOM     76  F   UNL A   1      40.927  33.827  35.017  1.00  0.00    -0.203 F 
ATOM     77  C   UNL A   1      39.605  34.052  36.952  1.00  0.00     0.198 A 
ATOM     78  C   UNL A   1      38.064  32.318  37.558  1.00  0.00     0.198 A 
ATOM     79  F   UNL A   1      37.907  30.372  36.243  1.00  0.00    -0.203 F 
ATOM     80  F   UNL A   1      40.198  35.225  37.218  1.00  0.00    -0.200 F 
ATOM     81  C   UNL A   1      38.645  33.550  37.816  1.00  0.00     0.200 A 
ATOM     82  F   UNL A   1      37.129  31.832  38.386  1.00  0.00    -0.200 F 
ATOM     83  F   UNL A   1      38.291  34.244  38.907  1.00  0.00    -0.200 F 
ENDBRANCH  49  73
BRANCH  61  84
ATOM     84  C   UNL A   1      44.637  27.494  34.763  1.00  0.00     0.064 A 
ATOM     85  C   UNL A   1      45.851  28.182  34.893  1.00  0.00     0.173 A 
ATOM     86  C   UNL A   1      44.430  26.369  35.578  1.00  0.00     0.173 A 
ATOM     87  F   UNL A   1      46.104  29.255  34.128  1.00  0.00    -0.203 F 
ATOM     88  C   UNL A   1      46.824  27.753  35.792  1.00  0.00     0.198 A 
ATOM     89  C   UNL A   1      45.391  25.962  36.499  1.00  0.00     0.198 A 
ATOM     90  F   UNL A   1      43.282  25.678  35.500  1.00  0.00    -0.203 F 
ATOM     91  F   UNL A   1      47.994  28.402  35.871  1.00  0.00    -0.200 F 
ATOM     92  C   UNL A   1      46.589  26.651  36.601  1.00  0.00     0.200 A 
ATOM     93  F   UNL A   1      45.153  24.909  37.293  1.00  0.00    -0.200 F 
ATOM     94  F   UNL A   1      47.520  26.251  37.480  1.00  0.00    -0.200 F 
ENDBRANCH  61  84
ENDBRANCH  35  36
ENDBRANCH  28  30
ENDBRANCH  27  28
ENDBRANCH  26  27
ENDBRANCH  25  26
ENDBRANCH  24  25
ENDBRANCH  23  24
ENDBRANCH   1  23
TORSDOF 22
ENDMDL
MODEL 2
REMARK VINA RESULT:     -10.2      4.388      7.205
REMARK SMILES CC(C)Oc1ccc([C@H](O)[C@H](F)C(=O)OCCOCCOCCOC(=O)c2ccc(-c3c4nc(c(-c5c(F)c(F)c(F)c(F)c5F)c5ccc([nH]5)c(-c5c(F)c(F)c(F)c(F)c5F)c5nc(c(-c6c(F)c(F)c(F)c(F)c6F)c6ccc3[nH]6)C=C5)C=C4)cc2)cc1
REMARK SMILES IDX 19 1 18 2 17 3 16 4 15 5 13 6 14 7 11 8 12 9 9 10 8 11 5 12
REMARK SMILES IDX 6 13 91 14 7 15 90 16 4 17 2 18 1 19 3 20 10 21 20 23 21 24
REMARK SMILES IDX 22 25 23 26 24 27 25 28 26 29 27 30 28 31 89 32 29 33 88 34
REMARK SMILES IDX 30 35 31 36 32 37 82 38 33 39 87 40 81 41 83 42 34 43 86 44
REMARK SMILES IDX 80 45 79 46 35 48 67 49 47 50 66 51 48 52 51 53 65 54 84 55
REMARK SMILES IDX 49 56 50 57 64 59 85 60 52 61 36 62 37 63 45 64 38 65 39 66
REMARK SMILES IDX 43 67 46 68 40 69 41 70 44 71 42 72 68 73 69 74 77 75 70 76
REMARK SMILES IDX 71 77 75 78 78 79 72 80 73 81 76 82 74 83 53 84 54 85 62 86
REMARK SMILES IDX 55 87 56 88 60 89 63 90 57 91 58 92 61 93 59 94
REMARK H PARENT 10 22 83 47 51 58
REMARK Flexibility Score: inf
ROOT
ATOM      1  C   UNL A   1      35.819  22.695  25.049  1.00  0.00     0.188 C 
ENDROOT
BRANCH   1   2
ATOM      2  O   UNL A   1      34.821  22.088  24.240  1.00  0.00    -0.376 OA
BRANCH   2   3
ATOM      3  C   UNL A   1      33.769  21.349  24.850  1.00  0.00     0.202 C 
BRANCH   3   4
ATOM      4  C   UNL A   1      32.799  22.035  25.830  1.00  0.00     0.261 C 
BRANCH   4   5
ATOM      5  O   UNL A   1      32.217  23.256  25.342  1.00  0.00    -0.461 OA
BRANCH   5   6
ATOM      6  C   UNL A   1      31.961  24.212  26.277  1.00  0.00     0.343 C 
ATOM      7  O   UNL A   1      31.230  24.054  27.248  1.00  0.00    -0.249 OA
BRANCH   6   8
ATOM      8  C   UNL A   1      32.767  25.476  26.058  1.00  0.00     0.308 C 
ATOM      9  F   UNL A   1      33.428  25.554  24.869  1.00  0.00    -0.232 F 
BRANCH   8  10
ATOM     10  C   UNL A   1      31.904  26.724  26.265  1.00  0.00     0.190 C 
BRANCH  10  11
ATOM     11  C   UNL A   1      31.262  27.346  25.029  1.00  0.00    -0.016 A 
ATOM     12  C   UNL A   1      30.032  28.626  22.838  1.00  0.00     0.119 A 
ATOM     13  C   UNL A   1      31.053  29.264  23.531  1.00  0.00     0.047 A 
ATOM     14  C   UNL A   1      29.666  27.331  23.184  1.00  0.00     0.047 A 
ATOM     15  C   UNL A   1      31.650  28.637  24.626  1.00  0.00     0.010 A 
ATOM     16  C   UNL A   1      30.251  26.708  24.291  1.00  0.00     0.010 A 
BRANCH  12  17
ATOM     17  O   UNL A   1      29.463  29.305  21.801  1.00  0.00    -0.491 OA
BRANCH  17  18
ATOM     18  C   UNL A   1      28.727  30.499  22.133  1.00  0.00     0.167 C 
ATOM     19  C   UNL A   1      28.193  31.201  20.888  1.00  0.00     0.052 C 
ATOM     20  C   UNL A   1      27.655  30.329  23.214  1.00  0.00     0.052 C 
ENDBRANCH  17  18
ENDBRANCH  12  17
ENDBRANCH  10  11
BRANCH  10  21
ATOM     21  O   UNL A   1      32.749  27.709  26.898  1.00  0.00    -0.385 OA
ATOM     22  H   UNL A   1      32.657  28.558  26.438  1.00  0.00     0.211 HD
ENDBRANCH  10  21
ENDBRANCH   8  10
ENDBRANCH   6   8
ENDBRANCH   5   6
ENDBRANCH   4   5
ENDBRANCH   3   4
ENDBRANCH   2   3
ENDBRANCH   1   2
BRANCH   1  23
ATOM     23  C   UNL A   1      36.979  21.852  25.618  1.00  0.00     0.188 C 
BRANCH  23  24
ATOM     24  O   UNL A   1      37.650  21.059  24.675  1.00  0.00    -0.376 OA
BRANCH  24  25
ATOM     25  C   UNL A   1      37.983  19.723  25.006  1.00  0.00     0.202 C 
BRANCH  25  26
ATOM     26  C   UNL A   1      39.268  19.287  25.749  1.00  0.00     0.261 C 
BRANCH  26  27
ATOM     27  O   UNL A   1      40.335  20.232  25.896  1.00  0.00    -0.460 OA
BRANCH  27  28
ATOM     28  C   UNL A   1      40.820  20.411  27.147  1.00  0.00     0.338 C 
ATOM     29  O   UNL A   1      41.203  19.549  27.927  1.00  0.00    -0.246 OA
BRANCH  28  30
ATOM     30  C   UNL A   1      40.994  21.858  27.379  1.00  0.00     0.060 A 
ATOM     31  C   UNL A   1      40.289  22.777  26.586  1.00  0.00     0.016 A 
ATOM     32  C   UNL A   1      41.869  22.303  28.369  1.00  0.00     0.016 A 
ATOM     33  C   UNL A   1      40.462  24.150  26.780  1.00  0.00     0.010 A 
ATOM     34  C   UNL A   1      42.063  23.675  28.541  1.00  0.00     0.010 A 
ATOM     35  C   UNL A   1      41.379  24.605  27.735  1.00  0.00    -0.014 A 
BRANCH  35  36
ATOM     36  C   UNL A   1      41.793  26.029  27.780  1.00  0.00     0.031 A 
ATOM     37  C   UNL A   1      43.132  26.391  27.200  1.00  0.00     0.074 A 
ATOM     38  C   UNL A   1      41.030  26.972  28.359  1.00  0.00     0.049 A 
ATOM     39  N   UNL A   1      43.803  27.510  27.284  1.00  0.00    -0.248 NA
ATOM     40  C   UNL A   1      43.808  25.337  26.426  1.00  0.00     0.031 C 
ATOM     41  C   UNL A   1      39.690  26.763  28.900  1.00  0.00     0.029 A 
ATOM     42  N   UNL A   1      41.296  28.296  28.612  1.00  0.00    -0.354 N 
ATOM     43  C   UNL A   1      44.985  27.290  26.588  1.00  0.00     0.074 A 
ATOM     44  C   UNL A   1      44.952  25.925  26.111  1.00  0.00     0.031 C 
ATOM     45  C   UNL A   1      39.260  27.914  29.451  1.00  0.00     0.029 A 
ATOM     46  C   UNL A   1      40.315  28.921  29.343  1.00  0.00     0.049 A 
ATOM     47  H   UNL A   1      42.111  28.752  28.301  1.00  0.00     0.167 HD
ATOM     48  C   UNL A   1      46.004  28.153  26.364  1.00  0.00     0.037 A 
ATOM     49  C   UNL A   1      40.295  30.152  29.895  1.00  0.00     0.037 A 
ATOM     50  C   UNL A   1      46.039  29.505  26.853  1.00  0.00     0.049 A 
ATOM     51  C   UNL A   1      41.493  31.058  29.729  1.00  0.00     0.074 A 
ATOM     52  C   UNL A   1      47.030  30.456  26.691  1.00  0.00     0.029 A 
ATOM     53  N   UNL A   1      45.034  30.096  27.605  1.00  0.00    -0.354 N 
ATOM     54  N   UNL A   1      42.608  30.850  29.071  1.00  0.00    -0.248 NA
ATOM     55  C   UNL A   1      41.430  32.371  30.389  1.00  0.00     0.031 C 
ATOM     56  C   UNL A   1      46.651  31.605  27.391  1.00  0.00     0.029 A 
ATOM     57  C   UNL A   1      45.393  31.393  27.932  1.00  0.00     0.049 A 
ATOM     58  H   UNL A   1      44.193  29.658  27.867  1.00  0.00     0.167 HD
ATOM     59  C   UNL A   1      43.354  32.016  29.198  1.00  0.00     0.074 A 
ATOM     60  C   UNL A   1      42.566  32.930  29.994  1.00  0.00     0.031 C 
ATOM     61  C   UNL A   1      44.580  32.305  28.697  1.00  0.00     0.037 A 
BRANCH  48  62
ATOM     62  C   UNL A   1      47.178  27.647  25.578  1.00  0.00     0.064 A 
ATOM     63  C   UNL A   1      47.227  27.750  24.179  1.00  0.00     0.173 A 
ATOM     64  C   UNL A   1      48.283  27.083  26.234  1.00  0.00     0.173 A 
ATOM     65  F   UNL A   1      46.191  28.268  23.503  1.00  0.00    -0.203 F 
ATOM     66  C   UNL A   1      48.326  27.282  23.465  1.00  0.00     0.198 A 
ATOM     67  C   UNL A   1      49.395  26.646  25.518  1.00  0.00     0.198 A 
ATOM     68  F   UNL A   1      48.290  26.963  27.570  1.00  0.00    -0.203 F 
ATOM     69  F   UNL A   1      48.329  27.345  22.126  1.00  0.00    -0.200 F 
ATOM     70  C   UNL A   1      49.412  26.739  24.135  1.00  0.00     0.200 A 
ATOM     71  F   UNL A   1      50.449  26.134  26.168  1.00  0.00    -0.200 F 
ATOM     72  F   UNL A   1      50.474  26.298  23.446  1.00  0.00    -0.200 F 
ENDBRANCH  48  62
BRANCH  49  73
ATOM     73  C   UNL A   1      39.119  30.605  30.688  1.00  0.00     0.064 A 
ATOM     74  C   UNL A   1      38.989  30.265  32.042  1.00  0.00     0.173 A 
ATOM     75  C   UNL A   1      38.078  31.339  30.099  1.00  0.00     0.173 A 
ATOM     76  F   UNL A   1      39.941  29.538  32.644  1.00  0.00    -0.203 F 
ATOM     77  C   UNL A   1      37.851  30.613  32.767  1.00  0.00     0.198 A 
ATOM     78  C   UNL A   1      36.956  31.717  30.836  1.00  0.00     0.198 A 
ATOM     79  F   UNL A   1      38.147  31.686  28.806  1.00  0.00    -0.203 F 
ATOM     80  F   UNL A   1      37.724  30.215  34.041  1.00  0.00    -0.200 F 
ATOM     81  C   UNL A   1      36.838  31.343  32.166  1.00  0.00     0.200 A 
ATOM     82  F   UNL A   1      35.983  32.429  30.252  1.00  0.00    -0.200 F 
ATOM     83  F   UNL A   1      35.740  31.672  32.861  1.00  0.00    -0.200 F 
ENDBRANCH  49  73
BRANCH  61  84
ATOM     84  C   UNL A   1      45.125  33.688  28.925  1.00  0.00     0.064 A 
ATOM     85  C   UNL A   1      45.959  33.990  30.010  1.00  0.00     0.173 A 
ATOM     86  C   UNL A   1      44.861  34.707  27.996  1.00  0.00     0.173 A 
ATOM     87  F   UNL A   1      46.232  33.055  30.933  1.00  0.00    -0.203 F 
ATOM     88  C   UNL A   1      46.495  35.267  30.166  1.00  0.00     0.198 A 
ATOM     89  C   UNL A   1      45.424  35.972  28.137  1.00  0.00     0.198 A 
ATOM     90  F   UNL A   1      44.075  34.469  26.934  1.00  0.00    -0.203 F 
ATOM     91  F   UNL A   1      47.257  35.545  31.233  1.00  0.00    -0.200 F 
ATOM     92  C   UNL A   1      46.236  36.252  29.225  1.00  0.00     0.200 A 
ATOM     93  F   UNL A   1      45.188  36.916  27.216  1.00  0.00    -0.200 F 
ATOM     94  F   UNL A   1      46.768  37.474  29.368  1.00  0.00    -0.200 F 
ENDBRANCH  61  84
ENDBRANCH  35  36
ENDBRANCH  28  30
ENDBRANCH  27  28
ENDBRANCH  26  27
ENDBRANCH  25  26
ENDBRANCH  24  25
ENDBRANCH  23  24
ENDBRANCH   1  23
TORSDOF 22
ENDMDL
MODEL 3
REMARK VINA RESULT:     -10.0      4.472     10.763
REMARK SMILES CC(C)Oc1ccc([C@H](O)[C@H](F)C(=O)OCCOCCOCCOC(=O)c2ccc(-c3c4nc(c(-c5c(F)c(F)c(F)c(F)c5F)c5ccc([nH]5)c(-c5c(F)c(F)c(F)c(F)c5F)c5nc(c(-c6c(F)c(F)c(F)c(F)c6F)c6ccc3[nH]6)C=C5)C=C4)cc2)cc1
REMARK SMILES IDX 19 1 18 2 17 3 16 4 15 5 13 6 14 7 11 8 12 9 9 10 8 11 5 12
REMARK SMILES IDX 6 13 91 14 7 15 90 16 4 17 2 18 1 19 3 20 10 21 20 23 21 24
REMARK SMILES IDX 22 25 23 26 24 27 25 28 26 29 27 30 28 31 89 32 29 33 88 34
REMARK SMILES IDX 30 35 31 36 32 37 82 38 33 39 87 40 81 41 83 42 34 43 86 44
REMARK SMILES IDX 80 45 79 46 35 48 67 49 47 50 66 51 48 52 51 53 65 54 84 55
REMARK SMILES IDX 49 56 50 57 64 59 85 60 52 61 36 62 37 63 45 64 38 65 39 66
REMARK SMILES IDX 43 67 46 68 40 69 41 70 44 71 42 72 68 73 69 74 77 75 70 76
REMARK SMILES IDX 71 77 75 78 78 79 72 80 73 81 76 82 74 83 53 84 54 85 62 86
REMARK SMILES IDX 55 87 56 88 60 89 63 90 57 91 58 92 61 93 59 94
REMARK H PARENT 10 22 83 47 51 58
REMARK Flexibility Score: inf
ROOT
ATOM      1  C   UNL A   1      33.025  35.730  30.688  1.00  0.00     0.188 C 
ENDROOT
BRANCH   1   2
ATOM      2  O   UNL A   1      33.577  34.629  31.399  1.00  0.00    -0.376 OA
BRANCH   2   3
ATOM      3  C   UNL A   1      33.733  34.706  32.811  1.00  0.00     0.202 C 
BRANCH   3   4
ATOM      4  C   UNL A   1      34.981  35.369  33.423  1.00  0.00     0.261 C 
BRANCH   4   5
ATOM      5  O   UNL A   1      36.125  34.505  33.537  1.00  0.00    -0.461 OA
BRANCH   5   6
ATOM      6  C   UNL A   1      36.453  34.110  34.797  1.00  0.00     0.343 C 
ATOM      7  O   UNL A   1      35.642  33.910  35.694  1.00  0.00    -0.249 OA
BRANCH   6   8
ATOM      8  C   UNL A   1      37.933  33.831  34.957  1.00  0.00     0.308 C 
ATOM      9  F   UNL A   1      38.269  33.014  35.996  1.00  0.00    -0.232 F 
BRANCH   8  10
ATOM     10  C   UNL A   1      38.542  33.304  33.654  1.00  0.00     0.190 C 
BRANCH  10  11
ATOM     11  C   UNL A   1      39.010  31.853  33.635  1.00  0.00    -0.016 A 
ATOM     12  C   UNL A   1      40.002  29.217  33.498  1.00  0.00     0.119 A 
ATOM     13  C   UNL A   1      40.826  30.247  33.933  1.00  0.00     0.047 A 
ATOM     14  C   UNL A   1      38.671  29.478  33.196  1.00  0.00     0.047 A 
ATOM     15  C   UNL A   1      40.341  31.554  33.985  1.00  0.00     0.010 A 
ATOM     16  C   UNL A   1      38.187  30.790  33.230  1.00  0.00     0.010 A 
BRANCH  12  17
ATOM     17  O   UNL A   1      40.545  27.967  33.434  1.00  0.00    -0.491 OA
BRANCH  17  18
ATOM     18  C   UNL A   1      41.972  27.871  33.609  1.00  0.00     0.167 C 
ATOM     19  C   UNL A   1      42.346  26.804  34.635  1.00  0.00     0.052 C 
ATOM     20  C   UNL A   1      42.785  27.751  32.317  1.00  0.00     0.052 C 
ENDBRANCH  17  18
ENDBRANCH  12  17
ENDBRANCH  10  11
BRANCH  10  21
ATOM     21  O   UNL A   1      39.661  34.162  33.346  1.00  0.00    -0.385 OA
ATOM     22  H   UNL A   1      40.198  34.292  34.144  1.00  0.00     0.211 HD
ENDBRANCH  10  21
ENDBRANCH   8  10
ENDBRANCH   6   8
ENDBRANCH   5   6
ENDBRANCH   4   5
ENDBRANCH   3   4
ENDBRANCH   2   3
ENDBRANCH   1   2
BRANCH   1  23
ATOM     23  C   UNL A   1      33.167  35.815  29.154  1.00  0.00     0.188 C 
BRANCH  23  24
ATOM     24  O   UNL A   1      32.451  34.842  28.441  1.00  0.00    -0.376 OA
BRANCH  24  25
ATOM     25  C   UNL A   1      33.160  33.824  27.757  1.00  0.00     0.202 C 
BRANCH  25  26
ATOM     26  C   UNL A   1      34.460  33.155  28.263  1.00  0.00     0.261 C 
BRANCH  26  27
ATOM     27  O   UNL A   1      34.368  31.905  28.958  1.00  0.00    -0.460 OA
BRANCH  27  28
ATOM     28  C   UNL A   1      34.466  30.784  28.205  1.00  0.00     0.338 C 
ATOM     29  O   UNL A   1      33.659  30.366  27.385  1.00  0.00    -0.246 OA
BRANCH  28  30
ATOM     30  C   UNL A   1      35.813  30.212  28.391  1.00  0.00     0.060 A 
ATOM     31  C   UNL A   1      36.176  29.685  29.640  1.00  0.00     0.016 A 
ATOM     32  C   UNL A   1      36.721  30.213  27.333  1.00  0.00     0.016 A 
ATOM     33  C   UNL A   1      37.456  29.160  29.836  1.00  0.00     0.010 A 
ATOM     34  C   UNL A   1      38.009  29.716  27.539  1.00  0.00     0.010 A 
ATOM     35  C   UNL A   1      38.391  29.207  28.794  1.00  0.00    -0.014 A 
BRANCH  35  36
ATOM     36  C   UNL A   1      39.826  28.920  29.042  1.00  0.00     0.031 A 
ATOM     37  C   UNL A   1      40.668  30.012  29.642  1.00  0.00     0.074 A 
ATOM     38  C   UNL A   1      40.383  27.745  28.703  1.00  0.00     0.049 A 
ATOM     39  N   UNL A   1      41.968  30.085  29.777  1.00  0.00    -0.248 NA
ATOM     40  C   UNL A   1      39.941  31.186  30.149  1.00  0.00     0.031 C 
ATOM     41  C   UNL A   1      39.666  26.588  28.174  1.00  0.00     0.029 A 
ATOM     42  N   UNL A   1      41.698  27.346  28.731  1.00  0.00    -0.354 N 
ATOM     43  C   UNL A   1      42.212  31.316  30.371  1.00  0.00     0.074 A 
ATOM     44  C   UNL A   1      40.933  31.968  30.546  1.00  0.00     0.031 C 
ATOM     45  C   UNL A   1      40.555  25.617  27.897  1.00  0.00     0.029 A 
ATOM     46  C   UNL A   1      41.904  26.103  28.183  1.00  0.00     0.049 A 
ATOM     47  H   UNL A   1      42.422  27.899  29.105  1.00  0.00     0.167 HD
ATOM     48  C   UNL A   1      43.399  31.853  30.741  1.00  0.00     0.037 A 
ATOM     49  C   UNL A   1      43.055  25.456  27.908  1.00  0.00     0.037 A 
ATOM     50  C   UNL A   1      44.670  31.206  30.552  1.00  0.00     0.049 A 
ATOM     51  C   UNL A   1      44.374  26.123  28.225  1.00  0.00     0.074 A 
ATOM     52  C   UNL A   1      45.931  31.670  30.881  1.00  0.00     0.029 A 
ATOM     53  N   UNL A   1      44.840  29.956  29.977  1.00  0.00    -0.354 N 
ATOM     54  N   UNL A   1      44.605  27.286  28.786  1.00  0.00    -0.248 NA
ATOM     55  C   UNL A   1      45.595  25.387  27.863  1.00  0.00     0.031 C 
ATOM     56  C   UNL A   1      46.868  30.724  30.455  1.00  0.00     0.029 A 
ATOM     57  C   UNL A   1      46.187  29.641  29.923  1.00  0.00     0.049 A 
ATOM     58  H   UNL A   1      44.110  29.379  29.655  1.00  0.00     0.167 HD
ATOM     59  C   UNL A   1      45.986  27.398  28.887  1.00  0.00     0.074 A 
ATOM     60  C   UNL A   1      46.545  26.185  28.331  1.00  0.00     0.031 C 
ATOM     61  C   UNL A   1      46.727  28.412  29.398  1.00  0.00     0.037 A 
BRANCH  48  62
ATOM     62  C   UNL A   1      43.378  33.218  31.362  1.00  0.00     0.064 A 
ATOM     63  C   UNL A   1      43.429  33.396  32.753  1.00  0.00     0.173 A 
ATOM     64  C   UNL A   1      43.339  34.366  30.555  1.00  0.00     0.173 A 
ATOM     65  F   UNL A   1      43.451  32.332  33.569  1.00  0.00    -0.203 F 
ATOM     66  C   UNL A   1      43.414  34.670  33.313  1.00  0.00     0.198 A 
ATOM     67  C   UNL A   1      43.359  35.639  31.119  1.00  0.00     0.198 A 
ATOM     68  F   UNL A   1      43.293  34.254  29.219  1.00  0.00    -0.203 F 
ATOM     69  F   UNL A   1      43.412  34.814  34.646  1.00  0.00    -0.200 F 
ATOM     70  C   UNL A   1      43.388  35.790  32.496  1.00  0.00     0.200 A 
ATOM     71  F   UNL A   1      43.348  36.720  30.327  1.00  0.00    -0.200 F 
ATOM     72  F   UNL A   1      43.384  37.016  33.037  1.00  0.00    -0.200 F 
ENDBRANCH  48  62
BRANCH  49  73
ATOM     73  C   UNL A   1      43.032  24.112  27.269  1.00  0.00     0.064 A 
ATOM     74  C   UNL A   1      43.291  23.960  25.899  1.00  0.00     0.173 A 
ATOM     75  C   UNL A   1      42.699  22.960  27.999  1.00  0.00     0.173 A 
ATOM     76  F   UNL A   1      43.583  25.033  25.151  1.00  0.00    -0.203 F 
ATOM     77  C   UNL A   1      43.187  22.716  25.278  1.00  0.00     0.198 A 
ATOM     78  C   UNL A   1      42.630  21.711  27.383  1.00  0.00     0.198 A 
ATOM     79  F   UNL A   1      42.435  23.048  29.311  1.00  0.00    -0.203 F 
ATOM     80  F   UNL A   1      43.374  22.614  23.955  1.00  0.00    -0.200 F 
ATOM     81  C   UNL A   1      42.862  21.592  26.021  1.00  0.00     0.200 A 
ATOM     82  F   UNL A   1      42.323  20.626  28.107  1.00  0.00    -0.200 F 
ATOM     83  F   UNL A   1      42.755  20.398  25.423  1.00  0.00    -0.200 F 
ENDBRANCH  49  73
BRANCH  61  84
ATOM     84  C   UNL A   1      48.218  28.236  29.454  1.00  0.00     0.064 A 
ATOM     85  C   UNL A   1      49.064  28.730  28.451  1.00  0.00     0.173 A 
ATOM     86  C   UNL A   1      48.810  27.622  30.569  1.00  0.00     0.173 A 
ATOM     87  F   UNL A   1      48.549  29.313  27.358  1.00  0.00    -0.203 F 
ATOM     88  C   UNL A   1      50.448  28.601  28.555  1.00  0.00     0.198 A 
ATOM     89  C   UNL A   1      50.194  27.525  30.686  1.00  0.00     0.198 A 
ATOM     90  F   UNL A   1      48.047  27.139  31.561  1.00  0.00    -0.203 F 
ATOM     91  F   UNL A   1      51.236  29.045  27.567  1.00  0.00    -0.200 F 
ATOM     92  C   UNL A   1      51.011  28.009  29.676  1.00  0.00     0.200 A 
ATOM     93  F   UNL A   1      50.736  26.970  31.779  1.00  0.00    -0.200 F 
ATOM     94  F   UNL A   1      52.343  27.904  29.783  1.00  0.00    -0.200 F 
ENDBRANCH  61  84
ENDBRANCH  35  36
ENDBRANCH  28  30
ENDBRANCH  27  28
ENDBRANCH  26  27
ENDBRANCH  25  26
ENDBRANCH  24  25
ENDBRANCH  23  24
ENDBRANCH   1  23
TORSDOF 22
ENDMDL
