MODEL 1
REMARK VINA RESULT:     -11.7      0.000      0.000
REMARK SMILES Cc1ccc(S(=O)(=O)N2CCN(C(=O)[C@H]3CCCC[C@H]3C(=O)OCCOCCOCCOC(=O)c3ccc(-c4c5nc(c(-c6c(F)c(F)c(F)c(F)c6F)c6ccc([nH]6)c(-c6c(F)c(F)c(F)c(F)c6F)c6nc(c(-c7c(F)c(F)c(F)c(F)c7F)c7ccc4[nH]7)C=C6)C=C5)cc3)CC2)cc1C
REMARK SMILES IDX 27 1 26 2 25 3 24 4 23 5 21 6 22 7 20 8 15 9 16 10 17 11
REMARK SMILES IDX 19 12 18 13 13 14 9 15 10 16 99 17 11 18 98 19 12 20 14 21
REMARK SMILES IDX 6 22 7 23 8 24 5 25 1 26 2 27 3 28 101 29 4 30 100 31 102 32
REMARK SMILES IDX 28 33 29 34 30 35 31 36 32 37 33 38 34 39 35 40 36 41 97 42
REMARK SMILES IDX 37 43 96 44 38 45 39 46 40 47 90 48 41 49 95 50 89 51 91 52
REMARK SMILES IDX 42 53 94 54 88 55 87 56 43 58 75 59 55 60 74 61 56 62 59 63
REMARK SMILES IDX 73 64 92 65 57 66 58 67 72 69 93 70 60 71 44 72 45 73 53 74
REMARK SMILES IDX 46 75 47 76 51 77 54 78 48 79 49 80 52 81 50 82 76 83 77 84
REMARK SMILES IDX 85 85 78 86 79 87 83 88 86 89 80 90 81 91 84 92 82 93 61 94
REMARK SMILES IDX 62 95 70 96 63 97 64 98 68 99 71 100 65 101 66 102 69 103
REMARK SMILES IDX 67 104
REMARK H PARENT 91 57 59 68
REMARK Flexibility Score: inf
ROOT
ATOM      1  C   UNL A   1      40.254  21.846  26.501  1.00  0.00     0.188 C 
ENDROOT
BRANCH   1   2
ATOM      2  O   UNL A   1      39.370  22.853  26.930  1.00  0.00    -0.376 OA
BRANCH   2   3
ATOM      3  C   UNL A   1      38.651  23.564  25.930  1.00  0.00     0.202 C 
BRANCH   3   4
ATOM      4  C   UNL A   1      37.120  23.674  25.994  1.00  0.00     0.261 C 
BRANCH   4   5
ATOM      5  O   UNL A   1      36.404  22.416  25.926  1.00  0.00    -0.463 OA
BRANCH   5   6
ATOM      6  C   UNL A   1      35.107  22.472  26.309  1.00  0.00     0.309 C 
ATOM      7  O   UNL A   1      34.640  23.408  26.959  1.00  0.00    -0.252 OA
BRANCH   6   8
ATOM      8  C   UNL A   1      34.188  21.350  25.821  1.00  0.00     0.111 C 
ATOM      9  C   UNL A   1      32.856  21.630  25.067  1.00  0.00     0.093 C 
ATOM     10  C   UNL A   1      32.198  20.286  24.683  1.00  0.00     0.014 C 
ATOM     11  C   UNL A   1      33.118  19.380  23.880  1.00  0.00     0.001 C 
ATOM     12  C   UNL A   1      35.098  20.354  25.070  1.00  0.00     0.016 C 
ATOM     13  C   UNL A   1      34.384  19.078  24.656  1.00  0.00     0.001 C 
BRANCH   9  14
ATOM     14  C   UNL A   1      33.011  22.564  23.868  1.00  0.00     0.226 C 
ATOM     15  N   UNL A   1      30.762  26.025  23.221  1.00  0.00    -0.194 NA
ATOM     16  C   UNL A   1      31.667  25.408  22.226  1.00  0.00     0.124 C 
ATOM     17  C   UNL A   1      30.405  25.165  24.377  1.00  0.00     0.124 C 
ATOM     18  C   UNL A   1      32.894  24.820  22.920  1.00  0.00     0.136 C 
ATOM     19  C   UNL A   1      31.627  24.424  24.982  1.00  0.00     0.136 C 
ATOM     20  N   UNL A   1      32.501  23.852  23.949  1.00  0.00    -0.340 N 
ATOM     21  O   UNL A   1      33.591  22.174  22.852  1.00  0.00    -0.275 OA
BRANCH  15  22
ATOM     22  S   UNL A   1      30.423  27.673  23.171  1.00  0.00     0.243 S 
ATOM     23  O   UNL A   1      29.067  27.873  23.658  1.00  0.00    -0.207 OA
ATOM     24  O   UNL A   1      30.837  28.159  21.879  1.00  0.00    -0.207 OA
BRANCH  22  25
ATOM     25  C   UNL A   1      31.500  28.419  24.376  1.00  0.00     0.082 A 
ATOM     26  C   UNL A   1      34.225  30.231  27.187  1.00  0.00     0.044 C 
ATOM     27  C   UNL A   1      33.234  29.628  26.231  1.00  0.00    -0.048 A 
ATOM     28  C   UNL A   1      33.521  28.370  25.688  1.00  0.00     0.005 A 
ATOM     29  C   UNL A   1      32.010  30.246  25.907  1.00  0.00    -0.047 A 
ATOM     30  C   UNL A   1      32.646  27.759  24.795  1.00  0.00     0.022 A 
ATOM     31  C   UNL A   1      31.168  29.654  24.944  1.00  0.00     0.025 A 
ATOM     32  C   UNL A   1      31.519  31.486  26.607  1.00  0.00     0.044 C 
ENDBRANCH  22  25
ENDBRANCH  15  22
ENDBRANCH   9  14
ENDBRANCH   6   8
ENDBRANCH   5   6
ENDBRANCH   4   5
ENDBRANCH   3   4
ENDBRANCH   2   3
ENDBRANCH   1   2
BRANCH   1  33
ATOM     33  C   UNL A   1      39.678  20.570  25.890  1.00  0.00     0.188 C 
BRANCH  33  34
ATOM     34  O   UNL A   1      40.415  19.384  25.731  1.00  0.00    -0.376 OA
BRANCH  34  35
ATOM     35  C   UNL A   1      41.678  19.185  26.350  1.00  0.00     0.202 C 
BRANCH  35  36
ATOM     36  C   UNL A   1      42.962  18.672  25.660  1.00  0.00     0.261 C 
BRANCH  36  37
ATOM     37  O   UNL A   1      43.393  19.301  24.455  1.00  0.00    -0.460 OA
BRANCH  37  38
ATOM     38  C   UNL A   1      44.716  19.598  24.371  1.00  0.00     0.338 C 
ATOM     39  O   UNL A   1      45.582  18.939  23.825  1.00  0.00    -0.246 OA
BRANCH  38  40
ATOM     40  C   UNL A   1      44.855  21.019  24.787  1.00  0.00     0.060 A 
ATOM     41  C   UNL A   1      44.485  22.017  23.871  1.00  0.00     0.016 A 
ATOM     42  C   UNL A   1      45.184  21.360  26.101  1.00  0.00     0.016 A 
ATOM     43  C   UNL A   1      44.429  23.355  24.270  1.00  0.00     0.010 A 
ATOM     44  C   UNL A   1      45.160  22.702  26.489  1.00  0.00     0.010 A 
ATOM     45  C   UNL A   1      44.788  23.707  25.577  1.00  0.00    -0.014 A 
BRANCH  45  46
ATOM     46  C   UNL A   1      44.924  25.131  25.970  1.00  0.00     0.031 A 
ATOM     47  C   UNL A   1      46.289  25.754  25.932  1.00  0.00     0.074 A 
ATOM     48  C   UNL A   1      43.872  25.852  26.394  1.00  0.00     0.049 A 
ATOM     49  N   UNL A   1      46.686  26.923  26.363  1.00  0.00    -0.248 NA
ATOM     50  C   UNL A   1      47.353  24.933  25.334  1.00  0.00     0.031 C 
ATOM     51  C   UNL A   1      42.490  25.385  26.441  1.00  0.00     0.029 A 
ATOM     52  N   UNL A   1      43.818  27.129  26.901  1.00  0.00    -0.354 N 
ATOM     53  C   UNL A   1      48.048  26.974  26.104  1.00  0.00     0.074 A 
ATOM     54  C   UNL A   1      48.412  25.710  25.499  1.00  0.00     0.031 C 
ATOM     55  C   UNL A   1      41.726  26.349  26.986  1.00  0.00     0.029 A 
ATOM     56  C   UNL A   1      42.574  27.479  27.366  1.00  0.00     0.049 A 
ATOM     57  H   UNL A   1      44.594  27.734  26.927  1.00  0.00     0.167 HD
ATOM     58  C   UNL A   1      48.918  27.982  26.354  1.00  0.00     0.037 A 
ATOM     59  C   UNL A   1      42.176  28.563  28.063  1.00  0.00     0.037 A 
ATOM     60  C   UNL A   1      48.555  29.233  26.966  1.00  0.00     0.049 A 
ATOM     61  C   UNL A   1      43.174  29.639  28.411  1.00  0.00     0.074 A 
ATOM     62  C   UNL A   1      49.355  30.333  27.216  1.00  0.00     0.029 A 
ATOM     63  N   UNL A   1      47.291  29.540  27.448  1.00  0.00    -0.354 N 
ATOM     64  N   UNL A   1      44.454  29.704  28.129  1.00  0.00    -0.248 NA
ATOM     65  C   UNL A   1      42.675  30.789  29.179  1.00  0.00     0.031 C 
ATOM     66  C   UNL A   1      48.595  31.277  27.915  1.00  0.00     0.029 A 
ATOM     67  C   UNL A   1      47.302  30.793  28.042  1.00  0.00     0.049 A 
ATOM     68  H   UNL A   1      46.503  28.955  27.380  1.00  0.00     0.167 HD
ATOM     69  C   UNL A   1      44.909  30.900  28.674  1.00  0.00     0.074 A 
ATOM     70  C   UNL A   1      43.764  31.540  29.286  1.00  0.00     0.031 C 
ATOM     71  C   UNL A   1      46.162  31.418  28.666  1.00  0.00     0.037 A 
BRANCH  58  72
ATOM     72  C   UNL A   1      50.359  27.743  26.010  1.00  0.00     0.064 A 
ATOM     73  C   UNL A   1      50.851  27.901  24.706  1.00  0.00     0.173 A 
ATOM     74  C   UNL A   1      51.264  27.346  27.007  1.00  0.00     0.173 A 
ATOM     75  F   UNL A   1      50.026  28.265  23.712  1.00  0.00    -0.203 F 
ATOM     76  C   UNL A   1      52.183  27.629  24.405  1.00  0.00     0.198 A 
ATOM     77  C   UNL A   1      52.602  27.110  26.711  1.00  0.00     0.198 A 
ATOM     78  F   UNL A   1      50.847  27.183  28.272  1.00  0.00    -0.203 F 
ATOM     79  F   UNL A   1      52.614  27.721  23.139  1.00  0.00    -0.200 F 
ATOM     80  C   UNL A   1      53.058  27.239  25.407  1.00  0.00     0.200 A 
ATOM     81  F   UNL A   1      53.449  26.745  27.683  1.00  0.00    -0.200 F 
ATOM     82  F   UNL A   1      54.339  26.974  25.116  1.00  0.00    -0.200 F 
ENDBRANCH  58  72
BRANCH  59  83
ATOM     83  C   UNL A   1      40.766  28.657  28.525  1.00  0.00     0.064 A 
ATOM     84  C   UNL A   1      40.398  28.277  29.823  1.00  0.00     0.173 A 
ATOM     85  C   UNL A   1      39.757  29.140  27.677  1.00  0.00     0.173 A 
ATOM     86  F   UNL A   1      41.319  27.776  30.660  1.00  0.00    -0.203 F 
ATOM     87  C   UNL A   1      39.077  28.377  30.254  1.00  0.00     0.198 A 
ATOM     88  C   UNL A   1      38.443  29.267  28.118  1.00  0.00     0.198 A 
ATOM     89  F   UNL A   1      40.055  29.508  26.422  1.00  0.00    -0.203 F 
ATOM     90  F   UNL A   1      38.744  27.973  31.488  1.00  0.00    -0.200 F 
ATOM     91  C   UNL A   1      38.101  28.882  29.405  1.00  0.00     0.200 A 
ATOM     92  F   UNL A   1      37.507  29.764  27.297  1.00  0.00    -0.200 F 
ATOM     93  F   UNL A   1      36.835  28.990  29.826  1.00  0.00    -0.200 F 
ENDBRANCH  59  83
BRANCH  71  94
ATOM     94  C   UNL A   1      46.374  32.747  29.337  1.00  0.00     0.064 A 
ATOM     95  C   UNL A   1      46.190  33.955  28.648  1.00  0.00     0.173 A 
ATOM     96  C   UNL A   1      46.703  32.816  30.700  1.00  0.00     0.173 A 
ATOM     97  F   UNL A   1      45.888  33.949  27.341  1.00  0.00    -0.203 F 
ATOM     98  C   UNL A   1      46.342  35.181  29.294  1.00  0.00     0.198 A 
ATOM     99  C   UNL A   1      46.824  34.041  31.350  1.00  0.00     0.198 A 
ATOM    100  F   UNL A   1      46.884  31.692  31.410  1.00  0.00    -0.203 F 
ATOM    101  F   UNL A   1      46.199  36.322  28.605  1.00  0.00    -0.200 F 
ATOM    102  C   UNL A   1      46.649  35.223  30.646  1.00  0.00     0.200 A 
ATOM    103  F   UNL A   1      47.104  34.079  32.660  1.00  0.00    -0.200 F 
ATOM    104  F   UNL A   1      46.780  36.403  31.269  1.00  0.00    -0.200 F 
ENDBRANCH  71  94
ENDBRANCH  45  46
ENDBRANCH  38  40
ENDBRANCH  37  38
ENDBRANCH  36  37
ENDBRANCH  35  36
ENDBRANCH  34  35
ENDBRANCH  33  34
ENDBRANCH   1  33
TORSDOF 20
ENDMDL
MODEL 2
REMARK VINA RESULT:     -11.4      1.336      7.106
REMARK SMILES Cc1ccc(S(=O)(=O)N2CCN(C(=O)[C@H]3CCCC[C@H]3C(=O)OCCOCCOCCOC(=O)c3ccc(-c4c5nc(c(-c6c(F)c(F)c(F)c(F)c6F)c6ccc([nH]6)c(-c6c(F)c(F)c(F)c(F)c6F)c6nc(c(-c7c(F)c(F)c(F)c(F)c7F)c7ccc4[nH]7)C=C6)C=C5)cc3)CC2)cc1C
REMARK SMILES IDX 27 1 26 2 25 3 24 4 23 5 21 6 22 7 20 8 15 9 16 10 17 11
REMARK SMILES IDX 19 12 18 13 13 14 9 15 10 16 99 17 11 18 98 19 12 20 14 21
REMARK SMILES IDX 6 22 7 23 8 24 5 25 1 26 2 27 3 28 101 29 4 30 100 31 102 32
REMARK SMILES IDX 28 33 29 34 30 35 31 36 32 37 33 38 34 39 35 40 36 41 97 42
REMARK SMILES IDX 37 43 96 44 38 45 39 46 40 47 90 48 41 49 95 50 89 51 91 52
REMARK SMILES IDX 42 53 94 54 88 55 87 56 43 58 75 59 55 60 74 61 56 62 59 63
REMARK SMILES IDX 73 64 92 65 57 66 58 67 72 69 93 70 60 71 44 72 45 73 53 74
REMARK SMILES IDX 46 75 47 76 51 77 54 78 48 79 49 80 52 81 50 82 76 83 77 84
REMARK SMILES IDX 85 85 78 86 79 87 83 88 86 89 80 90 81 91 84 92 82 93 61 94
REMARK SMILES IDX 62 95 70 96 63 97 64 98 68 99 71 100 65 101 66 102 69 103
REMARK SMILES IDX 67 104
REMARK H PARENT 91 57 59 68
REMARK Flexibility Score: inf
ROOT
ATOM      1  C   UNL A   1      37.859  22.709  25.609  1.00  0.00     0.188 C 
ENDROOT
BRANCH   1   2
ATOM      2  O   UNL A   1      37.221  23.943  25.834  1.00  0.00    -0.376 OA
BRANCH   2   3
ATOM      3  C   UNL A   1      35.853  24.051  25.460  1.00  0.00     0.202 C 
BRANCH   3   4
ATOM      4  C   UNL A   1      34.740  23.906  26.508  1.00  0.00     0.261 C 
BRANCH   4   5
ATOM      5  O   UNL A   1      34.558  22.570  27.040  1.00  0.00    -0.463 OA
BRANCH   5   6
ATOM      6  C   UNL A   1      33.285  22.110  27.011  1.00  0.00     0.309 C 
ATOM      7  O   UNL A   1      32.381  22.596  27.690  1.00  0.00    -0.252 OA
BRANCH   6   8
ATOM      8  C   UNL A   1      32.973  20.992  26.013  1.00  0.00     0.111 C 
ATOM      9  C   UNL A   1      32.199  21.248  24.688  1.00  0.00     0.093 C 
ATOM     10  C   UNL A   1      32.091  19.924  23.898  1.00  0.00     0.014 C 
ATOM     11  C   UNL A   1      33.440  19.270  23.644  1.00  0.00     0.001 C 
ATOM     12  C   UNL A   1      34.303  20.241  25.789  1.00  0.00     0.016 C 
ATOM     13  C   UNL A   1      34.151  18.982  24.952  1.00  0.00     0.001 C 
BRANCH   9  14
ATOM     14  C   UNL A   1      32.781  22.381  23.843  1.00  0.00     0.226 C 
ATOM     15  N   UNL A   1      30.766  25.901  22.840  1.00  0.00    -0.194 NA
ATOM     16  C   UNL A   1      32.057  25.471  22.256  1.00  0.00     0.124 C 
ATOM     17  C   UNL A   1      30.015  24.849  23.570  1.00  0.00     0.124 C 
ATOM     18  C   UNL A   1      32.907  24.770  23.313  1.00  0.00     0.136 C 
ATOM     19  C   UNL A   1      30.912  24.012  24.521  1.00  0.00     0.136 C 
ATOM     20  N   UNL A   1      32.187  23.633  23.897  1.00  0.00    -0.340 N 
ATOM     21  O   UNL A   1      33.770  22.178  23.135  1.00  0.00    -0.275 OA
BRANCH  15  22
ATOM     22  S   UNL A   1      30.354  27.531  22.911  1.00  0.00     0.243 S 
ATOM     23  O   UNL A   1      28.983  27.633  23.383  1.00  0.00    -0.207 OA
ATOM     24  O   UNL A   1      30.769  28.135  21.669  1.00  0.00    -0.207 OA
BRANCH  22  25
ATOM     25  C   UNL A   1      31.375  28.227  24.192  1.00  0.00     0.082 A 
ATOM     26  C   UNL A   1      33.811  30.060  27.245  1.00  0.00     0.044 C 
ATOM     27  C   UNL A   1      32.949  29.381  26.217  1.00  0.00    -0.048 A 
ATOM     28  C   UNL A   1      33.258  29.573  24.865  1.00  0.00     0.005 A 
ATOM     29  C   UNL A   1      31.888  28.520  26.557  1.00  0.00    -0.047 A 
ATOM     30  C   UNL A   1      32.497  28.974  23.865  1.00  0.00     0.022 A 
ATOM     31  C   UNL A   1      31.078  27.981  25.536  1.00  0.00     0.025 A 
ATOM     32  C   UNL A   1      31.622  28.083  27.974  1.00  0.00     0.044 C 
ENDBRANCH  22  25
ENDBRANCH  15  22
ENDBRANCH   9  14
ENDBRANCH   6   8
ENDBRANCH   5   6
ENDBRANCH   4   5
ENDBRANCH   3   4
ENDBRANCH   2   3
ENDBRANCH   1   2
BRANCH   1  33
ATOM     33  C   UNL A   1      37.187  21.688  24.692  1.00  0.00     0.188 C 
BRANCH  33  34
ATOM     34  O   UNL A   1      37.771  20.459  24.340  1.00  0.00    -0.376 OA
BRANCH  34  35
ATOM     35  C   UNL A   1      38.313  19.570  25.306  1.00  0.00     0.202 C 
BRANCH  35  36
ATOM     36  C   UNL A   1      39.658  19.740  26.048  1.00  0.00     0.261 C 
BRANCH  36  37
ATOM     37  O   UNL A   1      40.869  19.450  25.353  1.00  0.00    -0.460 OA
BRANCH  37  38
ATOM     38  C   UNL A   1      41.982  19.301  26.118  1.00  0.00     0.338 C 
ATOM     39  O   UNL A   1      42.616  18.278  26.297  1.00  0.00    -0.246 OA
BRANCH  38  40
ATOM     40  C   UNL A   1      42.460  20.673  26.435  1.00  0.00     0.060 A 
ATOM     41  C   UNL A   1      42.454  21.083  27.778  1.00  0.00     0.016 A 
ATOM     42  C   UNL A   1      43.054  21.476  25.460  1.00  0.00     0.016 A 
ATOM     43  C   UNL A   1      43.054  22.288  28.151  1.00  0.00     0.010 A 
ATOM     44  C   UNL A   1      43.624  22.698  25.829  1.00  0.00     0.010 A 
ATOM     45  C   UNL A   1      43.623  23.113  27.173  1.00  0.00    -0.014 A 
BRANCH  45  46
ATOM     46  C   UNL A   1      44.090  24.480  27.512  1.00  0.00     0.031 A 
ATOM     47  C   UNL A   1      43.070  25.503  27.918  1.00  0.00     0.074 A 
ATOM     48  C   UNL A   1      45.386  24.828  27.420  1.00  0.00     0.049 A 
ATOM     49  N   UNL A   1      43.208  26.788  28.117  1.00  0.00    -0.248 NA
ATOM     50  C   UNL A   1      41.702  25.001  28.116  1.00  0.00     0.031 C 
ATOM     51  C   UNL A   1      46.481  23.927  27.078  1.00  0.00     0.029 A 
ATOM     52  N   UNL A   1      45.988  26.054  27.577  1.00  0.00    -0.354 N 
ATOM     53  C   UNL A   1      41.943  27.254  28.447  1.00  0.00     0.074 A 
ATOM     54  C   UNL A   1      41.048  26.116  28.400  1.00  0.00     0.031 C 
ATOM     55  C   UNL A   1      47.621  24.638  27.013  1.00  0.00     0.029 A 
ATOM     56  C   UNL A   1      47.325  26.049  27.264  1.00  0.00     0.049 A 
ATOM     57  H   UNL A   1      45.509  26.857  27.886  1.00  0.00     0.167 HD
ATOM     58  C   UNL A   1      41.562  28.516  28.756  1.00  0.00     0.037 A 
ATOM     59  C   UNL A   1      48.197  27.071  27.143  1.00  0.00     0.037 A 
ATOM     60  C   UNL A   1      42.453  29.646  28.790  1.00  0.00     0.049 A 
ATOM     61  C   UNL A   1      47.738  28.484  27.404  1.00  0.00     0.074 A 
ATOM     62  C   UNL A   1      42.170  30.954  29.139  1.00  0.00     0.029 A 
ATOM     63  N   UNL A   1      43.794  29.607  28.440  1.00  0.00    -0.354 N 
ATOM     64  N   UNL A   1      46.551  28.917  27.756  1.00  0.00    -0.248 NA
ATOM     65  C   UNL A   1      48.738  29.550  27.246  1.00  0.00     0.031 C 
ATOM     66  C   UNL A   1      43.322  31.722  28.928  1.00  0.00     0.029 A 
ATOM     67  C   UNL A   1      44.341  30.879  28.513  1.00  0.00     0.049 A 
ATOM     68  H   UNL A   1      44.286  28.796  28.177  1.00  0.00     0.167 HD
ATOM     69  C   UNL A   1      46.662  30.298  27.871  1.00  0.00     0.074 A 
ATOM     70  C   UNL A   1      48.039  30.630  27.572  1.00  0.00     0.031 C 
ATOM     71  C   UNL A   1      45.709  31.206  28.195  1.00  0.00     0.037 A 
BRANCH  58  72
ATOM     72  C   UNL A   1      40.104  28.743  29.027  1.00  0.00     0.064 A 
ATOM     73  C   UNL A   1      39.542  28.551  30.298  1.00  0.00     0.173 A 
ATOM     74  C   UNL A   1      39.252  29.161  27.992  1.00  0.00     0.173 A 
ATOM     75  F   UNL A   1      40.309  28.137  31.319  1.00  0.00    -0.203 F 
ATOM     76  C   UNL A   1      38.178  28.725  30.512  1.00  0.00     0.198 A 
ATOM     77  C   UNL A   1      37.896  29.369  28.218  1.00  0.00     0.198 A 
ATOM     78  F   UNL A   1      39.738  29.364  26.758  1.00  0.00    -0.203 F 
ATOM     79  F   UNL A   1      37.653  28.468  31.719  1.00  0.00    -0.200 F 
ATOM     80  C   UNL A   1      37.357  29.138  29.475  1.00  0.00     0.200 A 
ATOM     81  F   UNL A   1      37.106  29.782  27.216  1.00  0.00    -0.200 F 
ATOM     82  F   UNL A   1      36.043  29.303  29.681  1.00  0.00    -0.200 F 
ENDBRANCH  58  72
BRANCH  59  83
ATOM     83  C   UNL A   1      49.590  26.794  26.700  1.00  0.00     0.064 A 
ATOM     84  C   UNL A   1      49.954  26.874  25.349  1.00  0.00     0.173 A 
ATOM     85  C   UNL A   1      50.588  26.453  27.625  1.00  0.00     0.173 A 
ATOM     86  F   UNL A   1      49.028  27.162  24.423  1.00  0.00    -0.203 F 
ATOM     87  C   UNL A   1      51.263  26.624  24.942  1.00  0.00     0.198 A 
ATOM     88  C   UNL A   1      51.902  26.231  27.220  1.00  0.00     0.198 A 
ATOM     89  F   UNL A   1      50.289  26.353  28.929  1.00  0.00    -0.203 F 
ATOM     90  F   UNL A   1      51.578  26.671  23.640  1.00  0.00    -0.200 F 
ATOM     91  C   UNL A   1      52.239  26.313  25.878  1.00  0.00     0.200 A 
ATOM     92  F   UNL A   1      52.842  25.942  28.130  1.00  0.00    -0.200 F 
ATOM     93  F   UNL A   1      53.499  26.087  25.486  1.00  0.00    -0.200 F 
ENDBRANCH  59  83
BRANCH  71  94
ATOM     94  C   UNL A   1      46.112  32.654  28.249  1.00  0.00     0.064 A 
ATOM     95  C   UNL A   1      45.933  33.508  27.150  1.00  0.00     0.173 A 
ATOM     96  C   UNL A   1      46.623  33.211  29.432  1.00  0.00     0.173 A 
ATOM     97  F   UNL A   1      45.461  33.026  25.990  1.00  0.00    -0.203 F 
ATOM     98  C   UNL A   1      46.266  34.860  27.229  1.00  0.00     0.198 A 
ATOM     99  C   UNL A   1      46.925  34.568  29.517  1.00  0.00     0.198 A 
ATOM    100  F   UNL A   1      46.808  32.443  30.516  1.00  0.00    -0.203 F 
ATOM    101  F   UNL A   1      46.122  35.646  26.153  1.00  0.00    -0.200 F 
ATOM    102  C   UNL A   1      46.752  35.390  28.414  1.00  0.00     0.200 A 
ATOM    103  F   UNL A   1      47.378  35.081  30.669  1.00  0.00    -0.200 F 
ATOM    104  F   UNL A   1      47.056  36.693  28.492  1.00  0.00    -0.200 F 
ENDBRANCH  71  94
ENDBRANCH  45  46
ENDBRANCH  38  40
ENDBRANCH  37  38
ENDBRANCH  36  37
ENDBRANCH  35  36
ENDBRANCH  34  35
ENDBRANCH  33  34
ENDBRANCH   1  33
TORSDOF 20
ENDMDL
MODEL 3
REMARK VINA RESULT:     -11.2      1.305      2.279
REMARK SMILES Cc1ccc(S(=O)(=O)N2CCN(C(=O)[C@H]3CCCC[C@H]3C(=O)OCCOCCOCCOC(=O)c3ccc(-c4c5nc(c(-c6c(F)c(F)c(F)c(F)c6F)c6ccc([nH]6)c(-c6c(F)c(F)c(F)c(F)c6F)c6nc(c(-c7c(F)c(F)c(F)c(F)c7F)c7ccc4[nH]7)C=C6)C=C5)cc3)CC2)cc1C
REMARK SMILES IDX 27 1 26 2 25 3 24 4 23 5 21 6 22 7 20 8 15 9 16 10 17 11
REMARK SMILES IDX 19 12 18 13 13 14 9 15 10 16 99 17 11 18 98 19 12 20 14 21
REMARK SMILES IDX 6 22 7 23 8 24 5 25 1 26 2 27 3 28 101 29 4 30 100 31 102 32
REMARK SMILES IDX 28 33 29 34 30 35 31 36 32 37 33 38 34 39 35 40 36 41 97 42
REMARK SMILES IDX 37 43 96 44 38 45 39 46 40 47 90 48 41 49 95 50 89 51 91 52
REMARK SMILES IDX 42 53 94 54 88 55 87 56 43 58 75 59 55 60 74 61 56 62 59 63
REMARK SMILES IDX 73 64 92 65 57 66 58 67 72 69 93 70 60 71 44 72 45 73 53 74
REMARK SMILES IDX 46 75 47 76 51 77 54 78 48 79 49 80 52 81 50 82 76 83 77 84
REMARK SMILES IDX 85 85 78 86 79 87 83 88 86 89 80 90 81 91 84 92 82 93 61 94
REMARK SMILES IDX 62 95 70 96 63 97 64 98 68 99 71 100 65 101 66 102 69 103
REMARK SMILES IDX 67 104
REMARK H PARENT 91 57 59 68
REMARK Flexibility Score: inf
ROOT
ATOM      1  C   UNL A   1      37.984  22.525  25.548  1.00  0.00     0.188 C 
ENDROOT
BRANCH   1   2
ATOM      2  O   UNL A   1      37.276  23.729  25.718  1.00  0.00    -0.376 OA
BRANCH   2   3
ATOM      3  C   UNL A   1      35.890  23.724  25.400  1.00  0.00     0.202 C 
BRANCH   3   4
ATOM      4  C   UNL A   1      34.834  23.914  26.499  1.00  0.00     0.261 C 
BRANCH   4   5
ATOM      5  O   UNL A   1      34.458  22.711  27.214  1.00  0.00    -0.463 OA
BRANCH   5   6
ATOM      6  C   UNL A   1      33.175  22.315  27.036  1.00  0.00     0.309 C 
ATOM      7  O   UNL A   1      32.217  22.899  27.543  1.00  0.00    -0.252 OA
BRANCH   6   8
ATOM      8  C   UNL A   1      32.936  21.140  26.086  1.00  0.00     0.111 C 
ATOM      9  C   UNL A   1      32.195  21.302  24.728  1.00  0.00     0.093 C 
ATOM     10  C   UNL A   1      32.160  19.938  24.001  1.00  0.00     0.014 C 
ATOM     11  C   UNL A   1      33.540  19.325  23.820  1.00  0.00     0.001 C 
ATOM     12  C   UNL A   1      34.298  20.430  25.939  1.00  0.00     0.016 C 
ATOM     13  C   UNL A   1      34.219  19.127  25.160  1.00  0.00     0.001 C 
BRANCH   9  14
ATOM     14  C   UNL A   1      32.761  22.414  23.845  1.00  0.00     0.226 C 
ATOM     15  N   UNL A   1      30.739  25.924  22.822  1.00  0.00    -0.194 NA
ATOM     16  C   UNL A   1      32.012  25.475  22.214  1.00  0.00     0.124 C 
ATOM     17  C   UNL A   1      30.002  24.891  23.592  1.00  0.00     0.124 C 
ATOM     18  C   UNL A   1      32.886  24.791  23.264  1.00  0.00     0.136 C 
ATOM     19  C   UNL A   1      30.918  24.069  24.537  1.00  0.00     0.136 C 
ATOM     20  N   UNL A   1      32.175  23.670  23.889  1.00  0.00    -0.340 N 
ATOM     21  O   UNL A   1      33.731  22.191  23.117  1.00  0.00    -0.275 OA
BRANCH  15  22
ATOM     22  S   UNL A   1      30.337  27.557  22.870  1.00  0.00     0.243 S 
ATOM     23  O   UNL A   1      28.956  27.673  23.311  1.00  0.00    -0.207 OA
ATOM     24  O   UNL A   1      30.782  28.147  21.633  1.00  0.00    -0.207 OA
BRANCH  22  25
ATOM     25  C   UNL A   1      31.334  28.257  24.167  1.00  0.00     0.082 A 
ATOM     26  C   UNL A   1      33.720  30.100  27.254  1.00  0.00     0.044 C 
ATOM     27  C   UNL A   1      32.874  29.419  26.214  1.00  0.00    -0.048 A 
ATOM     28  C   UNL A   1      33.231  29.569  24.869  1.00  0.00     0.005 A 
ATOM     29  C   UNL A   1      31.779  28.595  26.540  1.00  0.00    -0.047 A 
ATOM     30  C   UNL A   1      32.486  28.967  23.860  1.00  0.00     0.022 A 
ATOM     31  C   UNL A   1      30.988  28.052  25.506  1.00  0.00     0.025 A 
ATOM     32  C   UNL A   1      31.456  28.199  27.957  1.00  0.00     0.044 C 
ENDBRANCH  22  25
ENDBRANCH  15  22
ENDBRANCH   9  14
ENDBRANCH   6   8
ENDBRANCH   5   6
ENDBRANCH   4   5
ENDBRANCH   3   4
ENDBRANCH   2   3
ENDBRANCH   1   2
BRANCH   1  33
ATOM     33  C   UNL A   1      37.378  21.431  24.671  1.00  0.00     0.188 C 
BRANCH  33  34
ATOM     34  O   UNL A   1      38.034  20.224  24.372  1.00  0.00    -0.376 OA
BRANCH  34  35
ATOM     35  C   UNL A   1      38.504  19.344  25.383  1.00  0.00     0.202 C 
BRANCH  35  36
ATOM     36  C   UNL A   1      39.855  19.449  26.127  1.00  0.00     0.261 C 
BRANCH  36  37
ATOM     37  O   UNL A   1      41.031  18.953  25.491  1.00  0.00    -0.460 OA
BRANCH  37  38
ATOM     38  C   UNL A   1      42.188  19.066  26.193  1.00  0.00     0.338 C 
ATOM     39  O   UNL A   1      42.990  18.181  26.432  1.00  0.00    -0.246 OA
BRANCH  38  40
ATOM     40  C   UNL A   1      42.449  20.522  26.341  1.00  0.00     0.060 A 
ATOM     41  C   UNL A   1      42.488  21.060  27.638  1.00  0.00     0.016 A 
ATOM     42  C   UNL A   1      42.809  21.308  25.245  1.00  0.00     0.016 A 
ATOM     43  C   UNL A   1      42.902  22.378  27.842  1.00  0.00     0.010 A 
ATOM     44  C   UNL A   1      43.190  22.637  25.448  1.00  0.00     0.010 A 
ATOM     45  C   UNL A   1      43.234  23.182  26.745  1.00  0.00    -0.014 A 
BRANCH  45  46
ATOM     46  C   UNL A   1      43.486  24.634  26.915  1.00  0.00     0.031 A 
ATOM     47  C   UNL A   1      44.879  25.146  26.693  1.00  0.00     0.074 A 
ATOM     48  C   UNL A   1      42.516  25.481  27.303  1.00  0.00     0.049 A 
ATOM     49  N   UNL A   1      45.379  26.333  26.921  1.00  0.00    -0.248 NA
ATOM     50  C   UNL A   1      45.841  24.176  26.148  1.00  0.00     0.031 C 
ATOM     51  C   UNL A   1      41.117  25.124  27.513  1.00  0.00     0.029 A 
ATOM     52  N   UNL A   1      42.580  26.817  27.621  1.00  0.00    -0.354 N 
ATOM     53  C   UNL A   1      46.718  26.250  26.564  1.00  0.00     0.074 A 
ATOM     54  C   UNL A   1      46.955  24.891  26.125  1.00  0.00     0.031 C 
ATOM     55  C   UNL A   1      40.458  26.207  27.963  1.00  0.00     0.029 A 
ATOM     56  C   UNL A   1      41.400  27.316  28.116  1.00  0.00     0.049 A 
ATOM     57  H   UNL A   1      43.391  27.362  27.505  1.00  0.00     0.167 HD
ATOM     58  C   UNL A   1      47.663  27.219  26.603  1.00  0.00     0.037 A 
ATOM     59  C   UNL A   1      41.125  28.513  28.673  1.00  0.00     0.037 A 
ATOM     60  C   UNL A   1      47.427  28.566  27.051  1.00  0.00     0.049 A 
ATOM     61  C   UNL A   1      42.211  29.553  28.791  1.00  0.00     0.074 A 
ATOM     62  C   UNL A   1      48.309  29.630  27.082  1.00  0.00     0.029 A 
ATOM     63  N   UNL A   1      46.226  29.027  27.570  1.00  0.00    -0.354 N 
ATOM     64  N   UNL A   1      43.465  29.487  28.415  1.00  0.00    -0.248 NA
ATOM     65  C   UNL A   1      41.844  30.832  29.417  1.00  0.00     0.031 C 
ATOM     66  C   UNL A   1      47.665  30.715  27.688  1.00  0.00     0.029 A 
ATOM     67  C   UNL A   1      46.359  30.347  27.973  1.00  0.00     0.049 A 
ATOM     68  H   UNL A   1      45.400  28.496  27.642  1.00  0.00     0.167 HD
ATOM     69  C   UNL A   1      44.034  30.711  28.747  1.00  0.00     0.074 A 
ATOM     70  C   UNL A   1      42.981  31.512  29.337  1.00  0.00     0.031 C 
ATOM     71  C   UNL A   1      45.311  31.133  28.577  1.00  0.00     0.037 A 
BRANCH  58  72
ATOM     72  C   UNL A   1      49.056  26.832  26.199  1.00  0.00     0.064 A 
ATOM     73  C   UNL A   1      49.985  26.323  27.118  1.00  0.00     0.173 A 
ATOM     74  C   UNL A   1      49.467  26.976  24.864  1.00  0.00     0.173 A 
ATOM     75  F   UNL A   1      49.649  26.179  28.409  1.00  0.00    -0.203 F 
ATOM     76  C   UNL A   1      51.285  26.014  26.726  1.00  0.00     0.198 A 
ATOM     77  C   UNL A   1      50.755  26.633  24.468  1.00  0.00     0.198 A 
ATOM     78  F   UNL A   1      48.617  27.455  23.943  1.00  0.00    -0.203 F 
ATOM     79  F   UNL A   1      52.175  25.595  27.636  1.00  0.00    -0.200 F 
ATOM     80  C   UNL A   1      51.668  26.165  25.402  1.00  0.00     0.200 A 
ATOM     81  F   UNL A   1      51.119  26.767  23.186  1.00  0.00    -0.200 F 
ATOM     82  F   UNL A   1      52.920  25.870  25.026  1.00  0.00    -0.200 F 
ENDBRANCH  58  72
BRANCH  59  83
ATOM     83  C   UNL A   1      39.764  28.770  29.214  1.00  0.00     0.064 A 
ATOM     84  C   UNL A   1      39.428  28.434  30.532  1.00  0.00     0.173 A 
ATOM     85  C   UNL A   1      38.772  29.370  28.421  1.00  0.00     0.173 A 
ATOM     86  F   UNL A   1      40.329  27.828  31.318  1.00  0.00    -0.203 F 
ATOM     87  C   UNL A   1      38.154  28.688  31.036  1.00  0.00     0.198 A 
ATOM     88  C   UNL A   1      37.509  29.650  28.935  1.00  0.00     0.198 A 
ATOM     89  F   UNL A   1      39.040  29.702  27.149  1.00  0.00    -0.203 F 
ATOM     90  F   UNL A   1      37.846  28.324  32.289  1.00  0.00    -0.200 F 
ATOM     91  C   UNL A   1      37.198  29.305  30.241  1.00  0.00     0.200 A 
ATOM     92  F   UNL A   1      36.593  30.255  28.165  1.00  0.00    -0.200 F 
ATOM     93  F   UNL A   1      35.978  29.561  30.732  1.00  0.00    -0.200 F 
ENDBRANCH  59  83
BRANCH  71  94
ATOM     94  C   UNL A   1      45.655  32.525  29.031  1.00  0.00     0.064 A 
ATOM     95  C   UNL A   1      46.208  32.769  30.297  1.00  0.00     0.173 A 
ATOM     96  C   UNL A   1      45.489  33.620  28.168  1.00  0.00     0.173 A 
ATOM     97  F   UNL A   1      46.376  31.762  31.167  1.00  0.00    -0.203 F 
ATOM     98  C   UNL A   1      46.568  34.059  30.687  1.00  0.00     0.198 A 
ATOM     99  C   UNL A   1      45.878  34.901  28.549  1.00  0.00     0.198 A 
ATOM    100  F   UNL A   1      44.972  33.443  26.943  1.00  0.00    -0.203 F 
ATOM    101  F   UNL A   1      47.058  34.273  31.916  1.00  0.00    -0.200 F 
ATOM    102  C   UNL A   1      46.412  35.121  29.810  1.00  0.00     0.200 A 
ATOM    103  F   UNL A   1      45.742  35.923  27.693  1.00  0.00    -0.200 F 
ATOM    104  F   UNL A   1      46.772  36.358  30.181  1.00  0.00    -0.200 F 
ENDBRANCH  71  94
ENDBRANCH  45  46
ENDBRANCH  38  40
ENDBRANCH  37  38
ENDBRANCH  36  37
ENDBRANCH  35  36
ENDBRANCH  34  35
ENDBRANCH  33  34
ENDBRANCH   1  33
TORSDOF 20
ENDMDL
