MODEL 1
REMARK VINA RESULT:     -11.5      0.000      0.000
REMARK SMILES [NH3+][C@H]1CN(C(=O)OCC2c3ccccc3-c3ccccc32)C[C@@H]1C(=O)OCCOCCOCCOC(=O)c1ccc(-c2c3nc(c(-c4c(F)c(F)c(F)c(F)c4F)c4ccc([nH]4)c(-c4c(F)c(F)c(F)c(F)c4F)c4nc(c(-c5c(F)c(F)c(F)c(F)c5F)c5ccc2[nH]5)C=C4)C=C3)cc1
REMARK SMILES IDX 30 1 29 2 28 3 27 4 26 5 24 6 25 7 23 8 2 9 3 10 4 11 22 12
REMARK SMILES IDX 1 13 5 17 6 18 7 19 8 20 9 21 10 22 21 23 11 24 15 25 16 26
REMARK SMILES IDX 20 27 12 28 14 29 17 30 19 31 13 32 18 33 31 34 32 35 33 36
REMARK SMILES IDX 34 37 35 38 36 39 37 40 38 41 39 42 100 43 40 44 99 45 41 46
REMARK SMILES IDX 42 47 43 48 93 49 44 50 98 51 92 52 94 53 45 54 97 55 91 56
REMARK SMILES IDX 90 57 46 59 78 60 58 61 77 62 59 63 62 64 76 65 95 66 60 67
REMARK SMILES IDX 61 68 75 70 96 71 63 72 47 73 48 74 56 75 49 76 50 77 54 78
REMARK SMILES IDX 57 79 51 80 52 81 55 82 53 83 79 84 80 85 88 86 81 87 82 88
REMARK SMILES IDX 86 89 89 90 83 91 84 92 87 93 85 94 64 95 65 96 73 97 66 98
REMARK SMILES IDX 67 99 71 100 74 101 68 102 69 103 72 104 70 105
REMARK H PARENT 1 14 1 15 1 16 94 58 62 69
REMARK Flexibility Score: inf
ROOT
ATOM      1  C   UNL A   1      40.013  20.864  26.120  1.00  0.00     0.188 C 
ENDROOT
BRANCH   1   2
ATOM      2  O   UNL A   1      38.842  21.657  25.977  1.00  0.00    -0.376 OA
BRANCH   2   3
ATOM      3  C   UNL A   1      37.760  21.176  25.181  1.00  0.00     0.202 C 
BRANCH   3   4
ATOM      4  C   UNL A   1      36.883  22.174  24.404  1.00  0.00     0.261 C 
BRANCH   4   5
ATOM      5  O   UNL A   1      35.473  22.002  24.615  1.00  0.00    -0.463 OA
BRANCH   5   6
ATOM      6  C   UNL A   1      34.920  22.589  25.703  1.00  0.00     0.316 C 
ATOM      7  O   UNL A   1      34.894  23.798  25.903  1.00  0.00    -0.252 OA
BRANCH   6   8
ATOM      8  C   UNL A   1      34.194  21.603  26.601  1.00  0.00     0.178 C 
ATOM      9  C   UNL A   1      33.369  20.621  25.751  1.00  0.00     0.216 C 
ATOM     10  C   UNL A   1      32.011  21.362  25.583  1.00  0.00     0.188 C 
ATOM     11  N   UNL A   1      31.973  22.322  26.671  1.00  0.00    -0.301 N 
ATOM     12  C   UNL A   1      33.136  22.211  27.501  1.00  0.00     0.145 C 
BRANCH   9  13
ATOM     13  N   UNL A   1      33.222  19.342  26.472  1.00  0.00    -0.353 N 
ATOM     14  H   UNL A   1      32.450  18.812  26.068  1.00  0.00     0.344 HD
ATOM     15  H   UNL A   1      33.031  19.525  27.456  1.00  0.00     0.344 HD
ATOM     16  H   UNL A   1      34.085  18.803  26.387  1.00  0.00     0.344 HD
ENDBRANCH   9  13
BRANCH  11  17
ATOM     17  C   UNL A   1      31.081  23.335  26.881  1.00  0.00     0.410 C 
ATOM     18  O   UNL A   1      30.013  23.173  27.466  1.00  0.00    -0.224 OA
BRANCH  17  19
ATOM     19  O   UNL A   1      31.457  24.494  26.290  1.00  0.00    -0.448 OA
BRANCH  19  20
ATOM     20  C   UNL A   1      30.352  25.236  25.744  1.00  0.00     0.248 C 
BRANCH  20  21
ATOM     21  C   UNL A   1      30.699  25.893  24.392  1.00  0.00     0.088 C 
ATOM     22  C   UNL A   1      31.476  27.210  24.465  1.00  0.00    -0.029 A 
ATOM     23  C   UNL A   1      31.686  25.012  23.626  1.00  0.00    -0.029 A 
ATOM     24  C   UNL A   1      31.060  28.449  24.930  1.00  0.00     0.005 A 
ATOM     25  C   UNL A   1      32.769  27.049  23.924  1.00  0.00    -0.014 A 
ATOM     26  C   UNL A   1      32.886  25.713  23.384  1.00  0.00    -0.014 A 
ATOM     27  C   UNL A   1      31.517  23.706  23.192  1.00  0.00     0.005 A 
ATOM     28  C   UNL A   1      31.979  29.501  24.954  1.00  0.00     0.000 A 
ATOM     29  C   UNL A   1      33.682  28.093  23.939  1.00  0.00     0.009 A 
ATOM     30  C   UNL A   1      33.924  25.116  22.687  1.00  0.00     0.009 A 
ATOM     31  C   UNL A   1      32.566  23.101  22.498  1.00  0.00     0.000 A 
ATOM     32  C   UNL A   1      33.285  29.321  24.478  1.00  0.00     0.001 A 
ATOM     33  C   UNL A   1      33.756  23.801  22.243  1.00  0.00     0.001 A 
ENDBRANCH  20  21
ENDBRANCH  19  20
ENDBRANCH  17  19
ENDBRANCH  11  17
ENDBRANCH   6   8
ENDBRANCH   5   6
ENDBRANCH   4   5
ENDBRANCH   3   4
ENDBRANCH   2   3
ENDBRANCH   1   2
BRANCH   1  34
ATOM     34  C   UNL A   1      41.025  21.193  27.227  1.00  0.00     0.188 C 
BRANCH  34  35
ATOM     35  O   UNL A   1      42.279  20.578  27.070  1.00  0.00    -0.376 OA
BRANCH  35  36
ATOM     36  C   UNL A   1      42.911  20.685  25.802  1.00  0.00     0.202 C 
BRANCH  36  37
ATOM     37  C   UNL A   1      43.785  21.916  25.472  1.00  0.00     0.261 C 
BRANCH  37  38
ATOM     38  O   UNL A   1      43.104  23.153  25.185  1.00  0.00    -0.460 OA
BRANCH  38  39
ATOM     39  C   UNL A   1      43.825  24.295  25.282  1.00  0.00     0.338 C 
ATOM     40  O   UNL A   1      44.737  24.653  24.560  1.00  0.00    -0.246 OA
BRANCH  39  41
ATOM     41  C   UNL A   1      43.155  25.176  26.272  1.00  0.00     0.060 A 
ATOM     42  C   UNL A   1      43.661  26.470  26.482  1.00  0.00     0.016 A 
ATOM     43  C   UNL A   1      42.044  24.733  26.990  1.00  0.00     0.016 A 
ATOM     44  C   UNL A   1      43.078  27.309  27.434  1.00  0.00     0.010 A 
ATOM     45  C   UNL A   1      41.479  25.565  27.965  1.00  0.00     0.010 A 
ATOM     46  C   UNL A   1      42.016  26.842  28.217  1.00  0.00    -0.014 A 
BRANCH  46  47
ATOM     47  C   UNL A   1      41.614  27.595  29.433  1.00  0.00     0.031 A 
ATOM     48  C   UNL A   1      40.383  28.458  29.360  1.00  0.00     0.074 A 
ATOM     49  C   UNL A   1      42.301  27.502  30.585  1.00  0.00     0.049 A 
ATOM     50  N   UNL A   1      39.863  29.252  30.261  1.00  0.00    -0.248 NA
ATOM     51  C   UNL A   1      39.642  28.423  28.088  1.00  0.00     0.031 C 
ATOM     52  C   UNL A   1      43.481  26.671  30.800  1.00  0.00     0.029 A 
ATOM     53  N   UNL A   1      42.105  28.132  31.790  1.00  0.00    -0.354 N 
ATOM     54  C   UNL A   1      38.742  29.815  29.664  1.00  0.00     0.074 A 
ATOM     55  C   UNL A   1      38.679  29.302  28.312  1.00  0.00     0.031 C 
ATOM     56  C   UNL A   1      43.920  26.857  32.058  1.00  0.00     0.029 A 
ATOM     57  C   UNL A   1      43.070  27.845  32.722  1.00  0.00     0.049 A 
ATOM     58  H   UNL A   1      41.345  28.733  31.967  1.00  0.00     0.167 HD
ATOM     59  C   UNL A   1      37.840  30.674  30.196  1.00  0.00     0.037 A 
ATOM     60  C   UNL A   1      43.261  28.347  33.959  1.00  0.00     0.037 A 
ATOM     61  C   UNL A   1      37.909  31.190  31.538  1.00  0.00     0.049 A 
ATOM     62  C   UNL A   1      42.287  29.362  34.507  1.00  0.00     0.074 A 
ATOM     63  C   UNL A   1      37.040  32.058  32.175  1.00  0.00     0.029 A 
ATOM     64  N   UNL A   1      38.916  30.895  32.445  1.00  0.00    -0.354 N 
ATOM     65  N   UNL A   1      41.217  29.873  33.947  1.00  0.00    -0.248 NA
ATOM     66  C   UNL A   1      42.547  29.865  35.864  1.00  0.00     0.031 C 
ATOM     67  C   UNL A   1      37.555  32.336  33.446  1.00  0.00     0.029 A 
ATOM     68  C   UNL A   1      38.705  31.586  33.628  1.00  0.00     0.049 A 
ATOM     69  H   UNL A   1      39.670  30.285  32.274  1.00  0.00     0.167 HD
ATOM     70  C   UNL A   1      40.660  30.728  34.890  1.00  0.00     0.074 A 
ATOM     71  C   UNL A   1      41.504  30.656  36.065  1.00  0.00     0.031 C 
ATOM     72  C   UNL A   1      39.549  31.502  34.794  1.00  0.00     0.037 A 
BRANCH  59  73
ATOM     73  C   UNL A   1      36.718  31.135  29.307  1.00  0.00     0.064 A 
ATOM     74  C   UNL A   1      36.653  32.448  28.816  1.00  0.00     0.173 A 
ATOM     75  C   UNL A   1      35.701  30.245  28.932  1.00  0.00     0.173 A 
ATOM     76  F   UNL A   1      37.592  33.344  29.158  1.00  0.00    -0.203 F 
ATOM     77  C   UNL A   1      35.593  32.862  28.014  1.00  0.00     0.198 A 
ATOM     78  C   UNL A   1      34.662  30.652  28.099  1.00  0.00     0.198 A 
ATOM     79  F   UNL A   1      35.715  28.977  29.368  1.00  0.00    -0.203 F 
ATOM     80  F   UNL A   1      35.520  34.137  27.609  1.00  0.00    -0.200 F 
ATOM     81  C   UNL A   1      34.602  31.962  27.650  1.00  0.00     0.200 A 
ATOM     82  F   UNL A   1      33.714  29.777  27.736  1.00  0.00    -0.200 F 
ATOM     83  F   UNL A   1      33.584  32.362  26.874  1.00  0.00    -0.200 F 
ENDBRANCH  59  73
BRANCH  60  84
ATOM     84  C   UNL A   1      44.435  27.913  34.764  1.00  0.00     0.064 A 
ATOM     85  C   UNL A   1      45.647  28.616  34.722  1.00  0.00     0.173 A 
ATOM     86  C   UNL A   1      44.375  26.770  35.576  1.00  0.00     0.173 A 
ATOM     87  F   UNL A   1      45.765  29.699  33.938  1.00  0.00    -0.203 F 
ATOM     88  C   UNL A   1      46.758  28.183  35.445  1.00  0.00     0.198 A 
ATOM     89  C   UNL A   1      45.476  26.357  36.324  1.00  0.00     0.198 A 
ATOM     90  F   UNL A   1      43.242  26.056  35.650  1.00  0.00    -0.203 F 
ATOM     91  F   UNL A   1      47.918  28.845  35.344  1.00  0.00    -0.200 F 
ATOM     92  C   UNL A   1      46.669  27.059  36.251  1.00  0.00     0.200 A 
ATOM     93  F   UNL A   1      45.381  25.278  37.112  1.00  0.00    -0.200 F 
ATOM     94  F   UNL A   1      47.736  26.647  36.949  1.00  0.00    -0.200 F 
ENDBRANCH  60  84
BRANCH  72  95
ATOM     95  C   UNL A   1      39.151  32.300  36.006  1.00  0.00     0.064 A 
ATOM     96  C   UNL A   1      38.300  31.779  36.994  1.00  0.00     0.173 A 
ATOM     97  C   UNL A   1      39.656  33.596  36.198  1.00  0.00     0.173 A 
ATOM     98  F   UNL A   1      37.779  30.550  36.856  1.00  0.00    -0.203 F 
ATOM     99  C   UNL A   1      37.944  32.537  38.106  1.00  0.00     0.198 A 
ATOM    100  C   UNL A   1      39.328  34.336  37.330  1.00  0.00     0.198 A 
ATOM    101  F   UNL A   1      40.482  34.141  35.292  1.00  0.00    -0.203 F 
ATOM    102  F   UNL A   1      37.083  32.039  39.005  1.00  0.00    -0.200 F 
ATOM    103  C   UNL A   1      38.464  33.811  38.278  1.00  0.00     0.200 A 
ATOM    104  F   UNL A   1      39.847  35.559  37.503  1.00  0.00    -0.200 F 
ATOM    105  F   UNL A   1      38.125  34.536  39.353  1.00  0.00    -0.200 F 
ENDBRANCH  72  95
ENDBRANCH  46  47
ENDBRANCH  39  41
ENDBRANCH  38  39
ENDBRANCH  37  38
ENDBRANCH  36  37
ENDBRANCH  35  36
ENDBRANCH  34  35
ENDBRANCH   1  34
TORSDOF 22
ENDMDL
MODEL 2
REMARK VINA RESULT:     -11.4      5.005     10.487
REMARK SMILES [NH3+][C@H]1CN(C(=O)OCC2c3ccccc3-c3ccccc32)C[C@@H]1C(=O)OCCOCCOCCOC(=O)c1ccc(-c2c3nc(c(-c4c(F)c(F)c(F)c(F)c4F)c4ccc([nH]4)c(-c4c(F)c(F)c(F)c(F)c4F)c4nc(c(-c5c(F)c(F)c(F)c(F)c5F)c5ccc2[nH]5)C=C4)C=C3)cc1
REMARK SMILES IDX 30 1 29 2 28 3 27 4 26 5 24 6 25 7 23 8 2 9 3 10 4 11 22 12
REMARK SMILES IDX 1 13 5 17 6 18 7 19 8 20 9 21 10 22 21 23 11 24 15 25 16 26
REMARK SMILES IDX 20 27 12 28 14 29 17 30 19 31 13 32 18 33 31 34 32 35 33 36
REMARK SMILES IDX 34 37 35 38 36 39 37 40 38 41 39 42 100 43 40 44 99 45 41 46
REMARK SMILES IDX 42 47 43 48 93 49 44 50 98 51 92 52 94 53 45 54 97 55 91 56
REMARK SMILES IDX 90 57 46 59 78 60 58 61 77 62 59 63 62 64 76 65 95 66 60 67
REMARK SMILES IDX 61 68 75 70 96 71 63 72 47 73 48 74 56 75 49 76 50 77 54 78
REMARK SMILES IDX 57 79 51 80 52 81 55 82 53 83 79 84 80 85 88 86 81 87 82 88
REMARK SMILES IDX 86 89 89 90 83 91 84 92 87 93 85 94 64 95 65 96 73 97 66 98
REMARK SMILES IDX 67 99 71 100 74 101 68 102 69 103 72 104 70 105
REMARK H PARENT 1 14 1 15 1 16 94 58 62 69
REMARK Flexibility Score: inf
ROOT
ATOM      1  C   UNL A   1      34.597  31.102  27.652  1.00  0.00     0.188 C 
ENDROOT
BRANCH   1   2
ATOM      2  O   UNL A   1      33.385  30.365  27.551  1.00  0.00    -0.376 OA
BRANCH   2   3
ATOM      3  C   UNL A   1      32.665  30.360  26.319  1.00  0.00     0.202 C 
BRANCH   3   4
ATOM      4  C   UNL A   1      32.858  29.197  25.329  1.00  0.00     0.261 C 
BRANCH   4   5
ATOM      5  O   UNL A   1      31.678  28.865  24.580  1.00  0.00    -0.463 OA
BRANCH   5   6
ATOM      6  C   UNL A   1      31.841  28.397  23.319  1.00  0.00     0.316 C 
ATOM      7  O   UNL A   1      32.823  28.614  22.619  1.00  0.00    -0.252 OA
BRANCH   6   8
ATOM      8  C   UNL A   1      30.739  27.441  22.899  1.00  0.00     0.178 C 
ATOM      9  C   UNL A   1      30.315  26.565  24.090  1.00  0.00     0.216 C 
ATOM     10  C   UNL A   1      31.297  25.361  24.006  1.00  0.00     0.188 C 
ATOM     11  N   UNL A   1      31.769  25.361  22.634  1.00  0.00    -0.301 N 
ATOM     12  C   UNL A   1      31.147  26.402  21.871  1.00  0.00     0.145 C 
BRANCH   9  13
ATOM     13  N   UNL A   1      28.907  26.150  23.926  1.00  0.00    -0.353 N 
ATOM     14  H   UNL A   1      28.742  25.888  22.954  1.00  0.00     0.344 HD
ATOM     15  H   UNL A   1      28.293  26.923  24.178  1.00  0.00     0.344 HD
ATOM     16  H   UNL A   1      28.715  25.351  24.531  1.00  0.00     0.344 HD
ENDBRANCH   9  13
BRANCH  11  17
ATOM     17  C   UNL A   1      32.773  24.619  22.079  1.00  0.00     0.410 C 
ATOM     18  O   UNL A   1      33.205  24.820  20.947  1.00  0.00    -0.224 OA
BRANCH  17  19
ATOM     19  O   UNL A   1      33.158  23.587  22.868  1.00  0.00    -0.448 OA
BRANCH  19  20
ATOM     20  C   UNL A   1      32.350  22.410  22.696  1.00  0.00     0.248 C 
BRANCH  20  21
ATOM     21  C   UNL A   1      32.297  21.545  23.973  1.00  0.00     0.088 C 
ATOM     22  C   UNL A   1      32.763  20.094  23.821  1.00  0.00    -0.029 A 
ATOM     23  C   UNL A   1      33.303  22.070  24.997  1.00  0.00    -0.029 A 
ATOM     24  C   UNL A   1      32.170  19.051  23.122  1.00  0.00     0.005 A 
ATOM     25  C   UNL A   1      33.942  19.876  24.564  1.00  0.00    -0.014 A 
ATOM     26  C   UNL A   1      34.256  21.076  25.306  1.00  0.00    -0.014 A 
ATOM     27  C   UNL A   1      33.354  23.323  25.589  1.00  0.00     0.005 A 
ATOM     28  C   UNL A   1      32.823  17.817  23.079  1.00  0.00     0.000 A 
ATOM     29  C   UNL A   1      34.587  18.648  24.530  1.00  0.00     0.009 A 
ATOM     30  C   UNL A   1      35.259  21.323  26.228  1.00  0.00     0.009 A 
ATOM     31  C   UNL A   1      34.372  23.575  26.511  1.00  0.00     0.000 A 
ATOM     32  C   UNL A   1      34.030  17.621  23.763  1.00  0.00     0.001 A 
ATOM     33  C   UNL A   1      35.312  22.583  26.832  1.00  0.00     0.001 A 
ENDBRANCH  20  21
ENDBRANCH  19  20
ENDBRANCH  17  19
ENDBRANCH  11  17
ENDBRANCH   6   8
ENDBRANCH   5   6
ENDBRANCH   4   5
ENDBRANCH   3   4
ENDBRANCH   2   3
ENDBRANCH   1   2
BRANCH   1  34
ATOM     34  C   UNL A   1      34.552  32.601  27.978  1.00  0.00     0.188 C 
BRANCH  34  35
ATOM     35  O   UNL A   1      33.847  32.919  29.152  1.00  0.00    -0.376 OA
BRANCH  35  36
ATOM     36  C   UNL A   1      34.364  33.960  29.969  1.00  0.00     0.202 C 
BRANCH  36  37
ATOM     37  C   UNL A   1      34.514  33.747  31.493  1.00  0.00     0.261 C 
BRANCH  37  38
ATOM     38  O   UNL A   1      34.769  32.406  31.952  1.00  0.00    -0.460 OA
BRANCH  38  39
ATOM     39  C   UNL A   1      35.826  32.224  32.778  1.00  0.00     0.338 C 
ATOM     40  O   UNL A   1      35.880  32.467  33.970  1.00  0.00    -0.246 OA
BRANCH  39  41
ATOM     41  C   UNL A   1      36.849  31.434  32.046  1.00  0.00     0.060 A 
ATOM     42  C   UNL A   1      37.865  30.795  32.776  1.00  0.00     0.016 A 
ATOM     43  C   UNL A   1      36.811  31.326  30.655  1.00  0.00     0.016 A 
ATOM     44  C   UNL A   1      38.863  30.078  32.114  1.00  0.00     0.010 A 
ATOM     45  C   UNL A   1      37.829  30.631  29.992  1.00  0.00     0.010 A 
ATOM     46  C   UNL A   1      38.879  30.035  30.715  1.00  0.00    -0.014 A 
BRANCH  46  47
ATOM     47  C   UNL A   1      40.098  29.562  30.009  1.00  0.00     0.031 A 
ATOM     48  C   UNL A   1      41.229  30.535  29.813  1.00  0.00     0.074 A 
ATOM     49  C   UNL A   1      40.219  28.296  29.573  1.00  0.00     0.049 A 
ATOM     50  N   UNL A   1      42.365  30.382  29.182  1.00  0.00    -0.248 NA
ATOM     51  C   UNL A   1      41.046  31.870  30.407  1.00  0.00     0.031 C 
ATOM     52  C   UNL A   1      39.219  27.246  29.737  1.00  0.00     0.029 A 
ATOM     53  N   UNL A   1      41.241  27.686  28.886  1.00  0.00    -0.354 N 
ATOM     54  C   UNL A   1      43.026  31.599  29.297  1.00  0.00     0.074 A 
ATOM     55  C   UNL A   1      42.149  32.491  30.023  1.00  0.00     0.031 C 
ATOM     56  C   UNL A   1      39.666  26.123  29.148  1.00  0.00     0.029 A 
ATOM     57  C   UNL A   1      40.968  26.387  28.536  1.00  0.00     0.049 A 
ATOM     58  H   UNL A   1      42.087  28.139  28.664  1.00  0.00     0.167 HD
ATOM     59  C   UNL A   1      44.257  31.939  28.847  1.00  0.00     0.037 A 
ATOM     60  C   UNL A   1      41.678  25.522  27.784  1.00  0.00     0.037 A 
ATOM     61  C   UNL A   1      45.125  31.054  28.116  1.00  0.00     0.049 A 
ATOM     62  C   UNL A   1      43.015  25.947  27.225  1.00  0.00     0.074 A 
ATOM     63  C   UNL A   1      46.395  31.300  27.624  1.00  0.00     0.029 A 
ATOM     64  N   UNL A   1      44.804  29.751  27.760  1.00  0.00    -0.354 N 
ATOM     65  N   UNL A   1      43.645  27.090  27.357  1.00  0.00    -0.248 NA
ATOM     66  C   UNL A   1      43.742  24.956  26.419  1.00  0.00     0.031 C 
ATOM     67  C   UNL A   1      46.817  30.168  26.917  1.00  0.00     0.029 A 
ATOM     68  C   UNL A   1      45.841  29.191  27.030  1.00  0.00     0.049 A 
ATOM     69  H   UNL A   1      43.964  29.293  27.991  1.00  0.00     0.167 HD
ATOM     70  C   UNL A   1      44.850  26.945  26.680  1.00  0.00     0.074 A 
ATOM     71  C   UNL A   1      44.870  25.596  26.152  1.00  0.00     0.031 C 
ATOM     72  C   UNL A   1      45.852  27.845  26.513  1.00  0.00     0.037 A 
BRANCH  59  73
ATOM     73  C   UNL A   1      44.721  33.346  29.105  1.00  0.00     0.064 A 
ATOM     74  C   UNL A   1      45.393  33.701  30.285  1.00  0.00     0.173 A 
ATOM     75  C   UNL A   1      44.502  34.351  28.150  1.00  0.00     0.173 A 
ATOM     76  F   UNL A   1      45.614  32.783  31.238  1.00  0.00    -0.203 F 
ATOM     77  C   UNL A   1      45.793  35.015  30.515  1.00  0.00     0.198 A 
ATOM     78  C   UNL A   1      44.937  35.655  28.367  1.00  0.00     0.198 A 
ATOM     79  F   UNL A   1      43.869  34.067  27.001  1.00  0.00    -0.203 F 
ATOM     80  F   UNL A   1      46.377  35.341  31.676  1.00  0.00    -0.200 F 
ATOM     81  C   UNL A   1      45.572  35.989  29.553  1.00  0.00     0.200 A 
ATOM     82  F   UNL A   1      44.736  36.592  27.429  1.00  0.00    -0.200 F 
ATOM     83  F   UNL A   1      45.962  37.252  29.774  1.00  0.00    -0.200 F 
ENDBRANCH  59  73
BRANCH  60  84
ATOM     84  C   UNL A   1      41.132  24.169  27.495  1.00  0.00     0.064 A 
ATOM     85  C   UNL A   1      41.706  23.017  28.052  1.00  0.00     0.173 A 
ATOM     86  C   UNL A   1      40.036  23.997  26.636  1.00  0.00     0.173 A 
ATOM     87  F   UNL A   1      42.774  23.124  28.857  1.00  0.00    -0.203 F 
ATOM     88  C   UNL A   1      41.218  21.747  27.745  1.00  0.00     0.198 A 
ATOM     89  C   UNL A   1      39.528  22.730  26.356  1.00  0.00     0.198 A 
ATOM     90  F   UNL A   1      39.451  25.065  26.071  1.00  0.00    -0.203 F 
ATOM     91  F   UNL A   1      41.819  20.662  28.251  1.00  0.00    -0.200 F 
ATOM     92  C   UNL A   1      40.124  21.606  26.904  1.00  0.00     0.200 A 
ATOM     93  F   UNL A   1      38.464  22.599  25.554  1.00  0.00    -0.200 F 
ATOM     94  F   UNL A   1      39.653  20.385  26.616  1.00  0.00    -0.200 F 
ENDBRANCH  60  84
BRANCH  72  95
ATOM     95  C   UNL A   1      47.077  27.391  25.768  1.00  0.00     0.064 A 
ATOM     96  C   UNL A   1      47.226  27.591  24.387  1.00  0.00     0.173 A 
ATOM     97  C   UNL A   1      48.136  26.775  26.455  1.00  0.00     0.173 A 
ATOM     98  F   UNL A   1      46.241  28.164  23.678  1.00  0.00    -0.203 F 
ATOM     99  C   UNL A   1      48.369  27.160  23.718  1.00  0.00     0.198 A 
ATOM    100  C   UNL A   1      49.293  26.380  25.790  1.00  0.00     0.198 A 
ATOM    101  F   UNL A   1      48.054  26.567  27.778  1.00  0.00    -0.203 F 
ATOM    102  F   UNL A   1      48.461  27.309  22.389  1.00  0.00    -0.200 F 
ATOM    103  C   UNL A   1      49.405  26.563  24.421  1.00  0.00     0.200 A 
ATOM    104  F   UNL A   1      50.300  25.821  26.475  1.00  0.00    -0.200 F 
ATOM    105  F   UNL A   1      50.507  26.156  23.776  1.00  0.00    -0.200 F 
ENDBRANCH  72  95
ENDBRANCH  46  47
ENDBRANCH  39  41
ENDBRANCH  38  39
ENDBRANCH  37  38
ENDBRANCH  36  37
ENDBRANCH  35  36
ENDBRANCH  34  35
ENDBRANCH   1  34
TORSDOF 22
ENDMDL
MODEL 3
REMARK VINA RESULT:     -11.1      3.461      9.686
REMARK SMILES [NH3+][C@H]1CN(C(=O)OCC2c3ccccc3-c3ccccc32)C[C@@H]1C(=O)OCCOCCOCCOC(=O)c1ccc(-c2c3nc(c(-c4c(F)c(F)c(F)c(F)c4F)c4ccc([nH]4)c(-c4c(F)c(F)c(F)c(F)c4F)c4nc(c(-c5c(F)c(F)c(F)c(F)c5F)c5ccc2[nH]5)C=C4)C=C3)cc1
REMARK SMILES IDX 30 1 29 2 28 3 27 4 26 5 24 6 25 7 23 8 2 9 3 10 4 11 22 12
REMARK SMILES IDX 1 13 5 17 6 18 7 19 8 20 9 21 10 22 21 23 11 24 15 25 16 26
REMARK SMILES IDX 20 27 12 28 14 29 17 30 19 31 13 32 18 33 31 34 32 35 33 36
REMARK SMILES IDX 34 37 35 38 36 39 37 40 38 41 39 42 100 43 40 44 99 45 41 46
REMARK SMILES IDX 42 47 43 48 93 49 44 50 98 51 92 52 94 53 45 54 97 55 91 56
REMARK SMILES IDX 90 57 46 59 78 60 58 61 77 62 59 63 62 64 76 65 95 66 60 67
REMARK SMILES IDX 61 68 75 70 96 71 63 72 47 73 48 74 56 75 49 76 50 77 54 78
REMARK SMILES IDX 57 79 51 80 52 81 55 82 53 83 79 84 80 85 88 86 81 87 82 88
REMARK SMILES IDX 86 89 89 90 83 91 84 92 87 93 85 94 64 95 65 96 73 97 66 98
REMARK SMILES IDX 67 99 71 100 74 101 68 102 69 103 72 104 70 105
REMARK H PARENT 1 14 1 15 1 16 94 58 62 69
REMARK Flexibility Score: inf
ROOT
ATOM      1  C   UNL A   1      33.998  32.232  28.143  1.00  0.00     0.188 C 
ENDROOT
BRANCH   1   2
ATOM      2  O   UNL A   1      35.034  31.261  28.076  1.00  0.00    -0.376 OA
BRANCH   2   3
ATOM      3  C   UNL A   1      34.801  30.031  27.390  1.00  0.00     0.202 C 
BRANCH   3   4
ATOM      4  C   UNL A   1      33.380  29.682  26.912  1.00  0.00     0.261 C 
BRANCH   4   5
ATOM      5  O   UNL A   1      33.243  29.614  25.484  1.00  0.00    -0.463 OA
BRANCH   5   6
ATOM      6  C   UNL A   1      33.437  28.413  24.888  1.00  0.00     0.316 C 
ATOM      7  O   UNL A   1      33.894  27.424  25.449  1.00  0.00    -0.252 OA
BRANCH   6   8
ATOM      8  C   UNL A   1      32.889  28.361  23.473  1.00  0.00     0.178 C 
ATOM      9  C   UNL A   1      31.437  28.871  23.448  1.00  0.00     0.216 C 
ATOM     10  C   UNL A   1      30.612  27.585  23.740  1.00  0.00     0.188 C 
ATOM     11  N   UNL A   1      31.496  26.488  23.397  1.00  0.00    -0.301 N 
ATOM     12  C   UNL A   1      32.747  26.969  22.888  1.00  0.00     0.145 C 
BRANCH   9  13
ATOM     13  N   UNL A   1      31.133  29.441  22.121  1.00  0.00    -0.353 N 
ATOM     14  H   UNL A   1      31.502  28.826  21.395  1.00  0.00     0.344 HD
ATOM     15  H   UNL A   1      31.564  30.361  22.039  1.00  0.00     0.344 HD
ATOM     16  H   UNL A   1      30.122  29.528  22.011  1.00  0.00     0.344 HD
ENDBRANCH   9  13
BRANCH  11  17
ATOM     17  C   UNL A   1      31.325  25.152  23.626  1.00  0.00     0.410 C 
ATOM     18  O   UNL A   1      30.310  24.543  23.297  1.00  0.00    -0.224 OA
BRANCH  17  19
ATOM     19  O   UNL A   1      32.340  24.609  24.340  1.00  0.00    -0.448 OA
BRANCH  19  20
ATOM     20  C   UNL A   1      32.265  23.175  24.430  1.00  0.00     0.248 C 
BRANCH  20  21
ATOM     21  C   UNL A   1      33.456  22.482  23.737  1.00  0.00     0.088 C 
ATOM     22  C   UNL A   1      34.827  22.694  24.385  1.00  0.00    -0.029 A 
ATOM     23  C   UNL A   1      33.309  20.964  23.851  1.00  0.00    -0.029 A 
ATOM     24  C   UNL A   1      35.587  23.852  24.471  1.00  0.00     0.005 A 
ATOM     25  C   UNL A   1      35.321  21.477  24.901  1.00  0.00    -0.014 A 
ATOM     26  C   UNL A   1      34.406  20.415  24.548  1.00  0.00    -0.014 A 
ATOM     27  C   UNL A   1      32.286  20.160  23.373  1.00  0.00     0.005 A 
ATOM     28  C   UNL A   1      36.793  23.813  25.173  1.00  0.00     0.000 A 
ATOM     29  C   UNL A   1      36.523  21.433  25.591  1.00  0.00     0.009 A 
ATOM     30  C   UNL A   1      34.496  19.049  24.757  1.00  0.00     0.009 A 
ATOM     31  C   UNL A   1      32.372  18.784  23.592  1.00  0.00     0.000 A 
ATOM     32  C   UNL A   1      37.251  22.617  25.744  1.00  0.00     0.001 A 
ATOM     33  C   UNL A   1      33.470  18.233  24.273  1.00  0.00     0.001 A 
ENDBRANCH  20  21
ENDBRANCH  19  20
ENDBRANCH  17  19
ENDBRANCH  11  17
ENDBRANCH   6   8
ENDBRANCH   5   6
ENDBRANCH   4   5
ENDBRANCH   3   4
ENDBRANCH   2   3
ENDBRANCH   1   2
BRANCH   1  34
ATOM     34  C   UNL A   1      34.350  33.725  28.089  1.00  0.00     0.188 C 
BRANCH  34  35
ATOM     35  O   UNL A   1      33.992  34.449  29.239  1.00  0.00    -0.376 OA
BRANCH  35  36
ATOM     36  C   UNL A   1      32.999  35.456  29.103  1.00  0.00     0.202 C 
BRANCH  36  37
ATOM     37  C   UNL A   1      32.754  36.463  30.249  1.00  0.00     0.261 C 
BRANCH  37  38
ATOM     38  O   UNL A   1      32.188  35.951  31.471  1.00  0.00    -0.460 OA
BRANCH  38  39
ATOM     39  C   UNL A   1      32.889  36.151  32.611  1.00  0.00     0.338 C 
ATOM     40  O   UNL A   1      32.545  36.802  33.581  1.00  0.00    -0.246 OA
BRANCH  39  41
ATOM     41  C   UNL A   1      34.057  35.235  32.598  1.00  0.00     0.060 A 
ATOM     42  C   UNL A   1      33.882  33.905  33.016  1.00  0.00     0.016 A 
ATOM     43  C   UNL A   1      35.312  35.679  32.183  1.00  0.00     0.016 A 
ATOM     44  C   UNL A   1      34.968  33.029  33.053  1.00  0.00     0.010 A 
ATOM     45  C   UNL A   1      36.406  34.808  32.248  1.00  0.00     0.010 A 
ATOM     46  C   UNL A   1      36.247  33.490  32.718  1.00  0.00    -0.014 A 
BRANCH  46  47
ATOM     47  C   UNL A   1      37.436  32.671  33.064  1.00  0.00     0.031 A 
ATOM     48  C   UNL A   1      38.148  32.963  34.358  1.00  0.00     0.074 A 
ATOM     49  C   UNL A   1      37.868  31.675  32.271  1.00  0.00     0.049 A 
ATOM     50  N   UNL A   1      39.236  32.430  34.853  1.00  0.00    -0.248 NA
ATOM     51  C   UNL A   1      37.548  34.006  35.206  1.00  0.00     0.031 C 
ATOM     52  C   UNL A   1      37.246  31.263  31.017  1.00  0.00     0.029 A 
ATOM     53  N   UNL A   1      38.948  30.837  32.404  1.00  0.00    -0.354 N 
ATOM     54  C   UNL A   1      39.454  33.078  36.063  1.00  0.00     0.074 A 
ATOM     55  C   UNL A   1      38.409  34.068  36.209  1.00  0.00     0.031 C 
ATOM     56  C   UNL A   1      37.966  30.262  30.482  1.00  0.00     0.029 A 
ATOM     57  C   UNL A   1      39.119  29.988  31.340  1.00  0.00     0.049 A 
ATOM     58  H   UNL A   1      39.544  30.846  33.189  1.00  0.00     0.167 HD
ATOM     59  C   UNL A   1      40.431  32.861  36.975  1.00  0.00     0.037 A 
ATOM     60  C   UNL A   1      40.108  29.110  31.077  1.00  0.00     0.037 A 
ATOM     61  C   UNL A   1      41.476  31.882  36.825  1.00  0.00     0.049 A 
ATOM     62  C   UNL A   1      41.231  28.938  32.071  1.00  0.00     0.074 A 
ATOM     63  C   UNL A   1      42.507  31.578  37.696  1.00  0.00     0.029 A 
ATOM     64  N   UNL A   1      41.629  31.056  35.720  1.00  0.00    -0.354 N 
ATOM     65  N   UNL A   1      41.420  29.536  33.223  1.00  0.00    -0.248 NA
ATOM     66  C   UNL A   1      42.276  27.962  31.729  1.00  0.00     0.031 C 
ATOM     67  C   UNL A   1      43.320  30.612  37.091  1.00  0.00     0.029 A 
ATOM     68  C   UNL A   1      42.755  30.262  35.876  1.00  0.00     0.049 A 
ATOM     69  H   UNL A   1      41.027  31.037  34.941  1.00  0.00     0.167 HD
ATOM     70  C   UNL A   1      42.581  28.987  33.756  1.00  0.00     0.074 A 
ATOM     71  C   UNL A   1      43.045  27.997  32.806  1.00  0.00     0.031 C 
ATOM     72  C   UNL A   1      43.205  29.275  34.926  1.00  0.00     0.037 A 
BRANCH  59  73
ATOM     73  C   UNL A   1      40.433  33.727  38.204  1.00  0.00     0.064 A 
ATOM     74  C   UNL A   1      41.178  34.914  38.274  1.00  0.00     0.173 A 
ATOM     75  C   UNL A   1      39.666  33.369  39.324  1.00  0.00     0.173 A 
ATOM     76  F   UNL A   1      41.942  35.294  37.238  1.00  0.00    -0.203 F 
ATOM     77  C   UNL A   1      41.185  35.690  39.431  1.00  0.00     0.198 A 
ATOM     78  C   UNL A   1      39.646  34.167  40.465  1.00  0.00     0.198 A 
ATOM     79  F   UNL A   1      38.931  32.248  39.311  1.00  0.00    -0.203 F 
ATOM     80  F   UNL A   1      41.953  36.785  39.496  1.00  0.00    -0.200 F 
ATOM     81  C   UNL A   1      40.414  35.320  40.522  1.00  0.00     0.200 A 
ATOM     82  F   UNL A   1      38.887  33.815  41.512  1.00  0.00    -0.200 F 
ATOM     83  F   UNL A   1      40.418  36.070  41.633  1.00  0.00    -0.200 F 
ENDBRANCH  59  73
BRANCH  60  84
ATOM     84  C   UNL A   1      40.097  28.337  29.806  1.00  0.00     0.064 A 
ATOM     85  C   UNL A   1      39.463  27.089  29.717  1.00  0.00     0.173 A 
ATOM     86  C   UNL A   1      40.739  28.821  28.656  1.00  0.00     0.173 A 
ATOM     87  F   UNL A   1      38.859  26.568  30.796  1.00  0.00    -0.203 F 
ATOM     88  C   UNL A   1      39.490  26.348  28.537  1.00  0.00     0.198 A 
ATOM     89  C   UNL A   1      40.737  28.095  27.467  1.00  0.00     0.198 A 
ATOM     90  F   UNL A   1      41.365  30.007  28.686  1.00  0.00    -0.203 F 
ATOM     91  F   UNL A   1      38.921  25.136  28.497  1.00  0.00    -0.200 F 
ATOM     92  C   UNL A   1      40.120  26.856  27.410  1.00  0.00     0.200 A 
ATOM     93  F   UNL A   1      41.336  28.595  26.378  1.00  0.00    -0.200 F 
ATOM     94  F   UNL A   1      40.140  26.145  26.275  1.00  0.00    -0.200 F 
ENDBRANCH  60  84
BRANCH  72  95
ATOM     95  C   UNL A   1      44.434  28.479  35.273  1.00  0.00     0.064 A 
ATOM     96  C   UNL A   1      44.362  27.272  35.985  1.00  0.00     0.173 A 
ATOM     97  C   UNL A   1      45.701  28.915  34.855  1.00  0.00     0.173 A 
ATOM     98  F   UNL A   1      43.178  26.813  36.419  1.00  0.00    -0.203 F 
ATOM     99  C   UNL A   1      45.513  26.552  36.296  1.00  0.00     0.198 A 
ATOM    100  C   UNL A   1      46.846  28.174  35.135  1.00  0.00     0.198 A 
ATOM    101  F   UNL A   1      45.829  30.057  34.161  1.00  0.00    -0.203 F 
ATOM    102  F   UNL A   1      45.425  25.434  37.029  1.00  0.00    -0.200 F 
ATOM    103  C   UNL A   1      46.753  27.000  35.864  1.00  0.00     0.200 A 
ATOM    104  F   UNL A   1      48.040  28.599  34.699  1.00  0.00    -0.200 F 
ATOM    105  F   UNL A   1      47.859  26.302  36.158  1.00  0.00    -0.200 F 
ENDBRANCH  72  95
ENDBRANCH  46  47
ENDBRANCH  39  41
ENDBRANCH  38  39
ENDBRANCH  37  38
ENDBRANCH  36  37
ENDBRANCH  35  36
ENDBRANCH  34  35
ENDBRANCH   1  34
TORSDOF 22
ENDMDL
