MODEL 1
REMARK VINA RESULT:     -11.2      0.000      0.000
REMARK SMILES O=C(CCc1nc(-c2ccccc2)c(-c2ccccc2)o1)OCCOCCOCCOC(=O)c1ccc(-c2c3nc(c(-c4c(F)c(F)c(F)c(F)c4F)c4ccc([nH]4)c(-c4c(F)c(F)c(F)c(F)c4F)c4nc(c(-c5c(F)c(F)c(F)c(F)c5F)c5ccc2[nH]5)C=C4)C=C3)cc1
REMARK SMILES IDX 26 1 25 2 24 3 23 4 22 5 2 6 1 7 3 8 4 9 5 10 6 11 21 12
REMARK SMILES IDX 7 13 14 14 8 15 9 16 13 17 10 18 12 19 11 20 15 21 16 22
REMARK SMILES IDX 20 23 17 24 19 25 18 26 27 27 28 28 29 29 30 30 31 31 32 32
REMARK SMILES IDX 33 33 34 34 35 35 96 36 36 37 95 38 37 39 38 40 39 41 89 42
REMARK SMILES IDX 40 43 94 44 88 45 90 46 41 47 93 48 87 49 86 50 42 52 74 53
REMARK SMILES IDX 54 54 73 55 55 56 58 57 72 58 91 59 56 60 57 61 71 63 92 64
REMARK SMILES IDX 59 65 43 66 44 67 52 68 45 69 46 70 50 71 53 72 47 73 48 74
REMARK SMILES IDX 51 75 49 76 75 77 76 78 84 79 77 80 78 81 82 82 85 83 79 84
REMARK SMILES IDX 80 85 83 86 81 87 60 88 61 89 69 90 62 91 63 92 67 93 70 94
REMARK SMILES IDX 64 95 65 96 68 97 66 98
REMARK H PARENT 90 51 58 62
REMARK Flexibility Score: inf
ROOT
ATOM      1  C   UNL A   1      31.429  24.867  26.500  1.00  0.00     0.188 C 
ENDROOT
BRANCH   1   2
ATOM      2  O   UNL A   1      30.565  23.979  27.197  1.00  0.00    -0.376 OA
BRANCH   2   3
ATOM      3  C   UNL A   1      30.412  22.671  26.645  1.00  0.00     0.202 C 
BRANCH   3   4
ATOM      4  C   UNL A   1      31.609  22.108  25.874  1.00  0.00     0.261 C 
BRANCH   4   5
ATOM      5  O   UNL A   1      31.473  20.835  25.199  1.00  0.00    -0.463 OA
BRANCH   5   6
ATOM      6  C   UNL A   1      32.362  20.084  24.534  1.00  0.00     0.306 C 
ATOM      7  O   UNL A   1      33.289  19.564  25.154  1.00  0.00    -0.252 OA
BRANCH   6   8
ATOM      8  C   UNL A   1      32.280  19.917  23.047  1.00  0.00     0.132 C 
BRANCH   8   9
ATOM      9  C   UNL A   1      31.896  21.194  22.322  1.00  0.00     0.109 C 
BRANCH   9  10
ATOM     10  C   UNL A   1      32.732  22.387  22.633  1.00  0.00     0.196 A 
ATOM     11  N   UNL A   1      32.414  23.655  22.467  1.00  0.00    -0.213 NA
ATOM     12  O   UNL A   1      33.975  22.185  23.173  1.00  0.00    -0.440 OA
ATOM     13  C   UNL A   1      33.497  24.331  22.974  1.00  0.00     0.117 A 
ATOM     14  C   UNL A   1      34.421  23.443  23.481  1.00  0.00     0.162 A 
BRANCH  13  15
ATOM     15  C   UNL A   1      33.592  25.766  23.085  1.00  0.00     0.004 A 
ATOM     16  C   UNL A   1      33.468  26.569  21.941  1.00  0.00     0.010 A 
ATOM     17  C   UNL A   1      33.875  26.353  24.320  1.00  0.00     0.010 A 
ATOM     18  C   UNL A   1      33.650  27.947  22.031  1.00  0.00     0.001 A 
ATOM     19  C   UNL A   1      34.064  27.732  24.405  1.00  0.00     0.001 A 
ATOM     20  C   UNL A   1      33.954  28.526  23.262  1.00  0.00     0.000 A 
ENDBRANCH  13  15
BRANCH  14  21
ATOM     21  C   UNL A   1      35.555  23.556  24.392  1.00  0.00     0.020 A 
ATOM     22  C   UNL A   1      36.880  23.408  23.976  1.00  0.00     0.012 A 
ATOM     23  C   UNL A   1      35.298  23.799  25.755  1.00  0.00     0.012 A 
ATOM     24  C   UNL A   1      37.925  23.526  24.903  1.00  0.00     0.001 A 
ATOM     25  C   UNL A   1      36.337  23.904  26.679  1.00  0.00     0.001 A 
ATOM     26  C   UNL A   1      37.654  23.774  26.250  1.00  0.00     0.000 A 
ENDBRANCH  14  21
ENDBRANCH   9  10
ENDBRANCH   8   9
ENDBRANCH   6   8
ENDBRANCH   5   6
ENDBRANCH   4   5
ENDBRANCH   3   4
ENDBRANCH   2   3
ENDBRANCH   1   2
BRANCH   1  27
ATOM     27  C   UNL A   1      30.871  26.253  26.161  1.00  0.00     0.188 C 
BRANCH  27  28
ATOM     28  O   UNL A   1      30.857  27.147  27.269  1.00  0.00    -0.376 OA
BRANCH  28  29
ATOM     29  C   UNL A   1      31.987  28.019  27.323  1.00  0.00     0.202 C 
BRANCH  29  30
ATOM     30  C   UNL A   1      31.720  29.482  26.918  1.00  0.00     0.261 C 
BRANCH  30  31
ATOM     31  O   UNL A   1      32.836  30.213  26.378  1.00  0.00    -0.460 OA
BRANCH  31  32
ATOM     32  C   UNL A   1      33.269  31.279  27.076  1.00  0.00     0.338 C 
ATOM     33  O   UNL A   1      32.634  32.293  27.338  1.00  0.00    -0.246 OA
BRANCH  32  34
ATOM     34  C   UNL A   1      34.619  30.997  27.605  1.00  0.00     0.060 A 
ATOM     35  C   UNL A   1      35.028  29.666  27.739  1.00  0.00     0.016 A 
ATOM     36  C   UNL A   1      35.450  32.035  28.041  1.00  0.00     0.016 A 
ATOM     37  C   UNL A   1      36.261  29.365  28.322  1.00  0.00     0.010 A 
ATOM     38  C   UNL A   1      36.671  31.732  28.657  1.00  0.00     0.010 A 
ATOM     39  C   UNL A   1      37.068  30.394  28.829  1.00  0.00    -0.014 A 
BRANCH  39  40
ATOM     40  C   UNL A   1      38.189  30.047  29.742  1.00  0.00     0.031 A 
ATOM     41  C   UNL A   1      39.234  29.085  29.245  1.00  0.00     0.074 A 
ATOM     42  C   UNL A   1      38.313  30.599  30.962  1.00  0.00     0.049 A 
ATOM     43  N   UNL A   1      40.324  28.658  29.831  1.00  0.00    -0.248 NA
ATOM     44  C   UNL A   1      39.021  28.536  27.896  1.00  0.00     0.031 C 
ATOM     45  C   UNL A   1      37.398  31.574  31.549  1.00  0.00     0.029 A 
ATOM     46  N   UNL A   1      39.275  30.414  31.927  1.00  0.00    -0.354 N 
ATOM     47  C   UNL A   1      40.928  27.801  28.919  1.00  0.00     0.074 A 
ATOM     48  C   UNL A   1      40.069  27.740  27.758  1.00  0.00     0.031 C 
ATOM     49  C   UNL A   1      37.841  31.900  32.777  1.00  0.00     0.029 A 
ATOM     50  C   UNL A   1      39.058  31.142  33.071  1.00  0.00     0.049 A 
ATOM     51  H   UNL A   1      40.047  29.815  31.809  1.00  0.00     0.167 HD
ATOM     52  C   UNL A   1      42.100  27.131  29.033  1.00  0.00     0.037 A 
ATOM     53  C   UNL A   1      39.758  31.182  34.222  1.00  0.00     0.037 A 
ATOM     54  C   UNL A   1      42.949  27.169  30.195  1.00  0.00     0.049 A 
ATOM     55  C   UNL A   1      41.013  30.352  34.361  1.00  0.00     0.074 A 
ATOM     56  C   UNL A   1      44.158  26.531  30.402  1.00  0.00     0.029 A 
ATOM     57  N   UNL A   1      42.665  27.877  31.354  1.00  0.00    -0.354 N 
ATOM     58  N   UNL A   1      41.600  29.579  33.480  1.00  0.00    -0.248 NA
ATOM     59  C   UNL A   1      41.704  30.409  35.658  1.00  0.00     0.031 C 
ATOM     60  C   UNL A   1      44.580  26.807  31.707  1.00  0.00     0.029 A 
ATOM     61  C   UNL A   1      43.663  27.666  32.292  1.00  0.00     0.049 A 
ATOM     62  H   UNL A   1      41.873  28.445  31.490  1.00  0.00     0.167 HD
ATOM     63  C   UNL A   1      42.745  29.091  34.099  1.00  0.00     0.074 A 
ATOM     64  C   UNL A   1      42.774  29.661  35.429  1.00  0.00     0.031 C 
ATOM     65  C   UNL A   1      43.689  28.249  33.608  1.00  0.00     0.037 A 
BRANCH  52  66
ATOM     66  C   UNL A   1      42.510  26.268  27.877  1.00  0.00     0.064 A 
ATOM     67  C   UNL A   1      43.376  26.737  26.878  1.00  0.00     0.173 A 
ATOM     68  C   UNL A   1      42.038  24.951  27.771  1.00  0.00     0.173 A 
ATOM     69  F   UNL A   1      43.841  27.995  26.924  1.00  0.00    -0.203 F 
ATOM     70  C   UNL A   1      43.729  25.930  25.799  1.00  0.00     0.198 A 
ATOM     71  C   UNL A   1      42.416  24.138  26.708  1.00  0.00     0.198 A 
ATOM     72  F   UNL A   1      41.208  24.454  28.701  1.00  0.00    -0.203 F 
ATOM     73  F   UNL A   1      44.513  26.417  24.828  1.00  0.00    -0.200 F 
ATOM     74  C   UNL A   1      43.254  24.630  25.718  1.00  0.00     0.200 A 
ATOM     75  F   UNL A   1      41.963  22.878  26.635  1.00  0.00    -0.200 F 
ATOM     76  F   UNL A   1      43.595  23.854  24.680  1.00  0.00    -0.200 F 
ENDBRANCH  52  66
BRANCH  53  77
ATOM     77  C   UNL A   1      39.299  32.037  35.349  1.00  0.00     0.064 A 
ATOM     78  C   UNL A   1      39.686  33.382  35.441  1.00  0.00     0.173 A 
ATOM     79  C   UNL A   1      38.503  31.517  36.380  1.00  0.00     0.173 A 
ATOM     80  F   UNL A   1      40.476  33.916  34.498  1.00  0.00    -0.203 F 
ATOM     81  C   UNL A   1      39.310  34.168  36.529  1.00  0.00     0.198 A 
ATOM     82  C   UNL A   1      38.104  32.311  37.453  1.00  0.00     0.198 A 
ATOM     83  F   UNL A   1      38.114  30.234  36.346  1.00  0.00    -0.203 F 
ATOM     84  F   UNL A   1      39.739  35.434  36.619  1.00  0.00    -0.200 F 
ATOM     85  C   UNL A   1      38.515  33.633  37.532  1.00  0.00     0.200 A 
ATOM     86  F   UNL A   1      37.331  31.791  38.417  1.00  0.00    -0.200 F 
ATOM     87  F   UNL A   1      38.157  34.388  38.581  1.00  0.00    -0.200 F 
ENDBRANCH  53  77
BRANCH  65  88
ATOM     88  C   UNL A   1      44.862  27.929  34.493  1.00  0.00     0.064 A 
ATOM     89  C   UNL A   1      44.866  26.813  35.342  1.00  0.00     0.173 A 
ATOM     90  C   UNL A   1      46.014  28.730  34.457  1.00  0.00     0.173 A 
ATOM     91  F   UNL A   1      43.786  26.022  35.423  1.00  0.00    -0.203 F 
ATOM     92  C   UNL A   1      45.969  26.528  36.144  1.00  0.00     0.198 A 
ATOM     93  C   UNL A   1      47.126  28.424  35.236  1.00  0.00     0.198 A 
ATOM     94  F   UNL A   1      46.067  29.804  33.655  1.00  0.00    -0.203 F 
ATOM     95  F   UNL A   1      45.931  25.485  36.985  1.00  0.00    -0.200 F 
ATOM     96  C   UNL A   1      47.100  27.329  36.086  1.00  0.00     0.200 A 
ATOM     97  F   UNL A   1      48.224  29.191  35.166  1.00  0.00    -0.200 F 
ATOM     98  F   UNL A   1      48.162  27.048  36.854  1.00  0.00    -0.200 F 
ENDBRANCH  65  88
ENDBRANCH  39  40
ENDBRANCH  32  34
ENDBRANCH  31  32
ENDBRANCH  30  31
ENDBRANCH  29  30
ENDBRANCH  28  29
ENDBRANCH  27  28
ENDBRANCH   1  27
TORSDOF 21
ENDMDL
MODEL 2
REMARK VINA RESULT:     -10.8      0.637      7.232
REMARK SMILES O=C(CCc1nc(-c2ccccc2)c(-c2ccccc2)o1)OCCOCCOCCOC(=O)c1ccc(-c2c3nc(c(-c4c(F)c(F)c(F)c(F)c4F)c4ccc([nH]4)c(-c4c(F)c(F)c(F)c(F)c4F)c4nc(c(-c5c(F)c(F)c(F)c(F)c5F)c5ccc2[nH]5)C=C4)C=C3)cc1
REMARK SMILES IDX 26 1 25 2 24 3 23 4 22 5 2 6 1 7 3 8 4 9 5 10 6 11 21 12
REMARK SMILES IDX 7 13 14 14 8 15 9 16 13 17 10 18 12 19 11 20 15 21 16 22
REMARK SMILES IDX 20 23 17 24 19 25 18 26 27 27 28 28 29 29 30 30 31 31 32 32
REMARK SMILES IDX 33 33 34 34 35 35 96 36 36 37 95 38 37 39 38 40 39 41 89 42
REMARK SMILES IDX 40 43 94 44 88 45 90 46 41 47 93 48 87 49 86 50 42 52 74 53
REMARK SMILES IDX 54 54 73 55 55 56 58 57 72 58 91 59 56 60 57 61 71 63 92 64
REMARK SMILES IDX 59 65 43 66 44 67 52 68 45 69 46 70 50 71 53 72 47 73 48 74
REMARK SMILES IDX 51 75 49 76 75 77 76 78 84 79 77 80 78 81 82 82 85 83 79 84
REMARK SMILES IDX 80 85 83 86 81 87 60 88 61 89 69 90 62 91 63 92 67 93 70 94
REMARK SMILES IDX 64 95 65 96 68 97 66 98
REMARK H PARENT 90 51 58 62
REMARK Flexibility Score: inf
ROOT
ATOM      1  C   UNL A   1      31.470  25.138  26.470  1.00  0.00     0.188 C 
ENDROOT
BRANCH   1   2
ATOM      2  O   UNL A   1      30.803  24.123  27.208  1.00  0.00    -0.376 OA
BRANCH   2   3
ATOM      3  C   UNL A   1      30.548  22.897  26.522  1.00  0.00     0.202 C 
BRANCH   3   4
ATOM      4  C   UNL A   1      31.772  22.120  26.029  1.00  0.00     0.261 C 
BRANCH   4   5
ATOM      5  O   UNL A   1      31.572  20.913  25.256  1.00  0.00    -0.463 OA
BRANCH   5   6
ATOM      6  C   UNL A   1      32.419  20.181  24.519  1.00  0.00     0.306 C 
ATOM      7  O   UNL A   1      33.419  19.703  25.055  1.00  0.00    -0.252 OA
BRANCH   6   8
ATOM      8  C   UNL A   1      32.202  19.986  23.049  1.00  0.00     0.132 C 
BRANCH   8   9
ATOM      9  C   UNL A   1      31.843  21.269  22.321  1.00  0.00     0.109 C 
BRANCH   9  10
ATOM     10  C   UNL A   1      32.713  22.441  22.618  1.00  0.00     0.196 A 
ATOM     11  N   UNL A   1      32.435  23.715  22.430  1.00  0.00    -0.213 NA
ATOM     12  O   UNL A   1      33.947  22.211  23.168  1.00  0.00    -0.440 OA
ATOM     13  C   UNL A   1      33.535  24.367  22.931  1.00  0.00     0.117 A 
ATOM     14  C   UNL A   1      34.429  23.460  23.458  1.00  0.00     0.162 A 
BRANCH  13  15
ATOM     15  C   UNL A   1      33.672  25.800  23.019  1.00  0.00     0.004 A 
ATOM     16  C   UNL A   1      33.941  26.406  24.255  1.00  0.00     0.010 A 
ATOM     17  C   UNL A   1      33.468  26.591  21.886  1.00  0.00     0.010 A 
ATOM     18  C   UNL A   1      33.984  27.794  24.359  1.00  0.00     0.001 A 
ATOM     19  C   UNL A   1      33.504  27.981  21.996  1.00  0.00     0.001 A 
ATOM     20  C   UNL A   1      33.759  28.580  23.231  1.00  0.00     0.000 A 
ENDBRANCH  13  15
BRANCH  14  21
ATOM     21  C   UNL A   1      35.561  23.555  24.374  1.00  0.00     0.020 A 
ATOM     22  C   UNL A   1      36.882  23.338  23.972  1.00  0.00     0.012 A 
ATOM     23  C   UNL A   1      35.306  23.851  25.726  1.00  0.00     0.012 A 
ATOM     24  C   UNL A   1      37.924  23.441  24.902  1.00  0.00     0.001 A 
ATOM     25  C   UNL A   1      36.343  23.941  26.654  1.00  0.00     0.001 A 
ATOM     26  C   UNL A   1      37.656  23.743  26.239  1.00  0.00     0.000 A 
ENDBRANCH  14  21
ENDBRANCH   9  10
ENDBRANCH   8   9
ENDBRANCH   6   8
ENDBRANCH   5   6
ENDBRANCH   4   5
ENDBRANCH   3   4
ENDBRANCH   2   3
ENDBRANCH   1   2
BRANCH   1  27
ATOM     27  C   UNL A   1      31.033  26.584  26.728  1.00  0.00     0.188 C 
BRANCH  27  28
ATOM     28  O   UNL A   1      32.121  27.477  26.940  1.00  0.00    -0.376 OA
BRANCH  28  29
ATOM     29  C   UNL A   1      31.768  28.657  27.664  1.00  0.00     0.202 C 
BRANCH  29  30
ATOM     30  C   UNL A   1      31.858  29.977  26.871  1.00  0.00     0.261 C 
BRANCH  30  31
ATOM     31  O   UNL A   1      33.181  30.447  26.554  1.00  0.00    -0.460 OA
BRANCH  31  32
ATOM     32  C   UNL A   1      33.705  31.394  27.353  1.00  0.00     0.338 C 
ATOM     33  O   UNL A   1      33.129  32.376  27.803  1.00  0.00    -0.246 OA
BRANCH  32  34
ATOM     34  C   UNL A   1      35.081  31.008  27.726  1.00  0.00     0.060 A 
ATOM     35  C   UNL A   1      35.415  29.650  27.766  1.00  0.00     0.016 A 
ATOM     36  C   UNL A   1      36.018  31.973  28.110  1.00  0.00     0.016 A 
ATOM     37  C   UNL A   1      36.680  29.250  28.203  1.00  0.00     0.010 A 
ATOM     38  C   UNL A   1      37.274  31.570  28.581  1.00  0.00     0.010 A 
ATOM     39  C   UNL A   1      37.599  30.205  28.661  1.00  0.00    -0.014 A 
BRANCH  39  40
ATOM     40  C   UNL A   1      38.783  29.751  29.436  1.00  0.00     0.031 A 
ATOM     41  C   UNL A   1      38.980  30.310  30.820  1.00  0.00     0.074 A 
ATOM     42  C   UNL A   1      39.642  28.833  28.958  1.00  0.00     0.049 A 
ATOM     43  N   UNL A   1      39.905  30.044  31.707  1.00  0.00    -0.248 NA
ATOM     44  C   UNL A   1      37.989  31.304  31.264  1.00  0.00     0.031 C 
ATOM     45  C   UNL A   1      39.546  28.180  27.656  1.00  0.00     0.029 A 
ATOM     46  N   UNL A   1      40.769  28.289  29.527  1.00  0.00    -0.354 N 
ATOM     47  C   UNL A   1      39.600  30.828  32.813  1.00  0.00     0.074 A 
ATOM     48  C   UNL A   1      38.429  31.604  32.475  1.00  0.00     0.031 C 
ATOM     49  C   UNL A   1      40.576  27.324  27.522  1.00  0.00     0.029 A 
ATOM     50  C   UNL A   1      41.413  27.384  28.720  1.00  0.00     0.049 A 
ATOM     51  H   UNL A   1      41.084  28.526  30.429  1.00  0.00     0.167 HD
ATOM     52  C   UNL A   1      40.234  30.889  34.009  1.00  0.00     0.037 A 
ATOM     53  C   UNL A   1      42.553  26.692  28.927  1.00  0.00     0.037 A 
ATOM     54  C   UNL A   1      41.413  30.135  34.344  1.00  0.00     0.049 A 
ATOM     55  C   UNL A   1      43.293  26.848  30.234  1.00  0.00     0.074 A 
ATOM     56  C   UNL A   1      42.122  30.124  35.531  1.00  0.00     0.029 A 
ATOM     57  N   UNL A   1      42.066  29.270  33.479  1.00  0.00    -0.354 N 
ATOM     58  N   UNL A   1      42.976  27.557  31.290  1.00  0.00    -0.248 NA
ATOM     59  C   UNL A   1      44.551  26.099  30.375  1.00  0.00     0.031 C 
ATOM     60  C   UNL A   1      43.236  29.294  35.367  1.00  0.00     0.029 A 
ATOM     61  C   UNL A   1      43.188  28.742  34.097  1.00  0.00     0.049 A 
ATOM     62  H   UNL A   1      41.775  29.061  32.562  1.00  0.00     0.167 HD
ATOM     63  C   UNL A   1      43.968  27.309  32.232  1.00  0.00     0.074 A 
ATOM     64  C   UNL A   1      44.895  26.379  31.625  1.00  0.00     0.031 C 
ATOM     65  C   UNL A   1      44.097  27.806  33.487  1.00  0.00     0.037 A 
BRANCH  52  66
ATOM     66  C   UNL A   1      39.677  31.835  35.031  1.00  0.00     0.064 A 
ATOM     67  C   UNL A   1      38.775  31.407  36.018  1.00  0.00     0.173 A 
ATOM     68  C   UNL A   1      40.055  33.186  35.028  1.00  0.00     0.173 A 
ATOM     69  F   UNL A   1      38.369  30.129  36.052  1.00  0.00    -0.203 F 
ATOM     70  C   UNL A   1      38.250  32.305  36.945  1.00  0.00     0.198 A 
ATOM     71  C   UNL A   1      39.551  34.073  35.974  1.00  0.00     0.198 A 
ATOM     72  F   UNL A   1      40.914  33.646  34.105  1.00  0.00    -0.203 F 
ATOM     73  F   UNL A   1      37.350  31.886  37.844  1.00  0.00    -0.200 F 
ATOM     74  C   UNL A   1      38.643  33.634  36.926  1.00  0.00     0.200 A 
ATOM     75  F   UNL A   1      39.938  35.356  35.960  1.00  0.00    -0.200 F 
ATOM     76  F   UNL A   1      38.138  34.496  37.819  1.00  0.00    -0.200 F 
ENDBRANCH  52  66
BRANCH  53  77
ATOM     77  C   UNL A   1      43.077  25.782  27.874  1.00  0.00     0.064 A 
ATOM     78  C   UNL A   1      42.708  24.430  27.838  1.00  0.00     0.173 A 
ATOM     79  C   UNL A   1      43.992  26.233  26.911  1.00  0.00     0.173 A 
ATOM     80  F   UNL A   1      41.863  23.942  28.758  1.00  0.00    -0.203 F 
ATOM     81  C   UNL A   1      43.248  23.559  26.891  1.00  0.00     0.198 A 
ATOM     82  C   UNL A   1      44.510  25.369  25.949  1.00  0.00     0.198 A 
ATOM     83  F   UNL A   1      44.386  27.515  26.909  1.00  0.00    -0.203 F 
ATOM     84  F   UNL A   1      42.920  22.261  26.914  1.00  0.00    -0.200 F 
ATOM     85  C   UNL A   1      44.145  24.031  25.944  1.00  0.00     0.200 A 
ATOM     86  F   UNL A   1      45.371  25.831  25.031  1.00  0.00    -0.200 F 
ATOM     87  F   UNL A   1      44.667  23.194  25.037  1.00  0.00    -0.200 F 
ENDBRANCH  53  77
BRANCH  65  88
ATOM     88  C   UNL A   1      45.256  27.317  34.312  1.00  0.00     0.064 A 
ATOM     89  C   UNL A   1      46.474  28.010  34.361  1.00  0.00     0.173 A 
ATOM     90  C   UNL A   1      45.128  26.160  35.097  1.00  0.00     0.173 A 
ATOM     91  F   UNL A   1      46.652  29.115  33.623  1.00  0.00    -0.203 F 
ATOM     92  C   UNL A   1      47.530  27.547  35.142  1.00  0.00     0.198 A 
ATOM     93  C   UNL A   1      46.175  25.717  35.900  1.00  0.00     0.198 A 
ATOM     94  F   UNL A   1      43.980  25.464  35.094  1.00  0.00    -0.203 F 
ATOM     95  F   UNL A   1      48.702  28.197  35.134  1.00  0.00    -0.200 F 
ATOM     96  C   UNL A   1      47.378  26.405  35.915  1.00  0.00     0.200 A 
ATOM     97  F   UNL A   1      46.019  24.623  36.658  1.00  0.00    -0.200 F 
ATOM     98  F   UNL A   1      48.394  25.965  36.671  1.00  0.00    -0.200 F 
ENDBRANCH  65  88
ENDBRANCH  39  40
ENDBRANCH  32  34
ENDBRANCH  31  32
ENDBRANCH  30  31
ENDBRANCH  29  30
ENDBRANCH  28  29
ENDBRANCH  27  28
ENDBRANCH   1  27
TORSDOF 21
ENDMDL
MODEL 3
REMARK VINA RESULT:     -10.6      5.596     10.006
REMARK SMILES O=C(CCc1nc(-c2ccccc2)c(-c2ccccc2)o1)OCCOCCOCCOC(=O)c1ccc(-c2c3nc(c(-c4c(F)c(F)c(F)c(F)c4F)c4ccc([nH]4)c(-c4c(F)c(F)c(F)c(F)c4F)c4nc(c(-c5c(F)c(F)c(F)c(F)c5F)c5ccc2[nH]5)C=C4)C=C3)cc1
REMARK SMILES IDX 26 1 25 2 24 3 23 4 22 5 2 6 1 7 3 8 4 9 5 10 6 11 21 12
REMARK SMILES IDX 7 13 14 14 8 15 9 16 13 17 10 18 12 19 11 20 15 21 16 22
REMARK SMILES IDX 20 23 17 24 19 25 18 26 27 27 28 28 29 29 30 30 31 31 32 32
REMARK SMILES IDX 33 33 34 34 35 35 96 36 36 37 95 38 37 39 38 40 39 41 89 42
REMARK SMILES IDX 40 43 94 44 88 45 90 46 41 47 93 48 87 49 86 50 42 52 74 53
REMARK SMILES IDX 54 54 73 55 55 56 58 57 72 58 91 59 56 60 57 61 71 63 92 64
REMARK SMILES IDX 59 65 43 66 44 67 52 68 45 69 46 70 50 71 53 72 47 73 48 74
REMARK SMILES IDX 51 75 49 76 75 77 76 78 84 79 77 80 78 81 82 82 85 83 79 84
REMARK SMILES IDX 80 85 83 86 81 87 60 88 61 89 69 90 62 91 63 92 67 93 70 94
REMARK SMILES IDX 64 95 65 96 68 97 66 98
REMARK H PARENT 90 51 58 62
REMARK Flexibility Score: inf
ROOT
ATOM      1  C   UNL A   1      41.845  21.855  26.180  1.00  0.00     0.188 C 
ENDROOT
BRANCH   1   2
ATOM      2  O   UNL A   1      41.387  22.012  27.517  1.00  0.00    -0.376 OA
BRANCH   2   3
ATOM      3  C   UNL A   1      42.024  23.023  28.297  1.00  0.00     0.202 C 
BRANCH   3   4
ATOM      4  C   UNL A   1      42.299  24.357  27.597  1.00  0.00     0.261 C 
BRANCH   4   5
ATOM      5  O   UNL A   1      41.192  25.251  27.331  1.00  0.00    -0.463 OA
BRANCH   5   6
ATOM      6  C   UNL A   1      40.321  25.852  28.153  1.00  0.00     0.306 C 
ATOM      7  O   UNL A   1      39.278  25.269  28.452  1.00  0.00    -0.252 OA
BRANCH   6   8
ATOM      8  C   UNL A   1      40.565  27.239  28.665  1.00  0.00     0.132 C 
BRANCH   8   9
ATOM      9  C   UNL A   1      40.209  27.407  30.131  1.00  0.00     0.109 C 
BRANCH   9  10
ATOM     10  C   UNL A   1      39.939  28.804  30.571  1.00  0.00     0.196 A 
ATOM     11  N   UNL A   1      39.754  29.864  29.810  1.00  0.00    -0.213 NA
ATOM     12  O   UNL A   1      39.845  29.055  31.915  1.00  0.00    -0.440 OA
ATOM     13  C   UNL A   1      39.475  30.865  30.708  1.00  0.00     0.117 A 
ATOM     14  C   UNL A   1      39.448  30.364  31.992  1.00  0.00     0.162 A 
BRANCH  13  15
ATOM     15  C   UNL A   1      39.124  32.217  30.349  1.00  0.00     0.004 A 
ATOM     16  C   UNL A   1      38.015  32.460  29.525  1.00  0.00     0.010 A 
ATOM     17  C   UNL A   1      39.928  33.281  30.764  1.00  0.00     0.010 A 
ATOM     18  C   UNL A   1      37.727  33.755  29.102  1.00  0.00     0.001 A 
ATOM     19  C   UNL A   1      39.642  34.576  30.332  1.00  0.00     0.001 A 
ATOM     20  C   UNL A   1      38.545  34.811  29.501  1.00  0.00     0.000 A 
ENDBRANCH  13  15
BRANCH  14  21
ATOM     21  C   UNL A   1      38.914  30.837  33.264  1.00  0.00     0.020 A 
ATOM     22  C   UNL A   1      39.463  30.478  34.498  1.00  0.00     0.012 A 
ATOM     23  C   UNL A   1      37.781  31.672  33.246  1.00  0.00     0.012 A 
ATOM     24  C   UNL A   1      38.900  30.965  35.685  1.00  0.00     0.001 A 
ATOM     25  C   UNL A   1      37.214  32.147  34.428  1.00  0.00     0.001 A 
ATOM     26  C   UNL A   1      37.779  31.798  35.650  1.00  0.00     0.000 A 
ENDBRANCH  14  21
ENDBRANCH   9  10
ENDBRANCH   8   9
ENDBRANCH   6   8
ENDBRANCH   5   6
ENDBRANCH   4   5
ENDBRANCH   3   4
ENDBRANCH   2   3
ENDBRANCH   1   2
BRANCH   1  27
ATOM     27  C   UNL A   1      43.316  21.471  25.992  1.00  0.00     0.188 C 
BRANCH  27  28
ATOM     28  O   UNL A   1      43.711  21.390  24.626  1.00  0.00    -0.376 OA
BRANCH  28  29
ATOM     29  C   UNL A   1      44.651  22.393  24.235  1.00  0.00     0.202 C 
BRANCH  29  30
ATOM     30  C   UNL A   1      44.987  23.446  25.310  1.00  0.00     0.261 C 
BRANCH  30  31
ATOM     31  O   UNL A   1      44.660  24.812  24.995  1.00  0.00    -0.460 OA
BRANCH  31  32
ATOM     32  C   UNL A   1      45.668  25.704  25.002  1.00  0.00     0.338 C 
ATOM     33  O   UNL A   1      46.721  25.627  24.382  1.00  0.00    -0.246 OA
BRANCH  32  34
ATOM     34  C   UNL A   1      45.265  26.887  25.790  1.00  0.00     0.060 A 
ATOM     35  C   UNL A   1      46.256  27.661  26.402  1.00  0.00     0.016 A 
ATOM     36  C   UNL A   1      43.914  27.188  25.990  1.00  0.00     0.016 A 
ATOM     37  C   UNL A   1      45.903  28.730  27.228  1.00  0.00     0.010 A 
ATOM     38  C   UNL A   1      43.559  28.239  26.845  1.00  0.00     0.010 A 
ATOM     39  C   UNL A   1      44.551  28.995  27.494  1.00  0.00    -0.014 A 
BRANCH  39  40
ATOM     40  C   UNL A   1      44.202  29.892  28.627  1.00  0.00     0.031 A 
ATOM     41  C   UNL A   1      43.957  29.268  29.974  1.00  0.00     0.074 A 
ATOM     42  C   UNL A   1      44.148  31.229  28.489  1.00  0.00     0.049 A 
ATOM     43  N   UNL A   1      43.680  29.834  31.121  1.00  0.00    -0.248 NA
ATOM     44  C   UNL A   1      44.044  27.800  30.034  1.00  0.00     0.031 C 
ATOM     45  C   UNL A   1      44.404  31.965  27.255  1.00  0.00     0.029 A 
ATOM     46  N   UNL A   1      43.859  32.206  29.412  1.00  0.00    -0.354 N 
ATOM     47  C   UNL A   1      43.570  28.795  32.036  1.00  0.00     0.074 A 
ATOM     48  C   UNL A   1      43.775  27.563  31.308  1.00  0.00     0.031 C 
ATOM     49  C   UNL A   1      44.259  33.281  27.495  1.00  0.00     0.029 A 
ATOM     50  C   UNL A   1      43.878  33.478  28.894  1.00  0.00     0.049 A 
ATOM     51  H   UNL A   1      43.658  32.012  30.356  1.00  0.00     0.167 HD
ATOM     52  C   UNL A   1      43.330  28.859  33.368  1.00  0.00     0.037 A 
ATOM     53  C   UNL A   1      43.610  34.660  29.484  1.00  0.00     0.037 A 
ATOM     54  C   UNL A   1      43.104  30.080  34.095  1.00  0.00     0.049 A 
ATOM     55  C   UNL A   1      43.253  34.698  30.951  1.00  0.00     0.074 A 
ATOM     56  C   UNL A   1      42.859  30.248  35.446  1.00  0.00     0.029 A 
ATOM     57  N   UNL A   1      43.078  31.343  33.524  1.00  0.00    -0.354 N 
ATOM     58  N   UNL A   1      43.194  33.716  31.818  1.00  0.00    -0.248 NA
ATOM     59  C   UNL A   1      42.930  36.015  31.520  1.00  0.00     0.031 C 
ATOM     60  C   UNL A   1      42.631  31.607  35.684  1.00  0.00     0.029 A 
ATOM     61  C   UNL A   1      42.791  32.293  34.490  1.00  0.00     0.049 A 
ATOM     62  H   UNL A   1      43.239  31.536  32.572  1.00  0.00     0.167 HD
ATOM     63  C   UNL A   1      42.868  34.299  33.038  1.00  0.00     0.074 A 
ATOM     64  C   UNL A   1      42.750  35.722  32.801  1.00  0.00     0.031 C 
ATOM     65  C   UNL A   1      42.688  33.709  34.245  1.00  0.00     0.037 A 
BRANCH  52  66
ATOM     66  C   UNL A   1      43.266  27.560  34.115  1.00  0.00     0.064 A 
ATOM     67  C   UNL A   1      44.427  26.886  34.524  1.00  0.00     0.173 A 
ATOM     68  C   UNL A   1      42.026  26.985  34.434  1.00  0.00     0.173 A 
ATOM     69  F   UNL A   1      45.637  27.385  34.227  1.00  0.00    -0.203 F 
ATOM     70  C   UNL A   1      44.349  25.669  35.197  1.00  0.00     0.198 A 
ATOM     71  C   UNL A   1      41.953  25.785  35.133  1.00  0.00     0.198 A 
ATOM     72  F   UNL A   1      40.886  27.590  34.066  1.00  0.00    -0.203 F 
ATOM     73  F   UNL A   1      45.471  25.016  35.530  1.00  0.00    -0.200 F 
ATOM     74  C   UNL A   1      43.113  25.123  35.506  1.00  0.00     0.200 A 
ATOM     75  F   UNL A   1      40.756  25.262  35.439  1.00  0.00    -0.200 F 
ATOM     76  F   UNL A   1      43.039  23.953  36.155  1.00  0.00    -0.200 F 
ENDBRANCH  52  66
BRANCH  53  77
ATOM     77  C   UNL A   1      43.667  35.920  28.696  1.00  0.00     0.064 A 
ATOM     78  C   UNL A   1      42.544  36.388  27.998  1.00  0.00     0.173 A 
ATOM     79  C   UNL A   1      44.855  36.658  28.587  1.00  0.00     0.173 A 
ATOM     80  F   UNL A   1      41.394  35.700  28.042  1.00  0.00    -0.203 F 
ATOM     81  C   UNL A   1      42.613  37.534  27.207  1.00  0.00     0.198 A 
ATOM     82  C   UNL A   1      44.915  37.818  27.818  1.00  0.00     0.198 A 
ATOM     83  F   UNL A   1      45.960  36.248  29.226  1.00  0.00    -0.203 F 
ATOM     84  F   UNL A   1      41.540  37.927  26.507  1.00  0.00    -0.200 F 
ATOM     85  C   UNL A   1      43.797  38.251  27.121  1.00  0.00     0.200 A 
ATOM     86  F   UNL A   1      46.060  38.512  27.744  1.00  0.00    -0.200 F 
ATOM     87  F   UNL A   1      43.863  39.350  26.357  1.00  0.00    -0.200 F 
ENDBRANCH  53  77
BRANCH  65  88
ATOM     88  C   UNL A   1      42.391  34.602  35.418  1.00  0.00     0.064 A 
ATOM     89  C   UNL A   1      43.412  35.198  36.172  1.00  0.00     0.173 A 
ATOM     90  C   UNL A   1      41.063  34.897  35.764  1.00  0.00     0.173 A 
ATOM     91  F   UNL A   1      44.698  34.940  35.891  1.00  0.00    -0.203 F 
ATOM     92  C   UNL A   1      43.114  36.033  37.247  1.00  0.00     0.198 A 
ATOM     93  C   UNL A   1      40.769  35.757  36.819  1.00  0.00     0.198 A 
ATOM     94  F   UNL A   1      40.047  34.362  35.069  1.00  0.00    -0.203 F 
ATOM     95  F   UNL A   1      44.106  36.551  37.985  1.00  0.00    -0.200 F 
ATOM     96  C   UNL A   1      41.794  36.316  37.565  1.00  0.00     0.200 A 
ATOM     97  F   UNL A   1      39.493  36.042  37.114  1.00  0.00    -0.200 F 
ATOM     98  F   UNL A   1      41.511  37.125  38.596  1.00  0.00    -0.200 F 
ENDBRANCH  65  88
ENDBRANCH  39  40
ENDBRANCH  32  34
ENDBRANCH  31  32
ENDBRANCH  30  31
ENDBRANCH  29  30
ENDBRANCH  28  29
ENDBRANCH  27  28
ENDBRANCH   1  27
TORSDOF 21
ENDMDL
