MODEL 1
REMARK VINA RESULT:     -10.8      0.000      0.000
REMARK SMILES O=C(Cc1ccc(NC(=O)C2CCCC2)cc1)OCCOCCOCCOC(=O)c1ccc(-c2c3nc(c(-c4c(F)c(F)c(F)c(F)c4F)c4ccc([nH]4)c(-c4c(F)c(F)c(F)c(F)c4F)c4nc(c(-c5c(F)c(F)c(F)c(F)c5F)c5ccc2[nH]5)C=C4)C=C3)cc1
REMARK SMILES IDX 22 1 21 2 20 3 19 4 18 5 2 6 1 7 3 8 4 9 5 10 17 11 6 12
REMARK SMILES IDX 16 13 7 14 8 15 9 16 10 18 11 19 12 20 15 21 13 22 14 23
REMARK SMILES IDX 23 24 24 25 25 26 26 27 27 28 28 29 29 30 30 31 31 32 92 33
REMARK SMILES IDX 32 34 91 35 33 36 34 37 35 38 85 39 36 40 90 41 84 42 86 43
REMARK SMILES IDX 37 44 89 45 83 46 82 47 38 49 70 50 50 51 69 52 51 53 54 54
REMARK SMILES IDX 68 55 87 56 52 57 53 58 67 60 88 61 55 62 39 63 40 64 48 65
REMARK SMILES IDX 41 66 42 67 46 68 49 69 43 70 44 71 47 72 45 73 71 74 72 75
REMARK SMILES IDX 80 76 73 77 74 78 78 79 81 80 75 81 76 82 79 83 77 84 56 85
REMARK SMILES IDX 57 86 65 87 58 88 59 89 63 90 66 91 60 92 61 93 64 94 62 95
REMARK H PARENT 8 17 86 48 54 59
REMARK Flexibility Score: inf
ROOT
ATOM      1  C   UNL A   1      33.406  35.296  29.121  1.00  0.00     0.188 C 
ENDROOT
BRANCH   1   2
ATOM      2  O   UNL A   1      33.367  33.879  29.032  1.00  0.00    -0.376 OA
BRANCH   2   3
ATOM      3  C   UNL A   1      33.176  33.247  27.765  1.00  0.00     0.202 C 
BRANCH   3   4
ATOM      4  C   UNL A   1      33.018  31.734  27.688  1.00  0.00     0.261 C 
BRANCH   4   5
ATOM      5  O   UNL A   1      32.160  31.142  26.674  1.00  0.00    -0.463 OA
BRANCH   5   6
ATOM      6  C   UNL A   1      31.942  29.887  26.240  1.00  0.00     0.310 C 
ATOM      7  O   UNL A   1      31.597  29.717  25.069  1.00  0.00    -0.252 OA
BRANCH   6   8
ATOM      8  C   UNL A   1      32.166  28.699  27.140  1.00  0.00     0.158 C 
BRANCH   8   9
ATOM      9  C   UNL A   1      32.438  27.420  26.395  1.00  0.00    -0.037 A 
ATOM     10  C   UNL A   1      31.433  26.453  26.312  1.00  0.00     0.006 A 
ATOM     11  C   UNL A   1      33.649  27.184  25.733  1.00  0.00     0.006 A 
ATOM     12  C   UNL A   1      31.562  25.392  25.420  1.00  0.00     0.026 A 
ATOM     13  C   UNL A   1      33.778  26.123  24.841  1.00  0.00     0.026 A 
ATOM     14  C   UNL A   1      32.676  25.316  24.587  1.00  0.00     0.041 A 
BRANCH  14  15
ATOM     15  N   UNL A   1      32.705  24.566  23.405  1.00  0.00    -0.326 N 
ATOM     16  C   UNL A   1      33.054  23.247  23.240  1.00  0.00     0.227 C 
ATOM     17  H   UNL A   1      32.441  25.045  22.586  1.00  0.00     0.169 HD
ATOM     18  O   UNL A   1      32.912  22.751  22.120  1.00  0.00    -0.274 OA
BRANCH  16  19
ATOM     19  C   UNL A   1      33.558  22.424  24.423  1.00  0.00     0.079 C 
ATOM     20  C   UNL A   1      33.375  20.911  24.296  1.00  0.00     0.013 C 
ATOM     21  C   UNL A   1      35.068  22.499  24.645  1.00  0.00     0.013 C 
ATOM     22  C   UNL A   1      34.192  20.373  25.466  1.00  0.00     0.001 C 
ATOM     23  C   UNL A   1      35.341  21.368  25.639  1.00  0.00     0.001 C 
ENDBRANCH  16  19
ENDBRANCH  14  15
ENDBRANCH   8   9
ENDBRANCH   6   8
ENDBRANCH   5   6
ENDBRANCH   4   5
ENDBRANCH   3   4
ENDBRANCH   2   3
ENDBRANCH   1   2
BRANCH   1  24
ATOM     24  C   UNL A   1      32.817  35.869  30.413  1.00  0.00     0.188 C 
BRANCH  24  25
ATOM     25  O   UNL A   1      33.724  36.066  31.488  1.00  0.00    -0.376 OA
BRANCH  25  26
ATOM     26  C   UNL A   1      34.011  34.948  32.328  1.00  0.00     0.202 C 
BRANCH  26  27
ATOM     27  C   UNL A   1      35.282  34.131  32.050  1.00  0.00     0.261 C 
BRANCH  27  28
ATOM     28  O   UNL A   1      35.120  32.709  32.254  1.00  0.00    -0.460 OA
BRANCH  28  29
ATOM     29  C   UNL A   1      36.073  32.123  33.006  1.00  0.00     0.338 C 
ATOM     30  O   UNL A   1      36.274  32.291  34.211  1.00  0.00    -0.246 OA
BRANCH  29  31
ATOM     31  C   UNL A   1      36.837  31.116  32.254  1.00  0.00     0.060 A 
ATOM     32  C   UNL A   1      37.893  30.464  32.907  1.00  0.00     0.016 A 
ATOM     33  C   UNL A   1      36.694  31.013  30.868  1.00  0.00     0.016 A 
ATOM     34  C   UNL A   1      38.856  29.776  32.167  1.00  0.00     0.010 A 
ATOM     35  C   UNL A   1      37.664  30.327  30.126  1.00  0.00     0.010 A 
ATOM     36  C   UNL A   1      38.782  29.761  30.767  1.00  0.00    -0.014 A 
BRANCH  36  37
ATOM     37  C   UNL A   1      39.984  29.368  29.983  1.00  0.00     0.031 A 
ATOM     38  C   UNL A   1      41.099  30.371  29.815  1.00  0.00     0.074 A 
ATOM     39  C   UNL A   1      40.118  28.133  29.469  1.00  0.00     0.049 A 
ATOM     40  N   UNL A   1      42.247  30.247  29.199  1.00  0.00    -0.248 NA
ATOM     41  C   UNL A   1      40.887  31.692  30.430  1.00  0.00     0.031 C 
ATOM     42  C   UNL A   1      39.141  27.057  29.588  1.00  0.00     0.029 A 
ATOM     43  N   UNL A   1      41.145  27.581  28.741  1.00  0.00    -0.354 N 
ATOM     44  C   UNL A   1      42.890  31.470  29.347  1.00  0.00     0.074 A 
ATOM     45  C   UNL A   1      41.994  32.333  30.085  1.00  0.00     0.031 C 
ATOM     46  C   UNL A   1      39.613  25.969  28.955  1.00  0.00     0.029 A 
ATOM     47  C   UNL A   1      40.917  26.280  28.368  1.00  0.00     0.049 A 
ATOM     48  H   UNL A   1      41.966  28.073  28.510  1.00  0.00     0.167 HD
ATOM     49  C   UNL A   1      44.121  31.841  28.918  1.00  0.00     0.037 A 
ATOM     50  C   UNL A   1      41.672  25.442  27.632  1.00  0.00     0.037 A 
ATOM     51  C   UNL A   1      45.025  30.989  28.191  1.00  0.00     0.049 A 
ATOM     52  C   UNL A   1      43.012  25.899  27.112  1.00  0.00     0.074 A 
ATOM     53  C   UNL A   1      46.303  31.270  27.742  1.00  0.00     0.029 A 
ATOM     54  N   UNL A   1      44.739  29.690  27.801  1.00  0.00    -0.354 N 
ATOM     55  N   UNL A   1      43.628  27.042  27.293  1.00  0.00    -0.248 NA
ATOM     56  C   UNL A   1      43.765  24.939  26.291  1.00  0.00     0.031 C 
ATOM     57  C   UNL A   1      46.775  30.155  27.038  1.00  0.00     0.029 A 
ATOM     58  C   UNL A   1      45.809  29.164  27.093  1.00  0.00     0.049 A 
ATOM     59  H   UNL A   1      43.902  29.211  27.997  1.00  0.00     0.167 HD
ATOM     60  C   UNL A   1      44.850  26.926  26.643  1.00  0.00     0.074 A 
ATOM     61  C   UNL A   1      44.894  25.599  26.068  1.00  0.00     0.031 C 
ATOM     62  C   UNL A   1      45.850  27.836  26.538  1.00  0.00     0.037 A 
BRANCH  49  63
ATOM     63  C   UNL A   1      44.555  33.248  29.205  1.00  0.00     0.064 A 
ATOM     64  C   UNL A   1      45.247  33.580  30.380  1.00  0.00     0.173 A 
ATOM     65  C   UNL A   1      44.299  34.271  28.280  1.00  0.00     0.173 A 
ATOM     66  F   UNL A   1      45.503  32.640  31.301  1.00  0.00    -0.203 F 
ATOM     67  C   UNL A   1      45.642  34.891  30.630  1.00  0.00     0.198 A 
ATOM     68  C   UNL A   1      44.720  35.576  28.522  1.00  0.00     0.198 A 
ATOM     69  F   UNL A   1      43.647  34.004  27.140  1.00  0.00    -0.203 F 
ATOM     70  F   UNL A   1      46.262  35.195  31.779  1.00  0.00    -0.200 F 
ATOM     71  C   UNL A   1      45.384  35.887  29.698  1.00  0.00     0.200 A 
ATOM     72  F   UNL A   1      44.479  36.534  27.616  1.00  0.00    -0.200 F 
ATOM     73  F   UNL A   1      45.768  37.147  29.939  1.00  0.00    -0.200 F 
ENDBRANCH  49  63
BRANCH  50  74
ATOM     74  C   UNL A   1      41.188  24.067  27.342  1.00  0.00     0.064 A 
ATOM     75  C   UNL A   1      40.088  23.854  26.499  1.00  0.00     0.173 A 
ATOM     76  C   UNL A   1      41.792  22.945  27.926  1.00  0.00     0.173 A 
ATOM     77  F   UNL A   1      39.460  24.899  25.942  1.00  0.00    -0.203 F 
ATOM     78  C   UNL A   1      39.599  22.570  26.267  1.00  0.00     0.198 A 
ATOM     79  C   UNL A   1      41.318  21.660  27.673  1.00  0.00     0.198 A 
ATOM     80  F   UNL A   1      42.844  23.098  28.744  1.00  0.00    -0.203 F 
ATOM     81  F   UNL A   1      38.517  22.397  25.497  1.00  0.00    -0.200 F 
ATOM     82  C   UNL A   1      40.218  21.474  26.850  1.00  0.00     0.200 A 
ATOM     83  F   UNL A   1      41.924  20.603  28.231  1.00  0.00    -0.200 F 
ATOM     84  F   UNL A   1      39.746  20.240  26.628  1.00  0.00    -0.200 F 
ENDBRANCH  50  74
BRANCH  62  85
ATOM     85  C   UNL A   1      47.097  27.416  25.815  1.00  0.00     0.064 A 
ATOM     86  C   UNL A   1      47.269  27.647  24.442  1.00  0.00     0.173 A 
ATOM     87  C   UNL A   1      48.150  26.805  26.515  1.00  0.00     0.173 A 
ATOM     88  F   UNL A   1      46.288  28.216  23.726  1.00  0.00    -0.203 F 
ATOM     89  C   UNL A   1      48.438  27.258  23.792  1.00  0.00     0.198 A 
ATOM     90  C   UNL A   1      49.327  26.443  25.867  1.00  0.00     0.198 A 
ATOM     91  F   UNL A   1      48.039  26.568  27.830  1.00  0.00    -0.203 F 
ATOM     92  F   UNL A   1      48.562  27.447  22.470  1.00  0.00    -0.200 F 
ATOM     93  C   UNL A   1      49.468  26.663  24.505  1.00  0.00     0.200 A 
ATOM     94  F   UNL A   1      50.325  25.879  26.560  1.00  0.00    -0.200 F 
ATOM     95  F   UNL A   1      50.593  26.292  23.878  1.00  0.00    -0.200 F 
ENDBRANCH  62  85
ENDBRANCH  36  37
ENDBRANCH  29  31
ENDBRANCH  28  29
ENDBRANCH  27  28
ENDBRANCH  26  27
ENDBRANCH  25  26
ENDBRANCH  24  25
ENDBRANCH   1  24
TORSDOF 20
ENDMDL
MODEL 2
REMARK VINA RESULT:     -10.8      1.303      7.398
REMARK SMILES O=C(Cc1ccc(NC(=O)C2CCCC2)cc1)OCCOCCOCCOC(=O)c1ccc(-c2c3nc(c(-c4c(F)c(F)c(F)c(F)c4F)c4ccc([nH]4)c(-c4c(F)c(F)c(F)c(F)c4F)c4nc(c(-c5c(F)c(F)c(F)c(F)c5F)c5ccc2[nH]5)C=C4)C=C3)cc1
REMARK SMILES IDX 22 1 21 2 20 3 19 4 18 5 2 6 1 7 3 8 4 9 5 10 17 11 6 12
REMARK SMILES IDX 16 13 7 14 8 15 9 16 10 18 11 19 12 20 15 21 13 22 14 23
REMARK SMILES IDX 23 24 24 25 25 26 26 27 27 28 28 29 29 30 30 31 31 32 92 33
REMARK SMILES IDX 32 34 91 35 33 36 34 37 35 38 85 39 36 40 90 41 84 42 86 43
REMARK SMILES IDX 37 44 89 45 83 46 82 47 38 49 70 50 50 51 69 52 51 53 54 54
REMARK SMILES IDX 68 55 87 56 52 57 53 58 67 60 88 61 55 62 39 63 40 64 48 65
REMARK SMILES IDX 41 66 42 67 46 68 49 69 43 70 44 71 47 72 45 73 71 74 72 75
REMARK SMILES IDX 80 76 73 77 74 78 78 79 81 80 75 81 76 82 79 83 77 84 56 85
REMARK SMILES IDX 57 86 65 87 58 88 59 89 63 90 66 91 60 92 61 93 64 94 62 95
REMARK H PARENT 8 17 86 48 54 59
REMARK Flexibility Score: inf
ROOT
ATOM      1  C   UNL A   1      33.462  33.692  28.152  1.00  0.00     0.188 C 
ENDROOT
BRANCH   1   2
ATOM      2  O   UNL A   1      33.573  32.281  28.280  1.00  0.00    -0.376 OA
BRANCH   2   3
ATOM      3  C   UNL A   1      34.397  31.544  27.374  1.00  0.00     0.202 C 
BRANCH   3   4
ATOM      4  C   UNL A   1      34.484  30.027  27.490  1.00  0.00     0.261 C 
BRANCH   4   5
ATOM      5  O   UNL A   1      33.541  29.187  26.769  1.00  0.00    -0.463 OA
BRANCH   5   6
ATOM      6  C   UNL A   1      32.263  29.329  26.374  1.00  0.00     0.310 C 
ATOM      7  O   UNL A   1      31.466  29.882  27.135  1.00  0.00    -0.252 OA
BRANCH   6   8
ATOM      8  C   UNL A   1      31.811  28.875  25.010  1.00  0.00     0.158 C 
BRANCH   8   9
ATOM      9  C   UNL A   1      31.217  27.492  24.999  1.00  0.00    -0.037 A 
ATOM     10  C   UNL A   1      30.913  26.891  23.776  1.00  0.00     0.006 A 
ATOM     11  C   UNL A   1      31.007  26.760  26.174  1.00  0.00     0.006 A 
ATOM     12  C   UNL A   1      30.614  25.532  23.724  1.00  0.00     0.026 A 
ATOM     13  C   UNL A   1      30.710  25.402  26.123  1.00  0.00     0.026 A 
ATOM     14  C   UNL A   1      30.656  24.767  24.888  1.00  0.00     0.041 A 
BRANCH  14  15
ATOM     15  N   UNL A   1      30.790  23.373  24.890  1.00  0.00    -0.326 N 
ATOM     16  C   UNL A   1      31.944  22.627  24.856  1.00  0.00     0.227 C 
ATOM     17  H   UNL A   1      29.950  22.861  24.922  1.00  0.00     0.169 HD
ATOM     18  O   UNL A   1      31.841  21.404  24.970  1.00  0.00    -0.274 OA
BRANCH  16  19
ATOM     19  C   UNL A   1      33.304  23.308  24.725  1.00  0.00     0.079 C 
ATOM     20  C   UNL A   1      34.090  23.461  26.029  1.00  0.00     0.013 C 
ATOM     21  C   UNL A   1      34.319  22.534  23.884  1.00  0.00     0.013 C 
ATOM     22  C   UNL A   1      35.463  23.910  25.544  1.00  0.00     0.001 C 
ATOM     23  C   UNL A   1      35.643  23.240  24.181  1.00  0.00     0.001 C 
ENDBRANCH  16  19
ENDBRANCH  14  15
ENDBRANCH   8   9
ENDBRANCH   6   8
ENDBRANCH   5   6
ENDBRANCH   4   5
ENDBRANCH   3   4
ENDBRANCH   2   3
ENDBRANCH   1   2
BRANCH   1  24
ATOM     24  C   UNL A   1      34.714  34.468  28.566  1.00  0.00     0.188 C 
BRANCH  24  25
ATOM     25  O   UNL A   1      35.719  33.731  29.247  1.00  0.00    -0.376 OA
BRANCH  25  26
ATOM     26  C   UNL A   1      35.771  33.837  30.670  1.00  0.00     0.202 C 
BRANCH  26  27
ATOM     27  C   UNL A   1      34.749  33.045  31.500  1.00  0.00     0.261 C 
BRANCH  27  28
ATOM     28  O   UNL A   1      35.045  31.634  31.603  1.00  0.00    -0.460 OA
BRANCH  28  29
ATOM     29  C   UNL A   1      36.115  31.324  32.362  1.00  0.00     0.338 C 
ATOM     30  O   UNL A   1      36.317  31.661  33.531  1.00  0.00    -0.246 OA
BRANCH  29  31
ATOM     31  C   UNL A   1      37.034  30.399  31.682  1.00  0.00     0.060 A 
ATOM     32  C   UNL A   1      38.161  29.951  32.385  1.00  0.00     0.016 A 
ATOM     33  C   UNL A   1      36.933  30.192  30.304  1.00  0.00     0.016 A 
ATOM     34  C   UNL A   1      39.229  29.370  31.698  1.00  0.00     0.010 A 
ATOM     35  C   UNL A   1      38.008  29.615  29.616  1.00  0.00     0.010 A 
ATOM     36  C   UNL A   1      39.185  29.261  30.301  1.00  0.00    -0.014 A 
BRANCH  36  37
ATOM     37  C   UNL A   1      40.446  29.005  29.555  1.00  0.00     0.031 A 
ATOM     38  C   UNL A   1      40.662  27.643  28.943  1.00  0.00     0.074 A 
ATOM     39  C   UNL A   1      41.367  29.968  29.376  1.00  0.00     0.049 A 
ATOM     40  N   UNL A   1      41.667  27.198  28.231  1.00  0.00    -0.248 NA
ATOM     41  C   UNL A   1      39.597  26.651  29.162  1.00  0.00     0.031 C 
ATOM     42  C   UNL A   1      41.270  31.335  29.877  1.00  0.00     0.029 A 
ATOM     43  N   UNL A   1      42.570  29.934  28.712  1.00  0.00    -0.354 N 
ATOM     44  C   UNL A   1      41.358  25.879  27.924  1.00  0.00     0.074 A 
ATOM     45  C   UNL A   1      40.088  25.584  28.550  1.00  0.00     0.031 C 
ATOM     46  C   UNL A   1      42.369  32.014  29.504  1.00  0.00     0.029 A 
ATOM     47  C   UNL A   1      43.256  31.122  28.755  1.00  0.00     0.049 A 
ATOM     48  H   UNL A   1      42.908  29.133  28.250  1.00  0.00     0.167 HD
ATOM     49  C   UNL A   1      42.062  24.992  27.178  1.00  0.00     0.037 A 
ATOM     50  C   UNL A   1      44.463  31.448  28.254  1.00  0.00     0.037 A 
ATOM     51  C   UNL A   1      43.322  25.276  26.544  1.00  0.00     0.049 A 
ATOM     52  C   UNL A   1      45.256  30.424  27.481  1.00  0.00     0.074 A 
ATOM     53  C   UNL A   1      44.092  24.449  25.745  1.00  0.00     0.029 A 
ATOM     54  N   UNL A   1      44.000  26.481  26.643  1.00  0.00    -0.354 N 
ATOM     55  N   UNL A   1      44.935  29.194  27.160  1.00  0.00    -0.248 NA
ATOM     56  C   UNL A   1      46.578  30.843  26.991  1.00  0.00     0.031 C 
ATOM     57  C   UNL A   1      45.260  25.138  25.398  1.00  0.00     0.029 A 
ATOM     58  C   UNL A   1      45.193  26.410  25.942  1.00  0.00     0.049 A 
ATOM     59  H   UNL A   1      43.682  27.269  27.139  1.00  0.00     0.167 HD
ATOM     60  C   UNL A   1      45.994  28.707  26.404  1.00  0.00     0.074 A 
ATOM     61  C   UNL A   1      46.965  29.775  26.307  1.00  0.00     0.031 C 
ATOM     62  C   UNL A   1      46.146  27.485  25.836  1.00  0.00     0.037 A 
BRANCH  49  63
ATOM     63  C   UNL A   1      41.491  23.614  27.028  1.00  0.00     0.064 A 
ATOM     64  C   UNL A   1      40.321  23.378  26.289  1.00  0.00     0.173 A 
ATOM     65  C   UNL A   1      42.137  22.512  27.607  1.00  0.00     0.173 A 
ATOM     66  F   UNL A   1      39.659  24.399  25.727  1.00  0.00    -0.203 F 
ATOM     67  C   UNL A   1      39.806  22.090  26.159  1.00  0.00     0.198 A 
ATOM     68  C   UNL A   1      41.633  21.223  27.453  1.00  0.00     0.198 A 
ATOM     69  F   UNL A   1      43.261  22.684  28.318  1.00  0.00    -0.203 F 
ATOM     70  F   UNL A   1      38.663  21.893  25.487  1.00  0.00    -0.200 F 
ATOM     71  C   UNL A   1      40.464  21.014  26.736  1.00  0.00     0.200 A 
ATOM     72  F   UNL A   1      42.276  20.184  28.002  1.00  0.00    -0.200 F 
ATOM     73  F   UNL A   1      39.969  19.776  26.607  1.00  0.00    -0.200 F 
ENDBRANCH  49  63
BRANCH  50  74
ATOM     74  C   UNL A   1      45.007  32.816  28.456  1.00  0.00     0.064 A 
ATOM     75  C   UNL A   1      45.768  33.128  29.592  1.00  0.00     0.173 A 
ATOM     76  C   UNL A   1      44.748  33.844  27.539  1.00  0.00     0.173 A 
ATOM     77  F   UNL A   1      46.016  32.184  30.511  1.00  0.00    -0.203 F 
ATOM     78  C   UNL A   1      46.234  34.423  29.810  1.00  0.00     0.198 A 
ATOM     79  C   UNL A   1      45.237  35.132  27.747  1.00  0.00     0.198 A 
ATOM     80  F   UNL A   1      44.020  33.597  26.441  1.00  0.00    -0.203 F 
ATOM     81  F   UNL A   1      46.919  34.706  30.927  1.00  0.00    -0.200 F 
ATOM     82  C   UNL A   1      45.973  35.422  28.886  1.00  0.00     0.200 A 
ATOM     83  F   UNL A   1      44.989  36.093  26.847  1.00  0.00    -0.200 F 
ATOM     84  F   UNL A   1      46.420  36.667  29.097  1.00  0.00    -0.200 F 
ENDBRANCH  50  74
BRANCH  62  85
ATOM     85  C   UNL A   1      47.382  27.249  25.017  1.00  0.00     0.064 A 
ATOM     86  C   UNL A   1      47.467  27.649  23.676  1.00  0.00     0.173 A 
ATOM     87  C   UNL A   1      48.511  26.646  25.596  1.00  0.00     0.173 A 
ATOM     88  F   UNL A   1      46.412  28.216  23.073  1.00  0.00    -0.203 F 
ATOM     89  C   UNL A   1      48.627  27.429  22.936  1.00  0.00     0.198 A 
ATOM     90  C   UNL A   1      49.677  26.455  24.861  1.00  0.00     0.198 A 
ATOM     91  F   UNL A   1      48.484  26.253  26.877  1.00  0.00    -0.203 F 
ATOM     92  F   UNL A   1      48.669  27.777  21.642  1.00  0.00    -0.200 F 
ATOM     93  C   UNL A   1      49.732  26.839  23.530  1.00  0.00     0.200 A 
ATOM     94  F   UNL A   1      50.748  25.895  25.441  1.00  0.00    -0.200 F 
ATOM     95  F   UNL A   1      50.848  26.632  22.817  1.00  0.00    -0.200 F 
ENDBRANCH  62  85
ENDBRANCH  36  37
ENDBRANCH  29  31
ENDBRANCH  28  29
ENDBRANCH  27  28
ENDBRANCH  26  27
ENDBRANCH  25  26
ENDBRANCH  24  25
ENDBRANCH   1  24
TORSDOF 20
ENDMDL
MODEL 3
REMARK VINA RESULT:     -10.4      4.670      9.516
REMARK SMILES O=C(Cc1ccc(NC(=O)C2CCCC2)cc1)OCCOCCOCCOC(=O)c1ccc(-c2c3nc(c(-c4c(F)c(F)c(F)c(F)c4F)c4ccc([nH]4)c(-c4c(F)c(F)c(F)c(F)c4F)c4nc(c(-c5c(F)c(F)c(F)c(F)c5F)c5ccc2[nH]5)C=C4)C=C3)cc1
REMARK SMILES IDX 22 1 21 2 20 3 19 4 18 5 2 6 1 7 3 8 4 9 5 10 17 11 6 12
REMARK SMILES IDX 16 13 7 14 8 15 9 16 10 18 11 19 12 20 15 21 13 22 14 23
REMARK SMILES IDX 23 24 24 25 25 26 26 27 27 28 28 29 29 30 30 31 31 32 92 33
REMARK SMILES IDX 32 34 91 35 33 36 34 37 35 38 85 39 36 40 90 41 84 42 86 43
REMARK SMILES IDX 37 44 89 45 83 46 82 47 38 49 70 50 50 51 69 52 51 53 54 54
REMARK SMILES IDX 68 55 87 56 52 57 53 58 67 60 88 61 55 62 39 63 40 64 48 65
REMARK SMILES IDX 41 66 42 67 46 68 49 69 43 70 44 71 47 72 45 73 71 74 72 75
REMARK SMILES IDX 80 76 73 77 74 78 78 79 81 80 75 81 76 82 79 83 77 84 56 85
REMARK SMILES IDX 57 86 65 87 58 88 59 89 63 90 66 91 60 92 61 93 64 94 62 95
REMARK H PARENT 8 17 86 48 54 59
REMARK Flexibility Score: inf
ROOT
ATOM      1  C   UNL A   1      31.532  28.588  25.407  1.00  0.00     0.188 C 
ENDROOT
BRANCH   1   2
ATOM      2  O   UNL A   1      30.784  28.291  24.237  1.00  0.00    -0.376 OA
BRANCH   2   3
ATOM      3  C   UNL A   1      30.340  26.955  23.992  1.00  0.00     0.202 C 
BRANCH   3   4
ATOM      4  C   UNL A   1      31.241  25.982  23.240  1.00  0.00     0.261 C 
BRANCH   4   5
ATOM      5  O   UNL A   1      32.682  26.179  23.236  1.00  0.00    -0.463 OA
BRANCH   5   6
ATOM      6  C   UNL A   1      33.737  25.423  23.592  1.00  0.00     0.310 C 
ATOM      7  O   UNL A   1      34.272  24.714  22.738  1.00  0.00    -0.252 OA
BRANCH   6   8
ATOM      8  C   UNL A   1      34.297  25.474  24.990  1.00  0.00     0.158 C 
BRANCH   8   9
ATOM      9  C   UNL A   1      34.173  24.174  25.739  1.00  0.00    -0.037 A 
ATOM     10  C   UNL A   1      33.022  23.928  26.490  1.00  0.00     0.006 A 
ATOM     11  C   UNL A   1      35.150  23.174  25.665  1.00  0.00     0.006 A 
ATOM     12  C   UNL A   1      32.766  22.646  26.970  1.00  0.00     0.026 A 
ATOM     13  C   UNL A   1      34.894  21.893  26.145  1.00  0.00     0.026 A 
ATOM     14  C   UNL A   1      33.640  21.605  26.669  1.00  0.00     0.041 A 
BRANCH  14  15
ATOM     15  N   UNL A   1      33.280  20.253  26.730  1.00  0.00    -0.326 N 
ATOM     16  C   UNL A   1      32.978  19.402  25.693  1.00  0.00     0.227 C 
ATOM     17  H   UNL A   1      33.237  19.860  27.632  1.00  0.00     0.169 HD
ATOM     18  O   UNL A   1      32.785  18.215  25.962  1.00  0.00    -0.274 OA
BRANCH  16  19
ATOM     19  C   UNL A   1      32.933  19.917  24.257  1.00  0.00     0.079 C 
ATOM     20  C   UNL A   1      32.286  18.973  23.241  1.00  0.00     0.013 C 
ATOM     21  C   UNL A   1      32.070  21.163  24.060  1.00  0.00     0.013 C 
ATOM     22  C   UNL A   1      32.152  19.852  22.003  1.00  0.00     0.001 C 
ATOM     23  C   UNL A   1      31.931  21.266  22.540  1.00  0.00     0.001 C 
ENDBRANCH  16  19
ENDBRANCH  14  15
ENDBRANCH   8   9
ENDBRANCH   6   8
ENDBRANCH   5   6
ENDBRANCH   4   5
ENDBRANCH   3   4
ENDBRANCH   2   3
ENDBRANCH   1   2
BRANCH   1  24
ATOM     24  C   UNL A   1      31.813  30.077  25.622  1.00  0.00     0.188 C 
BRANCH  24  25
ATOM     25  O   UNL A   1      33.103  30.413  26.111  1.00  0.00    -0.376 OA
BRANCH  25  26
ATOM     26  C   UNL A   1      33.241  30.647  27.513  1.00  0.00     0.202 C 
BRANCH  26  27
ATOM     27  C   UNL A   1      34.032  31.881  27.974  1.00  0.00     0.261 C 
BRANCH  27  28
ATOM     28  O   UNL A   1      33.532  33.129  27.445  1.00  0.00    -0.460 OA
BRANCH  28  29
ATOM     29  C   UNL A   1      33.430  34.134  28.337  1.00  0.00     0.338 C 
ATOM     30  O   UNL A   1      32.528  34.972  28.411  1.00  0.00    -0.246 OA
BRANCH  29  31
ATOM     31  C   UNL A   1      34.491  34.087  29.354  1.00  0.00     0.060 A 
ATOM     32  C   UNL A   1      35.818  34.262  28.935  1.00  0.00     0.016 A 
ATOM     33  C   UNL A   1      34.214  33.617  30.640  1.00  0.00     0.016 A 
ATOM     34  C   UNL A   1      36.871  33.888  29.771  1.00  0.00     0.010 A 
ATOM     35  C   UNL A   1      35.272  33.236  31.475  1.00  0.00     0.010 A 
ATOM     36  C   UNL A   1      36.601  33.310  31.020  1.00  0.00    -0.014 A 
BRANCH  36  37
ATOM     37  C   UNL A   1      37.685  32.576  31.727  1.00  0.00     0.031 A 
ATOM     38  C   UNL A   1      38.340  31.407  31.034  1.00  0.00     0.074 A 
ATOM     39  C   UNL A   1      38.123  32.961  32.939  1.00  0.00     0.049 A 
ATOM     40  N   UNL A   1      39.317  30.637  31.441  1.00  0.00    -0.248 NA
ATOM     41  C   UNL A   1      37.822  31.065  29.699  1.00  0.00     0.031 C 
ATOM     42  C   UNL A   1      37.609  34.092  33.704  1.00  0.00     0.029 A 
ATOM     43  N   UNL A   1      39.110  32.432  33.735  1.00  0.00    -0.354 N 
ATOM     44  C   UNL A   1      39.527  29.719  30.418  1.00  0.00     0.074 A 
ATOM     45  C   UNL A   1      38.556  30.009  29.384  1.00  0.00     0.031 C 
ATOM     46  C   UNL A   1      38.285  34.175  34.863  1.00  0.00     0.029 A 
ATOM     47  C   UNL A   1      39.265  33.090  34.930  1.00  0.00     0.049 A 
ATOM     48  H   UNL A   1      39.655  31.655  33.473  1.00  0.00     0.167 HD
ATOM     49  C   UNL A   1      40.450  28.730  30.339  1.00  0.00     0.037 A 
ATOM     50  C   UNL A   1      40.097  32.839  35.959  1.00  0.00     0.037 A 
ATOM     51  C   UNL A   1      41.424  28.438  31.356  1.00  0.00     0.049 A 
ATOM     52  C   UNL A   1      41.073  31.693  35.873  1.00  0.00     0.074 A 
ATOM     53  C   UNL A   1      42.418  27.475  31.349  1.00  0.00     0.029 A 
ATOM     54  N   UNL A   1      41.523  29.106  32.567  1.00  0.00    -0.354 N 
ATOM     55  N   UNL A   1      41.291  30.860  34.885  1.00  0.00    -0.248 NA
ATOM     56  C   UNL A   1      41.927  31.463  37.048  1.00  0.00     0.031 C 
ATOM     57  C   UNL A   1      43.089  27.528  32.576  1.00  0.00     0.029 A 
ATOM     58  C   UNL A   1      42.544  28.557  33.327  1.00  0.00     0.049 A 
ATOM     59  H   UNL A   1      40.952  29.857  32.846  1.00  0.00     0.167 HD
ATOM     60  C   UNL A   1      42.327  30.033  35.303  1.00  0.00     0.074 A 
ATOM     61  C   UNL A   1      42.700  30.468  36.631  1.00  0.00     0.031 C 
ATOM     62  C   UNL A   1      42.919  29.008  34.642  1.00  0.00     0.037 A 
BRANCH  49  63
ATOM     63  C   UNL A   1      40.432  27.869  29.111  1.00  0.00     0.064 A 
ATOM     64  C   UNL A   1      41.204  28.182  27.981  1.00  0.00     0.173 A 
ATOM     65  C   UNL A   1      39.654  26.703  29.074  1.00  0.00     0.173 A 
ATOM     66  F   UNL A   1      41.954  29.293  27.962  1.00  0.00    -0.203 F 
ATOM     67  C   UNL A   1      41.176  27.370  26.850  1.00  0.00     0.198 A 
ATOM     68  C   UNL A   1      39.649  25.880  27.951  1.00  0.00     0.198 A 
ATOM     69  F   UNL A   1      38.903  26.358  30.130  1.00  0.00    -0.203 F 
ATOM     70  F   UNL A   1      41.886  27.711  25.765  1.00  0.00    -0.200 F 
ATOM     71  C   UNL A   1      40.403  26.217  26.837  1.00  0.00     0.200 A 
ATOM     72  F   UNL A   1      38.911  24.762  27.945  1.00  0.00    -0.200 F 
ATOM     73  F   UNL A   1      40.380  25.437  25.749  1.00  0.00    -0.200 F 
ENDBRANCH  49  63
BRANCH  50  74
ATOM     74  C   UNL A   1      40.057  33.697  37.172  1.00  0.00     0.064 A 
ATOM     75  C   UNL A   1      39.155  33.431  38.212  1.00  0.00     0.173 A 
ATOM     76  C   UNL A   1      40.892  34.815  37.300  1.00  0.00     0.173 A 
ATOM     77  F   UNL A   1      38.315  32.390  38.121  1.00  0.00    -0.203 F 
ATOM     78  C   UNL A   1      39.079  34.264  39.327  1.00  0.00     0.198 A 
ATOM     79  C   UNL A   1      40.832  35.632  38.427  1.00  0.00     0.198 A 
ATOM     80  F   UNL A   1      41.768  35.114  36.329  1.00  0.00    -0.203 F 
ATOM     81  F   UNL A   1      38.175  34.016  40.285  1.00  0.00    -0.200 F 
ATOM     82  C   UNL A   1      39.921  35.361  39.435  1.00  0.00     0.200 A 
ATOM     83  F   UNL A   1      41.653  36.686  38.531  1.00  0.00    -0.200 F 
ATOM     84  F   UNL A   1      39.846  36.162  40.507  1.00  0.00    -0.200 F 
ENDBRANCH  50  74
BRANCH  62  85
ATOM     85  C   UNL A   1      44.066  28.315  35.321  1.00  0.00     0.064 A 
ATOM     86  C   UNL A   1      43.872  27.189  36.133  1.00  0.00     0.173 A 
ATOM     87  C   UNL A   1      45.381  28.766  35.125  1.00  0.00     0.173 A 
ATOM     88  F   UNL A   1      42.634  26.728  36.362  1.00  0.00    -0.203 F 
ATOM     89  C   UNL A   1      44.951  26.555  36.746  1.00  0.00     0.198 A 
ATOM     90  C   UNL A   1      46.458  28.113  35.716  1.00  0.00     0.198 A 
ATOM     91  F   UNL A   1      45.621  29.835  34.351  1.00  0.00    -0.203 F 
ATOM     92  F   UNL A   1      44.738  25.508  37.556  1.00  0.00    -0.200 F 
ATOM     93  C   UNL A   1      46.242  27.013  36.533  1.00  0.00     0.200 A 
ATOM     94  F   UNL A   1      47.707  28.550  35.499  1.00  0.00    -0.200 F 
ATOM     95  F   UNL A   1      47.278  26.400  37.121  1.00  0.00    -0.200 F 
ENDBRANCH  62  85
ENDBRANCH  36  37
ENDBRANCH  29  31
ENDBRANCH  28  29
ENDBRANCH  27  28
ENDBRANCH  26  27
ENDBRANCH  25  26
ENDBRANCH  24  25
ENDBRANCH   1  24
TORSDOF 20
ENDMDL
