MODEL 1
REMARK VINA RESULT:     -10.8      0.000      0.000
REMARK SMILES CN(Cc1ccc(C(=O)OCCOCCOCCOC(=O)c2ccc(-c3c4nc(c(-c5c(F)c(F)c(F)c(F)c5F)c5ccc([nH]5)c(-c5c(F)c(F)c(F)c(F)c5F)c5nc(c(-c6c(F)c(F)c(F)c(F)c6F)c6ccc3[nH]6)C=C5)C=C4)cc2)cc1)c1ccccc1N
REMARK SMILES IDX 14 1 13 2 12 3 11 4 10 5 8 6 9 7 7 8 4 9 5 10 86 11 6 12
REMARK SMILES IDX 85 13 3 14 2 15 1 16 87 17 88 18 92 19 89 20 91 21 90 22
REMARK SMILES IDX 93 23 15 26 16 27 17 28 18 29 19 30 20 31 21 32 22 33 23 34
REMARK SMILES IDX 84 35 24 36 83 37 25 38 26 39 27 40 77 41 28 42 82 43 76 44
REMARK SMILES IDX 78 45 29 46 81 47 75 48 74 49 30 51 62 52 42 53 61 54 43 55
REMARK SMILES IDX 46 56 60 57 79 58 44 59 45 60 59 62 80 63 47 64 31 65 32 66
REMARK SMILES IDX 40 67 33 68 34 69 38 70 41 71 35 72 36 73 39 74 37 75 63 76
REMARK SMILES IDX 64 77 72 78 65 79 66 80 70 81 73 82 67 83 68 84 71 85 69 86
REMARK SMILES IDX 48 87 49 88 57 89 50 90 51 91 55 92 58 93 52 94 53 95 56 96
REMARK SMILES IDX 54 97
REMARK H PARENT 93 24 93 25 78 50 46 61
REMARK Flexibility Score: inf
ROOT
ATOM      1  C   UNL A   1      31.722  24.934  26.568  1.00  0.00     0.188 C 
ENDROOT
BRANCH   1   2
ATOM      2  O   UNL A   1      30.859  24.261  25.669  1.00  0.00    -0.376 OA
BRANCH   2   3
ATOM      3  C   UNL A   1      30.603  22.874  25.824  1.00  0.00     0.202 C 
BRANCH   3   4
ATOM      4  C   UNL A   1      31.748  21.875  26.004  1.00  0.00     0.261 C 
BRANCH   4   5
ATOM      5  O   UNL A   1      32.490  21.631  24.803  1.00  0.00    -0.460 OA
BRANCH   5   6
ATOM      6  C   UNL A   1      33.707  22.230  24.762  1.00  0.00     0.338 C 
ATOM      7  O   UNL A   1      34.720  21.868  25.317  1.00  0.00    -0.246 OA
BRANCH   6   8
ATOM      8  C   UNL A   1      33.695  23.332  23.774  1.00  0.00     0.060 A 
ATOM      9  C   UNL A   1      33.407  25.632  22.227  1.00  0.00    -0.029 A 
ATOM     10  C   UNL A   1      34.293  25.630  23.316  1.00  0.00     0.006 A 
ATOM     11  C   UNL A   1      32.809  24.424  21.819  1.00  0.00     0.006 A 
ATOM     12  C   UNL A   1      34.415  24.488  24.104  1.00  0.00     0.016 A 
ATOM     13  C   UNL A   1      32.950  23.271  22.595  1.00  0.00     0.016 A 
BRANCH   9  14
ATOM     14  C   UNL A   1      32.915  26.950  21.661  1.00  0.00     0.151 C 
BRANCH  14  15
ATOM     15  N   UNL A   1      32.292  27.799  22.689  1.00  0.00    -0.369 N 
ATOM     16  C   UNL A   1      33.125  28.428  23.704  1.00  0.00     0.144 C 
BRANCH  15  17
ATOM     17  C   UNL A   1      30.904  27.921  22.819  1.00  0.00     0.060 A 
ATOM     18  C   UNL A   1      30.157  26.967  23.534  1.00  0.00     0.028 A 
ATOM     19  C   UNL A   1      30.183  29.015  22.282  1.00  0.00     0.055 A 
ATOM     20  C   UNL A   1      28.772  27.039  23.683  1.00  0.00     0.002 A 
ATOM     21  C   UNL A   1      28.796  29.119  22.495  1.00  0.00     0.027 A 
ATOM     22  C   UNL A   1      28.088  28.122  23.163  1.00  0.00     0.002 A 
BRANCH  19  23
ATOM     23  N   UNL A   1      30.838  30.061  21.626  1.00  0.00    -0.397 N 
ATOM     24  H   UNL A   1      31.138  30.849  22.134  1.00  0.00     0.156 HD
ATOM     25  H   UNL A   1      30.999  30.009  20.657  1.00  0.00     0.156 HD
ENDBRANCH  19  23
ENDBRANCH  15  17
ENDBRANCH  14  15
ENDBRANCH   9  14
ENDBRANCH   6   8
ENDBRANCH   5   6
ENDBRANCH   4   5
ENDBRANCH   3   4
ENDBRANCH   2   3
ENDBRANCH   1   2
BRANCH   1  26
ATOM     26  C   UNL A   1      32.020  26.440  26.415  1.00  0.00     0.188 C 
BRANCH  26  27
ATOM     27  O   UNL A   1      31.176  27.395  27.012  1.00  0.00    -0.376 OA
BRANCH  27  28
ATOM     28  C   UNL A   1      31.689  28.591  27.567  1.00  0.00     0.202 C 
BRANCH  28  29
ATOM     29  C   UNL A   1      31.759  29.946  26.843  1.00  0.00     0.261 C 
BRANCH  29  30
ATOM     30  O   UNL A   1      33.048  30.430  26.472  1.00  0.00    -0.460 OA
BRANCH  30  31
ATOM     31  C   UNL A   1      33.510  31.464  27.219  1.00  0.00     0.338 C 
ATOM     32  O   UNL A   1      32.915  32.479  27.532  1.00  0.00    -0.246 OA
BRANCH  31  33
ATOM     33  C   UNL A   1      34.833  31.113  27.758  1.00  0.00     0.060 A 
ATOM     34  C   UNL A   1      35.076  29.781  28.114  1.00  0.00     0.016 A 
ATOM     35  C   UNL A   1      35.802  32.094  27.962  1.00  0.00     0.016 A 
ATOM     36  C   UNL A   1      36.286  29.428  28.709  1.00  0.00     0.010 A 
ATOM     37  C   UNL A   1      37.009  31.746  28.575  1.00  0.00     0.010 A 
ATOM     38  C   UNL A   1      37.241  30.418  28.979  1.00  0.00    -0.014 A 
BRANCH  38  39
ATOM     39  C   UNL A   1      38.403  30.098  29.841  1.00  0.00     0.031 A 
ATOM     40  C   UNL A   1      39.448  29.152  29.318  1.00  0.00     0.074 A 
ATOM     41  C   UNL A   1      38.537  30.646  31.060  1.00  0.00     0.049 A 
ATOM     42  N   UNL A   1      40.528  28.698  29.901  1.00  0.00    -0.248 NA
ATOM     43  C   UNL A   1      39.244  28.650  27.950  1.00  0.00     0.031 C 
ATOM     44  C   UNL A   1      37.610  31.601  31.664  1.00  0.00     0.029 A 
ATOM     45  N   UNL A   1      39.509  30.466  32.014  1.00  0.00    -0.354 N 
ATOM     46  C   UNL A   1      41.129  27.856  28.976  1.00  0.00     0.074 A 
ATOM     47  C   UNL A   1      40.279  27.837  27.804  1.00  0.00     0.031 C 
ATOM     48  C   UNL A   1      38.050  31.913  32.896  1.00  0.00     0.029 A 
ATOM     49  C   UNL A   1      39.273  31.159  33.174  1.00  0.00     0.049 A 
ATOM     50  H   UNL A   1      40.298  29.895  31.877  1.00  0.00     0.167 HD
ATOM     51  C   UNL A   1      42.290  27.168  29.088  1.00  0.00     0.037 A 
ATOM     52  C   UNL A   1      39.957  31.164  34.335  1.00  0.00     0.037 A 
ATOM     53  C   UNL A   1      43.129  27.182  30.257  1.00  0.00     0.049 A 
ATOM     54  C   UNL A   1      41.207  30.331  34.464  1.00  0.00     0.074 A 
ATOM     55  C   UNL A   1      44.335  26.533  30.461  1.00  0.00     0.029 A 
ATOM     56  N   UNL A   1      42.843  27.872  31.425  1.00  0.00    -0.354 N 
ATOM     57  N   UNL A   1      41.790  29.565  33.572  1.00  0.00    -0.248 NA
ATOM     58  C   UNL A   1      41.897  30.368  35.761  1.00  0.00     0.031 C 
ATOM     59  C   UNL A   1      44.752  26.789  31.772  1.00  0.00     0.029 A 
ATOM     60  C   UNL A   1      43.836  27.643  32.365  1.00  0.00     0.049 A 
ATOM     61  H   UNL A   1      42.053  28.441  31.566  1.00  0.00     0.167 HD
ATOM     62  C   UNL A   1      42.926  29.054  34.188  1.00  0.00     0.074 A 
ATOM     63  C   UNL A   1      42.958  29.608  35.526  1.00  0.00     0.031 C 
ATOM     64  C   UNL A   1      43.859  28.207  33.691  1.00  0.00     0.037 A 
BRANCH  51  65
ATOM     65  C   UNL A   1      42.702  26.318  27.923  1.00  0.00     0.064 A 
ATOM     66  C   UNL A   1      42.243  25.000  27.773  1.00  0.00     0.173 A 
ATOM     67  C   UNL A   1      43.550  26.835  26.933  1.00  0.00     0.173 A 
ATOM     68  F   UNL A   1      41.443  24.454  28.701  1.00  0.00    -0.203 F 
ATOM     69  C   UNL A   1      42.642  24.223  26.689  1.00  0.00     0.198 A 
ATOM     70  C   UNL A   1      43.922  26.064  25.834  1.00  0.00     0.198 A 
ATOM     71  F   UNL A   1      44.014  28.090  27.027  1.00  0.00    -0.203 F 
ATOM     72  F   UNL A   1      42.233  22.949  26.593  1.00  0.00    -0.200 F 
ATOM     73  C   UNL A   1      43.476  24.757  25.718  1.00  0.00     0.200 A 
ATOM     74  F   UNL A   1      44.719  26.586  24.891  1.00  0.00    -0.200 F 
ATOM     75  F   UNL A   1      43.856  24.008  24.673  1.00  0.00    -0.200 F 
ENDBRANCH  51  65
BRANCH  52  76
ATOM     76  C   UNL A   1      39.471  31.979  35.479  1.00  0.00     0.064 A 
ATOM     77  C   UNL A   1      39.937  33.285  35.686  1.00  0.00     0.173 A 
ATOM     78  C   UNL A   1      38.550  31.460  36.402  1.00  0.00     0.173 A 
ATOM     79  F   UNL A   1      40.841  33.813  34.848  1.00  0.00    -0.203 F 
ATOM     80  C   UNL A   1      39.516  34.034  36.783  1.00  0.00     0.198 A 
ATOM     81  C   UNL A   1      38.108  32.221  37.482  1.00  0.00     0.198 A 
ATOM     82  F   UNL A   1      38.078  30.215  36.252  1.00  0.00    -0.203 F 
ATOM     83  F   UNL A   1      40.017  35.260  36.985  1.00  0.00    -0.200 F 
ATOM     84  C   UNL A   1      38.597  33.504  37.676  1.00  0.00     0.200 A 
ATOM     85  F   UNL A   1      37.215  31.709  38.339  1.00  0.00    -0.200 F 
ATOM     86  F   UNL A   1      38.193  34.225  38.731  1.00  0.00    -0.200 F 
ENDBRANCH  52  76
BRANCH  64  87
ATOM     87  C   UNL A   1      45.017  27.852  34.580  1.00  0.00     0.064 A 
ATOM     88  C   UNL A   1      46.186  28.628  34.617  1.00  0.00     0.173 A 
ATOM     89  C   UNL A   1      44.939  26.743  35.438  1.00  0.00     0.173 A 
ATOM     90  F   UNL A   1      46.316  29.689  33.808  1.00  0.00    -0.203 F 
ATOM     91  C   UNL A   1      47.242  28.292  35.461  1.00  0.00     0.198 A 
ATOM     92  C   UNL A   1      45.984  26.429  36.302  1.00  0.00     0.198 A 
ATOM     93  F   UNL A   1      43.841  25.973  35.449  1.00  0.00    -0.203 F 
ATOM     94  F   UNL A   1      48.367  29.019  35.444  1.00  0.00    -0.200 F 
ATOM     95  C   UNL A   1      47.138  27.198  36.307  1.00  0.00     0.200 A 
ATOM     96  F   UNL A   1      45.875  25.381  37.130  1.00  0.00    -0.200 F 
ATOM     97  F   UNL A   1      48.152  26.881  37.124  1.00  0.00    -0.200 F 
ENDBRANCH  64  87
ENDBRANCH  38  39
ENDBRANCH  31  33
ENDBRANCH  30  31
ENDBRANCH  29  30
ENDBRANCH  28  29
ENDBRANCH  27  28
ENDBRANCH  26  27
ENDBRANCH   1  26
TORSDOF 21
ENDMDL
MODEL 2
REMARK VINA RESULT:     -10.6      2.778      8.835
REMARK SMILES CN(Cc1ccc(C(=O)OCCOCCOCCOC(=O)c2ccc(-c3c4nc(c(-c5c(F)c(F)c(F)c(F)c5F)c5ccc([nH]5)c(-c5c(F)c(F)c(F)c(F)c5F)c5nc(c(-c6c(F)c(F)c(F)c(F)c6F)c6ccc3[nH]6)C=C5)C=C4)cc2)cc1)c1ccccc1N
REMARK SMILES IDX 14 1 13 2 12 3 11 4 10 5 8 6 9 7 7 8 4 9 5 10 86 11 6 12
REMARK SMILES IDX 85 13 3 14 2 15 1 16 87 17 88 18 92 19 89 20 91 21 90 22
REMARK SMILES IDX 93 23 15 26 16 27 17 28 18 29 19 30 20 31 21 32 22 33 23 34
REMARK SMILES IDX 84 35 24 36 83 37 25 38 26 39 27 40 77 41 28 42 82 43 76 44
REMARK SMILES IDX 78 45 29 46 81 47 75 48 74 49 30 51 62 52 42 53 61 54 43 55
REMARK SMILES IDX 46 56 60 57 79 58 44 59 45 60 59 62 80 63 47 64 31 65 32 66
REMARK SMILES IDX 40 67 33 68 34 69 38 70 41 71 35 72 36 73 39 74 37 75 63 76
REMARK SMILES IDX 64 77 72 78 65 79 66 80 70 81 73 82 67 83 68 84 71 85 69 86
REMARK SMILES IDX 48 87 49 88 57 89 50 90 51 91 55 92 58 93 52 94 53 95 56 96
REMARK SMILES IDX 54 97
REMARK H PARENT 93 24 93 25 78 50 46 61
REMARK Flexibility Score: inf
ROOT
ATOM      1  C   UNL A   1      35.584  31.887  27.979  1.00  0.00     0.188 C 
ENDROOT
BRANCH   1   2
ATOM      2  O   UNL A   1      34.906  30.776  27.421  1.00  0.00    -0.376 OA
BRANCH   2   3
ATOM      3  C   UNL A   1      33.490  30.702  27.471  1.00  0.00     0.202 C 
BRANCH   3   4
ATOM      4  C   UNL A   1      32.666  30.467  26.204  1.00  0.00     0.261 C 
BRANCH   4   5
ATOM      5  O   UNL A   1      31.838  29.300  26.266  1.00  0.00    -0.460 OA
BRANCH   5   6
ATOM      6  C   UNL A   1      31.395  28.860  25.061  1.00  0.00     0.338 C 
ATOM      7  O   UNL A   1      30.873  29.518  24.188  1.00  0.00    -0.246 OA
BRANCH   6   8
ATOM      8  C   UNL A   1      31.798  27.451  24.856  1.00  0.00     0.060 A 
ATOM      9  C   UNL A   1      32.254  24.702  24.815  1.00  0.00    -0.029 A 
ATOM     10  C   UNL A   1      31.088  25.224  24.235  1.00  0.00     0.006 A 
ATOM     11  C   UNL A   1      33.264  25.582  25.251  1.00  0.00     0.006 A 
ATOM     12  C   UNL A   1      30.849  26.595  24.281  1.00  0.00     0.016 A 
ATOM     13  C   UNL A   1      33.036  26.960  25.275  1.00  0.00     0.016 A 
BRANCH   9  14
ATOM     14  C   UNL A   1      32.316  23.234  25.189  1.00  0.00     0.151 C 
BRANCH  14  15
ATOM     15  N   UNL A   1      32.979  22.423  24.154  1.00  0.00    -0.369 N 
ATOM     16  C   UNL A   1      32.178  21.781  23.122  1.00  0.00     0.144 C 
BRANCH  15  17
ATOM     17  C   UNL A   1      34.345  22.127  24.197  1.00  0.00     0.060 A 
ATOM     18  C   UNL A   1      35.279  22.915  23.502  1.00  0.00     0.028 A 
ATOM     19  C   UNL A   1      34.867  21.057  24.964  1.00  0.00     0.055 A 
ATOM     20  C   UNL A   1      36.650  22.655  23.506  1.00  0.00     0.002 A 
ATOM     21  C   UNL A   1      36.256  20.841  25.020  1.00  0.00     0.027 A 
ATOM     22  C   UNL A   1      37.141  21.614  24.271  1.00  0.00     0.002 A 
BRANCH  19  23
ATOM     23  N   UNL A   1      34.036  20.263  25.758  1.00  0.00    -0.397 N 
ATOM     24  H   UNL A   1      34.398  19.815  26.556  1.00  0.00     0.156 HD
ATOM     25  H   UNL A   1      33.087  20.153  25.520  1.00  0.00     0.156 HD
ENDBRANCH  19  23
ENDBRANCH  15  17
ENDBRANCH  14  15
ENDBRANCH   9  14
ENDBRANCH   6   8
ENDBRANCH   5   6
ENDBRANCH   4   5
ENDBRANCH   3   4
ENDBRANCH   2   3
ENDBRANCH   1   2
BRANCH   1  26
ATOM     26  C   UNL A   1      34.813  33.017  28.694  1.00  0.00     0.188 C 
BRANCH  26  27
ATOM     27  O   UNL A   1      34.304  34.103  27.961  1.00  0.00    -0.376 OA
BRANCH  27  28
ATOM     28  C   UNL A   1      34.166  35.387  28.540  1.00  0.00     0.202 C 
BRANCH  28  29
ATOM     29  C   UNL A   1      32.944  35.876  29.335  1.00  0.00     0.261 C 
BRANCH  29  30
ATOM     30  O   UNL A   1      32.519  35.084  30.443  1.00  0.00    -0.460 OA
BRANCH  30  31
ATOM     31  C   UNL A   1      32.739  35.639  31.662  1.00  0.00     0.338 C 
ATOM     32  O   UNL A   1      32.047  36.456  32.243  1.00  0.00    -0.246 OA
BRANCH  31  33
ATOM     33  C   UNL A   1      33.892  34.976  32.290  1.00  0.00     0.060 A 
ATOM     34  C   UNL A   1      35.143  35.600  32.213  1.00  0.00     0.016 A 
ATOM     35  C   UNL A   1      33.752  33.729  32.896  1.00  0.00     0.016 A 
ATOM     36  C   UNL A   1      36.273  34.960  32.720  1.00  0.00     0.010 A 
ATOM     37  C   UNL A   1      34.887  33.078  33.389  1.00  0.00     0.010 A 
ATOM     38  C   UNL A   1      36.155  33.678  33.273  1.00  0.00    -0.014 A 
BRANCH  38  39
ATOM     39  C   UNL A   1      37.377  32.893  33.568  1.00  0.00     0.031 A 
ATOM     40  C   UNL A   1      38.113  33.161  34.851  1.00  0.00     0.074 A 
ATOM     41  C   UNL A   1      37.818  31.950  32.719  1.00  0.00     0.049 A 
ATOM     42  N   UNL A   1      39.218  32.628  35.304  1.00  0.00    -0.248 NA
ATOM     43  C   UNL A   1      37.519  34.170  35.742  1.00  0.00     0.031 C 
ATOM     44  C   UNL A   1      37.175  31.575  31.462  1.00  0.00     0.029 A 
ATOM     45  N   UNL A   1      38.925  31.140  32.788  1.00  0.00    -0.354 N 
ATOM     46  C   UNL A   1      39.454  33.237  36.529  1.00  0.00     0.074 A 
ATOM     47  C   UNL A   1      38.395  34.202  36.734  1.00  0.00     0.031 C 
ATOM     48  C   UNL A   1      37.908  30.616  30.868  1.00  0.00     0.029 A 
ATOM     49  C   UNL A   1      39.084  30.332  31.691  1.00  0.00     0.049 A 
ATOM     50  H   UNL A   1      39.545  31.140  33.552  1.00  0.00     0.167 HD
ATOM     51  C   UNL A   1      40.458  33.006  37.408  1.00  0.00     0.037 A 
ATOM     52  C   UNL A   1      40.078  29.478  31.379  1.00  0.00     0.037 A 
ATOM     53  C   UNL A   1      41.514  32.052  37.198  1.00  0.00     0.049 A 
ATOM     54  C   UNL A   1      41.226  29.293  32.339  1.00  0.00     0.074 A 
ATOM     55  C   UNL A   1      42.567  31.732  38.038  1.00  0.00     0.029 A 
ATOM     56  N   UNL A   1      41.659  31.273  36.061  1.00  0.00    -0.354 N 
ATOM     57  N   UNL A   1      41.424  29.845  33.512  1.00  0.00    -0.248 NA
ATOM     58  C   UNL A   1      42.286  28.359  31.932  1.00  0.00     0.031 C 
ATOM     59  C   UNL A   1      43.378  30.796  37.386  1.00  0.00     0.029 A 
ATOM     60  C   UNL A   1      42.798  30.490  36.165  1.00  0.00     0.049 A 
ATOM     61  H   UNL A   1      41.042  31.273  35.293  1.00  0.00     0.167 HD
ATOM     62  C   UNL A   1      42.611  29.306  33.995  1.00  0.00     0.074 A 
ATOM     63  C   UNL A   1      43.082  28.373  32.993  1.00  0.00     0.031 C 
ATOM     64  C   UNL A   1      43.252  29.559  35.162  1.00  0.00     0.037 A 
BRANCH  51  65
ATOM     65  C   UNL A   1      40.474  33.825  38.665  1.00  0.00     0.064 A 
ATOM     66  C   UNL A   1      41.235  35.001  38.770  1.00  0.00     0.173 A 
ATOM     67  C   UNL A   1      39.703  33.441  39.771  1.00  0.00     0.173 A 
ATOM     68  F   UNL A   1      42.001  35.402  37.744  1.00  0.00    -0.203 F 
ATOM     69  C   UNL A   1      41.244  35.744  39.947  1.00  0.00     0.198 A 
ATOM     70  C   UNL A   1      39.691  34.204  40.936  1.00  0.00     0.198 A 
ATOM     71  F   UNL A   1      38.956  32.328  39.722  1.00  0.00    -0.203 F 
ATOM     72  F   UNL A   1      42.017  36.835  40.042  1.00  0.00    -0.200 F 
ATOM     73  C   UNL A   1      40.468  35.349  41.026  1.00  0.00     0.200 A 
ATOM     74  F   UNL A   1      38.933  33.826  41.975  1.00  0.00    -0.200 F 
ATOM     75  F   UNL A   1      40.476  36.068  42.158  1.00  0.00    -0.200 F 
ENDBRANCH  51  65
BRANCH  52  76
ATOM     76  C   UNL A   1      40.043  28.735  30.092  1.00  0.00     0.064 A 
ATOM     77  C   UNL A   1      39.434  27.476  30.001  1.00  0.00     0.173 A 
ATOM     78  C   UNL A   1      40.637  29.259  28.934  1.00  0.00     0.173 A 
ATOM     79  F   UNL A   1      38.878  26.921  31.088  1.00  0.00    -0.203 F 
ATOM     80  C   UNL A   1      39.438  26.760  28.806  1.00  0.00     0.198 A 
ATOM     81  C   UNL A   1      40.615  28.554  27.732  1.00  0.00     0.198 A 
ATOM     82  F   UNL A   1      41.237  30.457  28.970  1.00  0.00    -0.203 F 
ATOM     83  F   UNL A   1      38.895  25.536  28.760  1.00  0.00    -0.200 F 
ATOM     84  C   UNL A   1      40.023  27.302  27.671  1.00  0.00     0.200 A 
ATOM     85  F   UNL A   1      41.175  29.084  26.637  1.00  0.00    -0.200 F 
ATOM     86  F   UNL A   1      40.027  26.612  26.522  1.00  0.00    -0.200 F 
ENDBRANCH  52  76
BRANCH  64  87
ATOM     87  C   UNL A   1      44.511  28.791  35.442  1.00  0.00     0.064 A 
ATOM     88  C   UNL A   1      44.491  27.551  36.099  1.00  0.00     0.173 A 
ATOM     89  C   UNL A   1      45.754  29.283  35.009  1.00  0.00     0.173 A 
ATOM     90  F   UNL A   1      43.332  27.044  36.544  1.00  0.00    -0.203 F 
ATOM     91  C   UNL A   1      45.669  26.846  36.334  1.00  0.00     0.198 A 
ATOM     92  C   UNL A   1      46.924  28.560  35.218  1.00  0.00     0.198 A 
ATOM     93  F   UNL A   1      45.829  30.459  34.368  1.00  0.00    -0.203 F 
ATOM     94  F   UNL A   1      45.630  25.687  37.006  1.00  0.00    -0.200 F 
ATOM     95  C   UNL A   1      46.882  27.347  35.888  1.00  0.00     0.200 A 
ATOM     96  F   UNL A   1      48.094  29.038  34.773  1.00  0.00    -0.200 F 
ATOM     97  F   UNL A   1      48.014  26.663  36.109  1.00  0.00    -0.200 F 
ENDBRANCH  64  87
ENDBRANCH  38  39
ENDBRANCH  31  33
ENDBRANCH  30  31
ENDBRANCH  29  30
ENDBRANCH  28  29
ENDBRANCH  27  28
ENDBRANCH  26  27
ENDBRANCH   1  26
TORSDOF 21
ENDMDL
MODEL 3
REMARK VINA RESULT:     -10.6      0.526      7.246
REMARK SMILES CN(Cc1ccc(C(=O)OCCOCCOCCOC(=O)c2ccc(-c3c4nc(c(-c5c(F)c(F)c(F)c(F)c5F)c5ccc([nH]5)c(-c5c(F)c(F)c(F)c(F)c5F)c5nc(c(-c6c(F)c(F)c(F)c(F)c6F)c6ccc3[nH]6)C=C5)C=C4)cc2)cc1)c1ccccc1N
REMARK SMILES IDX 14 1 13 2 12 3 11 4 10 5 8 6 9 7 7 8 4 9 5 10 86 11 6 12
REMARK SMILES IDX 85 13 3 14 2 15 1 16 87 17 88 18 92 19 89 20 91 21 90 22
REMARK SMILES IDX 93 23 15 26 16 27 17 28 18 29 19 30 20 31 21 32 22 33 23 34
REMARK SMILES IDX 84 35 24 36 83 37 25 38 26 39 27 40 77 41 28 42 82 43 76 44
REMARK SMILES IDX 78 45 29 46 81 47 75 48 74 49 30 51 62 52 42 53 61 54 43 55
REMARK SMILES IDX 46 56 60 57 79 58 44 59 45 60 59 62 80 63 47 64 31 65 32 66
REMARK SMILES IDX 40 67 33 68 34 69 38 70 41 71 35 72 36 73 39 74 37 75 63 76
REMARK SMILES IDX 64 77 72 78 65 79 66 80 70 81 73 82 67 83 68 84 71 85 69 86
REMARK SMILES IDX 48 87 49 88 57 89 50 90 51 91 55 92 58 93 52 94 53 95 56 96
REMARK SMILES IDX 54 97
REMARK H PARENT 93 24 93 25 78 50 46 61
REMARK Flexibility Score: inf
ROOT
ATOM      1  C   UNL A   1      31.785  25.278  26.846  1.00  0.00     0.188 C 
ENDROOT
BRANCH   1   2
ATOM      2  O   UNL A   1      30.631  24.705  26.259  1.00  0.00    -0.376 OA
BRANCH   2   3
ATOM      3  C   UNL A   1      30.274  23.362  26.545  1.00  0.00     0.202 C 
BRANCH   3   4
ATOM      4  C   UNL A   1      31.300  22.232  26.438  1.00  0.00     0.261 C 
BRANCH   4   5
ATOM      5  O   UNL A   1      31.774  22.011  25.105  1.00  0.00    -0.460 OA
BRANCH   5   6
ATOM      6  C   UNL A   1      33.092  22.278  24.925  1.00  0.00     0.338 C 
ATOM      7  O   UNL A   1      34.032  21.660  25.374  1.00  0.00    -0.246 OA
BRANCH   6   8
ATOM      8  C   UNL A   1      33.259  23.358  23.928  1.00  0.00     0.060 A 
ATOM      9  C   UNL A   1      33.354  25.662  22.364  1.00  0.00    -0.029 A 
ATOM     10  C   UNL A   1      34.242  25.513  23.440  1.00  0.00     0.006 A 
ATOM     11  C   UNL A   1      32.548  24.575  21.975  1.00  0.00     0.006 A 
ATOM     12  C   UNL A   1      34.174  24.373  24.237  1.00  0.00     0.016 A 
ATOM     13  C   UNL A   1      32.497  23.420  22.759  1.00  0.00     0.016 A 
BRANCH   9  14
ATOM     14  C   UNL A   1      33.091  27.042  21.792  1.00  0.00     0.151 C 
BRANCH  14  15
ATOM     15  N   UNL A   1      32.406  27.922  22.754  1.00  0.00    -0.369 N 
ATOM     16  C   UNL A   1      33.191  28.720  23.684  1.00  0.00     0.144 C 
BRANCH  15  17
ATOM     17  C   UNL A   1      31.016  27.922  22.908  1.00  0.00     0.060 A 
ATOM     18  C   UNL A   1      30.367  26.905  23.630  1.00  0.00     0.028 A 
ATOM     19  C   UNL A   1      30.193  28.952  22.389  1.00  0.00     0.055 A 
ATOM     20  C   UNL A   1      28.984  26.855  23.803  1.00  0.00     0.002 A 
ATOM     21  C   UNL A   1      28.807  28.934  22.626  1.00  0.00     0.027 A 
ATOM     22  C   UNL A   1      28.200  27.876  23.301  1.00  0.00     0.002 A 
BRANCH  19  23
ATOM     23  N   UNL A   1      30.743  30.053  21.728  1.00  0.00    -0.397 N 
ATOM     24  H   UNL A   1      30.178  30.828  21.508  1.00  0.00     0.156 HD
ATOM     25  H   UNL A   1      31.696  30.054  21.483  1.00  0.00     0.156 HD
ENDBRANCH  19  23
ENDBRANCH  15  17
ENDBRANCH  14  15
ENDBRANCH   9  14
ENDBRANCH   6   8
ENDBRANCH   5   6
ENDBRANCH   4   5
ENDBRANCH   3   4
ENDBRANCH   2   3
ENDBRANCH   1   2
BRANCH   1  26
ATOM     26  C   UNL A   1      32.201  26.732  26.540  1.00  0.00     0.188 C 
BRANCH  26  27
ATOM     27  O   UNL A   1      31.316  27.794  26.804  1.00  0.00    -0.376 OA
BRANCH  27  28
ATOM     28  C   UNL A   1      31.743  28.959  27.485  1.00  0.00     0.202 C 
BRANCH  28  29
ATOM     29  C   UNL A   1      31.858  30.360  26.861  1.00  0.00     0.261 C 
BRANCH  29  30
ATOM     30  O   UNL A   1      33.162  30.826  26.525  1.00  0.00    -0.460 OA
BRANCH  30  31
ATOM     31  C   UNL A   1      33.698  31.714  27.401  1.00  0.00     0.338 C 
ATOM     32  O   UNL A   1      33.171  32.708  27.868  1.00  0.00    -0.246 OA
BRANCH  31  33
ATOM     33  C   UNL A   1      35.003  31.210  27.857  1.00  0.00     0.060 A 
ATOM     34  C   UNL A   1      35.152  29.833  28.059  1.00  0.00     0.016 A 
ATOM     35  C   UNL A   1      36.047  32.090  28.136  1.00  0.00     0.016 A 
ATOM     36  C   UNL A   1      36.346  29.330  28.574  1.00  0.00     0.010 A 
ATOM     37  C   UNL A   1      37.238  31.590  28.669  1.00  0.00     0.010 A 
ATOM     38  C   UNL A   1      37.379  30.212  28.919  1.00  0.00    -0.014 A 
BRANCH  38  39
ATOM     39  C   UNL A   1      38.534  29.715  29.704  1.00  0.00     0.031 A 
ATOM     40  C   UNL A   1      38.746  30.253  31.091  1.00  0.00     0.074 A 
ATOM     41  C   UNL A   1      39.370  28.792  29.201  1.00  0.00     0.049 A 
ATOM     42  N   UNL A   1      39.701  29.996  31.948  1.00  0.00    -0.248 NA
ATOM     43  C   UNL A   1      37.744  31.215  31.576  1.00  0.00     0.031 C 
ATOM     44  C   UNL A   1      39.251  28.170  27.884  1.00  0.00     0.029 A 
ATOM     45  N   UNL A   1      40.497  28.225  29.743  1.00  0.00    -0.354 N 
ATOM     46  C   UNL A   1      39.418  30.763  33.068  1.00  0.00     0.074 A 
ATOM     47  C   UNL A   1      38.220  31.521  32.773  1.00  0.00     0.031 C 
ATOM     48  C   UNL A   1      40.275  27.316  27.713  1.00  0.00     0.029 A 
ATOM     49  C   UNL A   1      41.135  27.354  28.896  1.00  0.00     0.049 A 
ATOM     50  H   UNL A   1      40.817  28.425  30.652  1.00  0.00     0.167 HD
ATOM     51  C   UNL A   1      40.090  30.826  34.242  1.00  0.00     0.037 A 
ATOM     52  C   UNL A   1      42.291  26.681  29.054  1.00  0.00     0.037 A 
ATOM     53  C   UNL A   1      41.285  30.079  34.531  1.00  0.00     0.049 A 
ATOM     54  C   UNL A   1      43.063  26.824  30.342  1.00  0.00     0.074 A 
ATOM     55  C   UNL A   1      42.030  30.058  35.698  1.00  0.00     0.029 A 
ATOM     56  N   UNL A   1      41.918  29.228  33.639  1.00  0.00    -0.354 N 
ATOM     57  N   UNL A   1      42.771  27.524  31.412  1.00  0.00    -0.248 NA
ATOM     58  C   UNL A   1      44.325  26.076  30.444  1.00  0.00     0.031 C 
ATOM     59  C   UNL A   1      43.142  29.235  35.493  1.00  0.00     0.029 A 
ATOM     60  C   UNL A   1      43.060  28.697  34.219  1.00  0.00     0.049 A 
ATOM     61  H   UNL A   1      41.604  29.028  32.727  1.00  0.00     0.167 HD
ATOM     62  C   UNL A   1      43.793  27.279  32.322  1.00  0.00     0.074 A 
ATOM     63  C   UNL A   1      44.707  26.356  31.683  1.00  0.00     0.031 C 
ATOM     64  C   UNL A   1      43.958  27.773  33.573  1.00  0.00     0.037 A 
BRANCH  51  65
ATOM     65  C   UNL A   1      39.560  31.759  35.291  1.00  0.00     0.064 A 
ATOM     66  C   UNL A   1      38.626  31.336  36.250  1.00  0.00     0.173 A 
ATOM     67  C   UNL A   1      40.006  33.086  35.349  1.00  0.00     0.173 A 
ATOM     68  F   UNL A   1      38.156  30.079  36.227  1.00  0.00    -0.203 F 
ATOM     69  C   UNL A   1      38.139  32.217  37.211  1.00  0.00     0.198 A 
ATOM     70  C   UNL A   1      39.539  33.957  36.331  1.00  0.00     0.198 A 
ATOM     71  F   UNL A   1      40.900  33.541  34.458  1.00  0.00    -0.203 F 
ATOM     72  F   UNL A   1      37.210  31.806  38.085  1.00  0.00    -0.200 F 
ATOM     73  C   UNL A   1      38.600  33.525  37.255  1.00  0.00     0.200 A 
ATOM     74  F   UNL A   1      39.994  35.217  36.378  1.00  0.00    -0.200 F 
ATOM     75  F   UNL A   1      38.132  34.371  38.183  1.00  0.00    -0.200 F 
ENDBRANCH  51  65
BRANCH  52  76
ATOM     76  C   UNL A   1      42.803  25.815  27.959  1.00  0.00     0.064 A 
ATOM     77  C   UNL A   1      42.392  24.480  27.842  1.00  0.00     0.173 A 
ATOM     78  C   UNL A   1      43.729  26.298  27.023  1.00  0.00     0.173 A 
ATOM     79  F   UNL A   1      41.531  23.964  28.732  1.00  0.00    -0.203 F 
ATOM     80  C   UNL A   1      42.903  23.655  26.842  1.00  0.00     0.198 A 
ATOM     81  C   UNL A   1      44.217  25.481  26.006  1.00  0.00     0.198 A 
ATOM     82  F   UNL A   1      44.157  27.567  27.094  1.00  0.00    -0.203 F 
ATOM     83  F   UNL A   1      42.534  22.369  26.785  1.00  0.00    -0.200 F 
ATOM     84  C   UNL A   1      43.810  24.158  25.921  1.00  0.00     0.200 A 
ATOM     85  F   UNL A   1      45.088  25.972  25.114  1.00  0.00    -0.200 F 
ATOM     86  F   UNL A   1      44.302  23.364  24.961  1.00  0.00    -0.200 F 
ENDBRANCH  52  76
BRANCH  64  87
ATOM     87  C   UNL A   1      45.150  27.297  34.354  1.00  0.00     0.064 A 
ATOM     88  C   UNL A   1      45.102  26.140  35.146  1.00  0.00     0.173 A 
ATOM     89  C   UNL A   1      46.371  27.987  34.275  1.00  0.00     0.173 A 
ATOM     90  F   UNL A   1      43.957  25.452  35.265  1.00  0.00    -0.203 F 
ATOM     91  C   UNL A   1      46.223  25.706  35.848  1.00  0.00     0.198 A 
ATOM     92  C   UNL A   1      47.497  27.533  34.954  1.00  0.00     0.198 A 
ATOM     93  F   UNL A   1      46.474  29.095  33.526  1.00  0.00    -0.203 F 
ATOM     94  F   UNL A   1      46.141  24.625  36.636  1.00  0.00    -0.200 F 
ATOM     95  C   UNL A   1      47.421  26.398  35.747  1.00  0.00     0.200 A 
ATOM     96  F   UNL A   1      48.658  28.194  34.842  1.00  0.00    -0.200 F 
ATOM     97  F   UNL A   1      48.501  25.975  36.418  1.00  0.00    -0.200 F 
ENDBRANCH  64  87
ENDBRANCH  38  39
ENDBRANCH  31  33
ENDBRANCH  30  31
ENDBRANCH  29  30
ENDBRANCH  28  29
ENDBRANCH  27  28
ENDBRANCH  26  27
ENDBRANCH   1  26
TORSDOF 21
ENDMDL
