MODEL 1
REMARK VINA RESULT:     -11.6      0.000      0.000
REMARK SMILES O=C(OCCOCCOCCOC(=O)c1[nH]ncc1C[NH+]1CCC([N@H+]2CCC[C@@H](C(=O)N3CCCC3)C2)CC1)c1ccc(-c2c3nc(c(-c4c(F)c(F)c(F)c(F)c4F)c4ccc([nH]4)c(-c4c(F)c(F)c(F)c(F)c4F)c4nc(c(-c5c(F)c(F)c(F)c(F)c5F)c5ccc2[nH]5)C=C4)C=C3)cc1
REMARK SMILES IDX 8 1 7 2 6 3 5 4 4 5 3 6 2 7 1 8 40 9 41 10 102 11 42 12
REMARK SMILES IDX 101 13 43 14 44 15 45 16 95 17 46 18 100 19 94 20 96 21
REMARK SMILES IDX 47 22 99 23 93 24 92 25 48 27 80 28 60 29 79 30 61 31 64 32
REMARK SMILES IDX 78 33 97 34 62 35 63 36 77 38 98 39 65 40 49 41 50 42 58 43
REMARK SMILES IDX 51 44 52 45 56 46 59 47 53 48 54 49 57 50 55 51 81 52 82 53
REMARK SMILES IDX 90 54 83 55 84 56 88 57 91 58 85 59 86 60 89 61 87 62 66 63
REMARK SMILES IDX 67 64 75 65 68 66 69 67 73 68 76 69 70 70 71 71 74 72 72 73
REMARK SMILES IDX 9 74 10 75 11 76 12 77 13 78 14 79 15 80 16 81 19 82 17 83
REMARK SMILES IDX 18 85 20 86 21 87 22 88 39 89 23 91 38 92 24 93 25 94 26 95
REMARK SMILES IDX 37 96 27 98 29 99 28 100 30 101 31 102 32 103 33 104 36 105
REMARK SMILES IDX 34 106 35 107
REMARK H PARENT 96 26 64 37 16 84 21 90 25 97
REMARK Flexibility Score: inf
ROOT
ATOM      1  C   UNL A   1      33.946  31.949  27.963  1.00  0.00     0.188 C 
ENDROOT
BRANCH   1   2
ATOM      2  C   UNL A   1      34.543  33.020  28.875  1.00  0.00     0.188 C 
BRANCH   2   3
ATOM      3  O   UNL A   1      33.495  33.855  29.400  1.00  0.00    -0.376 OA
BRANCH   3   4
ATOM      4  C   UNL A   1      33.702  35.236  29.096  1.00  0.00     0.202 C 
BRANCH   4   5
ATOM      5  C   UNL A   1      32.534  36.110  29.561  1.00  0.00     0.261 C 
BRANCH   5   6
ATOM      6  O   UNL A   1      32.740  36.524  30.925  1.00  0.00    -0.460 OA
BRANCH   6   7
ATOM      7  C   UNL A   1      32.696  35.738  32.029  1.00  0.00     0.338 C 
ATOM      8  O   UNL A   1      31.639  35.566  32.626  1.00  0.00    -0.246 OA
BRANCH   7   9
ATOM      9  C   UNL A   1      33.885  34.962  32.460  1.00  0.00     0.060 A 
ATOM     10  C   UNL A   1      33.812  33.646  32.922  1.00  0.00     0.016 A 
ATOM     11  C   UNL A   1      35.143  35.559  32.289  1.00  0.00     0.016 A 
ATOM     12  C   UNL A   1      34.976  32.973  33.313  1.00  0.00     0.010 A 
ATOM     13  C   UNL A   1      36.311  34.863  32.623  1.00  0.00     0.010 A 
ATOM     14  C   UNL A   1      36.238  33.572  33.162  1.00  0.00    -0.014 A 
BRANCH  14  15
ATOM     15  C   UNL A   1      37.475  32.829  33.525  1.00  0.00     0.031 A 
ATOM     16  C   UNL A   1      38.160  33.061  34.840  1.00  0.00     0.074 A 
ATOM     17  C   UNL A   1      38.004  31.945  32.658  1.00  0.00     0.049 A 
ATOM     18  N   UNL A   1      39.272  32.538  35.294  1.00  0.00    -0.248 NA
ATOM     19  C   UNL A   1      37.522  34.013  35.760  1.00  0.00     0.031 C 
ATOM     20  C   UNL A   1      37.471  31.663  31.329  1.00  0.00     0.029 A 
ATOM     21  N   UNL A   1      39.100  31.124  32.758  1.00  0.00    -0.354 N 
ATOM     22  C   UNL A   1      39.491  33.126  36.530  1.00  0.00     0.074 A 
ATOM     23  C   UNL A   1      38.390  34.039  36.763  1.00  0.00     0.031 C 
ATOM     24  C   UNL A   1      38.218  30.709  30.750  1.00  0.00     0.029 A 
ATOM     25  C   UNL A   1      39.296  30.332  31.653  1.00  0.00     0.049 A 
ATOM     26  H   UNL A   1      39.690  31.106  33.546  1.00  0.00     0.167 HD
ATOM     27  C   UNL A   1      40.520  32.929  37.388  1.00  0.00     0.037 A 
ATOM     28  C   UNL A   1      40.239  29.411  31.388  1.00  0.00     0.037 A 
ATOM     29  C   UNL A   1      41.602  32.004  37.181  1.00  0.00     0.049 A 
ATOM     30  C   UNL A   1      41.329  29.165  32.387  1.00  0.00     0.074 A 
ATOM     31  C   UNL A   1      42.668  31.718  38.019  1.00  0.00     0.029 A 
ATOM     32  N   UNL A   1      41.755  31.208  36.057  1.00  0.00    -0.354 N 
ATOM     33  N   UNL A   1      41.517  29.728  33.553  1.00  0.00    -0.248 NA
ATOM     34  C   UNL A   1      42.351  28.174  32.020  1.00  0.00     0.031 C 
ATOM     35  C   UNL A   1      43.476  30.760  37.392  1.00  0.00     0.029 A 
ATOM     36  C   UNL A   1      42.903  30.440  36.172  1.00  0.00     0.049 A 
ATOM     37  H   UNL A   1      41.137  31.190  35.291  1.00  0.00     0.167 HD
ATOM     38  C   UNL A   1      42.699  29.194  34.041  1.00  0.00     0.074 A 
ATOM     39  C   UNL A   1      43.157  28.220  33.071  1.00  0.00     0.031 C 
ATOM     40  C   UNL A   1      43.362  29.506  35.180  1.00  0.00     0.037 A 
BRANCH  27  41
ATOM     41  C   UNL A   1      40.534  33.760  38.631  1.00  0.00     0.064 A 
ATOM     42  C   UNL A   1      39.827  33.374  39.777  1.00  0.00     0.173 A 
ATOM     43  C   UNL A   1      41.278  34.948  38.679  1.00  0.00     0.173 A 
ATOM     44  F   UNL A   1      39.089  32.254  39.768  1.00  0.00    -0.203 F 
ATOM     45  C   UNL A   1      39.852  34.158  40.927  1.00  0.00     0.198 A 
ATOM     46  C   UNL A   1      41.311  35.723  39.834  1.00  0.00     0.198 A 
ATOM     47  F   UNL A   1      41.967  35.357  37.603  1.00  0.00    -0.203 F 
ATOM     48  F   UNL A   1      39.146  33.788  42.004  1.00  0.00    -0.200 F 
ATOM     49  C   UNL A   1      40.596  35.329  40.956  1.00  0.00     0.200 A 
ATOM     50  F   UNL A   1      42.028  36.854  39.861  1.00  0.00    -0.200 F 
ATOM     51  F   UNL A   1      40.615  36.085  42.062  1.00  0.00    -0.200 F 
ENDBRANCH  27  41
BRANCH  28  52
ATOM     52  C   UNL A   1      40.214  28.663  30.108  1.00  0.00     0.064 A 
ATOM     53  C   UNL A   1      39.578  27.417  30.020  1.00  0.00     0.173 A 
ATOM     54  C   UNL A   1      40.844  29.164  28.961  1.00  0.00     0.173 A 
ATOM     55  F   UNL A   1      38.981  26.895  31.101  1.00  0.00    -0.203 F 
ATOM     56  C   UNL A   1      39.589  26.690  28.833  1.00  0.00     0.198 A 
ATOM     57  C   UNL A   1      40.840  28.442  27.770  1.00  0.00     0.198 A 
ATOM     58  F   UNL A   1      41.461  30.353  29.000  1.00  0.00    -0.203 F 
ATOM     59  F   UNL A   1      39.000  25.487  28.780  1.00  0.00    -0.200 F 
ATOM     60  C   UNL A   1      40.221  27.202  27.709  1.00  0.00     0.200 A 
ATOM     61  F   UNL A   1      41.438  28.946  26.682  1.00  0.00    -0.200 F 
ATOM     62  F   UNL A   1      40.233  26.502  26.568  1.00  0.00    -0.200 F 
ENDBRANCH  28  52
BRANCH  40  63
ATOM     63  C   UNL A   1      44.677  28.829  35.393  1.00  0.00     0.064 A 
ATOM     64  C   UNL A   1      44.752  27.633  36.122  1.00  0.00     0.173 A 
ATOM     65  C   UNL A   1      45.862  29.369  34.878  1.00  0.00     0.173 A 
ATOM     66  F   UNL A   1      43.643  27.096  36.652  1.00  0.00    -0.203 F 
ATOM     67  C   UNL A   1      45.975  27.007  36.341  1.00  0.00     0.198 A 
ATOM     68  C   UNL A   1      47.082  28.733  35.088  1.00  0.00     0.198 A 
ATOM     69  F   UNL A   1      45.837  30.515  34.183  1.00  0.00    -0.203 F 
ATOM     70  F   UNL A   1      46.031  25.883  37.068  1.00  0.00    -0.200 F 
ATOM     71  C   UNL A   1      47.138  27.556  35.822  1.00  0.00     0.200 A 
ATOM     72  F   UNL A   1      48.208  29.265  34.591  1.00  0.00    -0.200 F 
ATOM     73  F   UNL A   1      48.317  26.956  36.040  1.00  0.00    -0.200 F 
ENDBRANCH  40  63
ENDBRANCH  14  15
ENDBRANCH   7   9
ENDBRANCH   6   7
ENDBRANCH   5   6
ENDBRANCH   4   5
ENDBRANCH   3   4
ENDBRANCH   2   3
ENDBRANCH   1   2
BRANCH   1  74
ATOM     74  O   UNL A   1      34.780  30.791  27.842  1.00  0.00    -0.376 OA
BRANCH  74  75
ATOM     75  C   UNL A   1      34.105  29.558  27.606  1.00  0.00     0.202 C 
BRANCH  75  76
ATOM     76  C   UNL A   1      34.234  29.068  26.160  1.00  0.00     0.261 C 
BRANCH  76  77
ATOM     77  O   UNL A   1      32.973  28.651  25.608  1.00  0.00    -0.459 OA
BRANCH  77  78
ATOM     78  C   UNL A   1      32.816  28.859  24.278  1.00  0.00     0.356 C 
ATOM     79  O   UNL A   1      33.639  28.586  23.404  1.00  0.00    -0.244 OA
BRANCH  78  80
ATOM     80  C   UNL A   1      31.506  29.359  24.000  1.00  0.00     0.152 A 
ATOM     81  N   UNL A   1      31.019  30.468  24.634  1.00  0.00    -0.271 N 
ATOM     82  C   UNL A   1      30.468  28.894  23.198  1.00  0.00     0.059 A 
ATOM     83  N   UNL A   1      29.778  30.807  24.260  1.00  0.00    -0.183 NA
ATOM     84  H   UNL A   1      31.534  30.972  25.304  1.00  0.00     0.190 HD
ATOM     85  C   UNL A   1      29.435  29.837  23.414  1.00  0.00     0.145 A 
BRANCH  82  86
ATOM     86  C   UNL A   1      30.413  27.663  22.348  1.00  0.00     0.303 C 
BRANCH  86  87
ATOM     87  N   UNL A   1      31.404  26.639  22.725  1.00  0.00    -0.331 N 
ATOM     88  C   UNL A   1      30.870  25.649  23.666  1.00  0.00     0.268 C 
ATOM     89  C   UNL A   1      32.088  26.024  21.583  1.00  0.00     0.268 C 
ATOM     90  H   UNL A   1      32.132  27.149  23.225  1.00  0.00     0.348 HD
ATOM     91  C   UNL A   1      31.948  24.684  24.153  1.00  0.00     0.126 C 
ATOM     92  C   UNL A   1      33.191  25.055  22.024  1.00  0.00     0.126 C 
ATOM     93  C   UNL A   1      32.600  23.984  22.951  1.00  0.00     0.195 C 
BRANCH  93  94
ATOM     94  N   UNL A   1      33.564  22.909  23.268  1.00  0.00    -0.331 N 
ATOM     95  C   UNL A   1      34.787  23.350  23.949  1.00  0.00     0.262 C 
ATOM     96  C   UNL A   1      32.895  21.847  24.043  1.00  0.00     0.275 C 
ATOM     97  H   UNL A   1      33.882  22.551  22.367  1.00  0.00     0.348 HD
ATOM     98  C   UNL A   1      35.751  22.176  24.172  1.00  0.00     0.062 C 
ATOM     99  C   UNL A   1      33.793  20.617  24.215  1.00  0.00     0.134 C 
ATOM    100  C   UNL A   1      35.087  21.016  24.918  1.00  0.00     0.025 C 
BRANCH  99 101
ATOM    101  C   UNL A   1      33.007  19.557  24.980  1.00  0.00     0.231 C 
ATOM    102  O   UNL A   1      32.052  19.862  25.698  1.00  0.00    -0.274 OA
ATOM    103  N   UNL A   1      33.364  18.241  24.804  1.00  0.00    -0.342 N 
ATOM    104  C   UNL A   1      34.535  17.695  24.140  1.00  0.00     0.119 C 
ATOM    105  C   UNL A   1      32.476  17.182  25.256  1.00  0.00     0.119 C 
ATOM    106  C   UNL A   1      34.105  16.292  23.746  1.00  0.00     0.023 C 
ATOM    107  C   UNL A   1      33.178  15.885  24.885  1.00  0.00     0.023 C 
ENDBRANCH  99 101
ENDBRANCH  93  94
ENDBRANCH  86  87
ENDBRANCH  82  86
ENDBRANCH  78  80
ENDBRANCH  77  78
ENDBRANCH  76  77
ENDBRANCH  75  76
ENDBRANCH  74  75
ENDBRANCH   1  74
TORSDOF 21
ENDMDL
MODEL 2
REMARK VINA RESULT:     -11.5      0.470      6.972
REMARK SMILES O=C(OCCOCCOCCOC(=O)c1[nH]ncc1C[NH+]1CCC([N@H+]2CCC[C@@H](C(=O)N3CCCC3)C2)CC1)c1ccc(-c2c3nc(c(-c4c(F)c(F)c(F)c(F)c4F)c4ccc([nH]4)c(-c4c(F)c(F)c(F)c(F)c4F)c4nc(c(-c5c(F)c(F)c(F)c(F)c5F)c5ccc2[nH]5)C=C4)C=C3)cc1
REMARK SMILES IDX 8 1 7 2 6 3 5 4 4 5 3 6 2 7 1 8 40 9 41 10 102 11 42 12
REMARK SMILES IDX 101 13 43 14 44 15 45 16 95 17 46 18 100 19 94 20 96 21
REMARK SMILES IDX 47 22 99 23 93 24 92 25 48 27 80 28 60 29 79 30 61 31 64 32
REMARK SMILES IDX 78 33 97 34 62 35 63 36 77 38 98 39 65 40 49 41 50 42 58 43
REMARK SMILES IDX 51 44 52 45 56 46 59 47 53 48 54 49 57 50 55 51 81 52 82 53
REMARK SMILES IDX 90 54 83 55 84 56 88 57 91 58 85 59 86 60 89 61 87 62 66 63
REMARK SMILES IDX 67 64 75 65 68 66 69 67 73 68 76 69 70 70 71 71 74 72 72 73
REMARK SMILES IDX 9 74 10 75 11 76 12 77 13 78 14 79 15 80 16 81 19 82 17 83
REMARK SMILES IDX 18 85 20 86 21 87 22 88 39 89 23 91 38 92 24 93 25 94 26 95
REMARK SMILES IDX 37 96 27 98 29 99 28 100 30 101 31 102 32 103 33 104 36 105
REMARK SMILES IDX 34 106 35 107
REMARK H PARENT 96 26 64 37 16 84 21 90 25 97
REMARK Flexibility Score: inf
ROOT
ATOM      1  C   UNL A   1      33.723  31.946  27.824  1.00  0.00     0.188 C 
ENDROOT
BRANCH   1   2
ATOM      2  C   UNL A   1      34.358  33.241  28.328  1.00  0.00     0.188 C 
BRANCH   2   3
ATOM      3  O   UNL A   1      33.368  34.045  28.994  1.00  0.00    -0.376 OA
BRANCH   3   4
ATOM      4  C   UNL A   1      33.750  35.420  29.073  1.00  0.00     0.202 C 
BRANCH   4   5
ATOM      5  C   UNL A   1      32.640  36.295  29.659  1.00  0.00     0.261 C 
BRANCH   5   6
ATOM      6  O   UNL A   1      32.870  36.508  31.065  1.00  0.00    -0.460 OA
BRANCH   6   7
ATOM      7  C   UNL A   1      32.804  35.579  32.050  1.00  0.00     0.338 C 
ATOM      8  O   UNL A   1      31.718  35.224  32.496  1.00  0.00    -0.246 OA
BRANCH   7   9
ATOM      9  C   UNL A   1      34.023  34.872  32.515  1.00  0.00     0.060 A 
ATOM     10  C   UNL A   1      34.010  33.559  32.991  1.00  0.00     0.016 A 
ATOM     11  C   UNL A   1      35.251  35.533  32.363  1.00  0.00     0.016 A 
ATOM     12  C   UNL A   1      35.199  32.953  33.413  1.00  0.00     0.010 A 
ATOM     13  C   UNL A   1      36.447  34.904  32.729  1.00  0.00     0.010 A 
ATOM     14  C   UNL A   1      36.431  33.617  33.281  1.00  0.00    -0.014 A 
BRANCH  14  15
ATOM     15  C   UNL A   1      37.697  32.944  33.678  1.00  0.00     0.031 A 
ATOM     16  C   UNL A   1      38.385  31.981  32.754  1.00  0.00     0.074 A 
ATOM     17  C   UNL A   1      38.231  33.184  34.890  1.00  0.00     0.049 A 
ATOM     18  N   UNL A   1      39.465  31.269  32.962  1.00  0.00    -0.248 NA
ATOM     19  C   UNL A   1      37.775  31.779  31.433  1.00  0.00     0.031 C 
ATOM     20  C   UNL A   1      37.641  34.054  35.902  1.00  0.00     0.029 A 
ATOM     21  N   UNL A   1      39.383  32.723  35.479  1.00  0.00    -0.354 N 
ATOM     22  C   UNL A   1      39.641  30.506  31.819  1.00  0.00     0.074 A 
ATOM     23  C   UNL A   1      38.564  30.848  30.912  1.00  0.00     0.031 C 
ATOM     24  C   UNL A   1      38.449  34.094  36.973  1.00  0.00     0.029 A 
ATOM     25  C   UNL A   1      39.600  33.234  36.736  1.00  0.00     0.049 A 
ATOM     26  H   UNL A   1      39.995  32.087  35.043  1.00  0.00     0.167 HD
ATOM     27  C   UNL A   1      40.609  29.596  31.551  1.00  0.00     0.037 A 
ATOM     28  C   UNL A   1      40.604  33.030  37.606  1.00  0.00     0.037 A 
ATOM     29  C   UNL A   1      41.701  29.270  32.430  1.00  0.00     0.049 A 
ATOM     30  C   UNL A   1      41.699  32.069  37.255  1.00  0.00     0.074 A 
ATOM     31  C   UNL A   1      42.745  28.383  32.220  1.00  0.00     0.029 A 
ATOM     32  N   UNL A   1      41.894  29.822  33.686  1.00  0.00    -0.354 N 
ATOM     33  N   UNL A   1      41.851  31.359  36.166  1.00  0.00    -0.248 NA
ATOM     34  C   UNL A   1      42.746  31.861  38.266  1.00  0.00     0.031 C 
ATOM     35  C   UNL A   1      43.560  28.387  33.359  1.00  0.00     0.029 A 
ATOM     36  C   UNL A   1      43.032  29.288  34.270  1.00  0.00     0.049 A 
ATOM     37  H   UNL A   1      41.309  30.496  34.102  1.00  0.00     0.167 HD
ATOM     38  C   UNL A   1      42.983  30.589  36.376  1.00  0.00     0.074 A 
ATOM     39  C   UNL A   1      43.514  30.959  37.673  1.00  0.00     0.031 C 
ATOM     40  C   UNL A   1      43.520  29.638  35.575  1.00  0.00     0.037 A 
BRANCH  27  41
ATOM     41  C   UNL A   1      40.511  28.865  30.251  1.00  0.00     0.064 A 
ATOM     42  C   UNL A   1      41.136  29.345  29.093  1.00  0.00     0.173 A 
ATOM     43  C   UNL A   1      39.796  27.661  30.169  1.00  0.00     0.173 A 
ATOM     44  F   UNL A   1      41.814  30.501  29.123  1.00  0.00    -0.203 F 
ATOM     45  C   UNL A   1      41.036  28.650  27.890  1.00  0.00     0.198 A 
ATOM     46  C   UNL A   1      39.709  26.963  28.969  1.00  0.00     0.198 A 
ATOM     47  F   UNL A   1      39.179  27.167  31.253  1.00  0.00    -0.203 F 
ATOM     48  F   UNL A   1      41.615  29.140  26.785  1.00  0.00    -0.200 F 
ATOM     49  C   UNL A   1      40.326  27.460  27.830  1.00  0.00     0.200 A 
ATOM     50  F   UNL A   1      39.022  25.814  28.911  1.00  0.00    -0.200 F 
ATOM     51  F   UNL A   1      40.228  26.795  26.670  1.00  0.00    -0.200 F 
ENDBRANCH  27  41
BRANCH  28  52
ATOM     52  C   UNL A   1      40.615  33.733  38.912  1.00  0.00     0.064 A 
ATOM     53  C   UNL A   1      41.382  34.892  39.093  1.00  0.00     0.173 A 
ATOM     54  C   UNL A   1      39.885  33.249  40.005  1.00  0.00     0.173 A 
ATOM     55  F   UNL A   1      42.111  35.377  38.077  1.00  0.00    -0.203 F 
ATOM     56  C   UNL A   1      41.431  35.533  40.328  1.00  0.00     0.198 A 
ATOM     57  C   UNL A   1      39.923  33.900  41.236  1.00  0.00     0.198 A 
ATOM     58  F   UNL A   1      39.136  32.146  39.874  1.00  0.00    -0.203 F 
ATOM     59  F   UNL A   1      42.195  36.623  40.487  1.00  0.00    -0.200 F 
ATOM     60  C   UNL A   1      40.703  35.035  41.399  1.00  0.00     0.200 A 
ATOM     61  F   UNL A   1      39.207  33.425  42.264  1.00  0.00    -0.200 F 
ATOM     62  F   UNL A   1      40.753  35.650  42.588  1.00  0.00    -0.200 F 
ENDBRANCH  28  52
BRANCH  40  63
ATOM     63  C   UNL A   1      44.699  28.897  36.118  1.00  0.00     0.064 A 
ATOM     64  C   UNL A   1      46.001  29.378  35.906  1.00  0.00     0.173 A 
ATOM     65  C   UNL A   1      44.539  27.710  36.842  1.00  0.00     0.173 A 
ATOM     66  F   UNL A   1      46.198  30.499  35.197  1.00  0.00    -0.203 F 
ATOM     67  C   UNL A   1      47.104  28.684  36.392  1.00  0.00     0.198 A 
ATOM     68  C   UNL A   1      45.645  27.025  37.337  1.00  0.00     0.198 A 
ATOM     69  F   UNL A   1      43.314  27.211  37.059  1.00  0.00    -0.203 F 
ATOM     70  F   UNL A   1      48.341  29.141  36.151  1.00  0.00    -0.200 F 
ATOM     71  C   UNL A   1      46.926  27.510  37.108  1.00  0.00     0.200 A 
ATOM     72  F   UNL A   1      45.475  25.888  38.026  1.00  0.00    -0.200 F 
ATOM     73  F   UNL A   1      47.990  26.838  37.569  1.00  0.00    -0.200 F 
ENDBRANCH  40  63
ENDBRANCH  14  15
ENDBRANCH   7   9
ENDBRANCH   6   7
ENDBRANCH   5   6
ENDBRANCH   4   5
ENDBRANCH   3   4
ENDBRANCH   2   3
ENDBRANCH   1   2
BRANCH   1  74
ATOM     74  O   UNL A   1      34.676  30.893  27.637  1.00  0.00    -0.376 OA
BRANCH  74  75
ATOM     75  C   UNL A   1      34.146  29.570  27.604  1.00  0.00     0.202 C 
BRANCH  75  76
ATOM     76  C   UNL A   1      34.222  28.927  26.216  1.00  0.00     0.261 C 
BRANCH  76  77
ATOM     77  O   UNL A   1      32.921  28.661  25.663  1.00  0.00    -0.459 OA
BRANCH  77  78
ATOM     78  C   UNL A   1      32.793  28.876  24.331  1.00  0.00     0.356 C 
ATOM     79  O   UNL A   1      33.633  28.602  23.474  1.00  0.00    -0.244 OA
BRANCH  78  80
ATOM     80  C   UNL A   1      31.491  29.382  24.028  1.00  0.00     0.152 A 
ATOM     81  N   UNL A   1      30.999  30.495  24.651  1.00  0.00    -0.271 N 
ATOM     82  C   UNL A   1      30.467  28.923  23.207  1.00  0.00     0.059 A 
ATOM     83  N   UNL A   1      29.768  30.841  24.253  1.00  0.00    -0.183 NA
ATOM     84  H   UNL A   1      31.504  30.997  25.331  1.00  0.00     0.190 HD
ATOM     85  C   UNL A   1      29.435  29.872  23.402  1.00  0.00     0.145 A 
BRANCH  82  86
ATOM     86  C   UNL A   1      30.420  27.691  22.357  1.00  0.00     0.303 C 
BRANCH  86  87
ATOM     87  N   UNL A   1      31.391  26.658  22.760  1.00  0.00    -0.331 N 
ATOM     88  C   UNL A   1      30.778  25.570  23.528  1.00  0.00     0.268 C 
ATOM     89  C   UNL A   1      32.233  26.172  21.662  1.00  0.00     0.268 C 
ATOM     90  H   UNL A   1      32.033  27.133  23.394  1.00  0.00     0.348 HD
ATOM     91  C   UNL A   1      31.819  24.586  24.057  1.00  0.00     0.126 C 
ATOM     92  C   UNL A   1      33.305  25.189  22.148  1.00  0.00     0.126 C 
ATOM     93  C   UNL A   1      32.639  24.020  22.887  1.00  0.00     0.195 C 
BRANCH  93  94
ATOM     94  N   UNL A   1      33.593  22.941  23.223  1.00  0.00    -0.331 N 
ATOM     95  C   UNL A   1      34.808  23.378  23.921  1.00  0.00     0.262 C 
ATOM     96  C   UNL A   1      32.906  21.886  23.992  1.00  0.00     0.275 C 
ATOM     97  H   UNL A   1      33.922  22.578  22.328  1.00  0.00     0.348 HD
ATOM     98  C   UNL A   1      35.761  22.200  24.163  1.00  0.00     0.062 C 
ATOM     99  C   UNL A   1      33.794  20.652  24.182  1.00  0.00     0.134 C 
ATOM    100  C   UNL A   1      35.080  21.047  24.903  1.00  0.00     0.025 C 
BRANCH  99 101
ATOM    101  C   UNL A   1      32.991  19.600  24.940  1.00  0.00     0.231 C 
ATOM    102  O   UNL A   1      32.031  19.914  25.648  1.00  0.00    -0.274 OA
ATOM    103  N   UNL A   1      33.337  18.280  24.767  1.00  0.00    -0.342 N 
ATOM    104  C   UNL A   1      34.510  17.724  24.115  1.00  0.00     0.119 C 
ATOM    105  C   UNL A   1      32.435  17.230  25.210  1.00  0.00     0.119 C 
ATOM    106  C   UNL A   1      34.070  16.324  23.716  1.00  0.00     0.023 C 
ATOM    107  C   UNL A   1      33.128  15.926  24.845  1.00  0.00     0.023 C 
ENDBRANCH  99 101
ENDBRANCH  93  94
ENDBRANCH  86  87
ENDBRANCH  82  86
ENDBRANCH  78  80
ENDBRANCH  77  78
ENDBRANCH  76  77
ENDBRANCH  75  76
ENDBRANCH  74  75
ENDBRANCH   1  74
TORSDOF 21
ENDMDL
MODEL 3
REMARK VINA RESULT:     -11.4      2.790      7.779
REMARK SMILES O=C(OCCOCCOCCOC(=O)c1[nH]ncc1C[NH+]1CCC([N@H+]2CCC[C@@H](C(=O)N3CCCC3)C2)CC1)c1ccc(-c2c3nc(c(-c4c(F)c(F)c(F)c(F)c4F)c4ccc([nH]4)c(-c4c(F)c(F)c(F)c(F)c4F)c4nc(c(-c5c(F)c(F)c(F)c(F)c5F)c5ccc2[nH]5)C=C4)C=C3)cc1
REMARK SMILES IDX 8 1 7 2 6 3 5 4 4 5 3 6 2 7 1 8 40 9 41 10 102 11 42 12
REMARK SMILES IDX 101 13 43 14 44 15 45 16 95 17 46 18 100 19 94 20 96 21
REMARK SMILES IDX 47 22 99 23 93 24 92 25 48 27 80 28 60 29 79 30 61 31 64 32
REMARK SMILES IDX 78 33 97 34 62 35 63 36 77 38 98 39 65 40 49 41 50 42 58 43
REMARK SMILES IDX 51 44 52 45 56 46 59 47 53 48 54 49 57 50 55 51 81 52 82 53
REMARK SMILES IDX 90 54 83 55 84 56 88 57 91 58 85 59 86 60 89 61 87 62 66 63
REMARK SMILES IDX 67 64 75 65 68 66 69 67 73 68 76 69 70 70 71 71 74 72 72 73
REMARK SMILES IDX 9 74 10 75 11 76 12 77 13 78 14 79 15 80 16 81 19 82 17 83
REMARK SMILES IDX 18 85 20 86 21 87 22 88 39 89 23 91 38 92 24 93 25 94 26 95
REMARK SMILES IDX 37 96 27 98 29 99 28 100 30 101 31 102 32 103 33 104 36 105
REMARK SMILES IDX 34 106 35 107
REMARK H PARENT 96 26 64 37 16 84 21 90 25 97
REMARK Flexibility Score: inf
ROOT
ATOM      1  C   UNL A   1      33.276  31.635  27.644  1.00  0.00     0.188 C 
ENDROOT
BRANCH   1   2
ATOM      2  C   UNL A   1      34.135  32.763  28.216  1.00  0.00     0.188 C 
BRANCH   2   3
ATOM      3  O   UNL A   1      33.356  33.555  29.130  1.00  0.00    -0.376 OA
BRANCH   3   4
ATOM      4  C   UNL A   1      33.772  34.923  29.151  1.00  0.00     0.202 C 
BRANCH   4   5
ATOM      5  C   UNL A   1      32.626  35.869  29.519  1.00  0.00     0.261 C 
BRANCH   5   6
ATOM      6  O   UNL A   1      32.791  36.340  30.871  1.00  0.00    -0.460 OA
BRANCH   6   7
ATOM      7  C   UNL A   1      32.762  35.592  32.001  1.00  0.00     0.338 C 
ATOM      8  O   UNL A   1      31.700  35.382  32.578  1.00  0.00    -0.246 OA
BRANCH   7   9
ATOM      9  C   UNL A   1      33.980  34.901  32.490  1.00  0.00     0.060 A 
ATOM     10  C   UNL A   1      33.976  33.582  32.951  1.00  0.00     0.016 A 
ATOM     11  C   UNL A   1      35.200  35.584  32.379  1.00  0.00     0.016 A 
ATOM     12  C   UNL A   1      35.164  32.991  33.398  1.00  0.00     0.010 A 
ATOM     13  C   UNL A   1      36.396  34.971  32.770  1.00  0.00     0.010 A 
ATOM     14  C   UNL A   1      36.388  33.677  33.306  1.00  0.00    -0.014 A 
BRANCH  14  15
ATOM     15  C   UNL A   1      37.654  33.022  33.730  1.00  0.00     0.031 A 
ATOM     16  C   UNL A   1      38.386  32.086  32.812  1.00  0.00     0.074 A 
ATOM     17  C   UNL A   1      38.149  33.253  34.961  1.00  0.00     0.049 A 
ATOM     18  N   UNL A   1      39.473  31.390  33.040  1.00  0.00    -0.248 NA
ATOM     19  C   UNL A   1      37.818  31.893  31.471  1.00  0.00     0.031 C 
ATOM     20  C   UNL A   1      37.514  34.096  35.967  1.00  0.00     0.029 A 
ATOM     21  N   UNL A   1      39.292  32.804  35.576  1.00  0.00    -0.354 N 
ATOM     22  C   UNL A   1      39.695  30.648  31.891  1.00  0.00     0.074 A 
ATOM     23  C   UNL A   1      38.638  30.984  30.960  1.00  0.00     0.031 C 
ATOM     24  C   UNL A   1      38.290  34.135  37.062  1.00  0.00     0.029 A 
ATOM     25  C   UNL A   1      39.463  33.299  36.845  1.00  0.00     0.049 A 
ATOM     26  H   UNL A   1      39.927  32.186  35.148  1.00  0.00     0.167 HD
ATOM     27  C   UNL A   1      40.687  29.760  31.639  1.00  0.00     0.037 A 
ATOM     28  C   UNL A   1      40.445  33.100  37.741  1.00  0.00     0.037 A 
ATOM     29  C   UNL A   1      41.759  29.440  32.543  1.00  0.00     0.049 A 
ATOM     30  C   UNL A   1      41.567  32.164  37.407  1.00  0.00     0.074 A 
ATOM     31  C   UNL A   1      42.824  28.576  32.351  1.00  0.00     0.029 A 
ATOM     32  N   UNL A   1      41.906  29.976  33.813  1.00  0.00    -0.354 N 
ATOM     33  N   UNL A   1      41.764  31.474  36.313  1.00  0.00    -0.248 NA
ATOM     34  C   UNL A   1      42.589  31.959  38.445  1.00  0.00     0.031 C 
ATOM     35  C   UNL A   1      43.607  28.577  33.512  1.00  0.00     0.029 A 
ATOM     36  C   UNL A   1      43.036  29.453  34.420  1.00  0.00     0.049 A 
ATOM     37  H   UNL A   1      41.297  30.633  34.221  1.00  0.00     0.167 HD
ATOM     38  C   UNL A   1      42.904  30.721  36.544  1.00  0.00     0.074 A 
ATOM     39  C   UNL A   1      43.390  31.080  37.860  1.00  0.00     0.031 C 
ATOM     40  C   UNL A   1      43.481  29.792  35.744  1.00  0.00     0.037 A 
BRANCH  27  41
ATOM     41  C   UNL A   1      40.639  29.047  30.325  1.00  0.00     0.064 A 
ATOM     42  C   UNL A   1      41.322  29.534  29.203  1.00  0.00     0.173 A 
ATOM     43  C   UNL A   1      39.914  27.854  30.195  1.00  0.00     0.173 A 
ATOM     44  F   UNL A   1      42.013  30.681  29.280  1.00  0.00    -0.203 F 
ATOM     45  C   UNL A   1      41.269  28.857  27.988  1.00  0.00     0.198 A 
ATOM     46  C   UNL A   1      39.873  27.172  28.982  1.00  0.00     0.198 A 
ATOM     47  F   UNL A   1      39.243  27.353  31.243  1.00  0.00    -0.203 F 
ATOM     48  F   UNL A   1      41.905  29.353  26.917  1.00  0.00    -0.200 F 
ATOM     49  C   UNL A   1      40.548  27.676  27.879  1.00  0.00     0.200 A 
ATOM     50  F   UNL A   1      39.176  26.034  28.877  1.00  0.00    -0.200 F 
ATOM     51  F   UNL A   1      40.495  27.029  26.707  1.00  0.00    -0.200 F 
ENDBRANCH  27  41
BRANCH  28  52
ATOM     52  C   UNL A   1      40.407  33.783  39.057  1.00  0.00     0.064 A 
ATOM     53  C   UNL A   1      39.623  33.276  40.102  1.00  0.00     0.173 A 
ATOM     54  C   UNL A   1      41.128  34.962  39.286  1.00  0.00     0.173 A 
ATOM     55  F   UNL A   1      38.903  32.161  39.917  1.00  0.00    -0.203 F 
ATOM     56  C   UNL A   1      39.549  33.936  41.326  1.00  0.00     0.198 A 
ATOM     57  C   UNL A   1      41.065  35.612  40.516  1.00  0.00     0.198 A 
ATOM     58  F   UNL A   1      41.893  35.478  38.314  1.00  0.00    -0.203 F 
ATOM     59  F   UNL A   1      38.770  33.450  42.302  1.00  0.00    -0.200 F 
ATOM     60  C   UNL A   1      40.269  35.104  41.531  1.00  0.00     0.200 A 
ATOM     61  F   UNL A   1      41.773  36.732  40.716  1.00  0.00    -0.200 F 
ATOM     62  F   UNL A   1      40.195  35.740  42.708  1.00  0.00    -0.200 F 
ENDBRANCH  28  52
BRANCH  40  63
ATOM     63  C   UNL A   1      44.657  29.065  36.310  1.00  0.00     0.064 A 
ATOM     64  C   UNL A   1      44.484  27.842  36.977  1.00  0.00     0.173 A 
ATOM     65  C   UNL A   1      45.953  29.582  36.195  1.00  0.00     0.173 A 
ATOM     66  F   UNL A   1      43.257  27.325  37.128  1.00  0.00    -0.203 F 
ATOM     67  C   UNL A   1      45.572  27.168  37.523  1.00  0.00     0.198 A 
ATOM     68  C   UNL A   1      47.040  28.899  36.733  1.00  0.00     0.198 A 
ATOM     69  F   UNL A   1      46.162  30.752  35.575  1.00  0.00    -0.203 F 
ATOM     70  F   UNL A   1      45.383  26.019  38.185  1.00  0.00    -0.200 F 
ATOM     71  C   UNL A   1      46.849  27.696  37.398  1.00  0.00     0.200 A 
ATOM     72  F   UNL A   1      48.275  29.409  36.617  1.00  0.00    -0.200 F 
ATOM     73  F   UNL A   1      47.895  27.050  37.932  1.00  0.00    -0.200 F 
ENDBRANCH  40  63
ENDBRANCH  14  15
ENDBRANCH   7   9
ENDBRANCH   6   7
ENDBRANCH   5   6
ENDBRANCH   4   5
ENDBRANCH   3   4
ENDBRANCH   2   3
ENDBRANCH   1   2
BRANCH   1  74
ATOM     74  O   UNL A   1      34.036  30.680  26.895  1.00  0.00    -0.376 OA
BRANCH  74  75
ATOM     75  C   UNL A   1      33.968  29.331  27.353  1.00  0.00     0.202 C 
BRANCH  75  76
ATOM     76  C   UNL A   1      34.028  28.307  26.215  1.00  0.00     0.261 C 
BRANCH  76  77
ATOM     77  O   UNL A   1      33.128  27.204  26.423  1.00  0.00    -0.459 OA
BRANCH  77  78
ATOM     78  C   UNL A   1      33.163  26.232  25.480  1.00  0.00     0.356 C 
ATOM     79  O   UNL A   1      33.862  26.235  24.467  1.00  0.00    -0.244 OA
BRANCH  78  80
ATOM     80  C   UNL A   1      32.337  25.130  25.866  1.00  0.00     0.152 A 
ATOM     81  N   UNL A   1      31.362  25.271  26.814  1.00  0.00    -0.271 N 
ATOM     82  C   UNL A   1      32.334  23.784  25.516  1.00  0.00     0.059 A 
ATOM     83  N   UNL A   1      30.676  24.147  27.059  1.00  0.00    -0.183 NA
ATOM     84  H   UNL A   1      31.181  26.122  27.275  1.00  0.00     0.190 HD
ATOM     85  C   UNL A   1      31.285  23.241  26.296  1.00  0.00     0.145 A 
BRANCH  82  86
ATOM     86  C   UNL A   1      33.248  23.050  24.585  1.00  0.00     0.303 C 
BRANCH  86  87
ATOM     87  N   UNL A   1      34.678  23.298  24.842  1.00  0.00    -0.331 N 
ATOM     88  C   UNL A   1      35.054  23.059  26.240  1.00  0.00     0.268 C 
ATOM     89  C   UNL A   1      35.577  22.637  23.892  1.00  0.00     0.268 C 
ATOM     90  H   UNL A   1      34.806  24.296  24.676  1.00  0.00     0.348 HD
ATOM     91  C   UNL A   1      36.501  23.456  26.518  1.00  0.00     0.126 C 
ATOM     92  C   UNL A   1      37.045  23.018  24.125  1.00  0.00     0.126 C 
ATOM     93  C   UNL A   1      37.441  22.694  25.572  1.00  0.00     0.195 C 
BRANCH  93  94
ATOM     94  N   UNL A   1      38.889  22.862  25.817  1.00  0.00    -0.331 N 
ATOM     95  C   UNL A   1      39.232  23.745  26.938  1.00  0.00     0.262 C 
ATOM     96  C   UNL A   1      39.526  21.542  25.986  1.00  0.00     0.275 C 
ATOM     97  H   UNL A   1      39.254  23.335  24.991  1.00  0.00     0.348 HD
ATOM     98  C   UNL A   1      40.753  23.909  27.069  1.00  0.00     0.062 C 
ATOM     99  C   UNL A   1      41.054  21.650  26.032  1.00  0.00     0.134 C 
ATOM    100  C   UNL A   1      41.473  22.563  27.182  1.00  0.00     0.025 C 
BRANCH  99 101
ATOM    101  C   UNL A   1      41.627  20.242  26.157  1.00  0.00     0.231 C 
ATOM    102  O   UNL A   1      40.936  19.303  26.559  1.00  0.00    -0.274 OA
ATOM    103  N   UNL A   1      42.927  20.040  25.756  1.00  0.00    -0.342 N 
ATOM    104  C   UNL A   1      43.938  21.025  25.411  1.00  0.00     0.119 C 
ATOM    105  C   UNL A   1      43.425  18.687  25.565  1.00  0.00     0.119 C 
ATOM    106  C   UNL A   1      44.900  20.255  24.520  1.00  0.00     0.023 C 
ATOM    107  C   UNL A   1      44.868  18.852  25.113  1.00  0.00     0.023 C 
ENDBRANCH  99 101
ENDBRANCH  93  94
ENDBRANCH  86  87
ENDBRANCH  82  86
ENDBRANCH  78  80
ENDBRANCH  77  78
ENDBRANCH  76  77
ENDBRANCH  75  76
ENDBRANCH  74  75
ENDBRANCH   1  74
TORSDOF 21
ENDMDL
