MODEL 1
REMARK VINA RESULT:      -9.4      0.000      0.000
REMARK SMILES COc1cc(/C=C/C(=O)c2ccc(OCC(=O)OCCOCCOCCOC(=O)c3ccc(-c4c5nc(c(-c6c(F)c(F)c(F)c(F)c6F)c6ccc([nH]6)c(-c6c(F)c(F)c(F)c(F)c6F)c6nc(c(-c7c(F)c(F)c(F)c(F)c7F)c7ccc4[nH]7)C=C6)C=C5)cc3)cc2)cc2c1OCCO2
REMARK SMILES IDX 20 1 19 2 18 3 16 4 17 5 15 6 14 7 13 8 10 9 11 10 94 11
REMARK SMILES IDX 12 12 93 13 8 14 9 15 7 16 6 17 5 18 3 19 4 20 97 21 96 22
REMARK SMILES IDX 98 23 95 24 101 25 99 26 100 27 2 28 1 29 21 30 22 31 23 32
REMARK SMILES IDX 24 33 25 34 26 35 27 36 28 37 29 38 30 39 31 40 92 41 32 42
REMARK SMILES IDX 91 43 33 44 34 45 35 46 85 47 36 48 90 49 84 50 86 51 37 52
REMARK SMILES IDX 89 53 83 54 82 55 38 57 70 58 50 59 69 60 51 61 54 62 68 63
REMARK SMILES IDX 87 64 52 65 53 66 67 68 88 69 55 70 39 71 40 72 48 73 41 74
REMARK SMILES IDX 42 75 46 76 49 77 43 78 44 79 47 80 45 81 71 82 72 83 80 84
REMARK SMILES IDX 73 85 74 86 78 87 81 88 75 89 76 90 79 91 77 92 56 93 57 94
REMARK SMILES IDX 65 95 58 96 59 97 63 98 66 99 60 100 61 101 64 102 62 103
REMARK H PARENT 86 56 54 67
REMARK Flexibility Score: inf
ROOT
ATOM      1  C   UNL A   1      32.662  30.137  26.870  1.00  0.00     0.202 C 
ENDROOT
BRANCH   1   2
ATOM      2  C   UNL A   1      31.799  29.082  26.163  1.00  0.00     0.261 C 
BRANCH   2   3
ATOM      3  O   UNL A   1      31.508  29.469  24.797  1.00  0.00    -0.461 OA
BRANCH   3   4
ATOM      4  C   UNL A   1      32.136  28.788  23.803  1.00  0.00     0.344 C 
ATOM      5  O   UNL A   1      33.340  28.850  23.579  1.00  0.00    -0.248 OA
BRANCH   4   6
ATOM      6  C   UNL A   1      31.215  27.791  23.060  1.00  0.00     0.351 C 
BRANCH   6   7
ATOM      7  O   UNL A   1      30.944  26.528  23.658  1.00  0.00    -0.482 OA
BRANCH   7   8
ATOM      8  C   UNL A   1      31.854  25.502  23.569  1.00  0.00     0.120 A 
ATOM      9  C   UNL A   1      33.903  23.547  23.888  1.00  0.00     0.022 A 
ATOM     10  C   UNL A   1      32.876  23.672  24.830  1.00  0.00     0.016 A 
ATOM     11  C   UNL A   1      33.815  24.304  22.716  1.00  0.00     0.016 A 
ATOM     12  C   UNL A   1      31.872  24.644  24.675  1.00  0.00     0.047 A 
ATOM     13  C   UNL A   1      32.781  25.265  22.552  1.00  0.00     0.047 A 
BRANCH   9  14
ATOM     14  C   UNL A   1      35.050  22.644  24.232  1.00  0.00     0.185 C 
ATOM     15  O   UNL A   1      34.872  21.430  24.280  1.00  0.00    -0.289 OA
BRANCH  14  16
ATOM     16  C   UNL A   1      36.356  23.256  24.664  1.00  0.00     0.053 C 
ATOM     17  C   UNL A   1      37.166  22.549  25.481  1.00  0.00     0.012 C 
BRANCH  17  18
ATOM     18  C   UNL A   1      38.349  23.057  26.217  1.00  0.00    -0.018 A 
ATOM     19  C   UNL A   1      40.601  22.561  27.128  1.00  0.00     0.165 A 
ATOM     20  C   UNL A   1      39.415  22.188  26.471  1.00  0.00     0.058 A 
ATOM     21  C   UNL A   1      40.789  23.903  27.434  1.00  0.00     0.203 A 
ATOM     22  C   UNL A   1      39.768  24.816  27.106  1.00  0.00     0.165 A 
ATOM     23  O   UNL A   1      41.989  24.298  27.968  1.00  0.00    -0.483 OA
ATOM     24  C   UNL A   1      38.543  24.394  26.547  1.00  0.00     0.058 A 
ATOM     25  O   UNL A   1      39.921  26.175  27.267  1.00  0.00    -0.486 OA
ATOM     26  C   UNL A   1      42.020  25.674  28.346  1.00  0.00     0.271 C 
ATOM     27  C   UNL A   1      41.311  26.524  27.312  1.00  0.00     0.271 C 
BRANCH  19  28
ATOM     28  O   UNL A   1      41.473  21.524  27.335  1.00  0.00    -0.493 OA
ATOM     29  C   UNL A   1      42.207  21.029  26.219  1.00  0.00     0.278 C 
ENDBRANCH  19  28
ENDBRANCH  17  18
ENDBRANCH  14  16
ENDBRANCH   9  14
ENDBRANCH   7   8
ENDBRANCH   6   7
ENDBRANCH   4   6
ENDBRANCH   3   4
ENDBRANCH   2   3
ENDBRANCH   1   2
BRANCH   1  30
ATOM     30  O   UNL A   1      34.056  29.838  26.874  1.00  0.00    -0.376 OA
BRANCH  30  31
ATOM     31  C   UNL A   1      34.895  30.716  27.619  1.00  0.00     0.188 C 
BRANCH  31  32
ATOM     32  C   UNL A   1      34.301  32.070  28.027  1.00  0.00     0.188 C 
BRANCH  32  33
ATOM     33  O   UNL A   1      34.413  32.288  29.427  1.00  0.00    -0.376 OA
BRANCH  33  34
ATOM     34  C   UNL A   1      34.513  33.660  29.773  1.00  0.00     0.202 C 
BRANCH  34  35
ATOM     35  C   UNL A   1      35.432  33.849  30.987  1.00  0.00     0.261 C 
BRANCH  35  36
ATOM     36  O   UNL A   1      36.863  33.594  30.839  1.00  0.00    -0.460 OA
BRANCH  36  37
ATOM     37  C   UNL A   1      37.705  34.181  31.698  1.00  0.00     0.338 C 
ATOM     38  O   UNL A   1      37.469  34.396  32.890  1.00  0.00    -0.246 OA
BRANCH  37  39
ATOM     39  C   UNL A   1      39.008  34.580  31.142  1.00  0.00     0.060 A 
ATOM     40  C   UNL A   1      39.083  34.814  29.768  1.00  0.00     0.016 A 
ATOM     41  C   UNL A   1      40.189  34.428  31.874  1.00  0.00     0.016 A 
ATOM     42  C   UNL A   1      40.320  34.836  29.116  1.00  0.00     0.010 A 
ATOM     43  C   UNL A   1      41.435  34.494  31.226  1.00  0.00     0.010 A 
ATOM     44  C   UNL A   1      41.516  34.688  29.837  1.00  0.00    -0.014 A 
BRANCH  44  45
ATOM     45  C   UNL A   1      42.832  34.861  29.157  1.00  0.00     0.031 A 
ATOM     46  C   UNL A   1      43.729  33.702  28.808  1.00  0.00     0.074 A 
ATOM     47  C   UNL A   1      43.236  36.112  28.856  1.00  0.00     0.049 A 
ATOM     48  N   UNL A   1      44.955  33.719  28.341  1.00  0.00    -0.248 NA
ATOM     49  C   UNL A   1      43.181  32.352  28.996  1.00  0.00     0.031 C 
ATOM     50  C   UNL A   1      42.457  37.326  29.103  1.00  0.00     0.029 A 
ATOM     51  N   UNL A   1      44.397  36.571  28.286  1.00  0.00    -0.354 N 
ATOM     52  C   UNL A   1      45.337  32.391  28.200  1.00  0.00     0.074 A 
ATOM     53  C   UNL A   1      44.206  31.590  28.627  1.00  0.00     0.031 C 
ATOM     54  C   UNL A   1      43.152  38.388  28.673  1.00  0.00     0.029 A 
ATOM     55  C   UNL A   1      44.455  37.940  28.196  1.00  0.00     0.049 A 
ATOM     56  H   UNL A   1      45.118  35.977  27.972  1.00  0.00     0.167 HD
ATOM     57  C   UNL A   1      46.521  31.889  27.764  1.00  0.00     0.037 A 
ATOM     58  C   UNL A   1      45.456  38.759  27.820  1.00  0.00     0.037 A 
ATOM     59  C   UNL A   1      47.644  32.682  27.324  1.00  0.00     0.049 A 
ATOM     60  C   UNL A   1      46.774  38.181  27.404  1.00  0.00     0.074 A 
ATOM     61  C   UNL A   1      48.878  32.251  26.861  1.00  0.00     0.029 A 
ATOM     62  N   UNL A   1      47.676  34.068  27.291  1.00  0.00    -0.354 N 
ATOM     63  N   UNL A   1      47.135  36.925  27.318  1.00  0.00    -0.248 NA
ATOM     64  C   UNL A   1      47.833  39.138  27.052  1.00  0.00     0.031 C 
ATOM     65  C   UNL A   1      49.666  33.375  26.584  1.00  0.00     0.029 A 
ATOM     66  C   UNL A   1      48.912  34.506  26.836  1.00  0.00     0.049 A 
ATOM     67  H   UNL A   1      46.930  34.655  27.553  1.00  0.00     0.167 HD
ATOM     68  C   UNL A   1      48.456  36.937  26.898  1.00  0.00     0.074 A 
ATOM     69  C   UNL A   1      48.830  38.326  26.726  1.00  0.00     0.031 C 
ATOM     70  C   UNL A   1      49.284  35.888  26.679  1.00  0.00     0.037 A 
BRANCH  57  71
ATOM     71  C   UNL A   1      46.696  30.397  27.762  1.00  0.00     0.064 A 
ATOM     72  C   UNL A   1      46.490  29.631  26.607  1.00  0.00     0.173 A 
ATOM     73  C   UNL A   1      47.173  29.741  28.909  1.00  0.00     0.173 A 
ATOM     74  F   UNL A   1      46.036  30.211  25.485  1.00  0.00    -0.203 F 
ATOM     75  C   UNL A   1      46.742  28.260  26.602  1.00  0.00     0.198 A 
ATOM     76  C   UNL A   1      47.444  28.375  28.895  1.00  0.00     0.198 A 
ATOM     77  F   UNL A   1      47.402  30.431  30.035  1.00  0.00    -0.203 F 
ATOM     78  F   UNL A   1      46.521  27.543  25.492  1.00  0.00    -0.200 F 
ATOM     79  C   UNL A   1      47.226  27.635  27.742  1.00  0.00     0.200 A 
ATOM     80  F   UNL A   1      47.926  27.777  29.993  1.00  0.00    -0.200 F 
ATOM     81  F   UNL A   1      47.483  26.319  27.731  1.00  0.00    -0.200 F 
ENDBRANCH  57  71
BRANCH  58  82
ATOM     82  C   UNL A   1      45.244  40.226  27.870  1.00  0.00     0.064 A 
ATOM     83  C   UNL A   1      45.658  40.977  28.977  1.00  0.00     0.173 A 
ATOM     84  C   UNL A   1      44.660  40.909  26.793  1.00  0.00     0.173 A 
ATOM     85  F   UNL A   1      46.198  40.361  30.039  1.00  0.00    -0.203 F 
ATOM     86  C   UNL A   1      45.496  42.360  29.005  1.00  0.00     0.198 A 
ATOM     87  C   UNL A   1      44.525  42.294  26.810  1.00  0.00     0.198 A 
ATOM     88  F   UNL A   1      44.251  40.231  25.711  1.00  0.00    -0.203 F 
ATOM     89  F   UNL A   1      45.876  43.054  30.086  1.00  0.00    -0.200 F 
ATOM     90  C   UNL A   1      44.941  43.018  27.917  1.00  0.00     0.200 A 
ATOM     91  F   UNL A   1      44.004  42.927  25.750  1.00  0.00    -0.200 F 
ATOM     92  F   UNL A   1      44.804  44.350  27.937  1.00  0.00    -0.200 F 
ENDBRANCH  58  82
BRANCH  70  93
ATOM     93  C   UNL A   1      50.676  36.205  26.219  1.00  0.00     0.064 A 
ATOM     94  C   UNL A   1      50.973  36.380  24.859  1.00  0.00     0.173 A 
ATOM     95  C   UNL A   1      51.721  36.338  27.145  1.00  0.00     0.173 A 
ATOM     96  F   UNL A   1      50.010  36.243  23.936  1.00  0.00    -0.203 F 
ATOM     97  C   UNL A   1      52.272  36.655  24.441  1.00  0.00     0.198 A 
ATOM     98  C   UNL A   1      53.016  36.633  26.724  1.00  0.00     0.198 A 
ATOM     99  F   UNL A   1      51.487  36.178  28.455  1.00  0.00    -0.203 F 
ATOM    100  F   UNL A   1      52.543  36.774  23.134  1.00  0.00    -0.200 F 
ATOM    101  C   UNL A   1      53.292  36.784  25.374  1.00  0.00     0.200 A 
ATOM    102  F   UNL A   1      53.998  36.762  27.626  1.00  0.00    -0.200 F 
ATOM    103  F   UNL A   1      54.542  37.044  24.969  1.00  0.00    -0.200 F 
ENDBRANCH  70  93
ENDBRANCH  44  45
ENDBRANCH  37  39
ENDBRANCH  36  37
ENDBRANCH  35  36
ENDBRANCH  34  35
ENDBRANCH  33  34
ENDBRANCH  32  33
ENDBRANCH  31  32
ENDBRANCH  30  31
ENDBRANCH   1  30
TORSDOF 23
ENDMDL
MODEL 2
REMARK VINA RESULT:      -9.2      7.354     12.557
REMARK SMILES COc1cc(/C=C/C(=O)c2ccc(OCC(=O)OCCOCCOCCOC(=O)c3ccc(-c4c5nc(c(-c6c(F)c(F)c(F)c(F)c6F)c6ccc([nH]6)c(-c6c(F)c(F)c(F)c(F)c6F)c6nc(c(-c7c(F)c(F)c(F)c(F)c7F)c7ccc4[nH]7)C=C6)C=C5)cc3)cc2)cc2c1OCCO2
REMARK SMILES IDX 20 1 19 2 18 3 16 4 17 5 15 6 14 7 13 8 10 9 11 10 94 11
REMARK SMILES IDX 12 12 93 13 8 14 9 15 7 16 6 17 5 18 3 19 4 20 97 21 96 22
REMARK SMILES IDX 98 23 95 24 101 25 99 26 100 27 2 28 1 29 21 30 22 31 23 32
REMARK SMILES IDX 24 33 25 34 26 35 27 36 28 37 29 38 30 39 31 40 92 41 32 42
REMARK SMILES IDX 91 43 33 44 34 45 35 46 85 47 36 48 90 49 84 50 86 51 37 52
REMARK SMILES IDX 89 53 83 54 82 55 38 57 70 58 50 59 69 60 51 61 54 62 68 63
REMARK SMILES IDX 87 64 52 65 53 66 67 68 88 69 55 70 39 71 40 72 48 73 41 74
REMARK SMILES IDX 42 75 46 76 49 77 43 78 44 79 47 80 45 81 71 82 72 83 80 84
REMARK SMILES IDX 73 85 74 86 78 87 81 88 75 89 76 90 79 91 77 92 56 93 57 94
REMARK SMILES IDX 65 95 58 96 59 97 63 98 66 99 60 100 61 101 64 102 62 103
REMARK H PARENT 86 56 54 67
REMARK Flexibility Score: inf
ROOT
ATOM      1  C   UNL A   1      47.195  26.824  40.599  1.00  0.00     0.202 C 
ENDROOT
BRANCH   1   2
ATOM      2  C   UNL A   1      45.777  26.876  40.010  1.00  0.00     0.261 C 
BRANCH   2   3
ATOM      3  O   UNL A   1      45.802  26.763  38.565  1.00  0.00    -0.461 OA
BRANCH   3   4
ATOM      4  C   UNL A   1      44.723  26.201  37.960  1.00  0.00     0.344 C 
ATOM      5  O   UNL A   1      43.560  26.417  38.284  1.00  0.00    -0.248 OA
BRANCH   4   6
ATOM      6  C   UNL A   1      45.082  25.372  36.704  1.00  0.00     0.351 C 
BRANCH   6   7
ATOM      7  O   UNL A   1      44.031  24.818  35.920  1.00  0.00    -0.482 OA
BRANCH   7   8
ATOM      8  C   UNL A   1      44.256  24.430  34.621  1.00  0.00     0.120 A 
ATOM      9  C   UNL A   1      44.555  24.140  31.802  1.00  0.00     0.022 A 
ATOM     10  C   UNL A   1      45.212  25.164  32.492  1.00  0.00     0.016 A 
ATOM     11  C   UNL A   1      43.870  23.178  32.549  1.00  0.00     0.016 A 
ATOM     12  C   UNL A   1      45.055  25.310  33.882  1.00  0.00     0.047 A 
ATOM     13  C   UNL A   1      43.739  23.315  33.958  1.00  0.00     0.047 A 
BRANCH   9  14
ATOM     14  C   UNL A   1      44.595  24.181  30.303  1.00  0.00     0.185 C 
ATOM     15  O   UNL A   1      45.626  24.526  29.733  1.00  0.00    -0.289 OA
BRANCH  14  16
ATOM     16  C   UNL A   1      43.322  23.948  29.533  1.00  0.00     0.053 C 
ATOM     17  C   UNL A   1      43.097  22.727  29.002  1.00  0.00     0.012 C 
BRANCH  17  18
ATOM     18  C   UNL A   1      42.055  22.367  28.011  1.00  0.00    -0.018 A 
ATOM     19  C   UNL A   1      41.193  20.666  26.426  1.00  0.00     0.165 A 
ATOM     20  C   UNL A   1      42.137  21.133  27.358  1.00  0.00     0.058 A 
ATOM     21  C   UNL A   1      40.039  21.414  26.229  1.00  0.00     0.203 A 
ATOM     22  C   UNL A   1      39.888  22.618  26.944  1.00  0.00     0.165 A 
ATOM     23  O   UNL A   1      39.058  20.913  25.412  1.00  0.00    -0.483 OA
ATOM     24  C   UNL A   1      40.903  23.114  27.789  1.00  0.00     0.058 A 
ATOM     25  O   UNL A   1      38.728  23.357  26.896  1.00  0.00    -0.486 OA
ATOM     26  C   UNL A   1      37.976  21.819  25.197  1.00  0.00     0.271 C 
ATOM     27  C   UNL A   1      37.625  22.540  26.482  1.00  0.00     0.271 C 
BRANCH  19  28
ATOM     28  O   UNL A   1      41.520  19.463  25.856  1.00  0.00    -0.493 OA
ATOM     29  C   UNL A   1      42.463  18.634  26.529  1.00  0.00     0.278 C 
ENDBRANCH  19  28
ENDBRANCH  17  18
ENDBRANCH  14  16
ENDBRANCH   9  14
ENDBRANCH   7   8
ENDBRANCH   6   7
ENDBRANCH   4   6
ENDBRANCH   3   4
ENDBRANCH   2   3
ENDBRANCH   1   2
BRANCH   1  30
ATOM     30  O   UNL A   1      47.681  28.084  41.053  1.00  0.00    -0.376 OA
BRANCH  30  31
ATOM     31  C   UNL A   1      48.918  28.527  40.503  1.00  0.00     0.188 C 
BRANCH  31  32
ATOM     32  C   UNL A   1      49.762  27.487  39.757  1.00  0.00     0.188 C 
BRANCH  32  33
ATOM     33  O   UNL A   1      51.075  27.968  39.502  1.00  0.00    -0.376 OA
BRANCH  33  34
ATOM     34  C   UNL A   1      51.202  28.604  38.241  1.00  0.00     0.202 C 
BRANCH  34  35
ATOM     35  C   UNL A   1      50.400  27.854  37.170  1.00  0.00     0.261 C 
BRANCH  35  36
ATOM     36  O   UNL A   1      50.174  28.493  35.875  1.00  0.00    -0.460 OA
BRANCH  36  37
ATOM     37  C   UNL A   1      49.386  29.573  35.829  1.00  0.00     0.338 C 
ATOM     38  O   UNL A   1      49.600  30.636  36.417  1.00  0.00    -0.246 OA
BRANCH  37  39
ATOM     39  C   UNL A   1      48.179  29.446  34.994  1.00  0.00     0.060 A 
ATOM     40  C   UNL A   1      47.891  30.488  34.110  1.00  0.00     0.016 A 
ATOM     41  C   UNL A   1      47.191  28.502  35.282  1.00  0.00     0.016 A 
ATOM     42  C   UNL A   1      46.611  30.622  33.563  1.00  0.00     0.010 A 
ATOM     43  C   UNL A   1      45.917  28.611  34.698  1.00  0.00     0.010 A 
ATOM     44  C   UNL A   1      45.608  29.680  33.839  1.00  0.00    -0.014 A 
BRANCH  44  45
ATOM     45  C   UNL A   1      44.295  29.749  33.136  1.00  0.00     0.031 A 
ATOM     46  C   UNL A   1      44.088  29.223  31.739  1.00  0.00     0.074 A 
ATOM     47  C   UNL A   1      43.255  30.319  33.778  1.00  0.00     0.049 A 
ATOM     48  N   UNL A   1      43.039  29.340  30.960  1.00  0.00    -0.248 NA
ATOM     49  C   UNL A   1      45.193  28.460  31.142  1.00  0.00     0.031 C 
ATOM     50  C   UNL A   1      43.298  30.840  35.144  1.00  0.00     0.029 A 
ATOM     51  N   UNL A   1      41.966  30.561  33.369  1.00  0.00    -0.354 N 
ATOM     52  C   UNL A   1      43.360  28.690  29.774  1.00  0.00     0.074 A 
ATOM     53  C   UNL A   1      44.704  28.173  29.939  1.00  0.00     0.031 C 
ATOM     54  C   UNL A   1      42.091  31.324  35.468  1.00  0.00     0.029 A 
ATOM     55  C   UNL A   1      41.214  31.223  34.307  1.00  0.00     0.049 A 
ATOM     56  H   UNL A   1      41.617  30.288  32.490  1.00  0.00     0.167 HD
ATOM     57  C   UNL A   1      42.607  28.547  28.653  1.00  0.00     0.037 A 
ATOM     58  C   UNL A   1      39.972  31.739  34.239  1.00  0.00     0.037 A 
ATOM     59  C   UNL A   1      41.262  29.048  28.490  1.00  0.00     0.049 A 
ATOM     60  C   UNL A   1      39.186  31.623  32.969  1.00  0.00     0.074 A 
ATOM     61  C   UNL A   1      40.427  28.939  27.389  1.00  0.00     0.029 A 
ATOM     62  N   UNL A   1      40.552  29.751  29.452  1.00  0.00    -0.354 N 
ATOM     63  N   UNL A   1      39.519  31.044  31.843  1.00  0.00    -0.248 NA
ATOM     64  C   UNL A   1      37.857  32.250  32.955  1.00  0.00     0.031 C 
ATOM     65  C   UNL A   1      39.230  29.608  27.670  1.00  0.00     0.029 A 
ATOM     66  C   UNL A   1      39.301  30.099  28.962  1.00  0.00     0.049 A 
ATOM     67  H   UNL A   1      40.888  29.972  30.351  1.00  0.00     0.167 HD
ATOM     68  C   UNL A   1      38.444  31.231  30.988  1.00  0.00     0.074 A 
ATOM     69  C   UNL A   1      37.437  31.960  31.731  1.00  0.00     0.031 C 
ATOM     70  C   UNL A   1      38.309  30.835  29.699  1.00  0.00     0.037 A 
BRANCH  57  71
ATOM     71  C   UNL A   1      43.219  27.840  27.478  1.00  0.00     0.064 A 
ATOM     72  C   UNL A   1      44.279  28.400  26.751  1.00  0.00     0.173 A 
ATOM     73  C   UNL A   1      42.804  26.542  27.140  1.00  0.00     0.173 A 
ATOM     74  F   UNL A   1      44.715  29.636  27.037  1.00  0.00    -0.203 F 
ATOM     75  C   UNL A   1      44.893  27.691  25.720  1.00  0.00     0.198 A 
ATOM     76  C   UNL A   1      43.432  25.829  26.122  1.00  0.00     0.198 A 
ATOM     77  F   UNL A   1      41.805  25.956  27.816  1.00  0.00    -0.203 F 
ATOM     78  F   UNL A   1      45.892  28.251  25.025  1.00  0.00    -0.200 F 
ATOM     79  C   UNL A   1      44.474  26.405  25.411  1.00  0.00     0.200 A 
ATOM     80  F   UNL A   1      43.037  24.580  25.837  1.00  0.00    -0.200 F 
ATOM     81  F   UNL A   1      45.076  25.719  24.429  1.00  0.00    -0.200 F 
ENDBRANCH  57  71
BRANCH  58  82
ATOM     82  C   UNL A   1      39.423  32.456  35.417  1.00  0.00     0.064 A 
ATOM     83  C   UNL A   1      38.613  31.797  36.349  1.00  0.00     0.173 A 
ATOM     84  C   UNL A   1      39.734  33.804  35.652  1.00  0.00     0.173 A 
ATOM     85  F   UNL A   1      38.271  30.515  36.150  1.00  0.00    -0.203 F 
ATOM     86  C   UNL A   1      38.133  32.460  37.475  1.00  0.00     0.198 A 
ATOM     87  C   UNL A   1      39.277  34.457  36.792  1.00  0.00     0.198 A 
ATOM     88  F   UNL A   1      40.509  34.475  34.786  1.00  0.00    -0.203 F 
ATOM     89  F   UNL A   1      37.338  31.816  38.340  1.00  0.00    -0.200 F 
ATOM     90  C   UNL A   1      38.475  33.785  37.701  1.00  0.00     0.200 A 
ATOM     91  F   UNL A   1      39.624  35.732  37.015  1.00  0.00    -0.200 F 
ATOM     92  F   UNL A   1      38.029  34.417  38.795  1.00  0.00    -0.200 F 
ENDBRANCH  58  82
BRANCH  70  93
ATOM     93  C   UNL A   1      37.017  31.176  29.016  1.00  0.00     0.064 A 
ATOM     94  C   UNL A   1      36.738  32.484  28.592  1.00  0.00     0.173 A 
ATOM     95  C   UNL A   1      36.052  30.186  28.780  1.00  0.00     0.173 A 
ATOM     96  F   UNL A   1      37.622  33.467  28.815  1.00  0.00    -0.203 F 
ATOM     97  C   UNL A   1      35.528  32.793  27.977  1.00  0.00     0.198 A 
ATOM     98  C   UNL A   1      34.851  30.495  28.145  1.00  0.00     0.198 A 
ATOM     99  F   UNL A   1      36.272  28.921  29.166  1.00  0.00    -0.203 F 
ATOM    100  F   UNL A   1      35.263  34.057  27.621  1.00  0.00    -0.200 F 
ATOM    101  C   UNL A   1      34.587  31.798  27.751  1.00  0.00     0.200 A 
ATOM    102  F   UNL A   1      33.946  29.533  27.923  1.00  0.00    -0.200 F 
ATOM    103  F   UNL A   1      33.421  32.099  27.163  1.00  0.00    -0.200 F 
ENDBRANCH  70  93
ENDBRANCH  44  45
ENDBRANCH  37  39
ENDBRANCH  36  37
ENDBRANCH  35  36
ENDBRANCH  34  35
ENDBRANCH  33  34
ENDBRANCH  32  33
ENDBRANCH  31  32
ENDBRANCH  30  31
ENDBRANCH   1  30
TORSDOF 23
ENDMDL
MODEL 3
REMARK VINA RESULT:      -9.2      0.688      2.321
REMARK SMILES COc1cc(/C=C/C(=O)c2ccc(OCC(=O)OCCOCCOCCOC(=O)c3ccc(-c4c5nc(c(-c6c(F)c(F)c(F)c(F)c6F)c6ccc([nH]6)c(-c6c(F)c(F)c(F)c(F)c6F)c6nc(c(-c7c(F)c(F)c(F)c(F)c7F)c7ccc4[nH]7)C=C6)C=C5)cc3)cc2)cc2c1OCCO2
REMARK SMILES IDX 20 1 19 2 18 3 16 4 17 5 15 6 14 7 13 8 10 9 11 10 94 11
REMARK SMILES IDX 12 12 93 13 8 14 9 15 7 16 6 17 5 18 3 19 4 20 97 21 96 22
REMARK SMILES IDX 98 23 95 24 101 25 99 26 100 27 2 28 1 29 21 30 22 31 23 32
REMARK SMILES IDX 24 33 25 34 26 35 27 36 28 37 29 38 30 39 31 40 92 41 32 42
REMARK SMILES IDX 91 43 33 44 34 45 35 46 85 47 36 48 90 49 84 50 86 51 37 52
REMARK SMILES IDX 89 53 83 54 82 55 38 57 70 58 50 59 69 60 51 61 54 62 68 63
REMARK SMILES IDX 87 64 52 65 53 66 67 68 88 69 55 70 39 71 40 72 48 73 41 74
REMARK SMILES IDX 42 75 46 76 49 77 43 78 44 79 47 80 45 81 71 82 72 83 80 84
REMARK SMILES IDX 73 85 74 86 78 87 81 88 75 89 76 90 79 91 77 92 56 93 57 94
REMARK SMILES IDX 65 95 58 96 59 97 63 98 66 99 60 100 61 101 64 102 62 103
REMARK H PARENT 86 56 54 67
REMARK Flexibility Score: inf
ROOT
ATOM      1  C   UNL A   1      32.718  30.432  26.917  1.00  0.00     0.202 C 
ENDROOT
BRANCH   1   2
ATOM      2  C   UNL A   1      31.715  29.573  26.131  1.00  0.00     0.261 C 
BRANCH   2   3
ATOM      3  O   UNL A   1      31.671  29.960  24.735  1.00  0.00    -0.461 OA
BRANCH   3   4
ATOM      4  C   UNL A   1      32.193  29.094  23.826  1.00  0.00     0.344 C 
ATOM      5  O   UNL A   1      33.389  28.846  23.718  1.00  0.00    -0.248 OA
BRANCH   4   6
ATOM      6  C   UNL A   1      31.119  28.317  23.028  1.00  0.00     0.351 C 
BRANCH   6   7
ATOM      7  O   UNL A   1      30.450  27.228  23.654  1.00  0.00    -0.482 OA
BRANCH   7   8
ATOM      8  C   UNL A   1      31.113  26.050  23.903  1.00  0.00     0.120 A 
ATOM      9  C   UNL A   1      32.532  23.806  24.938  1.00  0.00     0.022 A 
ATOM     10  C   UNL A   1      31.331  24.226  25.519  1.00  0.00     0.016 A 
ATOM     11  C   UNL A   1      32.939  24.422  23.751  1.00  0.00     0.016 A 
ATOM     12  C   UNL A   1      30.638  25.340  25.012  1.00  0.00     0.047 A 
ATOM     13  C   UNL A   1      32.218  25.529  23.227  1.00  0.00     0.047 A 
BRANCH   9  14
ATOM     14  C   UNL A   1      33.321  22.756  25.663  1.00  0.00     0.185 C 
ATOM     15  O   UNL A   1      32.786  21.690  25.954  1.00  0.00    -0.289 OA
BRANCH  14  16
ATOM     16  C   UNL A   1      34.703  23.092  26.157  1.00  0.00     0.053 C 
ATOM     17  C   UNL A   1      35.754  22.887  25.334  1.00  0.00     0.012 C 
BRANCH  17  18
ATOM     18  C   UNL A   1      37.190  22.907  25.704  1.00  0.00    -0.018 A 
ATOM     19  C   UNL A   1      39.070  24.203  26.670  1.00  0.00     0.165 A 
ATOM     20  C   UNL A   1      37.734  24.074  26.250  1.00  0.00     0.058 A 
ATOM     21  C   UNL A   1      39.873  23.069  26.664  1.00  0.00     0.203 A 
ATOM     22  C   UNL A   1      39.322  21.858  26.205  1.00  0.00     0.165 A 
ATOM     23  O   UNL A   1      41.141  23.154  27.181  1.00  0.00    -0.483 OA
ATOM     24  C   UNL A   1      38.011  21.785  25.687  1.00  0.00     0.058 A 
ATOM     25  O   UNL A   1      40.009  20.667  26.275  1.00  0.00    -0.486 OA
ATOM     26  C   UNL A   1      41.906  21.961  27.014  1.00  0.00     0.271 C 
ATOM     27  C   UNL A   1      41.045  20.740  27.264  1.00  0.00     0.271 C 
BRANCH  19  28
ATOM     28  O   UNL A   1      39.400  25.462  27.100  1.00  0.00    -0.493 OA
ATOM     29  C   UNL A   1      39.759  25.633  28.468  1.00  0.00     0.278 C 
ENDBRANCH  19  28
ENDBRANCH  17  18
ENDBRANCH  14  16
ENDBRANCH   9  14
ENDBRANCH   7   8
ENDBRANCH   6   7
ENDBRANCH   4   6
ENDBRANCH   3   4
ENDBRANCH   2   3
ENDBRANCH   1   2
BRANCH   1  30
ATOM     30  O   UNL A   1      34.067  29.983  26.819  1.00  0.00    -0.376 OA
BRANCH  30  31
ATOM     31  C   UNL A   1      35.048  30.756  27.505  1.00  0.00     0.188 C 
BRANCH  31  32
ATOM     32  C   UNL A   1      34.619  32.138  28.011  1.00  0.00     0.188 C 
BRANCH  32  33
ATOM     33  O   UNL A   1      34.761  32.244  29.421  1.00  0.00    -0.376 OA
BRANCH  33  34
ATOM     34  C   UNL A   1      34.730  33.584  29.887  1.00  0.00     0.202 C 
BRANCH  34  35
ATOM     35  C   UNL A   1      35.605  33.745  31.136  1.00  0.00     0.261 C 
BRANCH  35  36
ATOM     36  O   UNL A   1      37.042  33.505  31.032  1.00  0.00    -0.460 OA
BRANCH  36  37
ATOM     37  C   UNL A   1      37.859  34.169  31.858  1.00  0.00     0.338 C 
ATOM     38  O   UNL A   1      37.597  34.472  33.025  1.00  0.00    -0.246 OA
BRANCH  37  39
ATOM     39  C   UNL A   1      39.166  34.546  31.296  1.00  0.00     0.060 A 
ATOM     40  C   UNL A   1      39.236  34.789  29.923  1.00  0.00     0.016 A 
ATOM     41  C   UNL A   1      40.349  34.363  32.017  1.00  0.00     0.016 A 
ATOM     42  C   UNL A   1      40.468  34.790  29.262  1.00  0.00     0.010 A 
ATOM     43  C   UNL A   1      41.591  34.408  31.361  1.00  0.00     0.010 A 
ATOM     44  C   UNL A   1      41.666  34.611  29.972  1.00  0.00    -0.014 A 
BRANCH  44  45
ATOM     45  C   UNL A   1      42.980  34.762  29.284  1.00  0.00     0.031 A 
ATOM     46  C   UNL A   1      43.865  33.589  28.947  1.00  0.00     0.074 A 
ATOM     47  C   UNL A   1      43.395  36.005  28.965  1.00  0.00     0.049 A 
ATOM     48  N   UNL A   1      45.088  33.588  28.474  1.00  0.00    -0.248 NA
ATOM     49  C   UNL A   1      43.304  32.248  29.156  1.00  0.00     0.031 C 
ATOM     50  C   UNL A   1      42.630  37.230  29.199  1.00  0.00     0.029 A 
ATOM     51  N   UNL A   1      44.559  36.445  28.383  1.00  0.00    -0.354 N 
ATOM     52  C   UNL A   1      45.456  32.254  28.349  1.00  0.00     0.074 A 
ATOM     53  C   UNL A   1      44.319  31.470  28.792  1.00  0.00     0.031 C 
ATOM     54  C   UNL A   1      43.334  38.279  28.752  1.00  0.00     0.029 A 
ATOM     55  C   UNL A   1      44.630  37.811  28.275  1.00  0.00     0.049 A 
ATOM     56  H   UNL A   1      45.273  35.840  28.075  1.00  0.00     0.167 HD
ATOM     57  C   UNL A   1      46.633  31.735  27.915  1.00  0.00     0.037 A 
ATOM     58  C   UNL A   1      45.637  38.615  27.884  1.00  0.00     0.037 A 
ATOM     59  C   UNL A   1      47.763  32.511  27.459  1.00  0.00     0.049 A 
ATOM     60  C   UNL A   1      46.948  38.019  27.470  1.00  0.00     0.074 A 
ATOM     61  C   UNL A   1      48.990  32.062  26.996  1.00  0.00     0.029 A 
ATOM     62  N   UNL A   1      47.808  33.896  27.407  1.00  0.00    -0.354 N 
ATOM     63  N   UNL A   1      47.295  36.758  27.398  1.00  0.00    -0.248 NA
ATOM     64  C   UNL A   1      48.014  38.960  27.100  1.00  0.00     0.031 C 
ATOM     65  C   UNL A   1      49.788  33.173  26.701  1.00  0.00     0.029 A 
ATOM     66  C   UNL A   1      49.046  34.315  26.941  1.00  0.00     0.049 A 
ATOM     67  H   UNL A   1      47.069  34.494  27.664  1.00  0.00     0.167 HD
ATOM     68  C   UNL A   1      48.614  36.752  26.972  1.00  0.00     0.074 A 
ATOM     69  C   UNL A   1      49.002  38.134  26.780  1.00  0.00     0.031 C 
ATOM     70  C   UNL A   1      49.431  35.691  26.764  1.00  0.00     0.037 A 
BRANCH  57  71
ATOM     71  C   UNL A   1      46.793  30.241  27.932  1.00  0.00     0.064 A 
ATOM     72  C   UNL A   1      47.226  29.559  29.078  1.00  0.00     0.173 A 
ATOM     73  C   UNL A   1      46.413  29.478  26.817  1.00  0.00     0.173 A 
ATOM     74  F   UNL A   1      47.598  30.243  30.170  1.00  0.00    -0.203 F 
ATOM     75  C   UNL A   1      47.284  28.166  29.102  1.00  0.00     0.198 A 
ATOM     76  C   UNL A   1      46.453  28.086  26.851  1.00  0.00     0.198 A 
ATOM     77  F   UNL A   1      45.977  30.082  25.702  1.00  0.00    -0.203 F 
ATOM     78  F   UNL A   1      47.717  27.534  30.201  1.00  0.00    -0.200 F 
ATOM     79  C   UNL A   1      46.891  27.431  27.993  1.00  0.00     0.200 A 
ATOM     80  F   UNL A   1      46.058  27.378  25.784  1.00  0.00    -0.200 F 
ATOM     81  F   UNL A   1      46.932  26.092  28.024  1.00  0.00    -0.200 F 
ENDBRANCH  57  71
BRANCH  58  82
ATOM     82  C   UNL A   1      45.440  40.085  27.915  1.00  0.00     0.064 A 
ATOM     83  C   UNL A   1      45.026  40.781  26.773  1.00  0.00     0.173 A 
ATOM     84  C   UNL A   1      45.624  40.814  29.099  1.00  0.00     0.173 A 
ATOM     85  F   UNL A   1      44.862  40.127  25.613  1.00  0.00    -0.203 F 
ATOM     86  C   UNL A   1      44.801  42.155  26.815  1.00  0.00     0.198 A 
ATOM     87  C   UNL A   1      45.372  42.182  29.147  1.00  0.00     0.198 A 
ATOM     88  F   UNL A   1      46.019  40.188  30.218  1.00  0.00    -0.203 F 
ATOM     89  F   UNL A   1      44.430  42.804  25.703  1.00  0.00    -0.200 F 
ATOM     90  C   UNL A   1      44.964  42.851  28.004  1.00  0.00     0.200 A 
ATOM     91  F   UNL A   1      45.514  42.847  30.301  1.00  0.00    -0.200 F 
ATOM     92  F   UNL A   1      44.728  44.169  28.047  1.00  0.00    -0.200 F 
ENDBRANCH  58  82
BRANCH  70  93
ATOM     93  C   UNL A   1      50.823  35.988  26.293  1.00  0.00     0.064 A 
ATOM     94  C   UNL A   1      51.905  36.023  27.186  1.00  0.00     0.173 A 
ATOM     95  C   UNL A   1      51.080  36.237  24.937  1.00  0.00     0.173 A 
ATOM     96  F   UNL A   1      51.704  35.811  28.495  1.00  0.00    -0.203 F 
ATOM     97  C   UNL A   1      53.190  36.320  26.741  1.00  0.00     0.198 A 
ATOM     98  C   UNL A   1      52.371  36.513  24.492  1.00  0.00     0.198 A 
ATOM     99  F   UNL A   1      50.080  36.216  24.044  1.00  0.00    -0.203 F 
ATOM    100  F   UNL A   1      54.201  36.393  27.617  1.00  0.00    -0.200 F 
ATOM    101  C   UNL A   1      53.423  36.561  25.394  1.00  0.00     0.200 A 
ATOM    102  F   UNL A   1      52.595  36.742  23.191  1.00  0.00    -0.200 F 
ATOM    103  F   UNL A   1      54.660  36.852  24.969  1.00  0.00    -0.200 F 
ENDBRANCH  70  93
ENDBRANCH  44  45
ENDBRANCH  37  39
ENDBRANCH  36  37
ENDBRANCH  35  36
ENDBRANCH  34  35
ENDBRANCH  33  34
ENDBRANCH  32  33
ENDBRANCH  31  32
ENDBRANCH  30  31
ENDBRANCH   1  30
TORSDOF 23
ENDMDL
