MODEL 1
REMARK VINA RESULT:      -9.6      0.000      0.000
REMARK SMILES C=CC[N@@H+](CC(=O)OCCOCCOCCOC(=O)c1ccc(-c2c3nc(c(-c4c(F)c(F)c(F)c(F)c4F)c4ccc([nH]4)c(-c4c(F)c(F)c(F)c(F)c4F)c4nc(c(-c5c(F)c(F)c(F)c(F)c5F)c5ccc2[nH]5)C=C4)C=C3)cc1)Cc1ccc([N+](=O)[O-])o1
REMARK SMILES IDX 12 1 11 2 10 3 9 4 8 5 6 6 7 7 5 8 4 9 3 11 2 12 1 13 83 14
REMARK SMILES IDX 84 15 85 16 91 17 86 18 87 19 88 20 89 21 90 22 13 23 14 24
REMARK SMILES IDX 15 25 16 26 17 27 18 28 19 29 20 30 21 31 82 32 22 33 81 34
REMARK SMILES IDX 23 35 24 36 25 37 75 38 26 39 80 40 74 41 76 42 27 43 79 44
REMARK SMILES IDX 73 45 72 46 28 48 60 49 40 50 59 51 41 52 44 53 58 54 77 55
REMARK SMILES IDX 42 56 43 57 57 59 78 60 45 61 29 62 30 63 38 64 31 65 32 66
REMARK SMILES IDX 36 67 39 68 33 69 34 70 37 71 35 72 61 73 62 74 70 75 63 76
REMARK SMILES IDX 64 77 68 78 71 79 65 80 66 81 69 82 67 83 46 84 47 85 55 86
REMARK SMILES IDX 48 87 49 88 53 89 56 90 50 91 51 92 54 93 52 94
REMARK H PARENT 4 10 76 47 44 58
REMARK Flexibility Score: inf
ROOT
ATOM      1  C   UNL A   1      31.344  26.677  26.747  1.00  0.00     0.188 C 
ENDROOT
BRANCH   1   2
ATOM      2  O   UNL A   1      30.442  25.577  26.167  1.00  0.00    -0.376 OA
BRANCH   2   3
ATOM      3  C   UNL A   1      31.002  24.580  25.322  1.00  0.00     0.202 C 
BRANCH   3   4
ATOM      4  C   UNL A   1      31.016  23.062  25.638  1.00  0.00     0.261 C 
BRANCH   4   5
ATOM      5  O   UNL A   1      31.663  22.541  26.817  1.00  0.00    -0.459 OA
BRANCH   5   6
ATOM      6  C   UNL A   1      33.017  22.479  26.844  1.00  0.00     0.361 C 
ATOM      7  O   UNL A   1      33.733  23.410  27.200  1.00  0.00    -0.245 OA
BRANCH   6   8
ATOM      8  C   UNL A   1      33.579  21.139  26.359  1.00  0.00     0.387 C 
BRANCH   8   9
ATOM      9  N   UNL A   1      33.852  20.941  24.920  1.00  0.00    -0.316 N 
ATOM     10  H   UNL A   1      32.972  21.226  24.489  1.00  0.00     0.349 HD
BRANCH   9  11
ATOM     11  C   UNL A   1      33.927  19.551  24.482  1.00  0.00     0.291 C 
BRANCH  11  12
ATOM     12  C   UNL A   1      33.155  18.598  25.358  1.00  0.00     0.025 C 
ATOM     13  C   UNL A   1      32.306  17.670  24.894  1.00  0.00     0.010 C 
ENDBRANCH  11  12
ENDBRANCH   9  11
BRANCH   9  14
ATOM     14  C   UNL A   1      34.712  21.920  24.264  1.00  0.00     0.339 C 
BRANCH  14  15
ATOM     15  C   UNL A   1      34.051  22.993  23.466  1.00  0.00     0.165 A 
ATOM     16  C   UNL A   1      33.023  23.083  22.034  1.00  0.00     0.059 A 
ATOM     17  O   UNL A   1      34.482  24.785  23.849  1.00  0.00    -0.400 OA
ATOM     18  C   UNL A   1      32.724  24.928  21.553  1.00  0.00     0.134 A 
ATOM     19  C   UNL A   1      33.671  25.958  22.617  1.00  0.00     0.433 A 
BRANCH  19  20
ATOM     20  N   UNL A   1      33.964  27.338  22.766  1.00  0.00     0.102 N 
ATOM     21  O   UNL A   1      33.907  27.783  23.919  1.00  0.00    -0.256 OA
ATOM     22  O   UNL A   1      34.248  27.975  21.743  1.00  0.00    -0.256 OA
ENDBRANCH  19  20
ENDBRANCH  14  15
ENDBRANCH   9  14
ENDBRANCH   8   9
ENDBRANCH   6   8
ENDBRANCH   5   6
ENDBRANCH   4   5
ENDBRANCH   3   4
ENDBRANCH   2   3
ENDBRANCH   1   2
BRANCH   1  23
ATOM     23  C   UNL A   1      31.572  28.785  25.958  1.00  0.00     0.188 C 
BRANCH  23  24
ATOM     24  O   UNL A   1      31.237  30.067  26.794  1.00  0.00    -0.376 OA
BRANCH  24  25
ATOM     25  C   UNL A   1      32.013  31.240  26.518  1.00  0.00     0.202 C 
BRANCH  25  26
ATOM     26  C   UNL A   1      33.012  31.705  27.603  1.00  0.00     0.261 C 
BRANCH  26  27
ATOM     27  O   UNL A   1      34.303  31.040  27.697  1.00  0.00    -0.460 OA
BRANCH  27  28
ATOM     28  C   UNL A   1      35.105  31.262  28.767  1.00  0.00     0.338 C 
ATOM     29  O   UNL A   1      34.818  31.908  29.760  1.00  0.00    -0.246 OA
BRANCH  28  30
ATOM     30  C   UNL A   1      36.346  30.424  28.663  1.00  0.00     0.060 A 
ATOM     31  C   UNL A   1      36.807  29.777  29.821  1.00  0.00     0.016 A 
ATOM     32  C   UNL A   1      37.030  30.211  27.457  1.00  0.00     0.016 A 
ATOM     33  C   UNL A   1      37.971  28.990  29.796  1.00  0.00     0.010 A 
ATOM     34  C   UNL A   1      38.203  29.427  27.431  1.00  0.00     0.010 A 
ATOM     35  C   UNL A   1      38.714  28.855  28.613  1.00  0.00    -0.014 A 
BRANCH  35  36
ATOM     36  C   UNL A   1      40.156  28.461  28.723  1.00  0.00     0.031 A 
ATOM     37  C   UNL A   1      41.060  29.421  29.466  1.00  0.00     0.074 A 
ATOM     38  C   UNL A   1      40.665  27.287  28.297  1.00  0.00     0.049 A 
ATOM     39  N   UNL A   1      42.319  29.303  29.807  1.00  0.00    -0.248 NA
ATOM     40  C   UNL A   1      40.445  30.690  29.887  1.00  0.00     0.031 C 
ATOM     41  C   UNL A   1      39.929  26.237  27.600  1.00  0.00     0.029 A 
ATOM     42  N   UNL A   1      41.943  26.776  28.410  1.00  0.00    -0.354 N 
ATOM     43  C   UNL A   1      42.631  30.470  30.496  1.00  0.00     0.074 A 
ATOM     44  C   UNL A   1      41.454  31.307  30.473  1.00  0.00     0.031 C 
ATOM     45  C   UNL A   1      40.763  25.207  27.352  1.00  0.00     0.029 A 
ATOM     46  C   UNL A   1      42.100  25.524  27.859  1.00  0.00     0.049 A 
ATOM     47  H   UNL A   1      42.678  27.265  28.846  1.00  0.00     0.167 HD
ATOM     48  C   UNL A   1      43.782  30.817  31.118  1.00  0.00     0.037 A 
ATOM     49  C   UNL A   1      43.192  24.731  27.774  1.00  0.00     0.037 A 
ATOM     50  C   UNL A   1      44.973  30.014  31.131  1.00  0.00     0.049 A 
ATOM     51  C   UNL A   1      44.501  25.185  28.388  1.00  0.00     0.074 A 
ATOM     52  C   UNL A   1      46.191  30.289  31.725  1.00  0.00     0.029 A 
ATOM     53  N   UNL A   1      45.102  28.785  30.502  1.00  0.00    -0.354 N 
ATOM     54  N   UNL A   1      44.769  26.271  29.075  1.00  0.00    -0.248 NA
ATOM     55  C   UNL A   1      45.660  24.292  28.221  1.00  0.00     0.031 C 
ATOM     56  C   UNL A   1      47.080  29.263  31.396  1.00  0.00     0.029 A 
ATOM     57  C   UNL A   1      46.392  28.306  30.666  1.00  0.00     0.049 A 
ATOM     58  H   UNL A   1      44.386  28.323  30.012  1.00  0.00     0.167 HD
ATOM     59  C   UNL A   1      46.107  26.171  29.450  1.00  0.00     0.074 A 
ATOM     60  C   UNL A   1      46.590  24.908  28.937  1.00  0.00     0.031 C 
ATOM     61  C   UNL A   1      46.868  27.045  30.157  1.00  0.00     0.037 A 
BRANCH  48  62
ATOM     62  C   UNL A   1      43.810  32.152  31.807  1.00  0.00     0.064 A 
ATOM     63  C   UNL A   1      43.393  32.308  33.139  1.00  0.00     0.173 A 
ATOM     64  C   UNL A   1      44.249  33.294  31.120  1.00  0.00     0.173 A 
ATOM     65  F   UNL A   1      42.941  31.252  33.833  1.00  0.00    -0.203 F 
ATOM     66  C   UNL A   1      43.380  33.561  33.744  1.00  0.00     0.198 A 
ATOM     67  C   UNL A   1      44.271  34.539  31.741  1.00  0.00     0.198 A 
ATOM     68  F   UNL A   1      44.654  33.202  29.845  1.00  0.00    -0.203 F 
ATOM     69  F   UNL A   1      42.912  33.696  34.992  1.00  0.00    -0.200 F 
ATOM     70  C   UNL A   1      43.826  34.674  33.048  1.00  0.00     0.200 A 
ATOM     71  F   UNL A   1      44.713  35.611  31.070  1.00  0.00    -0.200 F 
ATOM     72  F   UNL A   1      43.813  35.881  33.631  1.00  0.00    -0.200 F 
ENDBRANCH  48  62
BRANCH  49  73
ATOM     73  C   UNL A   1      43.129  23.413  27.070  1.00  0.00     0.064 A 
ATOM     74  C   UNL A   1      42.542  22.286  27.671  1.00  0.00     0.173 A 
ATOM     75  C   UNL A   1      43.731  23.230  25.817  1.00  0.00     0.173 A 
ATOM     76  F   UNL A   1      41.988  22.389  28.888  1.00  0.00    -0.203 F 
ATOM     77  C   UNL A   1      42.586  21.031  27.061  1.00  0.00     0.198 A 
ATOM     78  C   UNL A   1      43.742  21.983  25.191  1.00  0.00     0.198 A 
ATOM     79  F   UNL A   1      44.325  24.262  25.201  1.00  0.00    -0.203 F 
ATOM     80  F   UNL A   1      42.082  19.962  27.693  1.00  0.00    -0.200 F 
ATOM     81  C   UNL A   1      43.180  20.882  25.818  1.00  0.00     0.200 A 
ATOM     82  F   UNL A   1      44.315  21.846  23.986  1.00  0.00    -0.200 F 
ATOM     83  F   UNL A   1      43.228  19.677  25.234  1.00  0.00    -0.200 F 
ENDBRANCH  49  73
BRANCH  61  84
ATOM     84  C   UNL A   1      48.291  26.654  30.459  1.00  0.00     0.064 A 
ATOM     85  C   UNL A   1      48.633  25.894  31.588  1.00  0.00     0.173 A 
ATOM     86  C   UNL A   1      49.329  27.025  29.588  1.00  0.00     0.173 A 
ATOM     87  F   UNL A   1      47.684  25.513  32.459  1.00  0.00    -0.203 F 
ATOM     88  C   UNL A   1      49.959  25.564  31.860  1.00  0.00     0.198 A 
ATOM     89  C   UNL A   1      50.648  26.656  29.839  1.00  0.00     0.198 A 
ATOM     90  F   UNL A   1      49.064  27.737  28.482  1.00  0.00    -0.203 F 
ATOM     91  F   UNL A   1      50.266  24.900  32.983  1.00  0.00    -0.200 F 
ATOM     92  C   UNL A   1      50.965  25.940  30.983  1.00  0.00     0.200 A 
ATOM     93  F   UNL A   1      51.614  26.999  28.975  1.00  0.00    -0.200 F 
ATOM     94  F   UNL A   1      52.240  25.621  31.244  1.00  0.00    -0.200 F 
ENDBRANCH  61  84
ENDBRANCH  35  36
ENDBRANCH  28  30
ENDBRANCH  27  28
ENDBRANCH  26  27
ENDBRANCH  25  26
ENDBRANCH  24  25
ENDBRANCH  23  24
ENDBRANCH   1  23
TORSDOF 23
ENDMDL
MODEL 2
REMARK VINA RESULT:      -9.6      5.646      9.860
REMARK SMILES C=CC[N@@H+](CC(=O)OCCOCCOCCOC(=O)c1ccc(-c2c3nc(c(-c4c(F)c(F)c(F)c(F)c4F)c4ccc([nH]4)c(-c4c(F)c(F)c(F)c(F)c4F)c4nc(c(-c5c(F)c(F)c(F)c(F)c5F)c5ccc2[nH]5)C=C4)C=C3)cc1)Cc1ccc([N+](=O)[O-])o1
REMARK SMILES IDX 12 1 11 2 10 3 9 4 8 5 6 6 7 7 5 8 4 9 3 11 2 12 1 13 83 14
REMARK SMILES IDX 84 15 85 16 91 17 86 18 87 19 88 20 89 21 90 22 13 23 14 24
REMARK SMILES IDX 15 25 16 26 17 27 18 28 19 29 20 30 21 31 82 32 22 33 81 34
REMARK SMILES IDX 23 35 24 36 25 37 75 38 26 39 80 40 74 41 76 42 27 43 79 44
REMARK SMILES IDX 73 45 72 46 28 48 60 49 40 50 59 51 41 52 44 53 58 54 77 55
REMARK SMILES IDX 42 56 43 57 57 59 78 60 45 61 29 62 30 63 38 64 31 65 32 66
REMARK SMILES IDX 36 67 39 68 33 69 34 70 37 71 35 72 61 73 62 74 70 75 63 76
REMARK SMILES IDX 64 77 68 78 71 79 65 80 66 81 69 82 67 83 46 84 47 85 55 86
REMARK SMILES IDX 48 87 49 88 53 89 56 90 50 91 51 92 54 93 52 94
REMARK H PARENT 4 10 76 47 44 58
REMARK Flexibility Score: inf
ROOT
ATOM      1  C   UNL A   1      41.166  28.616  29.097  1.00  0.00     0.188 C 
ENDROOT
BRANCH   1   2
ATOM      2  O   UNL A   1      41.298  29.962  29.825  1.00  0.00    -0.376 OA
BRANCH   2   3
ATOM      3  C   UNL A   1      40.151  30.556  30.418  1.00  0.00     0.202 C 
BRANCH   3   4
ATOM      4  C   UNL A   1      39.383  29.974  31.633  1.00  0.00     0.261 C 
BRANCH   4   5
ATOM      5  O   UNL A   1      38.319  30.705  32.276  1.00  0.00    -0.459 OA
BRANCH   5   6
ATOM      6  C   UNL A   1      37.041  30.469  31.891  1.00  0.00     0.361 C 
ATOM      7  O   UNL A   1      36.570  29.345  31.752  1.00  0.00    -0.245 OA
BRANCH   6   8
ATOM      8  C   UNL A   1      36.239  31.745  31.616  1.00  0.00     0.387 C 
BRANCH   8   9
ATOM      9  N   UNL A   1      36.147  32.266  30.236  1.00  0.00    -0.316 N 
ATOM     10  H   UNL A   1      36.435  31.461  29.679  1.00  0.00     0.349 HD
BRANCH   9  11
ATOM     11  C   UNL A   1      37.175  33.232  29.862  1.00  0.00     0.291 C 
BRANCH  11  12
ATOM     12  C   UNL A   1      37.667  34.070  31.014  1.00  0.00     0.025 C 
ATOM     13  C   UNL A   1      38.960  34.213  31.341  1.00  0.00     0.010 C 
ENDBRANCH  11  12
ENDBRANCH   9  11
BRANCH   9  14
ATOM     14  C   UNL A   1      34.812  32.423  29.670  1.00  0.00     0.339 C 
BRANCH  14  15
ATOM     15  C   UNL A   1      34.188  33.776  29.744  1.00  0.00     0.165 A 
ATOM     16  C   UNL A   1      33.868  35.108  28.630  1.00  0.00     0.059 A 
ATOM     17  O   UNL A   1      33.745  34.465  31.438  1.00  0.00    -0.400 OA
ATOM     18  C   UNL A   1      33.140  36.613  29.594  1.00  0.00     0.134 A 
ATOM     19  C   UNL A   1      33.133  36.243  31.312  1.00  0.00     0.433 A 
BRANCH  19  20
ATOM     20  N   UNL A   1      32.819  36.895  32.531  1.00  0.00     0.102 N 
ATOM     21  O   UNL A   1      31.645  36.795  32.912  1.00  0.00    -0.256 OA
ATOM     22  O   UNL A   1      33.731  37.502  33.107  1.00  0.00    -0.256 OA
ENDBRANCH  19  20
ENDBRANCH  14  15
ENDBRANCH   9  14
ENDBRANCH   8   9
ENDBRANCH   6   8
ENDBRANCH   5   6
ENDBRANCH   4   5
ENDBRANCH   3   4
ENDBRANCH   2   3
ENDBRANCH   1   2
BRANCH   1  23
ATOM     23  C   UNL A   1      39.266  27.420  28.814  1.00  0.00     0.188 C 
BRANCH  23  24
ATOM     24  O   UNL A   1      39.143  26.198  27.842  1.00  0.00    -0.376 OA
BRANCH  24  25
ATOM     25  C   UNL A   1      40.014  25.087  28.085  1.00  0.00     0.202 C 
BRANCH  25  26
ATOM     26  C   UNL A   1      40.269  24.111  26.914  1.00  0.00     0.261 C 
BRANCH  26  27
ATOM     27  O   UNL A   1      41.409  23.209  26.989  1.00  0.00    -0.460 OA
BRANCH  27  28
ATOM     28  C   UNL A   1      42.411  23.305  26.081  1.00  0.00     0.338 C 
ATOM     29  O   UNL A   1      42.600  22.561  25.135  1.00  0.00    -0.246 OA
BRANCH  28  30
ATOM     30  C   UNL A   1      43.158  24.593  26.274  1.00  0.00     0.060 A 
ATOM     31  C   UNL A   1      43.253  25.473  25.184  1.00  0.00     0.016 A 
ATOM     32  C   UNL A   1      43.713  24.982  27.502  1.00  0.00     0.016 A 
ATOM     33  C   UNL A   1      43.951  26.687  25.293  1.00  0.00     0.010 A 
ATOM     34  C   UNL A   1      44.421  26.198  27.613  1.00  0.00     0.010 A 
ATOM     35  C   UNL A   1      44.593  27.036  26.492  1.00  0.00    -0.014 A 
BRANCH  35  36
ATOM     36  C   UNL A   1      45.709  28.033  26.435  1.00  0.00     0.031 A 
ATOM     37  C   UNL A   1      45.338  29.474  26.714  1.00  0.00     0.074 A 
ATOM     38  C   UNL A   1      47.008  27.721  26.253  1.00  0.00     0.049 A 
ATOM     39  N   UNL A   1      46.098  30.533  26.836  1.00  0.00    -0.248 NA
ATOM     40  C   UNL A   1      43.902  29.747  26.887  1.00  0.00     0.031 C 
ATOM     41  C   UNL A   1      47.542  26.384  26.010  1.00  0.00     0.029 A 
ATOM     42  N   UNL A   1      48.129  28.528  26.260  1.00  0.00    -0.354 N 
ATOM     43  C   UNL A   1      45.232  31.585  27.118  1.00  0.00     0.074 A 
ATOM     44  C   UNL A   1      43.890  31.052  27.090  1.00  0.00     0.031 C 
ATOM     45  C   UNL A   1      48.883  26.461  25.897  1.00  0.00     0.029 A 
ATOM     46  C   UNL A   1      49.310  27.855  26.045  1.00  0.00     0.049 A 
ATOM     47  H   UNL A   1      48.087  29.501  26.406  1.00  0.00     0.167 HD
ATOM     48  C   UNL A   1      45.516  32.878  27.401  1.00  0.00     0.037 A 
ATOM     49  C   UNL A   1      50.582  28.309  25.975  1.00  0.00     0.037 A 
ATOM     50  C   UNL A   1      46.840  33.437  27.408  1.00  0.00     0.049 A 
ATOM     51  C   UNL A   1      50.867  29.782  26.192  1.00  0.00     0.074 A 
ATOM     52  C   UNL A   1      47.223  34.739  27.671  1.00  0.00     0.029 A 
ATOM     53  N   UNL A   1      47.995  32.729  27.118  1.00  0.00    -0.354 N 
ATOM     54  N   UNL A   1      50.044  30.755  26.502  1.00  0.00    -0.248 NA
ATOM     55  C   UNL A   1      52.269  30.214  26.060  1.00  0.00     0.031 C 
ATOM     56  C   UNL A   1      48.603  34.837  27.470  1.00  0.00     0.029 A 
ATOM     57  C   UNL A   1      49.091  33.577  27.163  1.00  0.00     0.049 A 
ATOM     58  H   UNL A   1      48.033  31.768  26.911  1.00  0.00     0.167 HD
ATOM     59  C   UNL A   1      50.829  31.898  26.637  1.00  0.00     0.074 A 
ATOM     60  C   UNL A   1      52.197  31.493  26.400  1.00  0.00     0.031 C 
ATOM     61  C   UNL A   1      50.452  33.169  26.931  1.00  0.00     0.037 A 
BRANCH  48  62
ATOM     62  C   UNL A   1      44.353  33.784  27.690  1.00  0.00     0.064 A 
ATOM     63  C   UNL A   1      43.805  34.622  26.704  1.00  0.00     0.173 A 
ATOM     64  C   UNL A   1      43.786  33.824  28.972  1.00  0.00     0.173 A 
ATOM     65  F   UNL A   1      44.326  34.641  25.467  1.00  0.00    -0.203 F 
ATOM     66  C   UNL A   1      42.760  35.491  27.003  1.00  0.00     0.198 A 
ATOM     67  C   UNL A   1      42.716  34.666  29.256  1.00  0.00     0.198 A 
ATOM     68  F   UNL A   1      44.273  33.047  29.951  1.00  0.00    -0.203 F 
ATOM     69  F   UNL A   1      42.301  36.332  26.066  1.00  0.00    -0.200 F 
ATOM     70  C   UNL A   1      42.211  35.507  28.276  1.00  0.00     0.200 A 
ATOM     71  F   UNL A   1      42.179  34.671  30.484  1.00  0.00    -0.200 F 
ATOM     72  F   UNL A   1      41.204  36.344  28.563  1.00  0.00    -0.200 F 
ENDBRANCH  48  62
BRANCH  49  73
ATOM     73  C   UNL A   1      51.713  27.378  25.674  1.00  0.00     0.064 A 
ATOM     74  C   UNL A   1      52.059  27.043  24.354  1.00  0.00     0.173 A 
ATOM     75  C   UNL A   1      52.416  26.735  26.704  1.00  0.00     0.173 A 
ATOM     76  F   UNL A   1      51.393  27.592  23.327  1.00  0.00    -0.203 F 
ATOM     77  C   UNL A   1      53.038  26.087  24.079  1.00  0.00     0.198 A 
ATOM     78  C   UNL A   1      53.420  25.807  26.428  1.00  0.00     0.198 A 
ATOM     79  F   UNL A   1      52.120  26.998  27.984  1.00  0.00    -0.203 F 
ATOM     80  F   UNL A   1      53.294  25.736  22.811  1.00  0.00    -0.200 F 
ATOM     81  C   UNL A   1      53.723  25.474  25.117  1.00  0.00     0.200 A 
ATOM     82  F   UNL A   1      54.083  25.221  27.435  1.00  0.00    -0.200 F 
ATOM     83  F   UNL A   1      54.660  24.553  24.854  1.00  0.00    -0.200 F 
ENDBRANCH  49  73
BRANCH  61  84
ATOM     84  C   UNL A   1      51.532  34.211  27.059  1.00  0.00     0.064 A 
ATOM     85  C   UNL A   1      52.195  34.455  28.271  1.00  0.00     0.173 A 
ATOM     86  C   UNL A   1      51.931  34.960  25.939  1.00  0.00     0.173 A 
ATOM     87  F   UNL A   1      51.856  33.772  29.376  1.00  0.00    -0.203 F 
ATOM     88  C   UNL A   1      53.175  35.441  28.371  1.00  0.00     0.198 A 
ATOM     89  C   UNL A   1      52.942  35.914  26.032  1.00  0.00     0.198 A 
ATOM     90  F   UNL A   1      51.348  34.761  24.747  1.00  0.00    -0.203 F 
ATOM     91  F   UNL A   1      53.740  35.704  29.558  1.00  0.00    -0.200 F 
ATOM     92  C   UNL A   1      53.552  36.165  27.251  1.00  0.00     0.200 A 
ATOM     93  F   UNL A   1      53.321  36.595  24.941  1.00  0.00    -0.200 F 
ATOM     94  F   UNL A   1      54.495  37.112  27.347  1.00  0.00    -0.200 F 
ENDBRANCH  61  84
ENDBRANCH  35  36
ENDBRANCH  28  30
ENDBRANCH  27  28
ENDBRANCH  26  27
ENDBRANCH  25  26
ENDBRANCH  24  25
ENDBRANCH  23  24
ENDBRANCH   1  23
TORSDOF 23
ENDMDL
MODEL 3
REMARK VINA RESULT:      -9.4      1.221      7.378
REMARK SMILES C=CC[N@@H+](CC(=O)OCCOCCOCCOC(=O)c1ccc(-c2c3nc(c(-c4c(F)c(F)c(F)c(F)c4F)c4ccc([nH]4)c(-c4c(F)c(F)c(F)c(F)c4F)c4nc(c(-c5c(F)c(F)c(F)c(F)c5F)c5ccc2[nH]5)C=C4)C=C3)cc1)Cc1ccc([N+](=O)[O-])o1
REMARK SMILES IDX 12 1 11 2 10 3 9 4 8 5 6 6 7 7 5 8 4 9 3 11 2 12 1 13 83 14
REMARK SMILES IDX 84 15 85 16 91 17 86 18 87 19 88 20 89 21 90 22 13 23 14 24
REMARK SMILES IDX 15 25 16 26 17 27 18 28 19 29 20 30 21 31 82 32 22 33 81 34
REMARK SMILES IDX 23 35 24 36 25 37 75 38 26 39 80 40 74 41 76 42 27 43 79 44
REMARK SMILES IDX 73 45 72 46 28 48 60 49 40 50 59 51 41 52 44 53 58 54 77 55
REMARK SMILES IDX 42 56 43 57 57 59 78 60 45 61 29 62 30 63 38 64 31 65 32 66
REMARK SMILES IDX 36 67 39 68 33 69 34 70 37 71 35 72 61 73 62 74 70 75 63 76
REMARK SMILES IDX 64 77 68 78 71 79 65 80 66 81 69 82 67 83 46 84 47 85 55 86
REMARK SMILES IDX 48 87 49 88 53 89 56 90 50 91 51 92 54 93 52 94
REMARK H PARENT 4 10 76 47 44 58
REMARK Flexibility Score: inf
ROOT
ATOM      1  C   UNL A   1      31.358  26.696  27.048  1.00  0.00     0.188 C 
ENDROOT
BRANCH   1   2
ATOM      2  O   UNL A   1      30.408  25.758  26.288  1.00  0.00    -0.376 OA
BRANCH   2   3
ATOM      3  C   UNL A   1      30.943  24.777  25.409  1.00  0.00     0.202 C 
BRANCH   3   4
ATOM      4  C   UNL A   1      30.819  23.245  25.616  1.00  0.00     0.261 C 
BRANCH   4   5
ATOM      5  O   UNL A   1      31.280  22.605  26.823  1.00  0.00    -0.459 OA
BRANCH   5   6
ATOM      6  C   UNL A   1      32.611  22.581  27.081  1.00  0.00     0.361 C 
ATOM      7  O   UNL A   1      33.199  23.461  27.702  1.00  0.00    -0.245 OA
BRANCH   6   8
ATOM      8  C   UNL A   1      33.326  21.358  26.498  1.00  0.00     0.387 C 
BRANCH   8   9
ATOM      9  N   UNL A   1      33.986  21.458  25.180  1.00  0.00    -0.316 N 
ATOM     10  H   UNL A   1      33.265  21.899  24.607  1.00  0.00     0.349 HD
BRANCH   9  11
ATOM     11  C   UNL A   1      34.159  20.196  24.468  1.00  0.00     0.291 C 
BRANCH  11  12
ATOM     12  C   UNL A   1      33.139  19.149  24.834  1.00  0.00     0.025 C 
ATOM     13  C   UNL A   1      32.417  18.458  23.940  1.00  0.00     0.010 C 
ENDBRANCH  11  12
ENDBRANCH   9  11
BRANCH   9  14
ATOM     14  C   UNL A   1      35.010  22.487  25.024  1.00  0.00     0.339 C 
BRANCH  14  15
ATOM     15  C   UNL A   1      34.587  23.797  24.452  1.00  0.00     0.165 A 
ATOM     16  C   UNL A   1      34.440  25.462  25.021  1.00  0.00     0.059 A 
ATOM     17  O   UNL A   1      33.800  23.815  22.743  1.00  0.00    -0.400 OA
ATOM     18  C   UNL A   1      33.642  26.560  23.649  1.00  0.00     0.134 A 
ATOM     19  C   UNL A   1      33.189  25.539  22.291  1.00  0.00     0.433 A 
BRANCH  19  20
ATOM     20  N   UNL A   1      32.525  25.673  21.046  1.00  0.00     0.102 N 
ATOM     21  O   UNL A   1      31.396  26.179  21.085  1.00  0.00    -0.256 OA
ATOM     22  O   UNL A   1      33.120  25.278  20.035  1.00  0.00    -0.256 OA
ENDBRANCH  19  20
ENDBRANCH  14  15
ENDBRANCH   9  14
ENDBRANCH   8   9
ENDBRANCH   6   8
ENDBRANCH   5   6
ENDBRANCH   4   5
ENDBRANCH   3   4
ENDBRANCH   2   3
ENDBRANCH   1   2
BRANCH   1  23
ATOM     23  C   UNL A   1      32.193  28.661  26.298  1.00  0.00     0.188 C 
BRANCH  23  24
ATOM     24  O   UNL A   1      31.862  30.050  26.943  1.00  0.00    -0.376 OA
BRANCH  24  25
ATOM     25  C   UNL A   1      32.721  31.144  26.600  1.00  0.00     0.202 C 
BRANCH  25  26
ATOM     26  C   UNL A   1      33.662  31.683  27.702  1.00  0.00     0.261 C 
BRANCH  26  27
ATOM     27  O   UNL A   1      34.672  30.793  28.258  1.00  0.00    -0.460 OA
BRANCH  27  28
ATOM     28  C   UNL A   1      35.384  31.171  29.347  1.00  0.00     0.338 C 
ATOM     29  O   UNL A   1      34.972  31.833  30.283  1.00  0.00    -0.246 OA
BRANCH  28  30
ATOM     30  C   UNL A   1      36.718  30.482  29.354  1.00  0.00     0.060 A 
ATOM     31  C   UNL A   1      37.080  29.750  30.496  1.00  0.00     0.016 A 
ATOM     32  C   UNL A   1      37.591  30.489  28.256  1.00  0.00     0.016 A 
ATOM     33  C   UNL A   1      38.320  29.096  30.573  1.00  0.00     0.010 A 
ATOM     34  C   UNL A   1      38.841  29.838  28.334  1.00  0.00     0.010 A 
ATOM     35  C   UNL A   1      39.239  29.182  29.516  1.00  0.00    -0.014 A 
BRANCH  35  36
ATOM     36  C   UNL A   1      40.686  28.927  29.810  1.00  0.00     0.031 A 
ATOM     37  C   UNL A   1      41.268  27.643  29.258  1.00  0.00     0.074 A 
ATOM     38  C   UNL A   1      41.506  29.795  30.436  1.00  0.00     0.049 A 
ATOM     39  N   UNL A   1      42.502  27.205  29.263  1.00  0.00    -0.248 NA
ATOM     40  C   UNL A   1      40.315  26.734  28.602  1.00  0.00     0.031 C 
ATOM     41  C   UNL A   1      41.120  31.088  30.994  1.00  0.00     0.029 A 
ATOM     42  N   UNL A   1      42.860  29.715  30.694  1.00  0.00    -0.354 N 
ATOM     43  C   UNL A   1      42.469  25.986  28.595  1.00  0.00     0.074 A 
ATOM     44  C   UNL A   1      41.091  25.724  28.253  1.00  0.00     0.031 C 
ATOM     45  C   UNL A   1      42.209  31.681  31.522  1.00  0.00     0.029 A 
ATOM     46  C   UNL A   1      43.373  30.808  31.356  1.00  0.00     0.049 A 
ATOM     47  H   UNL A   1      43.411  28.944  30.429  1.00  0.00     0.167 HD
ATOM     48  C   UNL A   1      43.490  25.159  28.267  1.00  0.00     0.037 A 
ATOM     49  C   UNL A   1      44.631  31.070  31.777  1.00  0.00     0.037 A 
ATOM     50  C   UNL A   1      44.864  25.385  28.620  1.00  0.00     0.049 A 
ATOM     51  C   UNL A   1      45.743  30.080  31.490  1.00  0.00     0.074 A 
ATOM     52  C   UNL A   1      45.965  24.595  28.342  1.00  0.00     0.029 A 
ATOM     53  N   UNL A   1      45.322  26.471  29.349  1.00  0.00    -0.354 N 
ATOM     54  N   UNL A   1      45.704  28.954  30.819  1.00  0.00    -0.248 NA
ATOM     55  C   UNL A   1      47.079  30.409  32.015  1.00  0.00     0.031 C 
ATOM     56  C   UNL A   1      47.079  25.167  28.964  1.00  0.00     0.029 A 
ATOM     57  C   UNL A   1      46.688  26.355  29.558  1.00  0.00     0.049 A 
ATOM     58  H   UNL A   1      44.763  27.214  29.669  1.00  0.00     0.167 HD
ATOM     59  C   UNL A   1      47.008  28.464  30.810  1.00  0.00     0.074 A 
ATOM     60  C   UNL A   1      47.819  29.428  31.520  1.00  0.00     0.031 C 
ATOM     61  C   UNL A   1      47.492  27.320  30.262  1.00  0.00     0.037 A 
BRANCH  48  62
ATOM     62  C   UNL A   1      43.139  23.907  27.515  1.00  0.00     0.064 A 
ATOM     63  C   UNL A   1      42.633  22.769  28.166  1.00  0.00     0.173 A 
ATOM     64  C   UNL A   1      43.321  23.839  26.126  1.00  0.00     0.173 A 
ATOM     65  F   UNL A   1      42.463  22.772  29.498  1.00  0.00    -0.203 F 
ATOM     66  C   UNL A   1      42.360  21.601  27.460  1.00  0.00     0.198 A 
ATOM     67  C   UNL A   1      43.010  22.683  25.418  1.00  0.00     0.198 A 
ATOM     68  F   UNL A   1      43.803  24.896  25.455  1.00  0.00    -0.203 F 
ATOM     69  F   UNL A   1      41.947  20.506  28.112  1.00  0.00    -0.200 F 
ATOM     70  C   UNL A   1      42.541  21.561  26.085  1.00  0.00     0.200 A 
ATOM     71  F   UNL A   1      43.174  22.651  24.088  1.00  0.00    -0.200 F 
ATOM     72  F   UNL A   1      42.278  20.437  25.405  1.00  0.00    -0.200 F 
ENDBRANCH  48  62
BRANCH  49  73
ATOM     73  C   UNL A   1      44.940  32.323  32.534  1.00  0.00     0.064 A 
ATOM     74  C   UNL A   1      45.447  33.465  31.891  1.00  0.00     0.173 A 
ATOM     75  C   UNL A   1      44.817  32.376  33.931  1.00  0.00     0.173 A 
ATOM     76  F   UNL A   1      45.628  33.460  30.561  1.00  0.00    -0.203 F 
ATOM     77  C   UNL A   1      45.842  34.592  32.614  1.00  0.00     0.198 A 
ATOM     78  C   UNL A   1      45.177  33.516  34.649  1.00  0.00     0.198 A 
ATOM     79  F   UNL A   1      44.357  31.312  34.604  1.00  0.00    -0.203 F 
ATOM     80  F   UNL A   1      46.389  35.637  31.977  1.00  0.00    -0.200 F 
ATOM     81  C   UNL A   1      45.700  34.619  33.992  1.00  0.00     0.200 A 
ATOM     82  F   UNL A   1      45.034  33.539  35.982  1.00  0.00    -0.200 F 
ATOM     83  F   UNL A   1      46.083  35.699  34.688  1.00  0.00    -0.200 F 
ENDBRANCH  49  73
BRANCH  61  84
ATOM     84  C   UNL A   1      48.973  27.062  30.366  1.00  0.00     0.064 A 
ATOM     85  C   UNL A   1      49.889  27.588  29.444  1.00  0.00     0.173 A 
ATOM     86  C   UNL A   1      49.486  26.295  31.426  1.00  0.00     0.173 A 
ATOM     87  F   UNL A   1      49.458  28.327  28.409  1.00  0.00    -0.203 F 
ATOM     88  C   UNL A   1      51.253  27.317  29.547  1.00  0.00     0.198 A 
ATOM     89  C   UNL A   1      50.854  26.062  31.551  1.00  0.00     0.198 A 
ATOM     90  F   UNL A   1      48.663  25.779  32.351  1.00  0.00    -0.203 F 
ATOM     91  F   UNL A   1      52.097  27.771  28.611  1.00  0.00    -0.200 F 
ATOM     92  C   UNL A   1      51.734  26.559  30.603  1.00  0.00     0.200 A 
ATOM     93  F   UNL A   1      51.318  25.350  32.588  1.00  0.00    -0.200 F 
ATOM     94  F   UNL A   1      53.045  26.299  30.703  1.00  0.00    -0.200 F 
ENDBRANCH  61  84
ENDBRANCH  35  36
ENDBRANCH  28  30
ENDBRANCH  27  28
ENDBRANCH  26  27
ENDBRANCH  25  26
ENDBRANCH  24  25
ENDBRANCH  23  24
ENDBRANCH   1  23
TORSDOF 23
ENDMDL
