MODEL 1
REMARK VINA RESULT:     -10.8      0.000      0.000
REMARK SMILES CCNC(=O)N1CC[C@H](Cc2cccc(C(=O)OCCOCCOCCOC(=O)c3ccc(-c4c5nc(c(-c6c(F)c(F)c(F)c(F)c6F)c6ccc([nH]6)c(-c6c(F)c(F)c(F)c(F)c6F)c6nc(c(-c7c(F)c(F)c(F)c(F)c7F)c7ccc4[nH]7)C=C6)C=C5)cc3)c2)C1
REMARK SMILES IDX 22 1 21 2 20 3 19 4 18 5 16 6 17 7 15 8 11 9 12 10 93 11
REMARK SMILES IDX 13 12 14 13 10 14 9 15 6 16 7 17 94 18 8 19 4 20 3 21 5 23
REMARK SMILES IDX 2 24 1 25 23 26 24 27 25 28 26 29 27 30 28 31 29 32 30 33
REMARK SMILES IDX 31 34 92 35 32 36 91 37 33 38 34 39 35 40 85 41 36 42 90 43
REMARK SMILES IDX 84 44 86 45 37 46 89 47 83 48 82 49 38 51 70 52 50 53 69 54
REMARK SMILES IDX 51 55 54 56 68 57 87 58 52 59 53 60 67 62 88 63 55 64 39 65
REMARK SMILES IDX 40 66 48 67 41 68 42 69 46 70 49 71 43 72 44 73 47 74 45 75
REMARK SMILES IDX 71 76 72 77 80 78 73 79 74 80 78 81 81 82 75 83 76 84 79 85
REMARK SMILES IDX 77 86 56 87 57 88 65 89 58 90 59 91 63 92 66 93 60 94 61 95
REMARK SMILES IDX 64 96 62 97
REMARK H PARENT 3 22 86 50 54 61
REMARK Flexibility Score: inf
ROOT
ATOM      1  C   UNL A   1      41.616  19.738  27.235  1.00  0.00     0.188 C 
ENDROOT
BRANCH   1   2
ATOM      2  O   UNL A   1      40.346  19.932  26.632  1.00  0.00    -0.376 OA
BRANCH   2   3
ATOM      3  C   UNL A   1      40.072  21.117  25.898  1.00  0.00     0.202 C 
BRANCH   3   4
ATOM      4  C   UNL A   1      39.193  22.232  26.486  1.00  0.00     0.261 C 
BRANCH   4   5
ATOM      5  O   UNL A   1      37.920  22.395  25.848  1.00  0.00    -0.460 OA
BRANCH   5   6
ATOM      6  C   UNL A   1      37.292  23.578  26.073  1.00  0.00     0.338 C 
ATOM      7  O   UNL A   1      37.641  24.466  26.828  1.00  0.00    -0.246 OA
BRANCH   6   8
ATOM      8  C   UNL A   1      36.191  23.732  25.094  1.00  0.00     0.060 A 
ATOM      9  C   UNL A   1      34.238  24.905  24.259  1.00  0.00    -0.047 A 
ATOM     10  C   UNL A   1      34.114  23.944  23.244  1.00  0.00     0.004 A 
ATOM     11  C   UNL A   1      35.249  24.754  25.219  1.00  0.00     0.019 A 
ATOM     12  C   UNL A   1      35.029  22.893  23.148  1.00  0.00     0.001 A 
ATOM     13  C   UNL A   1      36.083  22.802  24.055  1.00  0.00     0.016 A 
BRANCH   9  14
ATOM     14  C   UNL A   1      33.349  26.130  24.264  1.00  0.00     0.041 C 
BRANCH  14  15
ATOM     15  C   UNL A   1      32.292  26.068  25.378  1.00  0.00     0.015 C 
ATOM     16  N   UNL A   1      30.908  24.360  26.240  1.00  0.00    -0.325 N 
ATOM     17  C   UNL A   1      30.056  25.491  25.942  1.00  0.00     0.121 C 
ATOM     18  C   UNL A   1      32.304  24.749  26.167  1.00  0.00     0.125 C 
ATOM     19  C   UNL A   1      30.844  26.172  24.849  1.00  0.00     0.027 C 
BRANCH  16  20
ATOM     20  C   UNL A   1      30.539  23.126  26.667  1.00  0.00     0.317 C 
ATOM     21  N   UNL A   1      30.863  22.048  25.909  1.00  0.00    -0.338 N 
ATOM     22  H   UNL A   1      30.230  21.294  25.937  1.00  0.00     0.165 HD
ATOM     23  O   UNL A   1      29.969  22.943  27.742  1.00  0.00    -0.249 OA
BRANCH  21  24
ATOM     24  C   UNL A   1      32.032  21.871  25.063  1.00  0.00     0.114 C 
ATOM     25  C   UNL A   1      33.136  21.133  25.800  1.00  0.00     0.027 C 
ENDBRANCH  21  24
ENDBRANCH  16  20
ENDBRANCH  14  15
ENDBRANCH   9  14
ENDBRANCH   6   8
ENDBRANCH   5   6
ENDBRANCH   4   5
ENDBRANCH   3   4
ENDBRANCH   2   3
ENDBRANCH   1   2
BRANCH   1  26
ATOM     26  C   UNL A   1      42.665  18.813  26.578  1.00  0.00     0.188 C 
BRANCH  26  27
ATOM     27  O   UNL A   1      42.994  19.121  25.248  1.00  0.00    -0.376 OA
BRANCH  27  28
ATOM     28  C   UNL A   1      44.151  19.886  24.963  1.00  0.00     0.202 C 
BRANCH  28  29
ATOM     29  C   UNL A   1      44.488  21.273  25.554  1.00  0.00     0.261 C 
BRANCH  29  30
ATOM     30  O   UNL A   1      43.438  22.231  25.710  1.00  0.00    -0.460 OA
BRANCH  30  31
ATOM     31  C   UNL A   1      43.660  23.465  25.204  1.00  0.00     0.338 C 
ATOM     32  O   UNL A   1      44.082  23.748  24.091  1.00  0.00    -0.246 OA
BRANCH  31  33
ATOM     33  C   UNL A   1      43.145  24.462  26.161  1.00  0.00     0.060 A 
ATOM     34  C   UNL A   1      43.577  25.792  26.061  1.00  0.00     0.016 A 
ATOM     35  C   UNL A   1      42.240  24.083  27.154  1.00  0.00     0.016 A 
ATOM     36  C   UNL A   1      43.105  26.749  26.962  1.00  0.00     0.010 A 
ATOM     37  C   UNL A   1      41.786  25.040  28.068  1.00  0.00     0.010 A 
ATOM     38  C   UNL A   1      42.228  26.373  27.988  1.00  0.00    -0.014 A 
BRANCH  38  39
ATOM     39  C   UNL A   1      41.859  27.336  29.053  1.00  0.00     0.031 A 
ATOM     40  C   UNL A   1      42.664  27.363  30.321  1.00  0.00     0.074 A 
ATOM     41  C   UNL A   1      40.808  28.162  28.906  1.00  0.00     0.049 A 
ATOM     42  N   UNL A   1      42.468  28.049  31.419  1.00  0.00    -0.248 NA
ATOM     43  C   UNL A   1      43.848  26.493  30.355  1.00  0.00     0.031 C 
ATOM     44  C   UNL A   1      39.975  28.262  27.711  1.00  0.00     0.029 A 
ATOM     45  N   UNL A   1      40.255  29.063  29.783  1.00  0.00    -0.354 N 
ATOM     46  C   UNL A   1      43.496  27.684  32.278  1.00  0.00     0.074 A 
ATOM     47  C   UNL A   1      44.298  26.698  31.584  1.00  0.00     0.031 C 
ATOM     48  C   UNL A   1      39.004  29.165  27.934  1.00  0.00     0.029 A 
ATOM     49  C   UNL A   1      39.124  29.673  29.301  1.00  0.00     0.049 A 
ATOM     50  H   UNL A   1      40.632  29.253  30.672  1.00  0.00     0.167 HD
ATOM     51  C   UNL A   1      43.747  28.132  33.532  1.00  0.00     0.037 A 
ATOM     52  C   UNL A   1      38.265  30.517  29.905  1.00  0.00     0.037 A 
ATOM     53  C   UNL A   1      42.942  29.107  34.221  1.00  0.00     0.049 A 
ATOM     54  C   UNL A   1      38.510  30.926  31.336  1.00  0.00     0.074 A 
ATOM     55  C   UNL A   1      43.136  29.654  35.477  1.00  0.00     0.029 A 
ATOM     56  N   UNL A   1      41.773  29.664  33.721  1.00  0.00    -0.354 N 
ATOM     57  N   UNL A   1      39.503  30.610  32.132  1.00  0.00    -0.248 NA
ATOM     58  C   UNL A   1      37.507  31.806  31.955  1.00  0.00     0.031 C 
ATOM     59  C   UNL A   1      42.050  30.488  35.764  1.00  0.00     0.029 A 
ATOM     60  C   UNL A   1      41.212  30.513  34.661  1.00  0.00     0.049 A 
ATOM     61  H   UNL A   1      41.399  29.482  32.828  1.00  0.00     0.167 HD
ATOM     62  C   UNL A   1      39.257  31.265  33.332  1.00  0.00     0.074 A 
ATOM     63  C   UNL A   1      38.031  32.013  33.155  1.00  0.00     0.031 C 
ATOM     64  C   UNL A   1      39.984  31.247  34.479  1.00  0.00     0.037 A 
BRANCH  51  65
ATOM     65  C   UNL A   1      44.919  27.533  34.257  1.00  0.00     0.064 A 
ATOM     66  C   UNL A   1      46.212  28.067  34.147  1.00  0.00     0.173 A 
ATOM     67  C   UNL A   1      44.741  26.417  35.088  1.00  0.00     0.173 A 
ATOM     68  F   UNL A   1      46.441  29.127  33.357  1.00  0.00    -0.203 F 
ATOM     69  C   UNL A   1      47.289  27.480  34.808  1.00  0.00     0.198 A 
ATOM     70  C   UNL A   1      45.812  25.854  35.775  1.00  0.00     0.198 A 
ATOM     71  F   UNL A   1      43.525  25.869  35.234  1.00  0.00    -0.203 F 
ATOM     72  F   UNL A   1      48.524  27.970  34.640  1.00  0.00    -0.200 F 
ATOM     73  C   UNL A   1      47.088  26.379  35.626  1.00  0.00     0.200 A 
ATOM     74  F   UNL A   1      45.613  24.799  36.576  1.00  0.00    -0.200 F 
ATOM     75  F   UNL A   1      48.123  25.818  36.265  1.00  0.00    -0.200 F 
ENDBRANCH  51  65
BRANCH  52  76
ATOM     76  C   UNL A   1      37.080  31.024  29.165  1.00  0.00     0.064 A 
ATOM     77  C   UNL A   1      37.040  32.341  28.686  1.00  0.00     0.173 A 
ATOM     78  C   UNL A   1      35.963  30.210  28.925  1.00  0.00     0.173 A 
ATOM     79  F   UNL A   1      38.071  33.169  28.919  1.00  0.00    -0.203 F 
ATOM     80  C   UNL A   1      35.927  32.827  28.005  1.00  0.00     0.198 A 
ATOM     81  C   UNL A   1      34.862  30.687  28.217  1.00  0.00     0.198 A 
ATOM     82  F   UNL A   1      35.947  28.944  29.370  1.00  0.00    -0.203 F 
ATOM     83  F   UNL A   1      35.898  34.102  27.596  1.00  0.00    -0.200 F 
ATOM     84  C   UNL A   1      34.842  31.997  27.763  1.00  0.00     0.200 A 
ATOM     85  F   UNL A   1      33.820  29.879  27.979  1.00  0.00    -0.200 F 
ATOM     86  F   UNL A   1      33.774  32.462  27.101  1.00  0.00    -0.200 F 
ENDBRANCH  52  76
BRANCH  64  87
ATOM     87  C   UNL A   1      39.482  32.074  35.630  1.00  0.00     0.064 A 
ATOM     88  C   UNL A   1      39.870  33.412  35.801  1.00  0.00     0.173 A 
ATOM     89  C   UNL A   1      38.567  31.535  36.549  1.00  0.00     0.173 A 
ATOM     90  F   UNL A   1      40.753  33.971  34.961  1.00  0.00    -0.203 F 
ATOM     91  C   UNL A   1      39.381  34.170  36.863  1.00  0.00     0.198 A 
ATOM     92  C   UNL A   1      38.053  32.308  37.588  1.00  0.00     0.198 A 
ATOM     93  F   UNL A   1      38.157  30.264  36.429  1.00  0.00    -0.203 F 
ATOM     94  F   UNL A   1      39.804  35.430  37.034  1.00  0.00    -0.200 F 
ATOM     95  C   UNL A   1      38.466  33.621  37.750  1.00  0.00     0.200 A 
ATOM     96  F   UNL A   1      37.158  31.779  38.434  1.00  0.00    -0.200 F 
ATOM     97  F   UNL A   1      37.989  34.355  38.763  1.00  0.00    -0.200 F 
ENDBRANCH  64  87
ENDBRANCH  38  39
ENDBRANCH  31  33
ENDBRANCH  30  31
ENDBRANCH  29  30
ENDBRANCH  28  29
ENDBRANCH  27  28
ENDBRANCH  26  27
ENDBRANCH   1  26
TORSDOF 21
ENDMDL
MODEL 2
REMARK VINA RESULT:     -10.0      1.020      7.190
REMARK SMILES CCNC(=O)N1CC[C@H](Cc2cccc(C(=O)OCCOCCOCCOC(=O)c3ccc(-c4c5nc(c(-c6c(F)c(F)c(F)c(F)c6F)c6ccc([nH]6)c(-c6c(F)c(F)c(F)c(F)c6F)c6nc(c(-c7c(F)c(F)c(F)c(F)c7F)c7ccc4[nH]7)C=C6)C=C5)cc3)c2)C1
REMARK SMILES IDX 22 1 21 2 20 3 19 4 18 5 16 6 17 7 15 8 11 9 12 10 93 11
REMARK SMILES IDX 13 12 14 13 10 14 9 15 6 16 7 17 94 18 8 19 4 20 3 21 5 23
REMARK SMILES IDX 2 24 1 25 23 26 24 27 25 28 26 29 27 30 28 31 29 32 30 33
REMARK SMILES IDX 31 34 92 35 32 36 91 37 33 38 34 39 35 40 85 41 36 42 90 43
REMARK SMILES IDX 84 44 86 45 37 46 89 47 83 48 82 49 38 51 70 52 50 53 69 54
REMARK SMILES IDX 51 55 54 56 68 57 87 58 52 59 53 60 67 62 88 63 55 64 39 65
REMARK SMILES IDX 40 66 48 67 41 68 42 69 46 70 49 71 43 72 44 73 47 74 45 75
REMARK SMILES IDX 71 76 72 77 80 78 73 79 74 80 78 81 81 82 75 83 76 84 79 85
REMARK SMILES IDX 77 86 56 87 57 88 65 89 58 90 59 91 63 92 66 93 60 94 61 95
REMARK SMILES IDX 64 96 62 97
REMARK H PARENT 3 22 86 50 54 61
REMARK Flexibility Score: inf
ROOT
ATOM      1  C   UNL A   1      40.903  20.499  26.953  1.00  0.00     0.188 C 
ENDROOT
BRANCH   1   2
ATOM      2  O   UNL A   1      40.106  20.965  25.875  1.00  0.00    -0.376 OA
BRANCH   2   3
ATOM      3  C   UNL A   1      39.264  22.098  26.040  1.00  0.00     0.202 C 
BRANCH   3   4
ATOM      4  C   UNL A   1      37.734  21.955  26.072  1.00  0.00     0.261 C 
BRANCH   4   5
ATOM      5  O   UNL A   1      37.025  22.888  25.247  1.00  0.00    -0.460 OA
BRANCH   5   6
ATOM      6  C   UNL A   1      35.796  23.257  25.692  1.00  0.00     0.338 C 
ATOM      7  O   UNL A   1      35.417  23.313  26.847  1.00  0.00    -0.246 OA
BRANCH   6   8
ATOM      8  C   UNL A   1      35.012  23.789  24.554  1.00  0.00     0.060 A 
ATOM      9  C   UNL A   1      33.769  25.575  23.479  1.00  0.00    -0.047 A 
ATOM     10  C   UNL A   1      33.508  24.721  22.398  1.00  0.00     0.004 A 
ATOM     11  C   UNL A   1      34.474  25.077  24.585  1.00  0.00     0.019 A 
ATOM     12  C   UNL A   1      34.005  23.416  22.388  1.00  0.00     0.001 A 
ATOM     13  C   UNL A   1      34.780  22.959  23.452  1.00  0.00     0.016 A 
BRANCH   9  14
ATOM     14  C   UNL A   1      33.372  27.034  23.415  1.00  0.00     0.041 C 
BRANCH  14  15
ATOM     15  C   UNL A   1      31.973  27.275  24.004  1.00  0.00     0.015 C 
ATOM     16  N   UNL A   1      30.376  25.900  25.069  1.00  0.00    -0.325 N 
ATOM     17  C   UNL A   1      29.692  26.604  24.004  1.00  0.00     0.121 C 
ATOM     18  C   UNL A   1      31.694  26.467  25.282  1.00  0.00     0.125 C 
ATOM     19  C   UNL A   1      30.831  26.866  23.048  1.00  0.00     0.027 C 
BRANCH  16  20
ATOM     20  C   UNL A   1      29.880  24.936  25.885  1.00  0.00     0.317 C 
ATOM     21  N   UNL A   1      30.190  23.640  25.631  1.00  0.00    -0.338 N 
ATOM     22  H   UNL A   1      29.503  22.976  25.870  1.00  0.00     0.165 HD
ATOM     23  O   UNL A   1      29.202  25.198  26.879  1.00  0.00    -0.249 OA
BRANCH  21  24
ATOM     24  C   UNL A   1      31.414  23.113  25.050  1.00  0.00     0.114 C 
ATOM     25  C   UNL A   1      32.018  22.032  25.929  1.00  0.00     0.027 C 
ENDBRANCH  21  24
ENDBRANCH  16  20
ENDBRANCH  14  15
ENDBRANCH   9  14
ENDBRANCH   6   8
ENDBRANCH   5   6
ENDBRANCH   4   5
ENDBRANCH   3   4
ENDBRANCH   2   3
ENDBRANCH   1   2
BRANCH   1  26
ATOM     26  C   UNL A   1      42.284  19.860  26.691  1.00  0.00     0.188 C 
BRANCH  26  27
ATOM     27  O   UNL A   1      42.815  20.074  25.409  1.00  0.00    -0.376 OA
BRANCH  27  28
ATOM     28  C   UNL A   1      44.124  20.594  25.261  1.00  0.00     0.202 C 
BRANCH  28  29
ATOM     29  C   UNL A   1      44.572  22.031  25.607  1.00  0.00     0.261 C 
BRANCH  29  30
ATOM     30  O   UNL A   1      43.581  23.057  25.714  1.00  0.00    -0.460 OA
BRANCH  30  31
ATOM     31  C   UNL A   1      44.005  24.331  25.553  1.00  0.00     0.338 C 
ATOM     32  O   UNL A   1      44.662  24.785  24.627  1.00  0.00    -0.246 OA
BRANCH  31  33
ATOM     33  C   UNL A   1      43.399  25.161  26.611  1.00  0.00     0.060 A 
ATOM     34  C   UNL A   1      43.859  26.472  26.799  1.00  0.00     0.016 A 
ATOM     35  C   UNL A   1      42.382  24.644  27.416  1.00  0.00     0.016 A 
ATOM     36  C   UNL A   1      43.302  27.270  27.799  1.00  0.00     0.010 A 
ATOM     37  C   UNL A   1      41.842  25.439  28.431  1.00  0.00     0.010 A 
ATOM     38  C   UNL A   1      42.309  26.750  28.639  1.00  0.00    -0.014 A 
BRANCH  38  39
ATOM     39  C   UNL A   1      41.835  27.522  29.813  1.00  0.00     0.031 A 
ATOM     40  C   UNL A   1      40.602  28.371  29.678  1.00  0.00     0.074 A 
ATOM     41  C   UNL A   1      42.502  27.488  30.980  1.00  0.00     0.049 A 
ATOM     42  N   UNL A   1      40.062  29.199  30.535  1.00  0.00    -0.248 NA
ATOM     43  C   UNL A   1      39.887  28.274  28.397  1.00  0.00     0.031 C 
ATOM     44  C   UNL A   1      43.683  26.674  31.252  1.00  0.00     0.029 A 
ATOM     45  N   UNL A   1      42.285  28.173  32.150  1.00  0.00    -0.354 N 
ATOM     46  C   UNL A   1      38.951  29.732  29.894  1.00  0.00     0.074 A 
ATOM     47  C   UNL A   1      38.910  29.152  28.568  1.00  0.00     0.031 C 
ATOM     48  C   UNL A   1      44.099  26.917  32.507  1.00  0.00     0.029 A 
ATOM     49  C   UNL A   1      43.237  27.935  33.109  1.00  0.00     0.049 A 
ATOM     50  H   UNL A   1      41.521  28.778  32.288  1.00  0.00     0.167 HD
ATOM     51  C   UNL A   1      38.048  30.623  30.370  1.00  0.00     0.037 A 
ATOM     52  C   UNL A   1      43.412  28.498  34.321  1.00  0.00     0.037 A 
ATOM     53  C   UNL A   1      38.099  31.203  31.687  1.00  0.00     0.049 A 
ATOM     54  C   UNL A   1      42.452  29.562  34.791  1.00  0.00     0.074 A 
ATOM     55  C   UNL A   1      37.210  32.085  32.277  1.00  0.00     0.029 A 
ATOM     56  N   UNL A   1      39.108  30.978  32.613  1.00  0.00    -0.354 N 
ATOM     57  N   UNL A   1      41.380  30.033  34.199  1.00  0.00    -0.248 NA
ATOM     58  C   UNL A   1      42.729  30.175  36.098  1.00  0.00     0.031 C 
ATOM     59  C   UNL A   1      37.716  32.445  33.530  1.00  0.00     0.029 A 
ATOM     60  C   UNL A   1      38.887  31.738  33.750  1.00  0.00     0.049 A 
ATOM     61  H   UNL A   1      39.868  30.366  32.480  1.00  0.00     0.167 HD
ATOM     62  C   UNL A   1      40.848  30.980  35.066  1.00  0.00     0.074 A 
ATOM     63  C   UNL A   1      41.702  31.002  36.234  1.00  0.00     0.031 C 
ATOM     64  C   UNL A   1      39.749  31.760  34.906  1.00  0.00     0.037 A 
BRANCH  51  65
ATOM     65  C   UNL A   1      36.953  31.060  29.439  1.00  0.00     0.064 A 
ATOM     66  C   UNL A   1      36.946  32.329  28.842  1.00  0.00     0.173 A 
ATOM     67  C   UNL A   1      35.901  30.185  29.127  1.00  0.00     0.173 A 
ATOM     68  F   UNL A   1      37.922  33.209  29.115  1.00  0.00    -0.203 F 
ATOM     69  C   UNL A   1      35.907  32.721  28.001  1.00  0.00     0.198 A 
ATOM     70  C   UNL A   1      34.882  30.567  28.259  1.00  0.00     0.198 A 
ATOM     71  F   UNL A   1      35.859  28.956  29.665  1.00  0.00    -0.203 F 
ATOM     72  F   UNL A   1      35.891  33.960  27.491  1.00  0.00    -0.200 F 
ATOM     73  C   UNL A   1      34.880  31.838  27.705  1.00  0.00     0.200 A 
ATOM     74  F   UNL A   1      33.898  29.707  27.963  1.00  0.00    -0.200 F 
ATOM     75  F   UNL A   1      33.883  32.215  26.894  1.00  0.00    -0.200 F 
ENDBRANCH  51  65
BRANCH  52  76
ATOM     76  C   UNL A   1      44.556  28.080  35.174  1.00  0.00     0.064 A 
ATOM     77  C   UNL A   1      45.791  28.739  35.094  1.00  0.00     0.173 A 
ATOM     78  C   UNL A   1      44.443  27.015  36.079  1.00  0.00     0.173 A 
ATOM     79  F   UNL A   1      45.958  29.744  34.220  1.00  0.00    -0.203 F 
ATOM     80  C   UNL A   1      46.871  28.343  35.880  1.00  0.00     0.198 A 
ATOM     81  C   UNL A   1      45.515  26.638  36.886  1.00  0.00     0.198 A 
ATOM     82  F   UNL A   1      43.285  26.345  36.187  1.00  0.00    -0.203 F 
ATOM     83  F   UNL A   1      48.052  28.962  35.753  1.00  0.00    -0.200 F 
ATOM     84  C   UNL A   1      46.729  27.298  36.781  1.00  0.00     0.200 A 
ATOM     85  F   UNL A   1      45.371  25.634  37.761  1.00  0.00    -0.200 F 
ATOM     86  F   UNL A   1      47.766  26.922  37.543  1.00  0.00    -0.200 F 
ENDBRANCH  52  76
BRANCH  64  87
ATOM     87  C   UNL A   1      39.395  32.696  36.029  1.00  0.00     0.064 A 
ATOM     88  C   UNL A   1      38.509  32.320  37.050  1.00  0.00     0.173 A 
ATOM     89  C   UNL A   1      39.982  33.969  36.109  1.00  0.00     0.173 A 
ATOM     90  F   UNL A   1      37.908  31.121  37.015  1.00  0.00    -0.203 F 
ATOM     91  C   UNL A   1      38.206  33.191  38.094  1.00  0.00     0.198 A 
ATOM     92  C   UNL A   1      39.704  34.824  37.173  1.00  0.00     0.198 A 
ATOM     93  F   UNL A   1      40.842  34.378  35.164  1.00  0.00    -0.203 F 
ATOM     94  F   UNL A   1      37.319  32.828  39.031  1.00  0.00    -0.200 F 
ATOM     95  C   UNL A   1      38.810  34.438  38.159  1.00  0.00     0.200 A 
ATOM     96  F   UNL A   1      40.301  36.022  37.242  1.00  0.00    -0.200 F 
ATOM     97  F   UNL A   1      38.526  35.270  39.170  1.00  0.00    -0.200 F 
ENDBRANCH  64  87
ENDBRANCH  38  39
ENDBRANCH  31  33
ENDBRANCH  30  31
ENDBRANCH  29  30
ENDBRANCH  28  29
ENDBRANCH  27  28
ENDBRANCH  26  27
ENDBRANCH   1  26
TORSDOF 21
ENDMDL
MODEL 3
REMARK VINA RESULT:      -9.4      2.045      3.728
REMARK SMILES CCNC(=O)N1CC[C@H](Cc2cccc(C(=O)OCCOCCOCCOC(=O)c3ccc(-c4c5nc(c(-c6c(F)c(F)c(F)c(F)c6F)c6ccc([nH]6)c(-c6c(F)c(F)c(F)c(F)c6F)c6nc(c(-c7c(F)c(F)c(F)c(F)c7F)c7ccc4[nH]7)C=C6)C=C5)cc3)c2)C1
REMARK SMILES IDX 22 1 21 2 20 3 19 4 18 5 16 6 17 7 15 8 11 9 12 10 93 11
REMARK SMILES IDX 13 12 14 13 10 14 9 15 6 16 7 17 94 18 8 19 4 20 3 21 5 23
REMARK SMILES IDX 2 24 1 25 23 26 24 27 25 28 26 29 27 30 28 31 29 32 30 33
REMARK SMILES IDX 31 34 92 35 32 36 91 37 33 38 34 39 35 40 85 41 36 42 90 43
REMARK SMILES IDX 84 44 86 45 37 46 89 47 83 48 82 49 38 51 70 52 50 53 69 54
REMARK SMILES IDX 51 55 54 56 68 57 87 58 52 59 53 60 67 62 88 63 55 64 39 65
REMARK SMILES IDX 40 66 48 67 41 68 42 69 46 70 49 71 43 72 44 73 47 74 45 75
REMARK SMILES IDX 71 76 72 77 80 78 73 79 74 80 78 81 81 82 75 83 76 84 79 85
REMARK SMILES IDX 77 86 56 87 57 88 65 89 58 90 59 91 63 92 66 93 60 94 61 95
REMARK SMILES IDX 64 96 62 97
REMARK H PARENT 3 22 86 50 54 61
REMARK Flexibility Score: inf
ROOT
ATOM      1  C   UNL A   1      47.298  25.241  28.655  1.00  0.00     0.188 C 
ENDROOT
BRANCH   1   2
ATOM      2  O   UNL A   1      45.987  24.850  29.032  1.00  0.00    -0.376 OA
BRANCH   2   3
ATOM      3  C   UNL A   1      45.353  23.751  28.392  1.00  0.00     0.202 C 
BRANCH   3   4
ATOM      4  C   UNL A   1      44.226  22.968  29.084  1.00  0.00     0.261 C 
BRANCH   4   5
ATOM      5  O   UNL A   1      42.901  23.356  28.702  1.00  0.00    -0.460 OA
BRANCH   5   6
ATOM      6  C   UNL A   1      42.228  22.472  27.920  1.00  0.00     0.338 C 
ATOM      7  O   UNL A   1      42.519  21.311  27.702  1.00  0.00    -0.246 OA
BRANCH   6   8
ATOM      8  C   UNL A   1      40.940  23.077  27.509  1.00  0.00     0.060 A 
ATOM      9  C   UNL A   1      38.809  22.960  26.354  1.00  0.00    -0.047 A 
ATOM     10  C   UNL A   1      38.548  24.285  26.734  1.00  0.00     0.004 A 
ATOM     11  C   UNL A   1      40.040  22.383  26.698  1.00  0.00     0.019 A 
ATOM     12  C   UNL A   1      39.470  24.996  27.504  1.00  0.00     0.001 A 
ATOM     13  C   UNL A   1      40.653  24.384  27.916  1.00  0.00     0.016 A 
BRANCH   9  14
ATOM     14  C   UNL A   1      37.742  22.138  25.662  1.00  0.00     0.041 C 
BRANCH  14  15
ATOM     15  C   UNL A   1      36.627  23.020  25.079  1.00  0.00     0.015 C 
ATOM     16  N   UNL A   1      34.432  22.606  24.312  1.00  0.00    -0.325 N 
ATOM     17  C   UNL A   1      35.115  23.349  23.274  1.00  0.00     0.121 C 
ATOM     18  C   UNL A   1      35.216  22.611  25.533  1.00  0.00     0.125 C 
ATOM     19  C   UNL A   1      36.552  22.967  23.537  1.00  0.00     0.027 C 
BRANCH  16  20
ATOM     20  C   UNL A   1      33.185  22.073  24.275  1.00  0.00     0.317 C 
ATOM     21  N   UNL A   1      32.148  22.802  24.760  1.00  0.00    -0.338 N 
ATOM     22  H   UNL A   1      31.412  22.289  25.167  1.00  0.00     0.165 HD
ATOM     23  O   UNL A   1      32.951  20.976  23.769  1.00  0.00    -0.249 OA
BRANCH  21  24
ATOM     24  C   UNL A   1      31.991  24.247  24.749  1.00  0.00     0.114 C 
ATOM     25  C   UNL A   1      32.218  24.834  26.131  1.00  0.00     0.027 C 
ENDBRANCH  21  24
ENDBRANCH  16  20
ENDBRANCH  14  15
ENDBRANCH   9  14
ENDBRANCH   6   8
ENDBRANCH   5   6
ENDBRANCH   4   5
ENDBRANCH   3   4
ENDBRANCH   2   3
ENDBRANCH   1   2
BRANCH   1  26
ATOM     26  C   UNL A   1      47.886  24.813  27.293  1.00  0.00     0.188 C 
BRANCH  26  27
ATOM     27  O   UNL A   1      48.646  25.789  26.629  1.00  0.00    -0.376 OA
BRANCH  27  28
ATOM     28  C   UNL A   1      48.783  25.744  25.221  1.00  0.00     0.202 C 
BRANCH  28  29
ATOM     29  C   UNL A   1      47.635  25.865  24.195  1.00  0.00     0.261 C 
BRANCH  29  30
ATOM     30  O   UNL A   1      46.468  26.613  24.549  1.00  0.00    -0.460 OA
BRANCH  30  31
ATOM     31  C   UNL A   1      45.404  25.906  24.993  1.00  0.00     0.338 C 
ATOM     32  O   UNL A   1      45.013  24.818  24.592  1.00  0.00    -0.246 OA
BRANCH  31  33
ATOM     33  C   UNL A   1      44.860  26.582  26.186  1.00  0.00     0.060 A 
ATOM     34  C   UNL A   1      43.708  26.067  26.797  1.00  0.00     0.016 A 
ATOM     35  C   UNL A   1      45.485  27.721  26.696  1.00  0.00     0.016 A 
ATOM     36  C   UNL A   1      43.175  26.696  27.923  1.00  0.00     0.010 A 
ATOM     37  C   UNL A   1      44.935  28.361  27.811  1.00  0.00     0.010 A 
ATOM     38  C   UNL A   1      43.770  27.863  28.421  1.00  0.00    -0.014 A 
BRANCH  38  39
ATOM     39  C   UNL A   1      43.116  28.639  29.503  1.00  0.00     0.031 A 
ATOM     40  C   UNL A   1      43.820  28.785  30.822  1.00  0.00     0.074 A 
ATOM     41  C   UNL A   1      41.902  29.190  29.324  1.00  0.00     0.049 A 
ATOM     42  N   UNL A   1      43.401  29.334  31.934  1.00  0.00    -0.248 NA
ATOM     43  C   UNL A   1      45.180  28.231  30.895  1.00  0.00     0.031 C 
ATOM     44  C   UNL A   1      41.136  29.156  28.081  1.00  0.00     0.029 A 
ATOM     45  N   UNL A   1      41.096  29.872  30.202  1.00  0.00    -0.354 N 
ATOM     46  C   UNL A   1      44.440  29.179  32.843  1.00  0.00     0.074 A 
ATOM     47  C   UNL A   1      45.497  28.465  32.160  1.00  0.00     0.031 C 
ATOM     48  C   UNL A   1      39.960  29.778  28.279  1.00  0.00     0.029 A 
ATOM     49  C   UNL A   1      39.877  30.214  29.673  1.00  0.00     0.049 A 
ATOM     50  H   UNL A   1      41.366  30.094  31.122  1.00  0.00     0.167 HD
ATOM     51  C   UNL A   1      44.504  29.598  34.131  1.00  0.00     0.037 A 
ATOM     52  C   UNL A   1      38.804  30.784  30.257  1.00  0.00     0.037 A 
ATOM     53  C   UNL A   1      43.446  30.301  34.808  1.00  0.00     0.049 A 
ATOM     54  C   UNL A   1      38.862  31.151  31.719  1.00  0.00     0.074 A 
ATOM     55  C   UNL A   1      43.430  30.801  36.098  1.00  0.00     0.029 A 
ATOM     56  N   UNL A   1      42.204  30.584  34.257  1.00  0.00    -0.354 N 
ATOM     57  N   UNL A   1      39.859  31.040  32.564  1.00  0.00    -0.248 NA
ATOM     58  C   UNL A   1      37.640  31.719  32.308  1.00  0.00     0.031 C 
ATOM     59  C   UNL A   1      42.157  31.324  36.350  1.00  0.00     0.029 A 
ATOM     60  C   UNL A   1      41.399  31.211  35.195  1.00  0.00     0.049 A 
ATOM     61  H   UNL A   1      41.935  30.372  33.333  1.00  0.00     0.167 HD
ATOM     62  C   UNL A   1      39.394  31.540  33.774  1.00  0.00     0.074 A 
ATOM     63  C   UNL A   1      38.031  31.974  33.549  1.00  0.00     0.031 C 
ATOM     64  C   UNL A   1      40.039  31.631  34.965  1.00  0.00     0.037 A 
BRANCH  51  65
ATOM     65  C   UNL A   1      45.747  29.261  34.904  1.00  0.00     0.064 A 
ATOM     66  C   UNL A   1      46.848  30.129  34.955  1.00  0.00     0.173 A 
ATOM     67  C   UNL A   1      45.831  28.057  35.618  1.00  0.00     0.173 A 
ATOM     68  F   UNL A   1      46.826  31.289  34.281  1.00  0.00    -0.203 F 
ATOM     69  C   UNL A   1      48.001  29.786  35.659  1.00  0.00     0.198 A 
ATOM     70  C   UNL A   1      46.970  27.731  36.349  1.00  0.00     0.198 A 
ATOM     71  F   UNL A   1      44.805  27.191  35.609  1.00  0.00    -0.203 F 
ATOM     72  F   UNL A   1      49.062  30.603  35.643  1.00  0.00    -0.200 F 
ATOM     73  C   UNL A   1      48.058  28.591  36.359  1.00  0.00     0.200 A 
ATOM     74  F   UNL A   1      47.018  26.583  37.037  1.00  0.00    -0.200 F 
ATOM     75  F   UNL A   1      49.166  28.263  37.038  1.00  0.00    -0.200 F 
ENDBRANCH  51  65
BRANCH  52  76
ATOM     76  C   UNL A   1      37.572  31.029  29.463  1.00  0.00     0.064 A 
ATOM     77  C   UNL A   1      36.656  29.996  29.219  1.00  0.00     0.173 A 
ATOM     78  C   UNL A   1      37.286  32.293  28.927  1.00  0.00     0.173 A 
ATOM     79  F   UNL A   1      36.901  28.761  29.683  1.00  0.00    -0.203 F 
ATOM     80  C   UNL A   1      35.507  30.216  28.463  1.00  0.00     0.198 A 
ATOM     81  C   UNL A   1      36.121  32.520  28.196  1.00  0.00     0.198 A 
ATOM     82  F   UNL A   1      38.134  33.314  29.124  1.00  0.00    -0.203 F 
ATOM     83  F   UNL A   1      34.670  29.201  28.209  1.00  0.00    -0.200 F 
ATOM     84  C   UNL A   1      35.236  31.480  27.959  1.00  0.00     0.200 A 
ATOM     85  F   UNL A   1      35.860  33.744  27.719  1.00  0.00    -0.200 F 
ATOM     86  F   UNL A   1      34.126  31.693  27.239  1.00  0.00    -0.200 F 
ENDBRANCH  52  76
BRANCH  64  87
ATOM     87  C   UNL A   1      39.286  32.237  36.116  1.00  0.00     0.064 A 
ATOM     88  C   UNL A   1      39.417  33.594  36.450  1.00  0.00     0.173 A 
ATOM     89  C   UNL A   1      38.390  31.462  36.870  1.00  0.00     0.173 A 
ATOM     90  F   UNL A   1      40.271  34.376  35.774  1.00  0.00    -0.203 F 
ATOM     91  C   UNL A   1      38.698  34.145  37.509  1.00  0.00     0.198 A 
ATOM     92  C   UNL A   1      37.646  32.025  37.904  1.00  0.00     0.198 A 
ATOM     93  F   UNL A   1      38.220  30.161  36.590  1.00  0.00    -0.203 F 
ATOM     94  F   UNL A   1      38.876  35.431  37.840  1.00  0.00    -0.200 F 
ATOM     95  C   UNL A   1      37.807  33.362  38.229  1.00  0.00     0.200 A 
ATOM     96  F   UNL A   1      36.774  31.270  38.588  1.00  0.00    -0.200 F 
ATOM     97  F   UNL A   1      37.108  33.897  39.239  1.00  0.00    -0.200 F 
ENDBRANCH  64  87
ENDBRANCH  38  39
ENDBRANCH  31  33
ENDBRANCH  30  31
ENDBRANCH  29  30
ENDBRANCH  28  29
ENDBRANCH  27  28
ENDBRANCH  26  27
ENDBRANCH   1  26
TORSDOF 21
ENDMDL
