MODEL 1
REMARK VINA RESULT:     -10.5      0.000      0.000
REMARK SMILES COc1ccc(/C=C2\SC(=O)N(CC(=O)N[C@H](C)C(=O)OCCOCCOCCOC(=O)c3ccc(-c4c5nc(c(-c6c(F)c(F)c(F)c(F)c6F)c6ccc([nH]6)c(-c6c(F)c(F)c(F)c(F)c6F)c6nc(c(-c7c(F)c(F)c(F)c(F)c7F)c7ccc4[nH]7)C=C6)C=C5)cc3)C2=O)cc1OC
REMARK SMILES IDX 24 1 23 2 22 3 21 4 19 5 20 6 17 7 18 8 16 9 14 10 15 11
REMARK SMILES IDX 13 13 12 14 7 15 8 16 9 17 96 18 10 19 97 20 11 21 6 22 3 23
REMARK SMILES IDX 4 24 99 25 5 26 98 27 2 28 1 29 100 30 101 31 25 32 26 33
REMARK SMILES IDX 27 34 28 35 29 36 30 37 31 38 32 39 33 40 34 41 95 42 35 43
REMARK SMILES IDX 94 44 36 45 37 46 38 47 88 48 39 49 93 50 87 51 89 52 40 53
REMARK SMILES IDX 92 54 86 55 85 56 41 58 73 59 53 60 72 61 54 62 57 63 71 64
REMARK SMILES IDX 90 65 55 66 56 67 70 69 91 70 58 71 42 72 43 73 51 74 44 75
REMARK SMILES IDX 45 76 49 77 52 78 46 79 47 80 50 81 48 82 74 83 75 84 83 85
REMARK SMILES IDX 76 86 77 87 81 88 84 89 78 90 79 91 82 92 80 93 59 94 60 95
REMARK SMILES IDX 68 96 61 97 62 98 66 99 69 100 63 101 64 102 67 103 65 104
REMARK H PARENT 16 12 89 57 57 68
REMARK Flexibility Score: inf
ROOT
ATOM      1  O   UNL A   1      41.810  19.746  27.361  1.00  0.00    -0.376 OA
ENDROOT
BRANCH   1   2
ATOM      2  C   UNL A   1      41.466  20.984  26.738  1.00  0.00     0.202 C 
BRANCH   2   3
ATOM      3  C   UNL A   1      39.999  21.447  26.739  1.00  0.00     0.261 C 
BRANCH   3   4
ATOM      4  O   UNL A   1      39.418  21.543  25.423  1.00  0.00    -0.462 OA
BRANCH   4   5
ATOM      5  C   UNL A   1      38.362  20.736  25.158  1.00  0.00     0.328 C 
ATOM      6  O   UNL A   1      38.405  19.510  25.207  1.00  0.00    -0.250 OA
BRANCH   5   7
ATOM      7  C   UNL A   1      37.035  21.502  24.955  1.00  0.00     0.189 C 
ATOM      8  C   UNL A   1      36.940  22.503  23.801  1.00  0.00     0.043 C 
BRANCH   7   9
ATOM      9  N   UNL A   1      35.967  20.514  24.816  1.00  0.00    -0.341 N 
ATOM     10  C   UNL A   1      34.686  20.539  25.266  1.00  0.00     0.240 C 
ATOM     11  O   UNL A   1      33.869  19.811  24.696  1.00  0.00    -0.273 OA
ATOM     12  H   UNL A   1      36.216  19.701  24.320  1.00  0.00     0.164 HD
BRANCH  10  13
ATOM     13  C   UNL A   1      34.236  21.536  26.332  1.00  0.00     0.229 C 
BRANCH  13  14
ATOM     14  N   UNL A   1      33.390  22.591  25.809  1.00  0.00    -0.259 N 
ATOM     15  C   UNL A   1      33.124  26.061  24.965  1.00  0.00     0.029 C 
ATOM     16  C   UNL A   1      32.838  24.778  25.202  1.00  0.00     0.083 C 
ATOM     17  S   UNL A   1      31.325  23.973  25.155  1.00  0.00    -0.022 SA
ATOM     18  C   UNL A   1      33.912  23.845  25.611  1.00  0.00     0.268 C 
ATOM     19  C   UNL A   1      32.045  22.445  25.635  1.00  0.00     0.294 C 
ATOM     20  O   UNL A   1      35.077  24.174  25.768  1.00  0.00    -0.268 OA
ATOM     21  O   UNL A   1      31.389  21.418  25.751  1.00  0.00    -0.261 OA
BRANCH  15  22
ATOM     22  C   UNL A   1      32.166  27.128  24.711  1.00  0.00    -0.020 A 
ATOM     23  C   UNL A   1      30.509  29.339  24.037  1.00  0.00     0.160 A 
ATOM     24  C   UNL A   1      30.511  28.136  23.290  1.00  0.00     0.051 A 
ATOM     25  C   UNL A   1      31.403  29.404  25.141  1.00  0.00     0.161 A 
ATOM     26  C   UNL A   1      31.326  27.051  23.612  1.00  0.00     0.012 A 
ATOM     27  C   UNL A   1      32.200  28.296  25.472  1.00  0.00     0.058 A 
BRANCH  23  28
ATOM     28  O   UNL A   1      29.529  30.259  23.534  1.00  0.00    -0.493 OA
ATOM     29  C   UNL A   1      27.840  31.167  22.979  1.00  0.00     0.278 C 
ENDBRANCH  23  28
BRANCH  25  30
ATOM     30  O   UNL A   1      31.702  30.563  25.803  1.00  0.00    -0.493 OA
ATOM     31  C   UNL A   1      32.649  30.460  26.869  1.00  0.00     0.278 C 
ENDBRANCH  25  30
ENDBRANCH  15  22
ENDBRANCH  13  14
ENDBRANCH  10  13
ENDBRANCH   7   9
ENDBRANCH   5   7
ENDBRANCH   4   5
ENDBRANCH   3   4
ENDBRANCH   2   3
ENDBRANCH   1   2
BRANCH   1  32
ATOM     32  C   UNL A   1      42.456  18.740  26.593  1.00  0.00     0.188 C 
BRANCH  32  33
ATOM     33  C   UNL A   1      43.396  19.158  25.451  1.00  0.00     0.188 C 
BRANCH  33  34
ATOM     34  O   UNL A   1      44.462  18.271  25.216  1.00  0.00    -0.376 OA
BRANCH  34  35
ATOM     35  C   UNL A   1      45.790  18.711  25.450  1.00  0.00     0.202 C 
BRANCH  35  36
ATOM     36  C   UNL A   1      46.391  19.952  24.755  1.00  0.00     0.261 C 
BRANCH  36  37
ATOM     37  O   UNL A   1      46.041  21.249  25.266  1.00  0.00    -0.460 OA
BRANCH  37  38
ATOM     38  C   UNL A   1      45.136  21.972  24.561  1.00  0.00     0.338 C 
ATOM     39  O   UNL A   1      44.529  21.616  23.567  1.00  0.00    -0.246 OA
BRANCH  38  40
ATOM     40  C   UNL A   1      44.832  23.201  25.338  1.00  0.00     0.060 A 
ATOM     41  C   UNL A   1      44.478  24.378  24.661  1.00  0.00     0.016 A 
ATOM     42  C   UNL A   1      44.903  23.193  26.730  1.00  0.00     0.016 A 
ATOM     43  C   UNL A   1      44.214  25.555  25.376  1.00  0.00     0.010 A 
ATOM     44  C   UNL A   1      44.663  24.376  27.442  1.00  0.00     0.010 A 
ATOM     45  C   UNL A   1      44.344  25.574  26.772  1.00  0.00    -0.014 A 
BRANCH  45  46
ATOM     46  C   UNL A   1      44.378  26.866  27.518  1.00  0.00     0.031 A 
ATOM     47  C   UNL A   1      43.065  27.483  27.916  1.00  0.00     0.074 A 
ATOM     48  C   UNL A   1      45.525  27.514  27.801  1.00  0.00     0.049 A 
ATOM     49  N   UNL A   1      42.825  28.626  28.510  1.00  0.00    -0.248 NA
ATOM     50  C   UNL A   1      41.854  26.714  27.582  1.00  0.00     0.031 C 
ATOM     51  C   UNL A   1      46.858  27.026  27.482  1.00  0.00     0.029 A 
ATOM     52  N   UNL A   1      45.751  28.738  28.399  1.00  0.00    -0.354 N 
ATOM     53  C   UNL A   1      41.443  28.723  28.593  1.00  0.00     0.074 A 
ATOM     54  C   UNL A   1      40.894  27.536  27.974  1.00  0.00     0.031 C 
ATOM     55  C   UNL A   1      47.759  27.945  27.872  1.00  0.00     0.029 A 
ATOM     56  C   UNL A   1      47.083  29.098  28.466  1.00  0.00     0.049 A 
ATOM     57  H   UNL A   1      45.025  29.304  28.750  1.00  0.00     0.167 HD
ATOM     58  C   UNL A   1      40.695  29.712  29.140  1.00  0.00     0.037 A 
ATOM     59  C   UNL A   1      47.668  30.217  28.962  1.00  0.00     0.037 A 
ATOM     60  C   UNL A   1      41.235  30.890  29.766  1.00  0.00     0.049 A 
ATOM     61  C   UNL A   1      46.791  31.294  29.531  1.00  0.00     0.074 A 
ATOM     62  C   UNL A   1      40.555  31.923  30.388  1.00  0.00     0.029 A 
ATOM     63  N   UNL A   1      42.583  31.200  29.837  1.00  0.00    -0.354 N 
ATOM     64  N   UNL A   1      45.495  31.304  29.735  1.00  0.00    -0.248 NA
ATOM     65  C   UNL A   1      47.459  32.535  29.930  1.00  0.00     0.031 C 
ATOM     66  C   UNL A   1      41.487  32.891  30.776  1.00  0.00     0.029 A 
ATOM     67  C   UNL A   1      42.751  32.431  30.451  1.00  0.00     0.049 A 
ATOM     68  H   UNL A   1      43.313  30.632  29.500  1.00  0.00     0.167 HD
ATOM     69  C   UNL A   1      45.214  32.532  30.322  1.00  0.00     0.074 A 
ATOM     70  C   UNL A   1      46.475  33.215  30.488  1.00  0.00     0.031 C 
ATOM     71  C   UNL A   1      44.019  33.070  30.663  1.00  0.00     0.037 A 
BRANCH  58  72
ATOM     72  C   UNL A   1      39.204  29.581  29.054  1.00  0.00     0.064 A 
ATOM     73  C   UNL A   1      38.406  29.423  30.197  1.00  0.00     0.173 A 
ATOM     74  C   UNL A   1      38.561  29.658  27.809  1.00  0.00     0.173 A 
ATOM     75  F   UNL A   1      38.973  29.330  31.410  1.00  0.00    -0.203 F 
ATOM     76  C   UNL A   1      37.021  29.321  30.093  1.00  0.00     0.198 A 
ATOM     77  C   UNL A   1      37.175  29.592  27.713  1.00  0.00     0.198 A 
ATOM     78  F   UNL A   1      39.278  29.814  26.686  1.00  0.00    -0.203 F 
ATOM     79  F   UNL A   1      36.283  29.120  31.194  1.00  0.00    -0.200 F 
ATOM     80  C   UNL A   1      36.407  29.415  28.854  1.00  0.00     0.200 A 
ATOM     81  F   UNL A   1      36.582  29.701  26.516  1.00  0.00    -0.200 F 
ATOM     82  F   UNL A   1      35.073  29.330  28.758  1.00  0.00    -0.200 F 
ENDBRANCH  58  72
BRANCH  59  83
ATOM     83  C   UNL A   1      49.159  30.371  28.997  1.00  0.00     0.064 A 
ATOM     84  C   UNL A   1      50.081  31.263  27.699  1.00  0.00     0.173 A 
ATOM     85  C   UNL A   1      50.057  29.792  30.445  1.00  0.00     0.173 A 
ATOM     86  F   UNL A   1      49.502  31.497  26.510  1.00  0.00    -0.203 F 
ATOM     87  C   UNL A   1      51.844  31.618  27.899  1.00  0.00     0.198 A 
ATOM     88  C   UNL A   1      51.825  30.095  30.613  1.00  0.00     0.198 A 
ATOM     89  F   UNL A   1      49.425  29.051  31.364  1.00  0.00    -0.203 F 
ATOM     90  F   UNL A   1      52.529  32.215  26.914  1.00  0.00    -0.200 F 
ATOM     91  C   UNL A   1      52.711  31.041  29.371  1.00  0.00     0.200 A 
ATOM     92  F   UNL A   1      52.486  29.574  31.655  1.00  0.00    -0.200 F 
ATOM     93  F   UNL A   1      54.035  31.216  29.485  1.00  0.00    -0.200 F 
ENDBRANCH  59  83
BRANCH  71  94
ATOM     94  C   UNL A   1      44.049  34.416  31.331  1.00  0.00     0.064 A 
ATOM     95  C   UNL A   1      44.132  34.554  32.726  1.00  0.00     0.173 A 
ATOM     96  C   UNL A   1      43.947  35.587  30.563  1.00  0.00     0.173 A 
ATOM     97  F   UNL A   1      44.208  33.465  33.508  1.00  0.00    -0.203 F 
ATOM     98  C   UNL A   1      44.046  35.805  33.330  1.00  0.00     0.198 A 
ATOM     99  C   UNL A   1      43.909  36.840  31.168  1.00  0.00     0.198 A 
ATOM    100  F   UNL A   1      43.871  35.514  29.227  1.00  0.00    -0.203 F 
ATOM    101  F   UNL A   1      44.027  35.902  34.666  1.00  0.00    -0.200 F 
ATOM    102  C   UNL A   1      43.939  36.947  32.550  1.00  0.00     0.200 A 
ATOM    103  F   UNL A   1      43.820  37.943  30.413  1.00  0.00    -0.200 F 
ATOM    104  F   UNL A   1      43.847  38.150  33.133  1.00  0.00    -0.200 F 
ENDBRANCH  71  94
ENDBRANCH  45  46
ENDBRANCH  38  40
ENDBRANCH  37  38
ENDBRANCH  36  37
ENDBRANCH  35  36
ENDBRANCH  34  35
ENDBRANCH  33  34
ENDBRANCH  32  33
ENDBRANCH   1  32
TORSDOF 23
ENDMDL
MODEL 2
REMARK VINA RESULT:     -10.0      2.573      7.696
REMARK SMILES COc1ccc(/C=C2\SC(=O)N(CC(=O)N[C@H](C)C(=O)OCCOCCOCCOC(=O)c3ccc(-c4c5nc(c(-c6c(F)c(F)c(F)c(F)c6F)c6ccc([nH]6)c(-c6c(F)c(F)c(F)c(F)c6F)c6nc(c(-c7c(F)c(F)c(F)c(F)c7F)c7ccc4[nH]7)C=C6)C=C5)cc3)C2=O)cc1OC
REMARK SMILES IDX 24 1 23 2 22 3 21 4 19 5 20 6 17 7 18 8 16 9 14 10 15 11
REMARK SMILES IDX 13 13 12 14 7 15 8 16 9 17 96 18 10 19 97 20 11 21 6 22 3 23
REMARK SMILES IDX 4 24 99 25 5 26 98 27 2 28 1 29 100 30 101 31 25 32 26 33
REMARK SMILES IDX 27 34 28 35 29 36 30 37 31 38 32 39 33 40 34 41 95 42 35 43
REMARK SMILES IDX 94 44 36 45 37 46 38 47 88 48 39 49 93 50 87 51 89 52 40 53
REMARK SMILES IDX 92 54 86 55 85 56 41 58 73 59 53 60 72 61 54 62 57 63 71 64
REMARK SMILES IDX 90 65 55 66 56 67 70 69 91 70 58 71 42 72 43 73 51 74 44 75
REMARK SMILES IDX 45 76 49 77 52 78 46 79 47 80 50 81 48 82 74 83 75 84 83 85
REMARK SMILES IDX 76 86 77 87 81 88 84 89 78 90 79 91 82 92 80 93 59 94 60 95
REMARK SMILES IDX 68 96 61 97 62 98 66 99 69 100 63 101 64 102 67 103 65 104
REMARK H PARENT 16 12 89 57 57 68
REMARK Flexibility Score: inf
ROOT
ATOM      1  O   UNL A   1      39.244  23.624  26.953  1.00  0.00    -0.376 OA
ENDROOT
BRANCH   1   2
ATOM      2  C   UNL A   1      37.981  24.105  26.494  1.00  0.00     0.202 C 
BRANCH   2   3
ATOM      3  C   UNL A   1      37.402  23.562  25.175  1.00  0.00     0.261 C 
BRANCH   3   4
ATOM      4  O   UNL A   1      35.961  23.518  25.147  1.00  0.00    -0.462 OA
BRANCH   4   5
ATOM      5  C   UNL A   1      35.365  22.516  25.839  1.00  0.00     0.328 C 
ATOM      6  O   UNL A   1      34.796  22.669  26.917  1.00  0.00    -0.250 OA
BRANCH   5   7
ATOM      7  C   UNL A   1      35.309  21.179  25.066  1.00  0.00     0.189 C 
ATOM      8  C   UNL A   1      36.572  20.316  25.010  1.00  0.00     0.043 C 
BRANCH   7   9
ATOM      9  N   UNL A   1      34.216  20.387  25.623  1.00  0.00    -0.341 N 
ATOM     10  C   UNL A   1      33.019  20.040  25.082  1.00  0.00     0.240 C 
ATOM     11  O   UNL A   1      32.447  19.055  25.552  1.00  0.00    -0.273 OA
ATOM     12  H   UNL A   1      34.370  20.051  26.536  1.00  0.00     0.164 HD
BRANCH  10  13
ATOM     13  C   UNL A   1      32.472  20.747  23.843  1.00  0.00     0.229 C 
BRANCH  13  14
ATOM     14  N   UNL A   1      32.099  22.126  24.090  1.00  0.00    -0.259 N 
ATOM     15  C   UNL A   1      32.763  25.571  23.370  1.00  0.00     0.029 C 
ATOM     16  C   UNL A   1      32.274  24.448  23.904  1.00  0.00     0.083 C 
ATOM     17  S   UNL A   1      31.174  24.249  25.203  1.00  0.00    -0.022 SA
ATOM     18  C   UNL A   1      32.719  23.133  23.392  1.00  0.00     0.268 C 
ATOM     19  C   UNL A   1      31.256  22.498  25.095  1.00  0.00     0.294 C 
ATOM     20  O   UNL A   1      33.539  22.991  22.498  1.00  0.00    -0.268 OA
ATOM     21  O   UNL A   1      30.602  21.764  25.825  1.00  0.00    -0.261 OA
BRANCH  15  22
ATOM     22  C   UNL A   1      32.548  26.926  23.861  1.00  0.00    -0.020 A 
ATOM     23  C   UNL A   1      31.939  29.448  25.025  1.00  0.00     0.160 A 
ATOM     24  C   UNL A   1      33.033  28.657  25.454  1.00  0.00     0.051 A 
ATOM     25  C   UNL A   1      31.131  28.907  23.987  1.00  0.00     0.161 A 
ATOM     26  C   UNL A   1      33.333  27.417  24.891  1.00  0.00     0.012 A 
ATOM     27  C   UNL A   1      31.457  27.669  23.410  1.00  0.00     0.058 A 
BRANCH  23  28
ATOM     28  O   UNL A   1      31.903  30.703  25.720  1.00  0.00    -0.493 OA
ATOM     29  C   UNL A   1      31.494  32.209  26.966  1.00  0.00     0.278 C 
ENDBRANCH  23  28
BRANCH  25  30
ATOM     30  O   UNL A   1      29.912  29.418  23.635  1.00  0.00    -0.493 OA
ATOM     31  C   UNL A   1      29.435  29.083  22.330  1.00  0.00     0.278 C 
ENDBRANCH  25  30
ENDBRANCH  15  22
ENDBRANCH  13  14
ENDBRANCH  10  13
ENDBRANCH   7   9
ENDBRANCH   5   7
ENDBRANCH   4   5
ENDBRANCH   3   4
ENDBRANCH   2   3
ENDBRANCH   1   2
BRANCH   1  32
ATOM     32  C   UNL A   1      40.215  24.555  27.411  1.00  0.00     0.188 C 
BRANCH  32  33
ATOM     33  C   UNL A   1      40.876  25.505  26.400  1.00  0.00     0.188 C 
BRANCH  33  34
ATOM     34  O   UNL A   1      41.640  24.865  25.408  1.00  0.00    -0.376 OA
BRANCH  34  35
ATOM     35  C   UNL A   1      42.548  23.844  25.788  1.00  0.00     0.202 C 
BRANCH  35  36
ATOM     36  C   UNL A   1      43.660  23.326  24.850  1.00  0.00     0.261 C 
BRANCH  36  37
ATOM     37  O   UNL A   1      44.688  24.246  24.446  1.00  0.00    -0.460 OA
BRANCH  37  38
ATOM     38  C   UNL A   1      45.637  24.559  25.363  1.00  0.00     0.338 C 
ATOM     39  O   UNL A   1      46.726  24.032  25.499  1.00  0.00    -0.246 OA
BRANCH  38  40
ATOM     40  C   UNL A   1      45.220  25.816  26.037  1.00  0.00     0.060 A 
ATOM     41  C   UNL A   1      44.546  26.804  25.302  1.00  0.00     0.016 A 
ATOM     42  C   UNL A   1      45.497  26.020  27.387  1.00  0.00     0.016 A 
ATOM     43  C   UNL A   1      44.169  28.008  25.914  1.00  0.00     0.010 A 
ATOM     44  C   UNL A   1      45.141  27.233  27.991  1.00  0.00     0.010 A 
ATOM     45  C   UNL A   1      44.499  28.249  27.255  1.00  0.00    -0.014 A 
BRANCH  45  46
ATOM     46  C   UNL A   1      44.392  29.621  27.833  1.00  0.00     0.031 A 
ATOM     47  C   UNL A   1      45.552  30.560  27.635  1.00  0.00     0.074 A 
ATOM     48  C   UNL A   1      43.331  30.026  28.558  1.00  0.00     0.049 A 
ATOM     49  N   UNL A   1      45.729  31.774  28.091  1.00  0.00    -0.248 NA
ATOM     50  C   UNL A   1      46.672  30.052  26.825  1.00  0.00     0.031 C 
ATOM     51  C   UNL A   1      42.145  29.224  28.817  1.00  0.00     0.029 A 
ATOM     52  N   UNL A   1      43.091  31.207  29.231  1.00  0.00    -0.354 N 
ATOM     53  C   UNL A   1      46.987  32.161  27.649  1.00  0.00     0.074 A 
ATOM     54  C   UNL A   1      47.538  31.049  26.906  1.00  0.00     0.031 C 
ATOM     55  C   UNL A   1      41.312  29.927  29.605  1.00  0.00     0.029 A 
ATOM     56  C   UNL A   1      41.894  31.232  29.921  1.00  0.00     0.049 A 
ATOM     57  H   UNL A   1      43.718  31.966  29.220  1.00  0.00     0.167 HD
ATOM     58  C   UNL A   1      47.627  33.340  27.842  1.00  0.00     0.037 A 
ATOM     59  C   UNL A   1      41.344  32.202  30.694  1.00  0.00     0.037 A 
ATOM     60  C   UNL A   1      47.081  34.453  28.572  1.00  0.00     0.049 A 
ATOM     61  C   UNL A   1      42.108  33.478  30.897  1.00  0.00     0.074 A 
ATOM     62  C   UNL A   1      47.638  35.703  28.781  1.00  0.00     0.029 A 
ATOM     63  N   UNL A   1      45.860  34.446  29.227  1.00  0.00    -0.354 N 
ATOM     64  N   UNL A   1      43.230  33.883  30.352  1.00  0.00    -0.248 NA
ATOM     65  C   UNL A   1      41.534  34.436  31.845  1.00  0.00     0.031 C 
ATOM     66  C   UNL A   1      46.785  36.431  29.617  1.00  0.00     0.029 A 
ATOM     67  C   UNL A   1      45.669  35.655  29.878  1.00  0.00     0.049 A 
ATOM     68  H   UNL A   1      45.224  33.696  29.230  1.00  0.00     0.167 HD
ATOM     69  C   UNL A   1      43.461  35.154  30.863  1.00  0.00     0.074 A 
ATOM     70  C   UNL A   1      42.342  35.472  31.718  1.00  0.00     0.031 C 
ATOM     71  C   UNL A   1      44.520  35.978  30.676  1.00  0.00     0.037 A 
BRANCH  58  72
ATOM     72  C   UNL A   1      49.013  33.476  27.284  1.00  0.00     0.064 A 
ATOM     73  C   UNL A   1      49.252  34.052  26.028  1.00  0.00     0.173 A 
ATOM     74  C   UNL A   1      50.120  33.060  28.040  1.00  0.00     0.173 A 
ATOM     75  F   UNL A   1      48.227  34.454  25.261  1.00  0.00    -0.203 F 
ATOM     76  C   UNL A   1      50.549  34.183  25.538  1.00  0.00     0.198 A 
ATOM     77  C   UNL A   1      51.416  33.226  27.562  1.00  0.00     0.198 A 
ATOM     78  F   UNL A   1      49.945  32.507  29.249  1.00  0.00    -0.203 F 
ATOM     79  F   UNL A   1      50.752  34.691  24.315  1.00  0.00    -0.200 F 
ATOM     80  C   UNL A   1      51.629  33.780  26.309  1.00  0.00     0.200 A 
ATOM     81  F   UNL A   1      52.458  32.851  28.315  1.00  0.00    -0.200 F 
ATOM     82  F   UNL A   1      52.877  33.919  25.841  1.00  0.00    -0.200 F 
ENDBRANCH  58  72
BRANCH  59  83
ATOM     83  C   UNL A   1      39.981  32.042  31.297  1.00  0.00     0.064 A 
ATOM     84  C   UNL A   1      39.728  31.391  32.984  1.00  0.00     0.173 A 
ATOM     85  C   UNL A   1      38.553  32.657  30.392  1.00  0.00     0.173 A 
ATOM     86  F   UNL A   1      40.714  30.713  33.592  1.00  0.00    -0.203 F 
ATOM     87  C   UNL A   1      38.090  31.430  33.751  1.00  0.00     0.198 A 
ATOM     88  C   UNL A   1      36.912  32.639  31.136  1.00  0.00     0.198 A 
ATOM     89  F   UNL A   1      38.694  33.049  29.118  1.00  0.00    -0.203 F 
ATOM     90  F   UNL A   1      37.899  30.891  34.963  1.00  0.00    -0.200 F 
ATOM     91  C   UNL A   1      36.682  32.070  32.823  1.00  0.00     0.200 A 
ATOM     92  F   UNL A   1      35.854  33.016  30.407  1.00  0.00    -0.200 F 
ATOM     93  F   UNL A   1      35.450  32.016  33.346  1.00  0.00    -0.200 F 
ENDBRANCH  59  83
BRANCH  71  94
ATOM     94  C   UNL A   1      44.453  37.326  31.338  1.00  0.00     0.064 A 
ATOM     95  C   UNL A   1      44.859  37.523  32.667  1.00  0.00     0.173 A 
ATOM     96  C   UNL A   1      43.932  38.428  30.643  1.00  0.00     0.173 A 
ATOM     97  F   UNL A   1      45.344  36.497  33.385  1.00  0.00    -0.203 F 
ATOM     98  C   UNL A   1      44.686  38.754  33.295  1.00  0.00     0.198 A 
ATOM     99  C   UNL A   1      43.803  39.669  31.259  1.00  0.00     0.198 A 
ATOM    100  F   UNL A   1      43.535  38.297  29.369  1.00  0.00    -0.203 F 
ATOM    101  F   UNL A   1      44.988  38.890  34.593  1.00  0.00    -0.200 F 
ATOM    102  C   UNL A   1      44.161  39.826  32.589  1.00  0.00     0.200 A 
ATOM    103  F   UNL A   1      43.310  40.708  30.571  1.00  0.00    -0.200 F 
ATOM    104  F   UNL A   1      43.986  41.007  33.197  1.00  0.00    -0.200 F 
ENDBRANCH  71  94
ENDBRANCH  45  46
ENDBRANCH  38  40
ENDBRANCH  37  38
ENDBRANCH  36  37
ENDBRANCH  35  36
ENDBRANCH  34  35
ENDBRANCH  33  34
ENDBRANCH  32  33
ENDBRANCH   1  32
TORSDOF 23
ENDMDL
MODEL 3
REMARK VINA RESULT:      -9.9      6.110     12.783
REMARK SMILES COc1ccc(/C=C2\SC(=O)N(CC(=O)N[C@H](C)C(=O)OCCOCCOCCOC(=O)c3ccc(-c4c5nc(c(-c6c(F)c(F)c(F)c(F)c6F)c6ccc([nH]6)c(-c6c(F)c(F)c(F)c(F)c6F)c6nc(c(-c7c(F)c(F)c(F)c(F)c7F)c7ccc4[nH]7)C=C6)C=C5)cc3)C2=O)cc1OC
REMARK SMILES IDX 24 1 23 2 22 3 21 4 19 5 20 6 17 7 18 8 16 9 14 10 15 11
REMARK SMILES IDX 13 13 12 14 7 15 8 16 9 17 96 18 10 19 97 20 11 21 6 22 3 23
REMARK SMILES IDX 4 24 99 25 5 26 98 27 2 28 1 29 100 30 101 31 25 32 26 33
REMARK SMILES IDX 27 34 28 35 29 36 30 37 31 38 32 39 33 40 34 41 95 42 35 43
REMARK SMILES IDX 94 44 36 45 37 46 38 47 88 48 39 49 93 50 87 51 89 52 40 53
REMARK SMILES IDX 92 54 86 55 85 56 41 58 73 59 53 60 72 61 54 62 57 63 71 64
REMARK SMILES IDX 90 65 55 66 56 67 70 69 91 70 58 71 42 72 43 73 51 74 44 75
REMARK SMILES IDX 45 76 49 77 52 78 46 79 47 80 50 81 48 82 74 83 75 84 83 85
REMARK SMILES IDX 76 86 77 87 81 88 84 89 78 90 79 91 82 92 80 93 59 94 60 95
REMARK SMILES IDX 68 96 61 97 62 98 66 99 69 100 63 101 64 102 67 103 65 104
REMARK H PARENT 16 12 89 57 57 68
REMARK Flexibility Score: inf
ROOT
ATOM      1  O   UNL A   1      34.011  34.027  31.790  1.00  0.00    -0.376 OA
ENDROOT
BRANCH   1   2
ATOM      2  C   UNL A   1      35.398  33.796  32.039  1.00  0.00     0.202 C 
BRANCH   2   3
ATOM      3  C   UNL A   1      35.817  32.990  33.281  1.00  0.00     0.261 C 
BRANCH   3   4
ATOM      4  O   UNL A   1      36.270  31.654  32.981  1.00  0.00    -0.462 OA
BRANCH   4   5
ATOM      5  C   UNL A   1      37.610  31.458  32.927  1.00  0.00     0.328 C 
ATOM      6  O   UNL A   1      38.420  32.327  32.616  1.00  0.00    -0.250 OA
BRANCH   5   7
ATOM      7  C   UNL A   1      38.055  30.078  33.463  1.00  0.00     0.189 C 
ATOM      8  C   UNL A   1      39.474  29.599  33.153  1.00  0.00     0.043 C 
BRANCH   7   9
ATOM      9  N   UNL A   1      37.858  30.077  34.910  1.00  0.00    -0.341 N 
ATOM     10  C   UNL A   1      38.388  30.881  35.869  1.00  0.00     0.240 C 
ATOM     11  O   UNL A   1      37.782  30.966  36.939  1.00  0.00    -0.273 OA
ATOM     12  H   UNL A   1      37.245  29.384  35.245  1.00  0.00     0.164 HD
BRANCH  10  13
ATOM     13  C   UNL A   1      39.602  31.764  35.584  1.00  0.00     0.229 C 
BRANCH  13  14
ATOM     14  N   UNL A   1      39.887  32.705  36.648  1.00  0.00    -0.259 N 
ATOM     15  C   UNL A   1      39.276  35.970  37.988  1.00  0.00     0.029 C 
ATOM     16  C   UNL A   1      39.773  34.748  37.775  1.00  0.00     0.083 C 
ATOM     17  S   UNL A   1      41.058  33.942  38.572  1.00  0.00    -0.022 SA
ATOM     18  C   UNL A   1      39.225  33.907  36.688  1.00  0.00     0.268 C 
ATOM     19  C   UNL A   1      40.898  32.526  37.546  1.00  0.00     0.294 C 
ATOM     20  O   UNL A   1      38.331  34.263  35.935  1.00  0.00    -0.268 OA
ATOM     21  O   UNL A   1      41.602  31.533  37.683  1.00  0.00    -0.261 OA
BRANCH  15  22
ATOM     22  C   UNL A   1      39.805  36.971  38.904  1.00  0.00    -0.020 A 
ATOM     23  C   UNL A   1      40.823  39.123  40.458  1.00  0.00     0.160 A 
ATOM     24  C   UNL A   1      39.441  38.822  40.391  1.00  0.00     0.051 A 
ATOM     25  C   UNL A   1      41.691  38.306  39.684  1.00  0.00     0.161 A 
ATOM     26  C   UNL A   1      38.935  37.772  39.625  1.00  0.00     0.012 A 
ATOM     27  C   UNL A   1      41.174  37.235  38.937  1.00  0.00     0.058 A 
BRANCH  23  28
ATOM     28  O   UNL A   1      41.074  40.202  41.371  1.00  0.00    -0.493 OA
ATOM     29  C   UNL A   1      41.147  41.970  42.298  1.00  0.00     0.278 C 
ENDBRANCH  23  28
BRANCH  25  30
ATOM     30  O   UNL A   1      43.003  38.613  39.444  1.00  0.00    -0.493 OA
ATOM     31  C   UNL A   1      43.788  38.978  40.582  1.00  0.00     0.278 C 
ENDBRANCH  25  30
ENDBRANCH  15  22
ENDBRANCH  13  14
ENDBRANCH  10  13
ENDBRANCH   7   9
ENDBRANCH   5   7
ENDBRANCH   4   5
ENDBRANCH   3   4
ENDBRANCH   2   3
ENDBRANCH   1   2
BRANCH   1  32
ATOM     32  C   UNL A   1      33.586  35.321  31.383  1.00  0.00     0.188 C 
BRANCH  32  33
ATOM     33  C   UNL A   1      32.997  35.506  29.975  1.00  0.00     0.188 C 
BRANCH  33  34
ATOM     34  O   UNL A   1      33.879  35.191  28.925  1.00  0.00    -0.376 OA
BRANCH  34  35
ATOM     35  C   UNL A   1      33.756  33.936  28.276  1.00  0.00     0.202 C 
BRANCH  35  36
ATOM     36  C   UNL A   1      34.909  32.909  28.224  1.00  0.00     0.261 C 
BRANCH  36  37
ATOM     37  O   UNL A   1      34.712  31.638  28.863  1.00  0.00    -0.460 OA
BRANCH  37  38
ATOM     38  C   UNL A   1      34.848  30.528  28.096  1.00  0.00     0.338 C 
ATOM     39  O   UNL A   1      34.067  30.117  27.258  1.00  0.00    -0.246 OA
BRANCH  38  40
ATOM     40  C   UNL A   1      36.228  30.012  28.286  1.00  0.00     0.060 A 
ATOM     41  C   UNL A   1      36.592  29.445  29.518  1.00  0.00     0.016 A 
ATOM     42  C   UNL A   1      37.162  30.092  27.255  1.00  0.00     0.016 A 
ATOM     43  C   UNL A   1      37.897  28.977  29.725  1.00  0.00     0.010 A 
ATOM     44  C   UNL A   1      38.473  29.647  27.471  1.00  0.00     0.010 A 
ATOM     45  C   UNL A   1      38.860  29.112  28.716  1.00  0.00    -0.014 A 
BRANCH  45  46
ATOM     46  C   UNL A   1      40.311  28.916  29.014  1.00  0.00     0.031 A 
ATOM     47  C   UNL A   1      40.959  27.643  28.541  1.00  0.00     0.074 A 
ATOM     48  C   UNL A   1      41.035  29.804  29.723  1.00  0.00     0.049 A 
ATOM     49  N   UNL A   1      42.181  27.210  28.729  1.00  0.00    -0.248 NA
ATOM     50  C   UNL A   1      40.108  26.725  27.766  1.00  0.00     0.031 C 
ATOM     51  C   UNL A   1      40.534  31.073  30.229  1.00  0.00     0.029 A 
ATOM     52  N   UNL A   1      42.343  29.761  30.162  1.00  0.00    -0.354 N 
ATOM     53  C   UNL A   1      42.234  25.962  28.122  1.00  0.00     0.074 A 
ATOM     54  C   UNL A   1      40.921  25.698  27.577  1.00  0.00     0.031 C 
ATOM     55  C   UNL A   1      41.515  31.678  30.921  1.00  0.00     0.029 A 
ATOM     56  C   UNL A   1      42.721  30.850  30.923  1.00  0.00     0.049 A 
ATOM     57  H   UNL A   1      42.955  29.019  29.949  1.00  0.00     0.167 HD
ATOM     58  C   UNL A   1      43.286  25.113  28.024  1.00  0.00     0.037 A 
ATOM     59  C   UNL A   1      43.903  31.135  31.525  1.00  0.00     0.037 A 
ATOM     60  C   UNL A   1      44.597  25.375  28.556  1.00  0.00     0.049 A 
ATOM     61  C   UNL A   1      45.026  30.145  31.408  1.00  0.00     0.074 A 
ATOM     62  C   UNL A   1      45.735  24.592  28.465  1.00  0.00     0.029 A 
ATOM     63  N   UNL A   1      44.942  26.497  29.291  1.00  0.00    -0.354 N 
ATOM     64  N   UNL A   1      45.103  29.041  30.707  1.00  0.00    -0.248 NA
ATOM     65  C   UNL A   1      46.232  30.437  32.186  1.00  0.00     0.031 C 
ATOM     66  C   UNL A   1      46.752  25.208  29.202  1.00  0.00     0.029 A 
ATOM     67  C   UNL A   1      46.264  26.404  29.699  1.00  0.00     0.049 A 
ATOM     68  H   UNL A   1      44.339  27.247  29.495  1.00  0.00     0.167 HD
ATOM     69  C   UNL A   1      46.380  28.539  30.933  1.00  0.00     0.074 A 
ATOM     70  C   UNL A   1      47.055  29.483  31.791  1.00  0.00     0.031 C 
ATOM     71  C   UNL A   1      46.939  27.383  30.503  1.00  0.00     0.037 A 
BRANCH  58  72
ATOM     72  C   UNL A   1      43.052  23.797  27.344  1.00  0.00     0.064 A 
ATOM     73  C   UNL A   1      42.475  22.708  28.014  1.00  0.00     0.173 A 
ATOM     74  C   UNL A   1      43.372  23.640  25.987  1.00  0.00     0.173 A 
ATOM     75  F   UNL A   1      42.163  22.803  29.316  1.00  0.00    -0.203 F 
ATOM     76  C   UNL A   1      42.252  21.501  27.356  1.00  0.00     0.198 A 
ATOM     77  C   UNL A   1      43.114  22.444  25.324  1.00  0.00     0.198 A 
ATOM     78  F   UNL A   1      43.921  24.652  25.299  1.00  0.00    -0.203 F 
ATOM     79  F   UNL A   1      41.746  20.458  28.029  1.00  0.00    -0.200 F 
ATOM     80  C   UNL A   1      42.562  21.374  26.010  1.00  0.00     0.200 A 
ATOM     81  F   UNL A   1      43.398  22.329  24.019  1.00  0.00    -0.200 F 
ATOM     82  F   UNL A   1      42.334  20.216  25.376  1.00  0.00    -0.200 F 
ENDBRANCH  58  72
BRANCH  59  83
ATOM     83  C   UNL A   1      44.117  32.428  32.253  1.00  0.00     0.064 A 
ATOM     84  C   UNL A   1      43.654  32.655  34.004  1.00  0.00     0.173 A 
ATOM     85  C   UNL A   1      45.005  33.755  31.422  1.00  0.00     0.173 A 
ATOM     86  F   UNL A   1      42.795  31.800  34.583  1.00  0.00    -0.203 F 
ATOM     87  C   UNL A   1      44.138  34.149  34.900  1.00  0.00     0.198 A 
ATOM     88  C   UNL A   1      45.433  35.268  32.300  1.00  0.00     0.198 A 
ATOM     89  F   UNL A   1      45.271  33.655  30.112  1.00  0.00    -0.203 F 
ATOM     90  F   UNL A   1      43.739  34.338  36.165  1.00  0.00    -0.200 F 
ATOM     91  C   UNL A   1      45.044  35.453  34.043  1.00  0.00     0.200 A 
ATOM     92  F   UNL A   1      46.011  36.276  31.633  1.00  0.00    -0.200 F 
ATOM     93  F   UNL A   1      45.325  36.603  34.670  1.00  0.00    -0.200 F 
ENDBRANCH  59  83
BRANCH  71  94
ATOM     94  C   UNL A   1      48.373  27.142  30.883  1.00  0.00     0.064 A 
ATOM     95  C   UNL A   1      49.440  27.605  30.096  1.00  0.00     0.173 A 
ATOM     96  C   UNL A   1      48.683  26.397  32.031  1.00  0.00     0.173 A 
ATOM     97  F   UNL A   1      49.198  28.304  28.975  1.00  0.00    -0.203 F 
ATOM     98  C   UNL A   1      50.757  27.277  30.407  1.00  0.00     0.198 A 
ATOM     99  C   UNL A   1      50.003  26.109  32.365  1.00  0.00     0.198 A 
ATOM    100  F   UNL A   1      47.704  25.935  32.822  1.00  0.00    -0.203 F 
ATOM    101  F   UNL A   1      51.749  27.646  29.586  1.00  0.00    -0.200 F 
ATOM    102  C   UNL A   1      51.037  26.533  31.543  1.00  0.00     0.200 A 
ATOM    103  F   UNL A   1      50.274  25.403  33.471  1.00  0.00    -0.200 F 
ATOM    104  F   UNL A   1      52.304  26.209  31.836  1.00  0.00    -0.200 F 
ENDBRANCH  71  94
ENDBRANCH  45  46
ENDBRANCH  38  40
ENDBRANCH  37  38
ENDBRANCH  36  37
ENDBRANCH  35  36
ENDBRANCH  34  35
ENDBRANCH  33  34
ENDBRANCH  32  33
ENDBRANCH   1  32
TORSDOF 23
ENDMDL
