MODEL 1
REMARK VINA RESULT:     -11.3      0.000      0.000
REMARK SMILES COc1ccc(-c2noc(CC(=O)OCCOCCOCCOC(=O)c3ccc(-c4c5nc(c(-c6c(F)c(F)c(F)c(F)c6F)c6ccc([nH]6)c(-c6c(F)c(F)c(F)c(F)c6F)c6nc(c(-c7c(F)c(F)c(F)c(F)c7F)c7ccc4[nH]7)C=C6)C=C5)cc3)c2-c2ccc(OC)cc2)cc1
REMARK SMILES IDX 18 1 17 2 16 3 15 4 14 5 12 6 13 7 11 8 10 9 7 10 8 11 89 12
REMARK SMILES IDX 9 13 6 14 3 15 4 16 99 17 5 18 98 19 2 20 1 21 90 22 91 23
REMARK SMILES IDX 97 24 92 25 96 26 93 27 94 28 95 29 19 30 20 31 21 32 22 33
REMARK SMILES IDX 23 34 24 35 25 36 26 37 27 38 88 39 28 40 87 41 29 42 30 43
REMARK SMILES IDX 31 44 81 45 32 46 86 47 80 48 82 49 33 50 85 51 79 52 78 53
REMARK SMILES IDX 34 55 66 56 46 57 65 58 47 59 50 60 64 61 83 62 48 63 49 64
REMARK SMILES IDX 63 66 84 67 51 68 35 69 36 70 44 71 37 72 38 73 42 74 45 75
REMARK SMILES IDX 39 76 40 77 43 78 41 79 67 80 68 81 76 82 69 83 70 84 74 85
REMARK SMILES IDX 77 86 71 87 72 88 75 89 73 90 52 91 53 92 61 93 54 94 55 95
REMARK SMILES IDX 59 96 62 97 56 98 57 99 60 100 58 101
REMARK H PARENT 82 54 50 65
REMARK Flexibility Score: inf
ROOT
ATOM      1  C   UNL A   1      34.712  20.940  25.443  1.00  0.00     0.188 C 
ENDROOT
BRANCH   1   2
ATOM      2  O   UNL A   1      34.069  21.134  24.192  1.00  0.00    -0.376 OA
BRANCH   2   3
ATOM      3  C   UNL A   1      32.646  21.230  24.191  1.00  0.00     0.202 C 
BRANCH   3   4
ATOM      4  C   UNL A   1      32.002  22.230  23.211  1.00  0.00     0.261 C 
BRANCH   4   5
ATOM      5  O   UNL A   1      32.812  22.551  22.051  1.00  0.00    -0.463 OA
BRANCH   5   6
ATOM      6  C   UNL A   1      33.567  23.680  22.135  1.00  0.00     0.313 C 
ATOM      7  O   UNL A   1      34.761  23.679  22.423  1.00  0.00    -0.252 OA
BRANCH   6   8
ATOM      8  C   UNL A   1      32.896  24.944  21.631  1.00  0.00     0.201 C 
BRANCH   8   9
ATOM      9  C   UNL A   1      33.072  26.181  22.438  1.00  0.00     0.156 A 
ATOM     10  C   UNL A   1      33.348  27.863  23.871  1.00  0.00     0.122 A 
ATOM     11  N   UNL A   1      33.968  28.225  22.740  1.00  0.00    -0.079 NA
ATOM     12  C   UNL A   1      32.787  26.560  23.732  1.00  0.00     0.053 A 
ATOM     13  O   UNL A   1      33.851  27.152  21.882  1.00  0.00    -0.359 OA
BRANCH  10  14
ATOM     14  C   UNL A   1      33.349  28.715  25.053  1.00  0.00     0.005 A 
ATOM     15  C   UNL A   1      33.462  30.507  27.216  1.00  0.00     0.118 A 
ATOM     16  C   UNL A   1      34.447  29.529  27.051  1.00  0.00     0.047 A 
ATOM     17  C   UNL A   1      32.405  30.573  26.308  1.00  0.00     0.047 A 
ATOM     18  C   UNL A   1      34.386  28.626  25.985  1.00  0.00     0.014 A 
ATOM     19  C   UNL A   1      32.350  29.681  25.231  1.00  0.00     0.014 A 
BRANCH  15  20
ATOM     20  O   UNL A   1      33.666  31.357  28.266  1.00  0.00    -0.497 OA
ATOM     21  C   UNL A   1      33.862  32.730  27.946  1.00  0.00     0.278 C 
ENDBRANCH  15  20
ENDBRANCH  10  14
BRANCH  12  22
ATOM     22  C   UNL A   1      32.214  25.680  24.718  1.00  0.00    -0.012 A 
ATOM     23  C   UNL A   1      30.837  25.599  24.920  1.00  0.00     0.013 A 
ATOM     24  C   UNL A   1      33.082  24.941  25.529  1.00  0.00     0.013 A 
ATOM     25  C   UNL A   1      30.339  24.747  25.909  1.00  0.00     0.047 A 
ATOM     26  C   UNL A   1      32.582  24.087  26.504  1.00  0.00     0.047 A 
ATOM     27  C   UNL A   1      31.206  23.975  26.690  1.00  0.00     0.118 A 
BRANCH  27  28
ATOM     28  O   UNL A   1      30.603  23.161  27.610  1.00  0.00    -0.497 OA
ATOM     29  C   UNL A   1      29.337  22.630  27.231  1.00  0.00     0.278 C 
ENDBRANCH  27  28
ENDBRANCH  12  22
ENDBRANCH   8   9
ENDBRANCH   6   8
ENDBRANCH   5   6
ENDBRANCH   4   5
ENDBRANCH   3   4
ENDBRANCH   2   3
ENDBRANCH   1   2
BRANCH   1  30
ATOM     30  C   UNL A   1      35.835  21.905  25.838  1.00  0.00     0.188 C 
BRANCH  30  31
ATOM     31  O   UNL A   1      37.126  21.518  25.418  1.00  0.00    -0.376 OA
BRANCH  31  32
ATOM     32  C   UNL A   1      37.279  20.189  24.944  1.00  0.00     0.202 C 
BRANCH  32  33
ATOM     33  C   UNL A   1      38.651  19.598  25.309  1.00  0.00     0.261 C 
BRANCH  33  34
ATOM     34  O   UNL A   1      39.246  20.134  26.510  1.00  0.00    -0.460 OA
BRANCH  34  35
ATOM     35  C   UNL A   1      40.586  20.336  26.485  1.00  0.00     0.338 C 
ATOM     36  O   UNL A   1      41.418  19.604  25.971  1.00  0.00    -0.246 OA
BRANCH  35  37
ATOM     37  C   UNL A   1      40.869  21.718  26.959  1.00  0.00     0.060 A 
ATOM     38  C   UNL A   1      40.173  22.784  26.367  1.00  0.00     0.016 A 
ATOM     39  C   UNL A   1      41.761  21.970  28.004  1.00  0.00     0.016 A 
ATOM     40  C   UNL A   1      40.415  24.101  26.773  1.00  0.00     0.010 A 
ATOM     41  C   UNL A   1      42.013  23.292  28.401  1.00  0.00     0.010 A 
ATOM     42  C   UNL A   1      41.373  24.371  27.760  1.00  0.00    -0.014 A 
BRANCH  42  43
ATOM     43  C   UNL A   1      41.843  25.769  27.977  1.00  0.00     0.031 A 
ATOM     44  C   UNL A   1      43.189  26.171  27.427  1.00  0.00     0.074 A 
ATOM     45  C   UNL A   1      41.091  26.687  28.612  1.00  0.00     0.049 A 
ATOM     46  N   UNL A   1      43.808  27.324  27.487  1.00  0.00    -0.248 NA
ATOM     47  C   UNL A   1      43.938  25.125  26.713  1.00  0.00     0.031 C 
ATOM     48  C   UNL A   1      39.764  26.454  29.173  1.00  0.00     0.029 A 
ATOM     49  N   UNL A   1      41.348  28.011  28.893  1.00  0.00    -0.354 N 
ATOM     50  C   UNL A   1      45.016  27.140  26.824  1.00  0.00     0.074 A 
ATOM     51  C   UNL A   1      45.061  25.755  26.407  1.00  0.00     0.031 C 
ATOM     52  C   UNL A   1      39.322  27.594  29.736  1.00  0.00     0.029 A 
ATOM     53  C   UNL A   1      40.347  28.631  29.599  1.00  0.00     0.049 A 
ATOM     54  H   UNL A   1      42.173  28.469  28.614  1.00  0.00     0.167 HD
ATOM     55  C   UNL A   1      45.995  28.043  26.570  1.00  0.00     0.037 A 
ATOM     56  C   UNL A   1      40.270  29.884  30.091  1.00  0.00     0.037 A 
ATOM     57  C   UNL A   1      45.962  29.422  26.983  1.00  0.00     0.049 A 
ATOM     58  C   UNL A   1      41.403  30.854  29.854  1.00  0.00     0.074 A 
ATOM     59  C   UNL A   1      46.896  30.415  26.749  1.00  0.00     0.029 A 
ATOM     60  N   UNL A   1      44.944  30.002  27.727  1.00  0.00    -0.354 N 
ATOM     61  N   UNL A   1      42.521  30.682  29.190  1.00  0.00    -0.248 NA
ATOM     62  C   UNL A   1      41.255  32.200  30.430  1.00  0.00     0.031 C 
ATOM     63  C   UNL A   1      46.478  31.578  27.405  1.00  0.00     0.029 A 
ATOM     64  C   UNL A   1      45.246  31.331  27.987  1.00  0.00     0.049 A 
ATOM     65  H   UNL A   1      44.129  29.539  28.025  1.00  0.00     0.167 HD
ATOM     66  C   UNL A   1      43.191  31.901  29.243  1.00  0.00     0.074 A 
ATOM     67  C   UNL A   1      42.343  32.810  29.983  1.00  0.00     0.031 C 
ATOM     68  C   UNL A   1      44.400  32.234  28.725  1.00  0.00     0.037 A 
BRANCH  55  69
ATOM     69  C   UNL A   1      47.209  27.556  25.828  1.00  0.00     0.064 A 
ATOM     70  C   UNL A   1      47.318  27.664  24.434  1.00  0.00     0.173 A 
ATOM     71  C   UNL A   1      48.294  27.008  26.529  1.00  0.00     0.173 A 
ATOM     72  F   UNL A   1      46.304  28.171  23.714  1.00  0.00    -0.203 F 
ATOM     73  C   UNL A   1      48.453  27.212  23.766  1.00  0.00     0.198 A 
ATOM     74  C   UNL A   1      49.443  26.589  25.861  1.00  0.00     0.198 A 
ATOM     75  F   UNL A   1      48.246  26.887  27.864  1.00  0.00    -0.203 F 
ATOM     76  F   UNL A   1      48.512  27.276  22.428  1.00  0.00    -0.200 F 
ATOM     77  C   UNL A   1      49.517  26.683  24.480  1.00  0.00     0.200 A 
ATOM     78  F   UNL A   1      50.476  26.094  26.556  1.00  0.00    -0.200 F 
ATOM     79  F   UNL A   1      50.614  26.258  23.837  1.00  0.00    -0.200 F 
ENDBRANCH  55  69
BRANCH  56  80
ATOM     80  C   UNL A   1      39.075  30.310  30.872  1.00  0.00     0.064 A 
ATOM     81  C   UNL A   1      38.002  30.972  30.257  1.00  0.00     0.173 A 
ATOM     82  C   UNL A   1      39.001  30.101  32.258  1.00  0.00     0.173 A 
ATOM     83  F   UNL A   1      38.038  31.227  28.940  1.00  0.00    -0.203 F 
ATOM     84  C   UNL A   1      36.913  31.428  31.000  1.00  0.00     0.198 A 
ATOM     85  C   UNL A   1      37.896  30.527  32.994  1.00  0.00     0.198 A 
ATOM     86  F   UNL A   1      40.002  29.482  32.897  1.00  0.00    -0.203 F 
ATOM     87  F   UNL A   1      35.931  32.111  30.395  1.00  0.00    -0.200 F 
ATOM     88  C   UNL A   1      36.858  31.199  32.366  1.00  0.00     0.200 A 
ATOM     89  F   UNL A   1      37.843  30.294  34.312  1.00  0.00    -0.200 F 
ATOM     90  F   UNL A   1      35.812  31.637  33.080  1.00  0.00    -0.200 F 
ENDBRANCH  56  80
BRANCH  68  91
ATOM     91  C   UNL A   1      44.864  33.655  28.906  1.00  0.00     0.064 A 
ATOM     92  C   UNL A   1      45.632  34.051  30.012  1.00  0.00     0.173 A 
ATOM     93  C   UNL A   1      44.543  34.635  27.952  1.00  0.00     0.173 A 
ATOM     94  F   UNL A   1      45.962  33.161  30.960  1.00  0.00    -0.203 F 
ATOM     95  C   UNL A   1      46.020  35.380  30.179  1.00  0.00     0.198 A 
ATOM     96  C   UNL A   1      44.966  35.954  28.103  1.00  0.00     0.198 A 
ATOM     97  F   UNL A   1      43.821  34.314  26.867  1.00  0.00    -0.203 F 
ATOM     98  F   UNL A   1      46.693  35.746  31.279  1.00  0.00    -0.200 F 
ATOM     99  C   UNL A   1      45.692  36.328  29.222  1.00  0.00     0.200 A 
ATOM    100  F   UNL A   1      44.662  36.864  27.167  1.00  0.00    -0.200 F 
ATOM    101  F   UNL A   1      46.064  37.605  29.386  1.00  0.00    -0.200 F 
ENDBRANCH  68  91
ENDBRANCH  42  43
ENDBRANCH  35  37
ENDBRANCH  34  35
ENDBRANCH  33  34
ENDBRANCH  32  33
ENDBRANCH  31  32
ENDBRANCH  30  31
ENDBRANCH   1  30
TORSDOF 22
ENDMDL
MODEL 2
REMARK VINA RESULT:     -11.0      0.543      6.933
REMARK SMILES COc1ccc(-c2noc(CC(=O)OCCOCCOCCOC(=O)c3ccc(-c4c5nc(c(-c6c(F)c(F)c(F)c(F)c6F)c6ccc([nH]6)c(-c6c(F)c(F)c(F)c(F)c6F)c6nc(c(-c7c(F)c(F)c(F)c(F)c7F)c7ccc4[nH]7)C=C6)C=C5)cc3)c2-c2ccc(OC)cc2)cc1
REMARK SMILES IDX 18 1 17 2 16 3 15 4 14 5 12 6 13 7 11 8 10 9 7 10 8 11 89 12
REMARK SMILES IDX 9 13 6 14 3 15 4 16 99 17 5 18 98 19 2 20 1 21 90 22 91 23
REMARK SMILES IDX 97 24 92 25 96 26 93 27 94 28 95 29 19 30 20 31 21 32 22 33
REMARK SMILES IDX 23 34 24 35 25 36 26 37 27 38 88 39 28 40 87 41 29 42 30 43
REMARK SMILES IDX 31 44 81 45 32 46 86 47 80 48 82 49 33 50 85 51 79 52 78 53
REMARK SMILES IDX 34 55 66 56 46 57 65 58 47 59 50 60 64 61 83 62 48 63 49 64
REMARK SMILES IDX 63 66 84 67 51 68 35 69 36 70 44 71 37 72 38 73 42 74 45 75
REMARK SMILES IDX 39 76 40 77 43 78 41 79 67 80 68 81 76 82 69 83 70 84 74 85
REMARK SMILES IDX 77 86 71 87 72 88 75 89 73 90 52 91 53 92 61 93 54 94 55 95
REMARK SMILES IDX 59 96 62 97 56 98 57 99 60 100 58 101
REMARK H PARENT 82 54 50 65
REMARK Flexibility Score: inf
ROOT
ATOM      1  C   UNL A   1      34.759  21.053  25.483  1.00  0.00     0.188 C 
ENDROOT
BRANCH   1   2
ATOM      2  O   UNL A   1      34.126  20.941  24.217  1.00  0.00    -0.376 OA
BRANCH   2   3
ATOM      3  C   UNL A   1      32.703  21.028  24.183  1.00  0.00     0.202 C 
BRANCH   3   4
ATOM      4  C   UNL A   1      32.080  22.152  23.333  1.00  0.00     0.261 C 
BRANCH   4   5
ATOM      5  O   UNL A   1      32.816  22.480  22.126  1.00  0.00    -0.463 OA
BRANCH   5   6
ATOM      6  C   UNL A   1      33.582  23.604  22.173  1.00  0.00     0.313 C 
ATOM      7  O   UNL A   1      34.778  23.601  22.457  1.00  0.00    -0.252 OA
BRANCH   6   8
ATOM      8  C   UNL A   1      32.921  24.858  21.633  1.00  0.00     0.201 C 
BRANCH   8   9
ATOM      9  C   UNL A   1      33.071  26.107  22.426  1.00  0.00     0.156 A 
ATOM     10  C   UNL A   1      33.309  27.811  23.841  1.00  0.00     0.122 A 
ATOM     11  N   UNL A   1      33.934  28.168  22.711  1.00  0.00    -0.079 NA
ATOM     12  C   UNL A   1      32.769  26.497  23.712  1.00  0.00     0.053 A 
ATOM     13  O   UNL A   1      33.841  27.083  21.865  1.00  0.00    -0.359 OA
BRANCH  10  14
ATOM     14  C   UNL A   1      33.286  28.677  25.012  1.00  0.00     0.005 A 
ATOM     15  C   UNL A   1      33.357  30.495  27.155  1.00  0.00     0.118 A 
ATOM     16  C   UNL A   1      34.344  29.514  27.022  1.00  0.00     0.047 A 
ATOM     17  C   UNL A   1      32.319  30.550  26.225  1.00  0.00     0.047 A 
ATOM     18  C   UNL A   1      34.305  28.598  25.966  1.00  0.00     0.014 A 
ATOM     19  C   UNL A   1      32.285  29.646  25.158  1.00  0.00     0.014 A 
BRANCH  15  20
ATOM     20  O   UNL A   1      33.540  31.357  28.199  1.00  0.00    -0.497 OA
ATOM     21  C   UNL A   1      33.714  32.731  27.869  1.00  0.00     0.278 C 
ENDBRANCH  15  20
ENDBRANCH  10  14
BRANCH  12  22
ATOM     22  C   UNL A   1      32.200  25.622  24.704  1.00  0.00    -0.012 A 
ATOM     23  C   UNL A   1      30.823  25.532  24.904  1.00  0.00     0.013 A 
ATOM     24  C   UNL A   1      33.072  24.895  25.523  1.00  0.00     0.013 A 
ATOM     25  C   UNL A   1      30.329  24.684  25.898  1.00  0.00     0.047 A 
ATOM     26  C   UNL A   1      32.575  24.045  26.503  1.00  0.00     0.047 A 
ATOM     27  C   UNL A   1      31.199  23.925  26.687  1.00  0.00     0.118 A 
BRANCH  27  28
ATOM     28  O   UNL A   1      30.600  23.114  27.612  1.00  0.00    -0.497 OA
ATOM     29  C   UNL A   1      29.321  22.602  27.251  1.00  0.00     0.278 C 
ENDBRANCH  27  28
ENDBRANCH  12  22
ENDBRANCH   8   9
ENDBRANCH   6   8
ENDBRANCH   5   6
ENDBRANCH   4   5
ENDBRANCH   3   4
ENDBRANCH   2   3
ENDBRANCH   1   2
BRANCH   1  30
ATOM     30  C   UNL A   1      35.924  22.039  25.627  1.00  0.00     0.188 C 
BRANCH  30  31
ATOM     31  O   UNL A   1      37.196  21.502  25.332  1.00  0.00    -0.376 OA
BRANCH  31  32
ATOM     32  C   UNL A   1      37.242  20.150  24.904  1.00  0.00     0.202 C 
BRANCH  32  33
ATOM     33  C   UNL A   1      38.597  19.492  25.213  1.00  0.00     0.261 C 
BRANCH  33  34
ATOM     34  O   UNL A   1      39.248  19.966  26.411  1.00  0.00    -0.460 OA
BRANCH  34  35
ATOM     35  C   UNL A   1      40.600  20.053  26.372  1.00  0.00     0.338 C 
ATOM     36  O   UNL A   1      41.364  19.227  25.900  1.00  0.00    -0.246 OA
BRANCH  35  37
ATOM     37  C   UNL A   1      41.000  21.431  26.768  1.00  0.00     0.060 A 
ATOM     38  C   UNL A   1      40.379  22.517  26.130  1.00  0.00     0.016 A 
ATOM     39  C   UNL A   1      41.929  21.665  27.784  1.00  0.00     0.016 A 
ATOM     40  C   UNL A   1      40.732  23.830  26.463  1.00  0.00     0.010 A 
ATOM     41  C   UNL A   1      42.292  22.982  28.107  1.00  0.00     0.010 A 
ATOM     42  C   UNL A   1      41.727  24.073  27.419  1.00  0.00    -0.014 A 
BRANCH  42  43
ATOM     43  C   UNL A   1      42.310  25.439  27.554  1.00  0.00     0.031 A 
ATOM     44  C   UNL A   1      41.527  26.487  28.302  1.00  0.00     0.074 A 
ATOM     45  C   UNL A   1      43.525  25.751  27.063  1.00  0.00     0.049 A 
ATOM     46  N   UNL A   1      41.825  27.738  28.551  1.00  0.00    -0.248 NA
ATOM     47  C   UNL A   1      40.225  26.063  28.842  1.00  0.00     0.031 C 
ATOM     48  C   UNL A   1      44.407  24.840  26.341  1.00  0.00     0.029 A 
ATOM     49  N   UNL A   1      44.223  26.938  27.099  1.00  0.00    -0.354 N 
ATOM     50  C   UNL A   1      40.750  28.249  29.271  1.00  0.00     0.074 A 
ATOM     51  C   UNL A   1      39.776  27.185  29.382  1.00  0.00     0.031 C 
ATOM     52  C   UNL A   1      45.529  25.498  25.998  1.00  0.00     0.029 A 
ATOM     53  C   UNL A   1      45.433  26.887  26.451  1.00  0.00     0.049 A 
ATOM     54  H   UNL A   1      43.886  27.746  27.548  1.00  0.00     0.167 HD
ATOM     55  C   UNL A   1      40.592  29.484  29.805  1.00  0.00     0.037 A 
ATOM     56  C   UNL A   1      46.351  27.852  26.236  1.00  0.00     0.037 A 
ATOM     57  C   UNL A   1      41.554  30.550  29.697  1.00  0.00     0.049 A 
ATOM     58  C   UNL A   1      46.122  29.241  26.783  1.00  0.00     0.074 A 
ATOM     59  C   UNL A   1      41.490  31.827  30.227  1.00  0.00     0.029 A 
ATOM     60  N   UNL A   1      42.753  30.469  29.003  1.00  0.00    -0.354 N 
ATOM     61  N   UNL A   1      45.123  29.700  27.497  1.00  0.00    -0.248 NA
ATOM     62  C   UNL A   1      47.160  30.244  26.499  1.00  0.00     0.031 C 
ATOM     63  C   UNL A   1      42.616  32.539  29.800  1.00  0.00     0.029 A 
ATOM     64  C   UNL A   1      43.420  31.684  29.064  1.00  0.00     0.049 A 
ATOM     65  H   UNL A   1      43.081  29.667  28.536  1.00  0.00     0.167 HD
ATOM     66  C   UNL A   1      45.426  31.030  27.771  1.00  0.00     0.074 A 
ATOM     67  C   UNL A   1      46.713  31.297  27.168  1.00  0.00     0.031 C 
ATOM     68  C   UNL A   1      44.701  31.947  28.461  1.00  0.00     0.037 A 
BRANCH  55  69
ATOM     69  C   UNL A   1      39.308  29.762  30.536  1.00  0.00     0.064 A 
ATOM     70  C   UNL A   1      39.203  29.622  31.928  1.00  0.00     0.173 A 
ATOM     71  C   UNL A   1      38.177  30.211  29.835  1.00  0.00     0.173 A 
ATOM     72  F   UNL A   1      40.250  29.184  32.644  1.00  0.00    -0.203 F 
ATOM     73  C   UNL A   1      38.006  29.889  32.587  1.00  0.00     0.198 A 
ATOM     74  C   UNL A   1      36.992  30.512  30.503  1.00  0.00     0.198 A 
ATOM     75  F   UNL A   1      38.224  30.370  28.505  1.00  0.00    -0.203 F 
ATOM     76  F   UNL A   1      37.913  29.695  33.910  1.00  0.00    -0.200 F 
ATOM     77  C   UNL A   1      36.905  30.341  31.876  1.00  0.00     0.200 A 
ATOM     78  F   UNL A   1      35.935  30.966  29.815  1.00  0.00    -0.200 F 
ATOM     79  F   UNL A   1      35.756  30.609  32.513  1.00  0.00    -0.200 F 
ENDBRANCH  55  69
BRANCH  56  80
ATOM     80  C   UNL A   1      47.583  27.551  25.455  1.00  0.00     0.064 A 
ATOM     81  C   UNL A   1      47.608  27.675  24.058  1.00  0.00     0.173 A 
ATOM     82  C   UNL A   1      48.749  27.092  26.086  1.00  0.00     0.173 A 
ATOM     83  F   UNL A   1      46.509  28.077  23.401  1.00  0.00    -0.203 F 
ATOM     84  C   UNL A   1      48.741  27.330  23.322  1.00  0.00     0.198 A 
ATOM     85  C   UNL A   1      49.893  26.781  25.353  1.00  0.00     0.198 A 
ATOM     86  F   UNL A   1      48.777  26.946  27.418  1.00  0.00    -0.203 F 
ATOM     87  F   UNL A   1      48.716  27.402  21.984  1.00  0.00    -0.200 F 
ATOM     88  C   UNL A   1      49.885  26.890  23.971  1.00  0.00     0.200 A 
ATOM     89  F   UNL A   1      50.998  26.366  25.985  1.00  0.00    -0.200 F 
ATOM     90  F   UNL A   1      50.974  26.560  23.263  1.00  0.00    -0.200 F 
ENDBRANCH  56  80
BRANCH  68  91
ATOM     91  C   UNL A   1      45.302  33.317  28.636  1.00  0.00     0.064 A 
ATOM     92  C   UNL A   1      46.133  33.631  29.723  1.00  0.00     0.173 A 
ATOM     93  C   UNL A   1      45.050  34.329  27.696  1.00  0.00     0.173 A 
ATOM     94  F   UNL A   1      46.401  32.707  30.658  1.00  0.00    -0.203 F 
ATOM     95  C   UNL A   1      46.648  34.916  29.885  1.00  0.00     0.198 A 
ATOM     96  C   UNL A   1      45.599  35.601  27.841  1.00  0.00     0.198 A 
ATOM     97  F   UNL A   1      44.273  34.085  26.629  1.00  0.00    -0.203 F 
ATOM     98  F   UNL A   1      47.381  35.209  30.969  1.00  0.00    -0.200 F 
ATOM     99  C   UNL A   1      46.386  35.897  28.942  1.00  0.00     0.200 A 
ATOM    100  F   UNL A   1      45.358  36.542  26.918  1.00  0.00    -0.200 F 
ATOM    101  F   UNL A   1      46.881  37.133  29.102  1.00  0.00    -0.200 F 
ENDBRANCH  68  91
ENDBRANCH  42  43
ENDBRANCH  35  37
ENDBRANCH  34  35
ENDBRANCH  33  34
ENDBRANCH  32  33
ENDBRANCH  31  32
ENDBRANCH  30  31
ENDBRANCH   1  30
TORSDOF 22
ENDMDL
MODEL 3
REMARK VINA RESULT:     -10.8      2.197      7.636
REMARK SMILES COc1ccc(-c2noc(CC(=O)OCCOCCOCCOC(=O)c3ccc(-c4c5nc(c(-c6c(F)c(F)c(F)c(F)c6F)c6ccc([nH]6)c(-c6c(F)c(F)c(F)c(F)c6F)c6nc(c(-c7c(F)c(F)c(F)c(F)c7F)c7ccc4[nH]7)C=C6)C=C5)cc3)c2-c2ccc(OC)cc2)cc1
REMARK SMILES IDX 18 1 17 2 16 3 15 4 14 5 12 6 13 7 11 8 10 9 7 10 8 11 89 12
REMARK SMILES IDX 9 13 6 14 3 15 4 16 99 17 5 18 98 19 2 20 1 21 90 22 91 23
REMARK SMILES IDX 97 24 92 25 96 26 93 27 94 28 95 29 19 30 20 31 21 32 22 33
REMARK SMILES IDX 23 34 24 35 25 36 26 37 27 38 88 39 28 40 87 41 29 42 30 43
REMARK SMILES IDX 31 44 81 45 32 46 86 47 80 48 82 49 33 50 85 51 79 52 78 53
REMARK SMILES IDX 34 55 66 56 46 57 65 58 47 59 50 60 64 61 83 62 48 63 49 64
REMARK SMILES IDX 63 66 84 67 51 68 35 69 36 70 44 71 37 72 38 73 42 74 45 75
REMARK SMILES IDX 39 76 40 77 43 78 41 79 67 80 68 81 76 82 69 83 70 84 74 85
REMARK SMILES IDX 77 86 71 87 72 88 75 89 73 90 52 91 53 92 61 93 54 94 55 95
REMARK SMILES IDX 59 96 62 97 56 98 57 99 60 100 58 101
REMARK H PARENT 82 54 50 65
REMARK Flexibility Score: inf
ROOT
ATOM      1  C   UNL A   1      35.577  21.419  25.757  1.00  0.00     0.188 C 
ENDROOT
BRANCH   1   2
ATOM      2  O   UNL A   1      34.756  21.496  24.601  1.00  0.00    -0.376 OA
BRANCH   2   3
ATOM      3  C   UNL A   1      33.597  20.665  24.561  1.00  0.00     0.202 C 
BRANCH   3   4
ATOM      4  C   UNL A   1      32.624  20.746  25.753  1.00  0.00     0.261 C 
BRANCH   4   5
ATOM      5  O   UNL A   1      31.638  21.807  25.662  1.00  0.00    -0.463 OA
BRANCH   5   6
ATOM      6  C   UNL A   1      31.885  22.924  26.399  1.00  0.00     0.313 C 
ATOM      7  O   UNL A   1      31.849  22.950  27.627  1.00  0.00    -0.252 OA
BRANCH   6   8
ATOM      8  C   UNL A   1      32.430  24.104  25.618  1.00  0.00     0.201 C 
BRANCH   8   9
ATOM      9  C   UNL A   1      31.460  24.916  24.836  1.00  0.00     0.156 A 
ATOM     10  C   UNL A   1      30.186  26.346  23.698  1.00  0.00     0.122 A 
ATOM     11  N   UNL A   1      30.004  25.145  23.133  1.00  0.00    -0.079 NA
ATOM     12  C   UNL A   1      31.124  26.251  24.768  1.00  0.00     0.053 A 
ATOM     13  O   UNL A   1      30.845  24.279  23.799  1.00  0.00    -0.359 OA
BRANCH  10  14
ATOM     14  C   UNL A   1      29.529  27.541  23.189  1.00  0.00     0.005 A 
ATOM     15  C   UNL A   1      28.327  29.953  22.387  1.00  0.00     0.118 A 
ATOM     16  C   UNL A   1      27.601  29.004  23.112  1.00  0.00     0.047 A 
ATOM     17  C   UNL A   1      29.651  29.683  22.041  1.00  0.00     0.047 A 
ATOM     18  C   UNL A   1      28.190  27.796  23.501  1.00  0.00     0.014 A 
ATOM     19  C   UNL A   1      30.249  28.483  22.442  1.00  0.00     0.014 A 
BRANCH  15  20
ATOM     20  O   UNL A   1      27.651  31.109  22.115  1.00  0.00    -0.497 OA
ATOM     21  C   UNL A   1      28.437  32.232  21.732  1.00  0.00     0.278 C 
ENDBRANCH  15  20
ENDBRANCH  10  14
BRANCH  12  22
ATOM     22  C   UNL A   1      31.781  27.283  25.527  1.00  0.00    -0.012 A 
ATOM     23  C   UNL A   1      32.814  28.048  24.988  1.00  0.00     0.013 A 
ATOM     24  C   UNL A   1      31.401  27.466  26.862  1.00  0.00     0.013 A 
ATOM     25  C   UNL A   1      33.433  29.019  25.780  1.00  0.00     0.047 A 
ATOM     26  C   UNL A   1      32.011  28.441  27.642  1.00  0.00     0.047 A 
ATOM     27  C   UNL A   1      33.022  29.232  27.100  1.00  0.00     0.118 A 
BRANCH  27  28
ATOM     28  O   UNL A   1      33.684  30.224  27.770  1.00  0.00    -0.497 OA
ATOM     29  C   UNL A   1      33.516  31.540  27.252  1.00  0.00     0.278 C 
ENDBRANCH  27  28
ENDBRANCH  12  22
ENDBRANCH   8   9
ENDBRANCH   6   8
ENDBRANCH   5   6
ENDBRANCH   4   5
ENDBRANCH   3   4
ENDBRANCH   2   3
ENDBRANCH   1   2
BRANCH   1  30
ATOM     30  C   UNL A   1      36.959  22.081  25.710  1.00  0.00     0.188 C 
BRANCH  30  31
ATOM     31  O   UNL A   1      37.957  21.327  25.055  1.00  0.00    -0.376 OA
BRANCH  31  32
ATOM     32  C   UNL A   1      37.774  19.921  25.005  1.00  0.00     0.202 C 
BRANCH  32  33
ATOM     33  C   UNL A   1      39.056  19.157  25.376  1.00  0.00     0.261 C 
BRANCH  33  34
ATOM     34  O   UNL A   1      39.933  19.846  26.293  1.00  0.00    -0.460 OA
BRANCH  34  35
ATOM     35  C   UNL A   1      41.258  19.585  26.175  1.00  0.00     0.338 C 
ATOM     36  O   UNL A   1      41.757  18.556  25.749  1.00  0.00    -0.246 OA
BRANCH  35  37
ATOM     37  C   UNL A   1      42.014  20.847  26.407  1.00  0.00     0.060 A 
ATOM     38  C   UNL A   1      42.234  21.261  27.730  1.00  0.00     0.016 A 
ATOM     39  C   UNL A   1      42.548  21.590  25.351  1.00  0.00     0.016 A 
ATOM     40  C   UNL A   1      42.929  22.446  27.995  1.00  0.00     0.010 A 
ATOM     41  C   UNL A   1      43.233  22.786  25.618  1.00  0.00     0.010 A 
ATOM     42  C   UNL A   1      43.392  23.244  26.940  1.00  0.00    -0.014 A 
BRANCH  42  43
ATOM     43  C   UNL A   1      43.859  24.635  27.209  1.00  0.00     0.031 A 
ATOM     44  C   UNL A   1      42.849  25.660  27.660  1.00  0.00     0.074 A 
ATOM     45  C   UNL A   1      45.152  24.991  27.098  1.00  0.00     0.049 A 
ATOM     46  N   UNL A   1      43.013  26.925  27.955  1.00  0.00    -0.248 NA
ATOM     47  C   UNL A   1      41.461  25.189  27.795  1.00  0.00     0.031 C 
ATOM     48  C   UNL A   1      46.243  24.107  26.698  1.00  0.00     0.029 A 
ATOM     49  N   UNL A   1      45.765  26.206  27.311  1.00  0.00    -0.354 N 
ATOM     50  C   UNL A   1      41.755  27.400  28.306  1.00  0.00     0.074 A 
ATOM     51  C   UNL A   1      40.830  26.299  28.146  1.00  0.00     0.031 C 
ATOM     52  C   UNL A   1      47.392  24.807  26.691  1.00  0.00     0.029 A 
ATOM     53  C   UNL A   1      47.114  26.197  27.059  1.00  0.00     0.049 A 
ATOM     54  H   UNL A   1      45.279  27.006  27.617  1.00  0.00     0.167 HD
ATOM     55  C   UNL A   1      41.399  28.635  28.736  1.00  0.00     0.037 A 
ATOM     56  C   UNL A   1      48.020  27.196  27.104  1.00  0.00     0.037 A 
ATOM     57  C   UNL A   1      42.311  29.739  28.895  1.00  0.00     0.049 A 
ATOM     58  C   UNL A   1      47.587  28.581  27.522  1.00  0.00     0.074 A 
ATOM     59  C   UNL A   1      42.044  31.019  29.349  1.00  0.00     0.029 A 
ATOM     60  N   UNL A   1      43.665  29.698  28.595  1.00  0.00    -0.354 N 
ATOM     61  N   UNL A   1      46.404  29.008  27.891  1.00  0.00    -0.248 NA
ATOM     62  C   UNL A   1      48.627  29.623  27.538  1.00  0.00     0.031 C 
ATOM     63  C   UNL A   1      43.220  31.772  29.261  1.00  0.00     0.029 A 
ATOM     64  C   UNL A   1      44.238  30.940  28.823  1.00  0.00     0.049 A 
ATOM     65  H   UNL A   1      44.146  28.905  28.269  1.00  0.00     0.167 HD
ATOM     66  C   UNL A   1      46.563  30.354  28.210  1.00  0.00     0.074 A 
ATOM     67  C   UNL A   1      47.962  30.665  28.014  1.00  0.00     0.031 C 
ATOM     68  C   UNL A   1      45.632  31.249  28.627  1.00  0.00     0.037 A 
BRANCH  55  69
ATOM     69  C   UNL A   1      39.945  28.870  29.040  1.00  0.00     0.064 A 
ATOM     70  C   UNL A   1      39.429  28.732  30.337  1.00  0.00     0.173 A 
ATOM     71  C   UNL A   1      39.065  29.273  28.023  1.00  0.00     0.173 A 
ATOM     72  F   UNL A   1      40.224  28.338  31.343  1.00  0.00    -0.203 F 
ATOM     73  C   UNL A   1      38.080  28.959  30.599  1.00  0.00     0.198 A 
ATOM     74  C   UNL A   1      37.724  29.533  28.297  1.00  0.00     0.198 A 
ATOM     75  F   UNL A   1      39.508  29.427  26.767  1.00  0.00    -0.203 F 
ATOM     76  F   UNL A   1      37.598  28.769  31.835  1.00  0.00    -0.200 F 
ATOM     77  C   UNL A   1      37.231  29.367  29.582  1.00  0.00     0.200 A 
ATOM     78  F   UNL A   1      36.911  29.944  27.314  1.00  0.00    -0.200 F 
ATOM     79  F   UNL A   1      35.935  29.595  29.837  1.00  0.00    -0.200 F 
ENDBRANCH  55  69
BRANCH  56  80
ATOM     80  C   UNL A   1      49.440  26.936  26.738  1.00  0.00     0.064 A 
ATOM     81  C   UNL A   1      50.381  26.546  27.703  1.00  0.00     0.173 A 
ATOM     82  C   UNL A   1      49.895  27.114  25.423  1.00  0.00     0.173 A 
ATOM     83  F   UNL A   1      50.005  26.393  28.982  1.00  0.00    -0.203 F 
ATOM     84  C   UNL A   1      51.723  26.366  27.371  1.00  0.00     0.198 A 
ATOM     85  C   UNL A   1      51.231  26.901  25.086  1.00  0.00     0.198 A 
ATOM     86  F   UNL A   1      49.041  27.496  24.463  1.00  0.00    -0.203 F 
ATOM     87  F   UNL A   1      52.610  26.052  28.326  1.00  0.00    -0.200 F 
ATOM     88  C   UNL A   1      52.146  26.537  26.062  1.00  0.00     0.200 A 
ATOM     89  F   UNL A   1      51.632  27.058  23.818  1.00  0.00    -0.200 F 
ATOM     90  F   UNL A   1      53.436  26.364  25.744  1.00  0.00    -0.200 F 
ENDBRANCH  56  80
BRANCH  68  91
ATOM     91  C   UNL A   1      46.102  32.644  28.939  1.00  0.00     0.064 A 
ATOM     92  C   UNL A   1      46.544  33.011  30.220  1.00  0.00     0.173 A 
ATOM     93  C   UNL A   1      46.122  33.629  27.938  1.00  0.00     0.173 A 
ATOM     94  F   UNL A   1      46.539  32.115  31.219  1.00  0.00    -0.203 F 
ATOM     95  C   UNL A   1      46.941  34.318  30.496  1.00  0.00     0.198 A 
ATOM     96  C   UNL A   1      46.556  34.925  28.209  1.00  0.00     0.198 A 
ATOM     97  F   UNL A   1      45.723  33.335  26.690  1.00  0.00    -0.203 F 
ATOM     98  F   UNL A   1      47.291  34.660  31.745  1.00  0.00    -0.200 F 
ATOM     99  C   UNL A   1      46.952  35.272  29.490  1.00  0.00     0.200 A 
ATOM    100  F   UNL A   1      46.583  35.839  27.229  1.00  0.00    -0.200 F 
ATOM    101  F   UNL A   1      47.332  36.529  29.759  1.00  0.00    -0.200 F 
ENDBRANCH  68  91
ENDBRANCH  42  43
ENDBRANCH  35  37
ENDBRANCH  34  35
ENDBRANCH  33  34
ENDBRANCH  32  33
ENDBRANCH  31  32
ENDBRANCH  30  31
ENDBRANCH   1  30
TORSDOF 22
ENDMDL
