MODEL 1
REMARK VINA RESULT:     -10.7      0.000      0.000
REMARK SMILES C[C@H](C(=O)OCCOCCOCCOC(=O)c1ccc(-c2c3nc(c(-c4c(F)c(F)c(F)c(F)c4F)c4ccc([nH]4)c(-c4c(F)c(F)c(F)c(F)c4F)c4nc(c(-c5c(F)c(F)c(F)c(F)c5F)c5ccc2[nH]5)C=C4)C=C3)cc1)[C@H](C)[NH+]1CCN(c2ccccc2Cl)CC1
REMARK SMILES IDX 9 1 8 2 7 3 6 4 5 5 3 6 4 7 2 8 1 9 80 10 81 11 82 12 83 13
REMARK SMILES IDX 94 14 84 16 93 17 85 18 86 19 87 20 91 21 88 22 90 23 92 24
REMARK SMILES IDX 89 25 10 26 11 27 12 28 13 29 14 30 15 31 16 32 17 33 18 34
REMARK SMILES IDX 79 35 19 36 78 37 20 38 21 39 22 40 72 41 23 42 77 43 71 44
REMARK SMILES IDX 73 45 24 46 76 47 70 48 69 49 25 51 57 52 37 53 56 54 38 55
REMARK SMILES IDX 41 56 55 57 74 58 39 59 40 60 54 62 75 63 42 64 26 65 27 66
REMARK SMILES IDX 35 67 28 68 29 69 33 70 36 71 30 72 31 73 34 74 32 75 58 76
REMARK SMILES IDX 59 77 67 78 60 79 61 80 65 81 68 82 62 83 63 84 66 85 64 86
REMARK SMILES IDX 43 87 44 88 52 89 45 90 46 91 50 92 53 93 47 94 48 95 51 96
REMARK SMILES IDX 49 97
REMARK H PARENT 82 15 73 50 41 61
REMARK Flexibility Score: inf
ROOT
ATOM      1  C   UNL A   1      34.114  32.208  28.048  1.00  0.00     0.188 C 
ENDROOT
BRANCH   1   2
ATOM      2  O   UNL A   1      34.914  31.110  27.623  1.00  0.00    -0.376 OA
BRANCH   2   3
ATOM      3  C   UNL A   1      34.223  29.982  27.086  1.00  0.00     0.202 C 
BRANCH   3   4
ATOM      4  C   UNL A   1      32.701  30.024  27.249  1.00  0.00     0.261 C 
BRANCH   4   5
ATOM      5  O   UNL A   1      32.007  29.053  26.425  1.00  0.00    -0.463 OA
BRANCH   5   6
ATOM      6  C   UNL A   1      31.399  29.591  25.325  1.00  0.00     0.314 C 
ATOM      7  O   UNL A   1      31.027  30.759  25.268  1.00  0.00    -0.252 OA
BRANCH   6   8
ATOM      8  C   UNL A   1      31.161  28.578  24.190  1.00  0.00     0.154 C 
ATOM      9  C   UNL A   1      30.372  29.309  23.094  1.00  0.00     0.026 C 
BRANCH   8  10
ATOM     10  C   UNL A   1      32.457  27.855  23.684  1.00  0.00     0.195 C 
ATOM     11  C   UNL A   1      33.430  28.827  23.041  1.00  0.00     0.076 C 
BRANCH  10  12
ATOM     12  N   UNL A   1      32.201  26.650  22.853  1.00  0.00    -0.329 N 
ATOM     13  C   UNL A   1      33.380  25.898  22.353  1.00  0.00     0.284 C 
ATOM     14  C   UNL A   1      31.250  25.668  23.447  1.00  0.00     0.284 C 
ATOM     15  H   UNL A   1      31.775  27.109  22.047  1.00  0.00     0.348 HD
ATOM     16  C   UNL A   1      34.033  24.869  23.300  1.00  0.00     0.178 C 
ATOM     17  C   UNL A   1      31.818  24.603  24.433  1.00  0.00     0.178 C 
ATOM     18  N   UNL A   1      33.030  23.989  23.892  1.00  0.00    -0.359 N 
BRANCH  18  19
ATOM     19  C   UNL A   1      33.520  22.803  24.429  1.00  0.00     0.056 A 
ATOM     20  C   UNL A   1      34.510  22.822  25.419  1.00  0.00     0.027 A 
ATOM     21  C   UNL A   1      33.152  21.550  23.903  1.00  0.00     0.064 A 
ATOM     22  C   UNL A   1      35.174  21.659  25.812  1.00  0.00     0.002 A 
ATOM     23  C   UNL A   1      33.807  20.379  24.303  1.00  0.00     0.023 A 
ATOM     24  Cl  UNL A   1      31.911  21.415  22.705  1.00  0.00    -0.082 Cl
ATOM     25  C   UNL A   1      34.836  20.439  25.240  1.00  0.00     0.002 A 
ENDBRANCH  18  19
ENDBRANCH  10  12
ENDBRANCH   8  10
ENDBRANCH   6   8
ENDBRANCH   5   6
ENDBRANCH   4   5
ENDBRANCH   3   4
ENDBRANCH   2   3
ENDBRANCH   1   2
BRANCH   1  26
ATOM     26  C   UNL A   1      34.838  33.564  28.105  1.00  0.00     0.188 C 
BRANCH  26  27
ATOM     27  O   UNL A   1      35.257  33.966  29.407  1.00  0.00    -0.376 OA
BRANCH  27  28
ATOM     28  C   UNL A   1      34.223  34.172  30.372  1.00  0.00     0.202 C 
BRANCH  28  29
ATOM     29  C   UNL A   1      34.647  33.827  31.801  1.00  0.00     0.261 C 
BRANCH  29  30
ATOM     30  O   UNL A   1      34.859  32.405  31.950  1.00  0.00    -0.460 OA
BRANCH  30  31
ATOM     31  C   UNL A   1      35.905  32.062  32.736  1.00  0.00     0.338 C 
ATOM     32  O   UNL A   1      36.069  32.329  33.913  1.00  0.00    -0.246 OA
BRANCH  31  33
ATOM     33  C   UNL A   1      36.830  31.171  32.014  1.00  0.00     0.060 A 
ATOM     34  C   UNL A   1      37.847  30.573  32.755  1.00  0.00     0.016 A 
ATOM     35  C   UNL A   1      36.836  31.087  30.623  1.00  0.00     0.016 A 
ATOM     36  C   UNL A   1      38.916  29.951  32.110  1.00  0.00     0.010 A 
ATOM     37  C   UNL A   1      37.910  30.453  29.975  1.00  0.00     0.010 A 
ATOM     38  C   UNL A   1      38.991  29.933  30.711  1.00  0.00    -0.014 A 
BRANCH  38  39
ATOM     39  C   UNL A   1      40.262  29.505  30.056  1.00  0.00     0.031 A 
ATOM     40  C   UNL A   1      40.391  28.112  29.486  1.00  0.00     0.074 A 
ATOM     41  C   UNL A   1      41.263  30.382  29.845  1.00  0.00     0.049 A 
ATOM     42  N   UNL A   1      41.385  27.578  28.816  1.00  0.00    -0.248 NA
ATOM     43  C   UNL A   1      39.239  27.211  29.652  1.00  0.00     0.031 C 
ATOM     44  C   UNL A   1      41.256  31.789  30.243  1.00  0.00     0.029 A 
ATOM     45  N   UNL A   1      42.486  30.215  29.236  1.00  0.00    -0.354 N 
ATOM     46  C   UNL A   1      40.951  26.318  28.426  1.00  0.00     0.074 A 
ATOM     47  C   UNL A   1      39.632  26.132  28.990  1.00  0.00     0.031 C 
ATOM     48  C   UNL A   1      42.417  32.354  29.876  1.00  0.00     0.029 A 
ATOM     49  C   UNL A   1      43.278  31.337  29.274  1.00  0.00     0.049 A 
ATOM     50  H   UNL A   1      42.767  29.371  28.813  1.00  0.00     0.167 HD
ATOM     51  C   UNL A   1      41.575  25.406  27.643  1.00  0.00     0.037 A 
ATOM     52  C   UNL A   1      44.565  31.515  28.914  1.00  0.00     0.037 A 
ATOM     53  C   UNL A   1      42.913  25.531  27.134  1.00  0.00     0.049 A 
ATOM     54  C   UNL A   1      45.344  30.369  28.324  1.00  0.00     0.074 A 
ATOM     55  C   UNL A   1      43.635  24.631  26.368  1.00  0.00     0.029 A 
ATOM     56  N   UNL A   1      43.745  26.610  27.372  1.00  0.00    -0.354 N 
ATOM     57  N   UNL A   1      44.921  29.189  27.947  1.00  0.00    -0.248 NA
ATOM     58  C   UNL A   1      46.788  30.575  28.132  1.00  0.00     0.031 C 
ATOM     59  C   UNL A   1      44.928  25.140  26.198  1.00  0.00     0.029 A 
ATOM     60  C   UNL A   1      44.995  26.372  26.826  1.00  0.00     0.049 A 
ATOM     61  H   UNL A   1      43.486  27.428  27.857  1.00  0.00     0.167 HD
ATOM     62  C   UNL A   1      46.036  28.521  27.457  1.00  0.00     0.074 A 
ATOM     63  C   UNL A   1      47.156  29.430  27.574  1.00  0.00     0.031 C 
ATOM     64  C   UNL A   1      46.117  27.265  26.953  1.00  0.00     0.037 A 
BRANCH  51  65
ATOM     65  C   UNL A   1      40.807  24.173  27.284  1.00  0.00     0.064 A 
ATOM     66  C   UNL A   1      39.738  24.234  26.379  1.00  0.00     0.173 A 
ATOM     67  C   UNL A   1      41.167  22.922  27.802  1.00  0.00     0.173 A 
ATOM     68  F   UNL A   1      39.358  25.411  25.862  1.00  0.00    -0.203 F 
ATOM     69  C   UNL A   1      39.048  23.082  26.011  1.00  0.00     0.198 A 
ATOM     70  C   UNL A   1      40.483  21.772  27.423  1.00  0.00     0.198 A 
ATOM     71  F   UNL A   1      42.185  22.819  28.669  1.00  0.00    -0.203 F 
ATOM     72  F   UNL A   1      38.017  23.164  25.159  1.00  0.00    -0.200 F 
ATOM     73  C   UNL A   1      39.423  21.852  26.531  1.00  0.00     0.200 A 
ATOM     74  F   UNL A   1      40.846  20.582  27.923  1.00  0.00    -0.200 F 
ATOM     75  F   UNL A   1      38.760  20.743  26.174  1.00  0.00    -0.200 F 
ENDBRANCH  51  65
BRANCH  52  76
ATOM     76  C   UNL A   1      45.235  32.813  29.193  1.00  0.00     0.064 A 
ATOM     77  C   UNL A   1      45.276  33.837  28.239  1.00  0.00     0.173 A 
ATOM     78  C   UNL A   1      45.886  33.034  30.417  1.00  0.00     0.173 A 
ATOM     79  F   UNL A   1      44.703  33.659  27.040  1.00  0.00    -0.203 F 
ATOM     80  C   UNL A   1      45.947  35.032  28.498  1.00  0.00     0.198 A 
ATOM     81  C   UNL A   1      46.529  34.239  30.686  1.00  0.00     0.198 A 
ATOM     82  F   UNL A   1      45.894  32.077  31.356  1.00  0.00    -0.203 F 
ATOM     83  F   UNL A   1      46.012  35.979  27.552  1.00  0.00    -0.200 F 
ATOM     84  C   UNL A   1      46.565  35.235  29.723  1.00  0.00     0.200 A 
ATOM     85  F   UNL A   1      47.119  34.430  31.873  1.00  0.00    -0.200 F 
ATOM     86  F   UNL A   1      47.207  36.385  29.971  1.00  0.00    -0.200 F 
ENDBRANCH  52  76
BRANCH  64  87
ATOM     87  C   UNL A   1      47.460  26.787  26.489  1.00  0.00     0.064 A 
ATOM     88  C   UNL A   1      47.956  27.128  25.221  1.00  0.00     0.173 A 
ATOM     89  C   UNL A   1      48.279  26.018  27.329  1.00  0.00     0.173 A 
ATOM     90  F   UNL A   1      47.205  27.848  24.374  1.00  0.00    -0.203 F 
ATOM     91  C   UNL A   1      49.216  26.702  24.807  1.00  0.00     0.198 A 
ATOM     92  C   UNL A   1      49.548  25.615  26.921  1.00  0.00     0.198 A 
ATOM     93  F   UNL A   1      47.854  25.669  28.552  1.00  0.00    -0.203 F 
ATOM     94  F   UNL A   1      49.653  27.008  23.577  1.00  0.00    -0.200 F 
ATOM     95  C   UNL A   1      50.014  25.952  25.659  1.00  0.00     0.200 A 
ATOM     96  F   UNL A   1      50.322  24.901  27.750  1.00  0.00    -0.200 F 
ATOM     97  F   UNL A   1      51.228  25.549  25.261  1.00  0.00    -0.200 F 
ENDBRANCH  64  87
ENDBRANCH  38  39
ENDBRANCH  31  33
ENDBRANCH  30  31
ENDBRANCH  29  30
ENDBRANCH  28  29
ENDBRANCH  27  28
ENDBRANCH  26  27
ENDBRANCH   1  26
TORSDOF 20
ENDMDL
MODEL 2
REMARK VINA RESULT:     -10.6      3.648      8.491
REMARK SMILES C[C@H](C(=O)OCCOCCOCCOC(=O)c1ccc(-c2c3nc(c(-c4c(F)c(F)c(F)c(F)c4F)c4ccc([nH]4)c(-c4c(F)c(F)c(F)c(F)c4F)c4nc(c(-c5c(F)c(F)c(F)c(F)c5F)c5ccc2[nH]5)C=C4)C=C3)cc1)[C@H](C)[NH+]1CCN(c2ccccc2Cl)CC1
REMARK SMILES IDX 9 1 8 2 7 3 6 4 5 5 3 6 4 7 2 8 1 9 80 10 81 11 82 12 83 13
REMARK SMILES IDX 94 14 84 16 93 17 85 18 86 19 87 20 91 21 88 22 90 23 92 24
REMARK SMILES IDX 89 25 10 26 11 27 12 28 13 29 14 30 15 31 16 32 17 33 18 34
REMARK SMILES IDX 79 35 19 36 78 37 20 38 21 39 22 40 72 41 23 42 77 43 71 44
REMARK SMILES IDX 73 45 24 46 76 47 70 48 69 49 25 51 57 52 37 53 56 54 38 55
REMARK SMILES IDX 41 56 55 57 74 58 39 59 40 60 54 62 75 63 42 64 26 65 27 66
REMARK SMILES IDX 35 67 28 68 29 69 33 70 36 71 30 72 31 73 34 74 32 75 58 76
REMARK SMILES IDX 59 77 67 78 60 79 61 80 65 81 68 82 62 83 63 84 66 85 64 86
REMARK SMILES IDX 43 87 44 88 52 89 45 90 46 91 50 92 53 93 47 94 48 95 51 96
REMARK SMILES IDX 49 97
REMARK H PARENT 82 15 73 50 41 61
REMARK Flexibility Score: inf
ROOT
ATOM      1  C   UNL A   1      36.625  22.878  23.729  1.00  0.00     0.188 C 
ENDROOT
BRANCH   1   2
ATOM      2  O   UNL A   1      35.263  22.570  23.452  1.00  0.00    -0.376 OA
BRANCH   2   3
ATOM      3  C   UNL A   1      34.578  21.765  24.412  1.00  0.00     0.202 C 
BRANCH   3   4
ATOM      4  C   UNL A   1      33.113  21.471  24.076  1.00  0.00     0.261 C 
BRANCH   4   5
ATOM      5  O   UNL A   1      32.373  22.645  23.655  1.00  0.00    -0.463 OA
BRANCH   5   6
ATOM      6  C   UNL A   1      31.666  23.244  24.659  1.00  0.00     0.314 C 
ATOM      7  O   UNL A   1      30.880  22.639  25.381  1.00  0.00    -0.252 OA
BRANCH   6   8
ATOM      8  C   UNL A   1      31.893  24.765  24.755  1.00  0.00     0.154 C 
ATOM      9  C   UNL A   1      31.340  25.216  26.116  1.00  0.00     0.026 C 
BRANCH   8  10
ATOM     10  C   UNL A   1      33.365  25.220  24.470  1.00  0.00     0.195 C 
ATOM     11  C   UNL A   1      34.117  25.533  25.752  1.00  0.00     0.076 C 
BRANCH  10  12
ATOM     12  N   UNL A   1      33.489  26.289  23.446  1.00  0.00    -0.329 N 
ATOM     13  C   UNL A   1      32.655  26.167  22.223  1.00  0.00     0.284 C 
ATOM     14  C   UNL A   1      33.339  27.677  23.966  1.00  0.00     0.284 C 
ATOM     15  H   UNL A   1      34.456  26.120  23.166  1.00  0.00     0.348 HD
ATOM     16  C   UNL A   1      31.198  26.670  22.292  1.00  0.00     0.178 C 
ATOM     17  C   UNL A   1      31.900  28.261  24.091  1.00  0.00     0.178 C 
ATOM     18  N   UNL A   1      31.129  28.007  22.874  1.00  0.00    -0.359 N 
BRANCH  18  19
ATOM     19  C   UNL A   1      29.953  28.706  22.624  1.00  0.00     0.056 A 
ATOM     20  C   UNL A   1      29.985  29.955  21.989  1.00  0.00     0.027 A 
ATOM     21  C   UNL A   1      28.713  28.264  23.124  1.00  0.00     0.064 A 
ATOM     22  C   UNL A   1      28.855  30.772  21.928  1.00  0.00     0.002 A 
ATOM     23  C   UNL A   1      27.576  29.077  23.055  1.00  0.00     0.023 A 
ATOM     24  Cl  UNL A   1      28.561  26.720  23.890  1.00  0.00    -0.082 Cl
ATOM     25  C   UNL A   1      27.654  30.342  22.477  1.00  0.00     0.002 A 
ENDBRANCH  18  19
ENDBRANCH  10  12
ENDBRANCH   8  10
ENDBRANCH   6   8
ENDBRANCH   5   6
ENDBRANCH   4   5
ENDBRANCH   3   4
ENDBRANCH   2   3
ENDBRANCH   1   2
BRANCH   1  26
ATOM     26  C   UNL A   1      37.298  21.986  24.786  1.00  0.00     0.188 C 
BRANCH  26  27
ATOM     27  O   UNL A   1      38.030  22.692  25.786  1.00  0.00    -0.376 OA
BRANCH  27  28
ATOM     28  C   UNL A   1      39.252  22.092  26.222  1.00  0.00     0.202 C 
BRANCH  28  29
ATOM     29  C   UNL A   1      39.424  20.648  25.747  1.00  0.00     0.261 C 
BRANCH  29  30
ATOM     30  O   UNL A   1      40.193  19.877  26.697  1.00  0.00    -0.460 OA
BRANCH  30  31
ATOM     31  C   UNL A   1      41.446  19.563  26.298  1.00  0.00     0.338 C 
ATOM     32  O   UNL A   1      41.817  18.540  25.751  1.00  0.00    -0.246 OA
BRANCH  31  33
ATOM     33  C   UNL A   1      42.357  20.705  26.489  1.00  0.00     0.060 A 
ATOM     34  C   UNL A   1      42.465  21.227  27.776  1.00  0.00     0.016 A 
ATOM     35  C   UNL A   1      42.926  21.381  25.411  1.00  0.00     0.016 A 
ATOM     36  C   UNL A   1      43.076  22.463  27.988  1.00  0.00     0.010 A 
ATOM     37  C   UNL A   1      43.548  22.623  25.626  1.00  0.00     0.010 A 
ATOM     38  C   UNL A   1      43.575  23.204  26.908  1.00  0.00    -0.014 A 
BRANCH  38  39
ATOM     39  C   UNL A   1      43.975  24.626  27.125  1.00  0.00     0.031 A 
ATOM     40  C   UNL A   1      42.933  25.664  27.467  1.00  0.00     0.074 A 
ATOM     41  C   UNL A   1      45.274  24.984  27.147  1.00  0.00     0.049 A 
ATOM     42  N   UNL A   1      43.092  26.932  27.763  1.00  0.00    -0.248 NA
ATOM     43  C   UNL A   1      41.533  25.214  27.526  1.00  0.00     0.031 C 
ATOM     44  C   UNL A   1      46.406  24.084  26.936  1.00  0.00     0.029 A 
ATOM     45  N   UNL A   1      45.860  26.210  27.365  1.00  0.00    -0.354 N 
ATOM     46  C   UNL A   1      41.833  27.405  28.108  1.00  0.00     0.074 A 
ATOM     47  C   UNL A   1      40.904  26.313  27.919  1.00  0.00     0.031 C 
ATOM     48  C   UNL A   1      47.547  24.786  27.027  1.00  0.00     0.029 A 
ATOM     49  C   UNL A   1      47.228  26.197  27.239  1.00  0.00     0.049 A 
ATOM     50  H   UNL A   1      45.347  27.020  27.590  1.00  0.00     0.167 HD
ATOM     51  C   UNL A   1      41.479  28.628  28.572  1.00  0.00     0.037 A 
ATOM     52  C   UNL A   1      48.119  27.208  27.241  1.00  0.00     0.037 A 
ATOM     53  C   UNL A   1      42.364  29.753  28.696  1.00  0.00     0.049 A 
ATOM     54  C   UNL A   1      47.647  28.623  27.450  1.00  0.00     0.074 A 
ATOM     55  C   UNL A   1      42.074  31.040  29.117  1.00  0.00     0.029 A 
ATOM     56  N   UNL A   1      43.707  29.735  28.363  1.00  0.00    -0.354 N 
ATOM     57  N   UNL A   1      46.459  29.057  27.789  1.00  0.00    -0.248 NA
ATOM     58  C   UNL A   1      48.639  29.692  27.253  1.00  0.00     0.031 C 
ATOM     59  C   UNL A   1      43.230  31.817  28.976  1.00  0.00     0.029 A 
ATOM     60  C   UNL A   1      44.246  31.003  28.504  1.00  0.00     0.049 A 
ATOM     61  H   UNL A   1      44.206  28.938  28.070  1.00  0.00     0.167 HD
ATOM     62  C   UNL A   1      46.564  30.440  27.865  1.00  0.00     0.074 A 
ATOM     63  C   UNL A   1      47.935  30.776  27.546  1.00  0.00     0.031 C 
ATOM     64  C   UNL A   1      45.604  31.346  28.174  1.00  0.00     0.037 A 
BRANCH  51  65
ATOM     65  C   UNL A   1      40.053  28.817  28.984  1.00  0.00     0.064 A 
ATOM     66  C   UNL A   1      39.665  28.639  30.320  1.00  0.00     0.173 A 
ATOM     67  C   UNL A   1      39.083  29.225  28.060  1.00  0.00     0.173 A 
ATOM     68  F   UNL A   1      40.561  28.246  31.235  1.00  0.00    -0.203 F 
ATOM     69  C   UNL A   1      38.347  28.854  30.714  1.00  0.00     0.198 A 
ATOM     70  C   UNL A   1      37.770  29.450  28.460  1.00  0.00     0.198 A 
ATOM     71  F   UNL A   1      39.412  29.409  26.773  1.00  0.00    -0.203 F 
ATOM     72  F   UNL A   1      37.992  28.660  31.991  1.00  0.00    -0.200 F 
ATOM     73  C   UNL A   1      37.401  29.263  29.785  1.00  0.00     0.200 A 
ATOM     74  F   UNL A   1      36.855  29.848  27.563  1.00  0.00    -0.200 F 
ATOM     75  F   UNL A   1      36.134  29.471  30.166  1.00  0.00    -0.200 F 
ENDBRANCH  51  65
BRANCH  52  76
ATOM     76  C   UNL A   1      49.549  26.932  26.941  1.00  0.00     0.064 A 
ATOM     77  C   UNL A   1      50.012  26.806  25.625  1.00  0.00     0.173 A 
ATOM     78  C   UNL A   1      50.476  26.747  27.979  1.00  0.00     0.173 A 
ATOM     79  F   UNL A   1      49.158  26.936  24.600  1.00  0.00    -0.203 F 
ATOM     80  C   UNL A   1      51.347  26.503  25.360  1.00  0.00     0.198 A 
ATOM     81  C   UNL A   1      51.814  26.473  27.713  1.00  0.00     0.198 A 
ATOM     82  F   UNL A   1      50.079  26.835  29.257  1.00  0.00    -0.203 F 
ATOM     83  F   UNL A   1      51.756  26.342  24.094  1.00  0.00    -0.200 F 
ATOM     84  C   UNL A   1      52.247  26.345  26.403  1.00  0.00     0.200 A 
ATOM     85  F   UNL A   1      52.679  26.328  28.725  1.00  0.00    -0.200 F 
ATOM     86  F   UNL A   1      53.530  26.055  26.147  1.00  0.00    -0.200 F 
ENDBRANCH  52  76
BRANCH  64  87
ATOM     87  C   UNL A   1      45.992  32.795  28.183  1.00  0.00     0.064 A 
ATOM     88  C   UNL A   1      45.833  33.598  27.044  1.00  0.00     0.173 A 
ATOM     89  C   UNL A   1      46.487  33.399  29.348  1.00  0.00     0.173 A 
ATOM     90  F   UNL A   1      45.379  33.064  25.899  1.00  0.00    -0.203 F 
ATOM     91  C   UNL A   1      46.171  34.949  27.067  1.00  0.00     0.198 A 
ATOM     92  C   UNL A   1      46.801  34.756  29.375  1.00  0.00     0.198 A 
ATOM     93  F   UNL A   1      46.654  32.677  30.465  1.00  0.00    -0.203 F 
ATOM     94  F   UNL A   1      46.046  35.687  25.955  1.00  0.00    -0.200 F 
ATOM     95  C   UNL A   1      46.648  35.528  28.233  1.00  0.00     0.200 A 
ATOM     96  F   UNL A   1      47.250  35.316  30.506  1.00  0.00    -0.200 F 
ATOM     97  F   UNL A   1      46.966  36.830  28.256  1.00  0.00    -0.200 F 
ENDBRANCH  64  87
ENDBRANCH  38  39
ENDBRANCH  31  33
ENDBRANCH  30  31
ENDBRANCH  29  30
ENDBRANCH  28  29
ENDBRANCH  27  28
ENDBRANCH  26  27
ENDBRANCH   1  26
TORSDOF 20
ENDMDL
MODEL 3
REMARK VINA RESULT:     -10.5      3.640      9.178
REMARK SMILES C[C@H](C(=O)OCCOCCOCCOC(=O)c1ccc(-c2c3nc(c(-c4c(F)c(F)c(F)c(F)c4F)c4ccc([nH]4)c(-c4c(F)c(F)c(F)c(F)c4F)c4nc(c(-c5c(F)c(F)c(F)c(F)c5F)c5ccc2[nH]5)C=C4)C=C3)cc1)[C@H](C)[NH+]1CCN(c2ccccc2Cl)CC1
REMARK SMILES IDX 9 1 8 2 7 3 6 4 5 5 3 6 4 7 2 8 1 9 80 10 81 11 82 12 83 13
REMARK SMILES IDX 94 14 84 16 93 17 85 18 86 19 87 20 91 21 88 22 90 23 92 24
REMARK SMILES IDX 89 25 10 26 11 27 12 28 13 29 14 30 15 31 16 32 17 33 18 34
REMARK SMILES IDX 79 35 19 36 78 37 20 38 21 39 22 40 72 41 23 42 77 43 71 44
REMARK SMILES IDX 73 45 24 46 76 47 70 48 69 49 25 51 57 52 37 53 56 54 38 55
REMARK SMILES IDX 41 56 55 57 74 58 39 59 40 60 54 62 75 63 42 64 26 65 27 66
REMARK SMILES IDX 35 67 28 68 29 69 33 70 36 71 30 72 31 73 34 74 32 75 58 76
REMARK SMILES IDX 59 77 67 78 60 79 61 80 65 81 68 82 62 83 63 84 66 85 64 86
REMARK SMILES IDX 43 87 44 88 52 89 45 90 46 91 50 92 53 93 47 94 48 95 51 96
REMARK SMILES IDX 49 97
REMARK H PARENT 82 15 73 50 41 61
REMARK Flexibility Score: inf
ROOT
ATOM      1  C   UNL A   1      36.767  22.665  23.633  1.00  0.00     0.188 C 
ENDROOT
BRANCH   1   2
ATOM      2  O   UNL A   1      35.366  22.613  23.382  1.00  0.00    -0.376 OA
BRANCH   2   3
ATOM      3  C   UNL A   1      34.593  21.761  24.228  1.00  0.00     0.202 C 
BRANCH   3   4
ATOM      4  C   UNL A   1      33.077  21.872  24.037  1.00  0.00     0.261 C 
BRANCH   4   5
ATOM      5  O   UNL A   1      32.681  23.002  23.219  1.00  0.00    -0.463 OA
BRANCH   5   6
ATOM      6  C   UNL A   1      31.672  23.751  23.757  1.00  0.00     0.314 C 
ATOM      7  O   UNL A   1      30.485  23.534  23.539  1.00  0.00    -0.252 OA
BRANCH   6   8
ATOM      8  C   UNL A   1      32.167  24.937  24.606  1.00  0.00     0.154 C 
ATOM      9  C   UNL A   1      31.914  24.573  26.077  1.00  0.00     0.026 C 
BRANCH   8  10
ATOM     10  C   UNL A   1      33.635  25.391  24.295  1.00  0.00     0.195 C 
ATOM     11  C   UNL A   1      34.524  25.306  25.523  1.00  0.00     0.076 C 
BRANCH  10  12
ATOM     12  N   UNL A   1      33.736  26.695  23.590  1.00  0.00    -0.329 N 
ATOM     13  C   UNL A   1      33.164  26.783  22.223  1.00  0.00     0.284 C 
ATOM     14  C   UNL A   1      33.247  27.869  24.368  1.00  0.00     0.284 C 
ATOM     15  H   UNL A   1      34.751  26.736  23.493  1.00  0.00     0.348 HD
ATOM     16  C   UNL A   1      31.650  27.050  22.092  1.00  0.00     0.178 C 
ATOM     17  C   UNL A   1      31.725  28.201  24.312  1.00  0.00     0.178 C 
ATOM     18  N   UNL A   1      31.238  28.169  22.934  1.00  0.00    -0.359 N 
BRANCH  18  19
ATOM     19  C   UNL A   1      30.014  28.744  22.605  1.00  0.00     0.056 A 
ATOM     20  C   UNL A   1      29.960  29.955  21.901  1.00  0.00     0.027 A 
ATOM     21  C   UNL A   1      28.800  28.218  23.085  1.00  0.00     0.064 A 
ATOM     22  C   UNL A   1      28.766  30.662  21.755  1.00  0.00     0.002 A 
ATOM     23  C   UNL A   1      27.599  28.919  22.930  1.00  0.00     0.023 A 
ATOM     24  Cl  UNL A   1      28.756  26.709  23.931  1.00  0.00    -0.082 Cl
ATOM     25  C   UNL A   1      27.587  30.154  22.286  1.00  0.00     0.002 A 
ENDBRANCH  18  19
ENDBRANCH  10  12
ENDBRANCH   8  10
ENDBRANCH   6   8
ENDBRANCH   5   6
ENDBRANCH   4   5
ENDBRANCH   3   4
ENDBRANCH   2   3
ENDBRANCH   1   2
BRANCH   1  26
ATOM     26  C   UNL A   1      37.295  21.615  24.625  1.00  0.00     0.188 C 
BRANCH  26  27
ATOM     27  O   UNL A   1      37.891  22.152  25.804  1.00  0.00    -0.376 OA
BRANCH  27  28
ATOM     28  C   UNL A   1      39.225  21.726  26.092  1.00  0.00     0.202 C 
BRANCH  28  29
ATOM     29  C   UNL A   1      39.532  20.311  25.598  1.00  0.00     0.261 C 
BRANCH  29  30
ATOM     30  O   UNL A   1      40.336  19.589  26.558  1.00  0.00    -0.460 OA
BRANCH  30  31
ATOM     31  C   UNL A   1      41.627  19.407  26.201  1.00  0.00     0.338 C 
ATOM     32  O   UNL A   1      42.108  18.457  25.610  1.00  0.00    -0.246 OA
BRANCH  31  33
ATOM     33  C   UNL A   1      42.427  20.606  26.507  1.00  0.00     0.060 A 
ATOM     34  C   UNL A   1      42.422  21.057  27.825  1.00  0.00     0.016 A 
ATOM     35  C   UNL A   1      42.994  21.388  25.502  1.00  0.00     0.016 A 
ATOM     36  C   UNL A   1      42.915  22.324  28.138  1.00  0.00     0.010 A 
ATOM     37  C   UNL A   1      43.498  22.662  25.821  1.00  0.00     0.010 A 
ATOM     38  C   UNL A   1      43.407  23.166  27.132  1.00  0.00    -0.014 A 
BRANCH  38  39
ATOM     39  C   UNL A   1      43.674  24.600  27.449  1.00  0.00     0.031 A 
ATOM     40  C   UNL A   1      45.073  25.157  27.322  1.00  0.00     0.074 A 
ATOM     41  C   UNL A   1      42.665  25.449  27.726  1.00  0.00     0.049 A 
ATOM     42  N   UNL A   1      45.492  26.389  27.482  1.00  0.00    -0.248 NA
ATOM     43  C   UNL A   1      46.134  24.218  26.925  1.00  0.00     0.031 C 
ATOM     44  C   UNL A   1      41.250  25.091  27.788  1.00  0.00     0.029 A 
ATOM     45  N   UNL A   1      42.682  26.796  28.005  1.00  0.00    -0.354 N 
ATOM     46  C   UNL A   1      46.837  26.384  27.138  1.00  0.00     0.074 A 
ATOM     47  C   UNL A   1      47.189  25.015  26.828  1.00  0.00     0.031 C 
ATOM     48  C   UNL A   1      40.535  26.186  28.093  1.00  0.00     0.029 A 
ATOM     49  C   UNL A   1      41.444  27.310  28.310  1.00  0.00     0.049 A 
ATOM     50  H   UNL A   1      43.502  27.341  27.988  1.00  0.00     0.167 HD
ATOM     51  C   UNL A   1      47.701  27.424  27.054  1.00  0.00     0.037 A 
ATOM     52  C   UNL A   1      41.087  28.529  28.763  1.00  0.00     0.037 A 
ATOM     53  C   UNL A   1      47.401  28.779  27.430  1.00  0.00     0.049 A 
ATOM     54  C   UNL A   1      42.136  29.590  28.964  1.00  0.00     0.074 A 
ATOM     55  C   UNL A   1      48.235  29.884  27.416  1.00  0.00     0.029 A 
ATOM     56  N   UNL A   1      46.181  29.205  27.923  1.00  0.00    -0.354 N 
ATOM     57  N   UNL A   1      43.400  29.579  28.623  1.00  0.00    -0.248 NA
ATOM     58  C   UNL A   1      41.710  30.828  29.636  1.00  0.00     0.031 C 
ATOM     59  C   UNL A   1      47.535  30.966  27.963  1.00  0.00     0.029 A 
ATOM     60  C   UNL A   1      46.256  30.541  28.280  1.00  0.00     0.049 A 
ATOM     61  H   UNL A   1      45.377  28.641  28.006  1.00  0.00     0.167 HD
ATOM     62  C   UNL A   1      43.914  30.807  29.018  1.00  0.00     0.074 A 
ATOM     63  C   UNL A   1      42.824  31.547  29.618  1.00  0.00     0.031 C 
ATOM     64  C   UNL A   1      45.180  31.276  28.891  1.00  0.00     0.037 A 
BRANCH  51  65
ATOM     65  C   UNL A   1      49.073  27.135  26.531  1.00  0.00     0.064 A 
ATOM     66  C   UNL A   1      50.121  26.818  27.407  1.00  0.00     0.173 A 
ATOM     67  C   UNL A   1      49.333  27.126  25.155  1.00  0.00     0.173 A 
ATOM     68  F   UNL A   1      49.916  26.819  28.731  1.00  0.00    -0.203 F 
ATOM     69  C   UNL A   1      51.387  26.509  26.921  1.00  0.00     0.198 A 
ATOM     70  C   UNL A   1      50.597  26.805  24.672  1.00  0.00     0.198 A 
ATOM     71  F   UNL A   1      48.358  27.422  24.282  1.00  0.00    -0.203 F 
ATOM     72  F   UNL A   1      52.380  26.226  27.775  1.00  0.00    -0.200 F 
ATOM     73  C   UNL A   1      51.624  26.499  25.554  1.00  0.00     0.200 A 
ATOM     74  F   UNL A   1      50.826  26.793  23.351  1.00  0.00    -0.200 F 
ATOM     75  F   UNL A   1      52.844  26.199  25.087  1.00  0.00    -0.200 F 
ENDBRANCH  51  65
BRANCH  52  76
ATOM     76  C   UNL A   1      39.676  28.785  29.153  1.00  0.00     0.064 A 
ATOM     77  C   UNL A   1      38.753  29.333  28.253  1.00  0.00     0.173 A 
ATOM     78  C   UNL A   1      39.234  28.520  30.459  1.00  0.00     0.173 A 
ATOM     79  F   UNL A   1      39.136  29.640  27.005  1.00  0.00    -0.203 F 
ATOM     80  C   UNL A   1      37.445  29.610  28.646  1.00  0.00     0.198 A 
ATOM     81  C   UNL A   1      37.920  28.769  30.842  1.00  0.00     0.198 A 
ATOM     82  F   UNL A   1      40.084  28.015  31.366  1.00  0.00    -0.203 F 
ATOM     83  F   UNL A   1      36.593  30.177  27.781  1.00  0.00    -0.200 F 
ATOM     84  C   UNL A   1      37.027  29.320  29.937  1.00  0.00     0.200 A 
ATOM     85  F   UNL A   1      37.522  28.481  32.089  1.00  0.00    -0.200 F 
ATOM     86  F   UNL A   1      35.768  29.585  30.313  1.00  0.00    -0.200 F 
ENDBRANCH  52  76
BRANCH  64  87
ATOM     87  C   UNL A   1      45.467  32.654  29.410  1.00  0.00     0.064 A 
ATOM     88  C   UNL A   1      45.231  33.792  28.624  1.00  0.00     0.173 A 
ATOM     89  C   UNL A   1      45.943  32.844  30.716  1.00  0.00     0.173 A 
ATOM     90  F   UNL A   1      44.793  33.662  27.362  1.00  0.00    -0.203 F 
ATOM     91  C   UNL A   1      45.477  35.069  29.122  1.00  0.00     0.198 A 
ATOM     92  C   UNL A   1      46.163  34.124  31.219  1.00  0.00     0.198 A 
ATOM     93  F   UNL A   1      46.180  31.791  31.509  1.00  0.00    -0.203 F 
ATOM     94  F   UNL A   1      45.279  36.140  28.339  1.00  0.00    -0.200 F 
ATOM     95  C   UNL A   1      45.935  35.235  30.420  1.00  0.00     0.200 A 
ATOM     96  F   UNL A   1      46.594  34.283  32.478  1.00  0.00    -0.200 F 
ATOM     97  F   UNL A   1      46.162  36.466  30.900  1.00  0.00    -0.200 F 
ENDBRANCH  64  87
ENDBRANCH  38  39
ENDBRANCH  31  33
ENDBRANCH  30  31
ENDBRANCH  29  30
ENDBRANCH  28  29
ENDBRANCH  27  28
ENDBRANCH  26  27
ENDBRANCH   1  26
TORSDOF 20
ENDMDL
