MODEL 1
REMARK VINA RESULT:     -11.0      0.000      0.000
REMARK SMILES CCC(C)(C)NC(=O)[C@@H](C)Oc1ccc(C)nc1C(=O)OCCOCCOCCOC(=O)c1ccc(-c2c3nc(c(-c4c(F)c(F)c(F)c(F)c4F)c4ccc([nH]4)c(-c4c(F)c(F)c(F)c(F)c4F)c4nc(c(-c5c(F)c(F)c(F)c(F)c5F)c5ccc2[nH]5)C=C4)C=C3)cc1
REMARK SMILES IDX 24 1 23 2 22 3 21 4 19 5 20 6 18 7 12 8 13 9 14 10 17 11
REMARK SMILES IDX 15 12 16 13 11 14 9 15 10 16 7 17 6 18 8 20 3 21 4 22 5 23
REMARK SMILES IDX 2 24 1 25 25 26 26 27 27 28 28 29 29 30 30 31 31 32 32 33
REMARK SMILES IDX 33 34 34 35 95 36 35 37 94 38 36 39 37 40 38 41 88 42 39 43
REMARK SMILES IDX 93 44 87 45 89 46 40 47 92 48 86 49 85 50 41 52 73 53 53 54
REMARK SMILES IDX 72 55 54 56 57 57 71 58 90 59 55 60 56 61 70 63 91 64 58 65
REMARK SMILES IDX 42 66 43 67 51 68 44 69 45 70 49 71 52 72 46 73 47 74 50 75
REMARK SMILES IDX 48 76 74 77 75 78 83 79 76 80 77 81 81 82 84 83 78 84 79 85
REMARK SMILES IDX 82 86 80 87 59 88 60 89 68 90 61 91 62 92 66 93 69 94 63 95
REMARK SMILES IDX 64 96 67 97 65 98
REMARK H PARENT 6 19 89 51 57 62
REMARK Flexibility Score: inf
ROOT
ATOM      1  O   UNL A   1      39.117  21.484  26.518  1.00  0.00    -0.376 OA
ENDROOT
BRANCH   1   2
ATOM      2  C   UNL A   1      38.563  22.621  25.861  1.00  0.00     0.202 C 
BRANCH   2   3
ATOM      3  C   UNL A   1      37.115  22.497  25.356  1.00  0.00     0.261 C 
BRANCH   3   4
ATOM      4  O   UNL A   1      36.508  23.731  24.923  1.00  0.00    -0.458 OA
BRANCH   4   5
ATOM      5  C   UNL A   1      35.815  23.631  23.754  1.00  0.00     0.360 C 
ATOM      6  O   UNL A   1      36.137  22.951  22.788  1.00  0.00    -0.244 OA
BRANCH   5   7
ATOM      7  C   UNL A   1      34.495  24.319  23.804  1.00  0.00     0.190 A 
ATOM      8  C   UNL A   1      33.851  24.658  24.991  1.00  0.00     0.153 A 
ATOM      9  C   UNL A   1      32.968  25.727  24.918  1.00  0.00     0.051 A 
ATOM     10  C   UNL A   1      32.525  26.181  23.676  1.00  0.00     0.027 A 
ATOM     11  N   UNL A   1      34.028  24.703  22.573  1.00  0.00    -0.243 NA
ATOM     12  C   UNL A   1      32.976  25.542  22.535  1.00  0.00     0.039 A 
ATOM     13  C   UNL A   1      32.249  25.684  21.232  1.00  0.00     0.067 C 
BRANCH   8  14
ATOM     14  O   UNL A   1      34.031  23.941  26.133  1.00  0.00    -0.478 OA
BRANCH  14  15
ATOM     15  C   UNL A   1      32.976  23.061  26.575  1.00  0.00     0.259 C 
ATOM     16  C   UNL A   1      33.360  22.394  27.910  1.00  0.00     0.064 C 
BRANCH  15  17
ATOM     17  C   UNL A   1      32.023  22.109  25.733  1.00  0.00     0.261 C 
ATOM     18  N   UNL A   1      32.075  20.735  25.751  1.00  0.00    -0.348 N 
ATOM     19  H   UNL A   1      31.495  20.322  26.431  1.00  0.00     0.164 HD
ATOM     20  O   UNL A   1      31.039  22.601  25.162  1.00  0.00    -0.271 OA
BRANCH  18  21
ATOM     21  C   UNL A   1      32.852  19.743  24.927  1.00  0.00     0.034 C 
ATOM     22  C   UNL A   1      32.901  18.368  25.634  1.00  0.00     0.034 C 
ATOM     23  C   UNL A   1      34.328  20.250  24.933  1.00  0.00     0.034 C 
BRANCH  21  24
ATOM     24  C   UNL A   1      32.529  19.599  23.406  1.00  0.00     0.024 C 
ATOM     25  C   UNL A   1      32.512  18.246  22.759  1.00  0.00     0.006 C 
ENDBRANCH  21  24
ENDBRANCH  18  21
ENDBRANCH  15  17
ENDBRANCH  14  15
ENDBRANCH   8  14
ENDBRANCH   5   7
ENDBRANCH   4   5
ENDBRANCH   3   4
ENDBRANCH   2   3
ENDBRANCH   1   2
BRANCH   1  26
ATOM     26  C   UNL A   1      40.435  21.102  26.127  1.00  0.00     0.188 C 
BRANCH  26  27
ATOM     27  C   UNL A   1      41.154  20.186  27.109  1.00  0.00     0.188 C 
BRANCH  27  28
ATOM     28  O   UNL A   1      42.567  20.228  27.028  1.00  0.00    -0.376 OA
BRANCH  28  29
ATOM     29  C   UNL A   1      43.157  20.216  25.729  1.00  0.00     0.202 C 
BRANCH  29  30
ATOM     30  C   UNL A   1      43.970  21.423  25.191  1.00  0.00     0.261 C 
BRANCH  30  31
ATOM     31  O   UNL A   1      43.266  22.649  24.902  1.00  0.00    -0.460 OA
BRANCH  31  32
ATOM     32  C   UNL A   1      43.946  23.810  24.994  1.00  0.00     0.338 C 
ATOM     33  O   UNL A   1      44.849  24.176  24.253  1.00  0.00    -0.246 OA
BRANCH  32  34
ATOM     34  C   UNL A   1      43.250  24.706  25.965  1.00  0.00     0.060 A 
ATOM     35  C   UNL A   1      43.664  26.046  26.028  1.00  0.00     0.016 A 
ATOM     36  C   UNL A   1      42.179  24.283  26.759  1.00  0.00     0.016 A 
ATOM     37  C   UNL A   1      43.045  26.948  26.899  1.00  0.00     0.010 A 
ATOM     38  C   UNL A   1      41.573  25.183  27.652  1.00  0.00     0.010 A 
ATOM     39  C   UNL A   1      42.022  26.514  27.752  1.00  0.00    -0.014 A 
BRANCH  39  40
ATOM     40  C   UNL A   1      41.569  27.391  28.868  1.00  0.00     0.031 A 
ATOM     41  C   UNL A   1      42.320  27.343  30.172  1.00  0.00     0.074 A 
ATOM     42  C   UNL A   1      40.535  28.241  28.737  1.00  0.00     0.049 A 
ATOM     43  N   UNL A   1      42.091  27.973  31.297  1.00  0.00    -0.248 NA
ATOM     44  C   UNL A   1      43.490  26.454  30.208  1.00  0.00     0.031 C 
ATOM     45  C   UNL A   1      39.740  28.427  27.527  1.00  0.00     0.029 A 
ATOM     46  N   UNL A   1      39.967  29.100  29.650  1.00  0.00    -0.354 N 
ATOM     47  C   UNL A   1      43.082  27.552  32.174  1.00  0.00     0.074 A 
ATOM     48  C   UNL A   1      43.889  26.583  31.463  1.00  0.00     0.031 C 
ATOM     49  C   UNL A   1      38.769  29.323  27.778  1.00  0.00     0.029 A 
ATOM     50  C   UNL A   1      38.853  29.749  29.176  1.00  0.00     0.049 A 
ATOM     51  H   UNL A   1      40.325  29.235  30.557  1.00  0.00     0.167 HD
ATOM     52  C   UNL A   1      43.310  27.941  33.453  1.00  0.00     0.037 A 
ATOM     53  C   UNL A   1      37.985  30.569  29.804  1.00  0.00     0.037 A 
ATOM     54  C   UNL A   1      42.500  28.892  34.172  1.00  0.00     0.049 A 
ATOM     55  C   UNL A   1      38.204  30.931  31.252  1.00  0.00     0.074 A 
ATOM     56  C   UNL A   1      42.661  29.360  35.464  1.00  0.00     0.029 A 
ATOM     57  N   UNL A   1      41.364  29.505  33.665  1.00  0.00    -0.354 N 
ATOM     58  N   UNL A   1      39.159  30.552  32.067  1.00  0.00    -0.248 NA
ATOM     59  C   UNL A   1      37.224  31.840  31.865  1.00  0.00     0.031 C 
ATOM     60  C   UNL A   1      41.586  30.205  35.762  1.00  0.00     0.029 A 
ATOM     61  C   UNL A   1      40.793  30.321  34.631  1.00  0.00     0.049 A 
ATOM     62  H   UNL A   1      41.013  29.380  32.754  1.00  0.00     0.167 HD
ATOM     63  C   UNL A   1      38.910  31.190  33.277  1.00  0.00     0.074 A 
ATOM     64  C   UNL A   1      37.722  31.996  33.085  1.00  0.00     0.031 C 
ATOM     65  C   UNL A   1      39.604  31.115  34.441  1.00  0.00     0.037 A 
BRANCH  52  66
ATOM     66  C   UNL A   1      44.465  27.295  34.168  1.00  0.00     0.064 A 
ATOM     67  C   UNL A   1      45.748  27.867  34.174  1.00  0.00     0.173 A 
ATOM     68  C   UNL A   1      44.289  26.080  34.848  1.00  0.00     0.173 A 
ATOM     69  F   UNL A   1      45.976  29.022  33.530  1.00  0.00    -0.203 F 
ATOM     70  C   UNL A   1      46.818  27.222  34.788  1.00  0.00     0.198 A 
ATOM     71  C   UNL A   1      45.354  25.457  35.494  1.00  0.00     0.198 A 
ATOM     72  F   UNL A   1      43.085  25.491  34.882  1.00  0.00    -0.203 F 
ATOM     73  F   UNL A   1      48.048  27.750  34.714  1.00  0.00    -0.200 F 
ATOM     74  C   UNL A   1      46.620  26.021  35.451  1.00  0.00     0.200 A 
ATOM     75  F   UNL A   1      45.156  24.304  36.148  1.00  0.00    -0.200 F 
ATOM     76  F   UNL A   1      47.652  25.398  36.037  1.00  0.00    -0.200 F 
ENDBRANCH  52  66
BRANCH  53  77
ATOM     77  C   UNL A   1      36.803  31.087  29.063  1.00  0.00     0.064 A 
ATOM     78  C   UNL A   1      35.723  30.256  28.737  1.00  0.00     0.173 A 
ATOM     79  C   UNL A   1      36.731  32.432  28.668  1.00  0.00     0.173 A 
ATOM     80  F   UNL A   1      35.759  28.954  29.061  1.00  0.00    -0.203 F 
ATOM     81  C   UNL A   1      34.618  30.748  28.043  1.00  0.00     0.198 A 
ATOM     82  C   UNL A   1      35.614  32.931  28.002  1.00  0.00     0.198 A 
ATOM     83  F   UNL A   1      37.744  33.267  28.944  1.00  0.00    -0.203 F 
ATOM     84  F   UNL A   1      33.617  29.922  27.711  1.00  0.00    -0.200 F 
ATOM     85  C   UNL A   1      34.560  32.087  27.686  1.00  0.00     0.200 A 
ATOM     86  F   UNL A   1      35.560  34.227  27.665  1.00  0.00    -0.200 F 
ATOM     87  F   UNL A   1      33.493  32.561  27.030  1.00  0.00    -0.200 F 
ENDBRANCH  53  77
BRANCH  65  88
ATOM     88  C   UNL A   1      39.118  31.947  35.597  1.00  0.00     0.064 A 
ATOM     89  C   UNL A   1      38.245  31.431  36.568  1.00  0.00     0.173 A 
ATOM     90  C   UNL A   1      39.560  33.271  35.757  1.00  0.00     0.173 A 
ATOM     91  F   UNL A   1      37.781  30.177  36.460  1.00  0.00    -0.203 F 
ATOM     92  C   UNL A   1      37.809  32.217  37.633  1.00  0.00     0.198 A 
ATOM     93  C   UNL A   1      39.150  34.042  36.843  1.00  0.00     0.198 A 
ATOM     94  F   UNL A   1      40.403  33.815  34.866  1.00  0.00    -0.203 F 
ATOM     95  F   UNL A   1      36.931  31.719  38.516  1.00  0.00    -0.200 F 
ATOM     96  C   UNL A   1      38.267  33.519  37.774  1.00  0.00     0.200 A 
ATOM     97  F   UNL A   1      39.609  35.293  36.986  1.00  0.00    -0.200 F 
ATOM     98  F   UNL A   1      37.851  34.270  38.802  1.00  0.00    -0.200 F 
ENDBRANCH  65  88
ENDBRANCH  39  40
ENDBRANCH  32  34
ENDBRANCH  31  32
ENDBRANCH  30  31
ENDBRANCH  29  30
ENDBRANCH  28  29
ENDBRANCH  27  28
ENDBRANCH  26  27
ENDBRANCH   1  26
TORSDOF 22
ENDMDL
MODEL 2
REMARK VINA RESULT:     -11.0      1.094      3.068
REMARK SMILES CCC(C)(C)NC(=O)[C@@H](C)Oc1ccc(C)nc1C(=O)OCCOCCOCCOC(=O)c1ccc(-c2c3nc(c(-c4c(F)c(F)c(F)c(F)c4F)c4ccc([nH]4)c(-c4c(F)c(F)c(F)c(F)c4F)c4nc(c(-c5c(F)c(F)c(F)c(F)c5F)c5ccc2[nH]5)C=C4)C=C3)cc1
REMARK SMILES IDX 24 1 23 2 22 3 21 4 19 5 20 6 18 7 12 8 13 9 14 10 17 11
REMARK SMILES IDX 15 12 16 13 11 14 9 15 10 16 7 17 6 18 8 20 3 21 4 22 5 23
REMARK SMILES IDX 2 24 1 25 25 26 26 27 27 28 28 29 29 30 30 31 31 32 32 33
REMARK SMILES IDX 33 34 34 35 95 36 35 37 94 38 36 39 37 40 38 41 88 42 39 43
REMARK SMILES IDX 93 44 87 45 89 46 40 47 92 48 86 49 85 50 41 52 73 53 53 54
REMARK SMILES IDX 72 55 54 56 57 57 71 58 90 59 55 60 56 61 70 63 91 64 58 65
REMARK SMILES IDX 42 66 43 67 51 68 44 69 45 70 49 71 52 72 46 73 47 74 50 75
REMARK SMILES IDX 48 76 74 77 75 78 83 79 76 80 77 81 81 82 84 83 78 84 79 85
REMARK SMILES IDX 82 86 80 87 59 88 60 89 68 90 61 91 62 92 66 93 69 94 63 95
REMARK SMILES IDX 64 96 67 97 65 98
REMARK H PARENT 6 19 89 51 57 62
REMARK Flexibility Score: inf
ROOT
ATOM      1  O   UNL A   1      38.728  21.808  26.424  1.00  0.00    -0.376 OA
ENDROOT
BRANCH   1   2
ATOM      2  C   UNL A   1      38.117  22.910  25.759  1.00  0.00     0.202 C 
BRANCH   2   3
ATOM      3  C   UNL A   1      36.691  22.698  25.224  1.00  0.00     0.261 C 
BRANCH   3   4
ATOM      4  O   UNL A   1      36.087  21.434  25.566  1.00  0.00    -0.458 OA
BRANCH   4   5
ATOM      5  C   UNL A   1      34.856  21.542  26.140  1.00  0.00     0.360 C 
ATOM      6  O   UNL A   1      34.624  21.999  27.252  1.00  0.00    -0.244 OA
BRANCH   5   7
ATOM      7  C   UNL A   1      33.750  21.191  25.206  1.00  0.00     0.190 A 
ATOM      8  C   UNL A   1      32.940  22.140  24.587  1.00  0.00     0.153 A 
ATOM      9  C   UNL A   1      32.361  21.751  23.386  1.00  0.00     0.051 A 
ATOM     10  C   UNL A   1      32.333  20.402  23.030  1.00  0.00     0.027 A 
ATOM     11  N   UNL A   1      33.682  19.854  24.912  1.00  0.00    -0.243 NA
ATOM     12  C   UNL A   1      32.883  19.474  23.897  1.00  0.00     0.039 A 
ATOM     13  C   UNL A   1      32.531  18.021  23.797  1.00  0.00     0.067 C 
BRANCH   8  14
ATOM     14  O   UNL A   1      32.683  23.346  25.161  1.00  0.00    -0.478 OA
BRANCH  14  15
ATOM     15  C   UNL A   1      33.210  24.537  24.540  1.00  0.00     0.259 C 
ATOM     16  C   UNL A   1      34.192  25.248  25.492  1.00  0.00     0.064 C 
BRANCH  15  17
ATOM     17  C   UNL A   1      32.496  25.593  23.592  1.00  0.00     0.261 C 
ATOM     18  N   UNL A   1      32.316  26.922  23.894  1.00  0.00    -0.348 N 
ATOM     19  H   UNL A   1      33.052  27.504  23.595  1.00  0.00     0.164 HD
ATOM     20  O   UNL A   1      32.245  25.271  22.421  1.00  0.00    -0.271 OA
BRANCH  18  21
ATOM     21  C   UNL A   1      31.206  27.655  24.599  1.00  0.00     0.034 C 
ATOM     22  C   UNL A   1      31.653  28.086  26.017  1.00  0.00     0.034 C 
ATOM     23  C   UNL A   1      30.083  26.598  24.836  1.00  0.00     0.034 C 
BRANCH  21  24
ATOM     24  C   UNL A   1      30.462  28.808  23.853  1.00  0.00     0.024 C 
ATOM     25  C   UNL A   1      30.650  29.001  22.377  1.00  0.00     0.006 C 
ENDBRANCH  21  24
ENDBRANCH  18  21
ENDBRANCH  15  17
ENDBRANCH  14  15
ENDBRANCH   8  14
ENDBRANCH   5   7
ENDBRANCH   4   5
ENDBRANCH   3   4
ENDBRANCH   2   3
ENDBRANCH   1   2
BRANCH   1  26
ATOM     26  C   UNL A   1      40.111  21.584  26.149  1.00  0.00     0.188 C 
BRANCH  26  27
ATOM     27  C   UNL A   1      40.854  20.788  27.214  1.00  0.00     0.188 C 
BRANCH  27  28
ATOM     28  O   UNL A   1      42.261  20.943  27.190  1.00  0.00    -0.376 OA
BRANCH  28  29
ATOM     29  C   UNL A   1      42.941  20.649  25.970  1.00  0.00     0.202 C 
BRANCH  29  30
ATOM     30  C   UNL A   1      43.752  21.729  25.207  1.00  0.00     0.261 C 
BRANCH  30  31
ATOM     31  O   UNL A   1      43.095  22.970  24.875  1.00  0.00    -0.460 OA
BRANCH  31  32
ATOM     32  C   UNL A   1      43.800  24.115  24.998  1.00  0.00     0.338 C 
ATOM     33  O   UNL A   1      44.709  24.482  24.266  1.00  0.00    -0.246 OA
BRANCH  32  34
ATOM     34  C   UNL A   1      43.123  24.998  25.994  1.00  0.00     0.060 A 
ATOM     35  C   UNL A   1      43.567  26.325  26.097  1.00  0.00     0.016 A 
ATOM     36  C   UNL A   1      42.041  24.576  26.774  1.00  0.00     0.016 A 
ATOM     37  C   UNL A   1      42.968  27.215  26.993  1.00  0.00     0.010 A 
ATOM     38  C   UNL A   1      41.454  25.464  27.693  1.00  0.00     0.010 A 
ATOM     39  C   UNL A   1      41.934  26.780  27.833  1.00  0.00    -0.014 A 
BRANCH  39  40
ATOM     40  C   UNL A   1      41.499  27.634  28.973  1.00  0.00     0.031 A 
ATOM     41  C   UNL A   1      42.247  27.530  30.276  1.00  0.00     0.074 A 
ATOM     42  C   UNL A   1      40.485  28.511  28.866  1.00  0.00     0.049 A 
ATOM     43  N   UNL A   1      42.031  28.133  31.418  1.00  0.00    -0.248 NA
ATOM     44  C   UNL A   1      43.397  26.615  30.287  1.00  0.00     0.031 C 
ATOM     45  C   UNL A   1      39.696  28.750  27.662  1.00  0.00     0.029 A 
ATOM     46  N   UNL A   1      39.935  29.355  29.804  1.00  0.00    -0.354 N 
ATOM     47  C   UNL A   1      43.011  27.664  32.284  1.00  0.00     0.074 A 
ATOM     48  C   UNL A   1      43.797  26.698  31.545  1.00  0.00     0.031 C 
ATOM     49  C   UNL A   1      38.745  29.660  27.939  1.00  0.00     0.029 A 
ATOM     50  C   UNL A   1      38.838  30.043  29.349  1.00  0.00     0.049 A 
ATOM     51  H   UNL A   1      40.295  29.456  30.715  1.00  0.00     0.167 HD
ATOM     52  C   UNL A   1      43.246  28.010  33.574  1.00  0.00     0.037 A 
ATOM     53  C   UNL A   1      37.987  30.864  29.999  1.00  0.00     0.037 A 
ATOM     54  C   UNL A   1      42.457  28.957  34.319  1.00  0.00     0.049 A 
ATOM     55  C   UNL A   1      38.212  31.178  31.457  1.00  0.00     0.074 A 
ATOM     56  C   UNL A   1      42.627  29.384  35.625  1.00  0.00     0.029 A 
ATOM     57  N   UNL A   1      41.336  29.611  33.830  1.00  0.00    -0.354 N 
ATOM     58  N   UNL A   1      39.157  30.754  32.262  1.00  0.00    -0.248 NA
ATOM     59  C   UNL A   1      37.253  32.091  32.097  1.00  0.00     0.031 C 
ATOM     60  C   UNL A   1      41.572  30.244  35.947  1.00  0.00     0.029 A 
ATOM     61  C   UNL A   1      40.783  30.411  34.819  1.00  0.00     0.049 A 
ATOM     62  H   UNL A   1      40.984  29.521  32.916  1.00  0.00     0.167 HD
ATOM     63  C   UNL A   1      38.921  31.362  33.490  1.00  0.00     0.074 A 
ATOM     64  C   UNL A   1      37.752  32.200  33.320  1.00  0.00     0.031 C 
ATOM     65  C   UNL A   1      39.612  31.237  34.651  1.00  0.00     0.037 A 
BRANCH  52  66
ATOM     66  C   UNL A   1      44.386  27.317  34.270  1.00  0.00     0.064 A 
ATOM     67  C   UNL A   1      45.703  27.796  34.194  1.00  0.00     0.173 A 
ATOM     68  C   UNL A   1      44.157  26.150  35.015  1.00  0.00     0.173 A 
ATOM     69  F   UNL A   1      45.981  28.901  33.486  1.00  0.00    -0.203 F 
ATOM     70  C   UNL A   1      46.754  27.106  34.793  1.00  0.00     0.198 A 
ATOM     71  C   UNL A   1      45.205  25.484  35.646  1.00  0.00     0.198 A 
ATOM     72  F   UNL A   1      42.918  25.651  35.129  1.00  0.00    -0.203 F 
ATOM     73  F   UNL A   1      48.012  27.541  34.642  1.00  0.00    -0.200 F 
ATOM     74  C   UNL A   1      46.504  25.954  35.522  1.00  0.00     0.200 A 
ATOM     75  F   UNL A   1      44.958  24.379  36.364  1.00  0.00    -0.200 F 
ATOM     76  F   UNL A   1      47.516  25.287  36.095  1.00  0.00    -0.200 F 
ENDBRANCH  52  66
BRANCH  53  77
ATOM     77  C   UNL A   1      36.818  31.431  29.273  1.00  0.00     0.064 A 
ATOM     78  C   UNL A   1      35.718  30.635  28.927  1.00  0.00     0.173 A 
ATOM     79  C   UNL A   1      36.780  32.787  28.914  1.00  0.00     0.173 A 
ATOM     80  F   UNL A   1      35.722  29.324  29.216  1.00  0.00    -0.203 F 
ATOM     81  C   UNL A   1      34.626  31.172  28.247  1.00  0.00     0.198 A 
ATOM     82  C   UNL A   1      35.675  33.330  28.262  1.00  0.00     0.198 A 
ATOM     83  F   UNL A   1      37.813  33.589  29.211  1.00  0.00    -0.203 F 
ATOM     84  F   UNL A   1      33.605  30.380  27.894  1.00  0.00    -0.200 F 
ATOM     85  C   UNL A   1      34.601  32.521  27.925  1.00  0.00     0.200 A 
ATOM     86  F   UNL A   1      35.653  34.635  27.958  1.00  0.00    -0.200 F 
ATOM     87  F   UNL A   1      33.545  33.039  27.282  1.00  0.00    -0.200 F 
ENDBRANCH  53  77
BRANCH  65  88
ATOM     88  C   UNL A   1      39.143  32.046  35.832  1.00  0.00     0.064 A 
ATOM     89  C   UNL A   1      39.567  33.368  36.040  1.00  0.00     0.173 A 
ATOM     90  C   UNL A   1      38.230  31.503  36.750  1.00  0.00     0.173 A 
ATOM     91  F   UNL A   1      40.447  33.935  35.202  1.00  0.00    -0.203 F 
ATOM     92  C   UNL A   1      39.120  34.102  37.137  1.00  0.00     0.198 A 
ATOM     93  C   UNL A   1      37.757  32.251  37.825  1.00  0.00     0.198 A 
ATOM     94  F   UNL A   1      37.783  30.247  36.597  1.00  0.00    -0.203 F 
ATOM     95  F   UNL A   1      39.582  35.343  37.345  1.00  0.00    -0.200 F 
ATOM     96  C   UNL A   1      38.210  33.546  38.025  1.00  0.00     0.200 A 
ATOM     97  F   UNL A   1      36.865  31.718  38.671  1.00  0.00    -0.200 F 
ATOM     98  F   UNL A   1      37.777  34.255  39.076  1.00  0.00    -0.200 F 
ENDBRANCH  65  88
ENDBRANCH  39  40
ENDBRANCH  32  34
ENDBRANCH  31  32
ENDBRANCH  30  31
ENDBRANCH  29  30
ENDBRANCH  28  29
ENDBRANCH  27  28
ENDBRANCH  26  27
ENDBRANCH   1  26
TORSDOF 22
ENDMDL
MODEL 3
REMARK VINA RESULT:     -10.8      1.330      7.624
REMARK SMILES CCC(C)(C)NC(=O)[C@@H](C)Oc1ccc(C)nc1C(=O)OCCOCCOCCOC(=O)c1ccc(-c2c3nc(c(-c4c(F)c(F)c(F)c(F)c4F)c4ccc([nH]4)c(-c4c(F)c(F)c(F)c(F)c4F)c4nc(c(-c5c(F)c(F)c(F)c(F)c5F)c5ccc2[nH]5)C=C4)C=C3)cc1
REMARK SMILES IDX 24 1 23 2 22 3 21 4 19 5 20 6 18 7 12 8 13 9 14 10 17 11
REMARK SMILES IDX 15 12 16 13 11 14 9 15 10 16 7 17 6 18 8 20 3 21 4 22 5 23
REMARK SMILES IDX 2 24 1 25 25 26 26 27 27 28 28 29 29 30 30 31 31 32 32 33
REMARK SMILES IDX 33 34 34 35 95 36 35 37 94 38 36 39 37 40 38 41 88 42 39 43
REMARK SMILES IDX 93 44 87 45 89 46 40 47 92 48 86 49 85 50 41 52 73 53 53 54
REMARK SMILES IDX 72 55 54 56 57 57 71 58 90 59 55 60 56 61 70 63 91 64 58 65
REMARK SMILES IDX 42 66 43 67 51 68 44 69 45 70 49 71 52 72 46 73 47 74 50 75
REMARK SMILES IDX 48 76 74 77 75 78 83 79 76 80 77 81 81 82 84 83 78 84 79 85
REMARK SMILES IDX 82 86 80 87 59 88 60 89 68 90 61 91 62 92 66 93 69 94 63 95
REMARK SMILES IDX 64 96 67 97 65 98
REMARK H PARENT 6 19 89 51 57 62
REMARK Flexibility Score: inf
ROOT
ATOM      1  O   UNL A   1      40.393  21.423  25.851  1.00  0.00    -0.376 OA
ENDROOT
BRANCH   1   2
ATOM      2  C   UNL A   1      39.099  21.796  26.319  1.00  0.00     0.202 C 
BRANCH   2   3
ATOM      3  C   UNL A   1      37.979  21.892  25.270  1.00  0.00     0.261 C 
BRANCH   3   4
ATOM      4  O   UNL A   1      36.662  21.540  25.743  1.00  0.00    -0.458 OA
BRANCH   4   5
ATOM      5  C   UNL A   1      35.671  21.737  24.829  1.00  0.00     0.360 C 
ATOM      6  O   UNL A   1      35.703  22.535  23.900  1.00  0.00    -0.244 OA
BRANCH   5   7
ATOM      7  C   UNL A   1      34.561  20.753  24.958  1.00  0.00     0.190 A 
ATOM      8  C   UNL A   1      33.247  21.113  25.248  1.00  0.00     0.153 A 
ATOM      9  C   UNL A   1      32.267  20.233  24.810  1.00  0.00     0.051 A 
ATOM     10  C   UNL A   1      32.616  18.940  24.419  1.00  0.00     0.027 A 
ATOM     11  N   UNL A   1      34.924  19.470  24.640  1.00  0.00    -0.243 NA
ATOM     12  C   UNL A   1      33.944  18.560  24.488  1.00  0.00     0.039 A 
ATOM     13  C   UNL A   1      34.333  17.113  24.493  1.00  0.00     0.067 C 
BRANCH   8  14
ATOM     14  O   UNL A   1      32.954  22.225  25.975  1.00  0.00    -0.478 OA
BRANCH  14  15
ATOM     15  C   UNL A   1      31.980  23.156  25.458  1.00  0.00     0.259 C 
ATOM     16  C   UNL A   1      32.334  23.554  24.012  1.00  0.00     0.064 C 
BRANCH  15  17
ATOM     17  C   UNL A   1      31.216  24.342  26.188  1.00  0.00     0.261 C 
ATOM     18  N   UNL A   1      31.053  25.605  25.669  1.00  0.00    -0.348 N 
ATOM     19  H   UNL A   1      30.231  25.717  25.139  1.00  0.00     0.164 HD
ATOM     20  O   UNL A   1      30.552  24.091  27.204  1.00  0.00    -0.271 OA
BRANCH  18  21
ATOM     21  C   UNL A   1      31.896  26.849  25.759  1.00  0.00     0.034 C 
ATOM     22  C   UNL A   1      33.372  26.486  26.049  1.00  0.00     0.034 C 
ATOM     23  C   UNL A   1      31.409  27.601  27.036  1.00  0.00     0.034 C 
BRANCH  21  24
ATOM     24  C   UNL A   1      31.777  27.931  24.639  1.00  0.00     0.024 C 
ATOM     25  C   UNL A   1      32.075  29.371  24.941  1.00  0.00     0.006 C 
ENDBRANCH  21  24
ENDBRANCH  18  21
ENDBRANCH  15  17
ENDBRANCH  14  15
ENDBRANCH   8  14
ENDBRANCH   5   7
ENDBRANCH   4   5
ENDBRANCH   3   4
ENDBRANCH   2   3
ENDBRANCH   1   2
BRANCH   1  26
ATOM     26  C   UNL A   1      41.236  20.744  26.780  1.00  0.00     0.188 C 
BRANCH  26  27
ATOM     27  C   UNL A   1      42.287  19.841  26.149  1.00  0.00     0.188 C 
BRANCH  27  28
ATOM     28  O   UNL A   1      43.105  20.475  25.183  1.00  0.00    -0.376 OA
BRANCH  28  29
ATOM     29  C   UNL A   1      43.745  21.695  25.553  1.00  0.00     0.202 C 
BRANCH  29  30
ATOM     30  C   UNL A   1      44.225  22.719  24.491  1.00  0.00     0.261 C 
BRANCH  30  31
ATOM     31  O   UNL A   1      43.732  24.072  24.573  1.00  0.00    -0.460 OA
BRANCH  31  32
ATOM     32  C   UNL A   1      44.531  25.008  25.127  1.00  0.00     0.338 C 
ATOM     33  O   UNL A   1      45.599  25.401  24.675  1.00  0.00    -0.246 OA
BRANCH  32  34
ATOM     34  C   UNL A   1      43.789  25.692  26.226  1.00  0.00     0.060 A 
ATOM     35  C   UNL A   1      44.032  27.060  26.425  1.00  0.00     0.016 A 
ATOM     36  C   UNL A   1      42.832  25.046  27.016  1.00  0.00     0.016 A 
ATOM     37  C   UNL A   1      43.359  27.772  27.423  1.00  0.00     0.010 A 
ATOM     38  C   UNL A   1      42.173  25.756  28.035  1.00  0.00     0.010 A 
ATOM     39  C   UNL A   1      42.455  27.115  28.268  1.00  0.00    -0.014 A 
BRANCH  39  40
ATOM     40  C   UNL A   1      41.965  27.798  29.498  1.00  0.00     0.031 A 
ATOM     41  C   UNL A   1      40.692  28.598  29.417  1.00  0.00     0.074 A 
ATOM     42  C   UNL A   1      42.604  27.698  30.677  1.00  0.00     0.049 A 
ATOM     43  N   UNL A   1      40.091  29.315  30.334  1.00  0.00    -0.248 NA
ATOM     44  C   UNL A   1      40.005  28.587  28.117  1.00  0.00     0.031 C 
ATOM     45  C   UNL A   1      43.822  26.931  30.917  1.00  0.00     0.029 A 
ATOM     46  N   UNL A   1      42.317  28.268  31.896  1.00  0.00    -0.354 N 
ATOM     47  C   UNL A   1      38.963  29.845  29.720  1.00  0.00     0.074 A 
ATOM     48  C   UNL A   1      38.985  29.399  28.343  1.00  0.00     0.031 C 
ATOM     49  C   UNL A   1      44.195  27.097  32.199  1.00  0.00     0.029 A 
ATOM     50  C   UNL A   1      43.261  28.010  32.860  1.00  0.00     0.049 A 
ATOM     51  H   UNL A   1      41.512  28.810  32.061  1.00  0.00     0.167 HD
ATOM     52  C   UNL A   1      37.989  30.623  30.253  1.00  0.00     0.037 A 
ATOM     53  C   UNL A   1      43.376  28.477  34.120  1.00  0.00     0.037 A 
ATOM     54  C   UNL A   1      37.970  31.085  31.617  1.00  0.00     0.049 A 
ATOM     55  C   UNL A   1      42.328  29.409  34.675  1.00  0.00     0.074 A 
ATOM     56  C   UNL A   1      37.019  31.864  32.253  1.00  0.00     0.029 A 
ATOM     57  N   UNL A   1      38.960  30.824  32.554  1.00  0.00    -0.354 N 
ATOM     58  N   UNL A   1      41.249  29.883  34.099  1.00  0.00    -0.248 NA
ATOM     59  C   UNL A   1      42.512  29.867  36.061  1.00  0.00     0.031 C 
ATOM     60  C   UNL A   1      37.464  32.130  33.552  1.00  0.00     0.029 A 
ATOM     61  C   UNL A   1      38.660  31.457  33.752  1.00  0.00     0.049 A 
ATOM     62  H   UNL A   1      39.758  30.271  32.393  1.00  0.00     0.167 HD
ATOM     63  C   UNL A   1      40.617  30.673  35.053  1.00  0.00     0.074 A 
ATOM     64  C   UNL A   1      41.424  30.601  36.253  1.00  0.00     0.031 C 
ATOM     65  C   UNL A   1      39.471  31.392  34.943  1.00  0.00     0.037 A 
BRANCH  52  66
ATOM     66  C   UNL A   1      36.884  31.060  29.331  1.00  0.00     0.064 A 
ATOM     67  C   UNL A   1      36.828  32.359  28.802  1.00  0.00     0.173 A 
ATOM     68  C   UNL A   1      35.858  30.168  28.980  1.00  0.00     0.173 A 
ATOM     69  F   UNL A   1      37.776  33.257  29.113  1.00  0.00    -0.203 F 
ATOM     70  C   UNL A   1      35.763  32.763  28.000  1.00  0.00     0.198 A 
ATOM     71  C   UNL A   1      34.815  30.565  28.146  1.00  0.00     0.198 A 
ATOM     72  F   UNL A   1      35.863  28.912  29.449  1.00  0.00    -0.203 F 
ATOM     73  F   UNL A   1      35.694  34.031  27.571  1.00  0.00    -0.200 F 
ATOM     74  C   UNL A   1      34.761  31.865  27.669  1.00  0.00     0.200 A 
ATOM     75  F   UNL A   1      33.856  29.689  27.815  1.00  0.00    -0.200 F 
ATOM     76  F   UNL A   1      33.733  32.256  26.902  1.00  0.00    -0.200 F 
ENDBRANCH  52  66
BRANCH  53  77
ATOM     77  C   UNL A   1      44.554  28.086  34.941  1.00  0.00     0.064 A 
ATOM     78  C   UNL A   1      45.736  28.839  34.928  1.00  0.00     0.173 A 
ATOM     79  C   UNL A   1      44.517  26.947  35.760  1.00  0.00     0.173 A 
ATOM     80  F   UNL A   1      45.834  29.917  34.134  1.00  0.00    -0.203 F 
ATOM     81  C   UNL A   1      46.836  28.467  35.700  1.00  0.00     0.198 A 
ATOM     82  C   UNL A   1      45.606  26.593  36.554  1.00  0.00     0.198 A 
ATOM     83  F   UNL A   1      43.414  26.184  35.799  1.00  0.00    -0.203 F 
ATOM     84  F   UNL A   1      47.966  29.184  35.638  1.00  0.00    -0.200 F 
ATOM     85  C   UNL A   1      46.766  27.351  36.520  1.00  0.00     0.200 A 
ATOM     86  F   UNL A   1      45.531  25.517  37.350  1.00  0.00    -0.200 F 
ATOM     87  F   UNL A   1      47.819  27.002  37.270  1.00  0.00    -0.200 F 
ENDBRANCH  53  77
BRANCH  65  88
ATOM     88  C   UNL A   1      38.997  32.140  36.161  1.00  0.00     0.064 A 
ATOM     89  C   UNL A   1      38.170  31.542  37.124  1.00  0.00     0.173 A 
ATOM     90  C   UNL A   1      39.406  33.465  36.386  1.00  0.00     0.173 A 
ATOM     91  F   UNL A   1      37.739  30.283  36.956  1.00  0.00    -0.203 F 
ATOM     92  C   UNL A   1      37.745  32.251  38.246  1.00  0.00     0.198 A 
ATOM     93  C   UNL A   1      39.008  34.158  37.526  1.00  0.00     0.198 A 
ATOM     94  F   UNL A   1      40.205  34.086  35.504  1.00  0.00    -0.203 F 
ATOM     95  F   UNL A   1      36.909  31.676  39.123  1.00  0.00    -0.200 F 
ATOM     96  C   UNL A   1      38.170  33.555  38.450  1.00  0.00     0.200 A 
ATOM     97  F   UNL A   1      39.435  35.413  37.729  1.00  0.00    -0.200 F 
ATOM     98  F   UNL A   1      37.764  34.233  39.532  1.00  0.00    -0.200 F 
ENDBRANCH  65  88
ENDBRANCH  39  40
ENDBRANCH  32  34
ENDBRANCH  31  32
ENDBRANCH  30  31
ENDBRANCH  29  30
ENDBRANCH  28  29
ENDBRANCH  27  28
ENDBRANCH  26  27
ENDBRANCH   1  26
TORSDOF 22
ENDMDL
