MODEL 1
REMARK VINA RESULT:     -12.3      0.000      0.000
REMARK SMILES CC[C@@](C)(NC(=O)Nc1c(C)cccc1Cl)C(=O)OCCOCCOCCOC(=O)c1ccc(-c2c3nc(c(-c4c(F)c(F)c(F)c(F)c4F)c4ccc([nH]4)c(-c4c(F)c(F)c(F)c(F)c4F)c4nc(c(-c5c(F)c(F)c(F)c(F)c5F)c5ccc2[nH]5)C=C4)C=C3)cc1
REMARK SMILES IDX 23 1 22 2 21 3 20 4 19 5 17 6 18 7 3 8 4 9 2 10 1 11 5 12
REMARK SMILES IDX 6 13 7 15 8 16 9 18 10 19 15 20 11 21 12 22 14 23 16 24
REMARK SMILES IDX 13 25 24 26 25 27 26 28 27 29 28 30 29 31 30 32 31 33 32 34
REMARK SMILES IDX 93 35 33 36 92 37 34 38 35 39 36 40 86 41 37 42 91 43 85 44
REMARK SMILES IDX 87 45 38 46 90 47 84 48 83 49 39 51 71 52 51 53 70 54 52 55
REMARK SMILES IDX 55 56 69 57 88 58 53 59 54 60 68 62 89 63 56 64 40 65 41 66
REMARK SMILES IDX 49 67 42 68 43 69 47 70 50 71 44 72 45 73 48 74 46 75 72 76
REMARK SMILES IDX 73 77 81 78 74 79 75 80 79 81 82 82 76 83 77 84 80 85 78 86
REMARK SMILES IDX 57 87 58 88 66 89 59 90 60 91 64 92 67 93 61 94 62 95 65 96
REMARK SMILES IDX 63 97
REMARK H PARENT 5 14 8 17 87 50 55 61
REMARK Flexibility Score: inf
ROOT
ATOM      1  C   UNL A   1      37.976  20.843  25.092  1.00  0.00     0.188 C 
ENDROOT
BRANCH   1   2
ATOM      2  O   UNL A   1      36.585  21.274  24.702  1.00  0.00    -0.376 OA
BRANCH   2   3
ATOM      3  C   UNL A   1      35.335  20.491  25.001  1.00  0.00     0.202 C 
BRANCH   3   4
ATOM      4  C   UNL A   1      33.811  21.324  25.347  1.00  0.00     0.261 C 
BRANCH   4   5
ATOM      5  O   UNL A   1      33.009  22.292  24.341  1.00  0.00    -0.462 OA
BRANCH   5   6
ATOM      6  C   UNL A   1      33.164  23.398  23.392  1.00  0.00     0.331 C 
ATOM      7  O   UNL A   1      34.248  23.646  22.854  1.00  0.00    -0.249 OA
BRANCH   6   8
ATOM      8  C   UNL A   1      31.739  24.458  23.024  1.00  0.00     0.136 C 
ATOM      9  C   UNL A   1      30.407  23.703  23.126  1.00  0.00     0.047 C 
BRANCH   8  10
ATOM     10  C   UNL A   1      31.209  26.044  23.251  1.00  0.00     0.037 C 
ATOM     11  C   UNL A   1      30.033  26.490  24.106  1.00  0.00     0.007 C 
ENDBRANCH   8  10
BRANCH   8  12
ATOM     12  N   UNL A   1      32.165  24.525  21.677  1.00  0.00    -0.322 N 
ATOM     13  C   UNL A   1      32.920  25.610  21.462  1.00  0.00     0.320 C 
ATOM     14  H   UNL A   1      31.936  23.860  20.988  1.00  0.00     0.166 HD
ATOM     15  O   UNL A   1      33.276  25.890  20.321  1.00  0.00    -0.248 OA
ATOM     16  N   UNL A   1      33.198  26.447  22.529  1.00  0.00    -0.306 N 
ATOM     17  H   UNL A   1      33.320  27.324  22.100  1.00  0.00     0.171 HD
BRANCH  16  18
ATOM     18  C   UNL A   1      33.425  26.760  24.050  1.00  0.00     0.064 A 
ATOM     19  C   UNL A   1      33.690  26.230  25.352  1.00  0.00    -0.026 A 
ATOM     20  C   UNL A   1      33.694  28.118  24.095  1.00  0.00     0.064 A 
ATOM     21  C   UNL A   1      34.466  25.022  25.881  1.00  0.00     0.046 C 
ATOM     22  C   UNL A   1      33.656  27.119  26.499  1.00  0.00     0.005 A 
ATOM     23  C   UNL A   1      34.014  28.966  25.141  1.00  0.00     0.023 A 
ATOM     24  Cl  UNL A   1      33.951  28.747  22.607  1.00  0.00    -0.082 Cl
ATOM     25  C   UNL A   1      33.878  28.477  26.392  1.00  0.00     0.002 A 
ENDBRANCH  16  18
ENDBRANCH   8  12
ENDBRANCH   6   8
ENDBRANCH   5   6
ENDBRANCH   4   5
ENDBRANCH   3   4
ENDBRANCH   2   3
ENDBRANCH   1   2
BRANCH   1  26
ATOM     26  C   UNL A   1      38.894  21.905  25.951  1.00  0.00     0.188 C 
BRANCH  26  27
ATOM     27  O   UNL A   1      39.931  21.354  26.765  1.00  0.00    -0.376 OA
BRANCH  27  28
ATOM     28  C   UNL A   1      40.806  20.400  26.209  1.00  0.00     0.202 C 
BRANCH  28  29
ATOM     29  C   UNL A   1      42.119  21.110  25.913  1.00  0.00     0.261 C 
BRANCH  29  30
ATOM     30  O   UNL A   1      42.233  22.347  26.656  1.00  0.00    -0.460 OA
BRANCH  30  31
ATOM     31  C   UNL A   1      42.527  23.446  25.928  1.00  0.00     0.338 C 
ATOM     32  O   UNL A   1      43.104  23.446  24.826  1.00  0.00    -0.246 OA
BRANCH  31  33
ATOM     33  C   UNL A   1      41.939  24.653  26.560  1.00  0.00     0.060 A 
ATOM     34  C   UNL A   1      42.509  25.912  26.314  1.00  0.00     0.016 A 
ATOM     35  C   UNL A   1      40.810  24.555  27.383  1.00  0.00     0.016 A 
ATOM     36  C   UNL A   1      42.015  27.052  26.962  1.00  0.00     0.010 A 
ATOM     37  C   UNL A   1      40.304  25.692  28.016  1.00  0.00     0.010 A 
ATOM     38  C   UNL A   1      40.949  26.932  27.862  1.00  0.00    -0.014 A 
BRANCH  38  39
ATOM     39  C   UNL A   1      40.702  27.975  28.892  1.00  0.00     0.031 A 
ATOM     40  C   UNL A   1      41.558  27.922  30.131  1.00  0.00     0.074 A 
ATOM     41  C   UNL A   1      39.739  28.903  28.776  1.00  0.00     0.049 A 
ATOM     42  N   UNL A   1      41.470  28.606  31.243  1.00  0.00    -0.248 NA
ATOM     43  C   UNL A   1      42.656  26.939  30.117  1.00  0.00     0.031 C 
ATOM     44  C   UNL A   1      38.866  29.082  27.621  1.00  0.00     0.029 A 
ATOM     45  N   UNL A   1      39.321  29.861  29.671  1.00  0.00    -0.354 N 
ATOM     46  C   UNL A   1      42.484  28.120  32.061  1.00  0.00     0.074 A 
ATOM     47  C   UNL A   1      43.147  27.059  31.338  1.00  0.00     0.031 C 
ATOM     48  C   UNL A   1      37.997  30.077  27.884  1.00  0.00     0.029 A 
ATOM     49  C   UNL A   1      38.230  30.576  29.240  1.00  0.00     0.049 A 
ATOM     50  H   UNL A   1      39.762  30.019  30.536  1.00  0.00     0.167 HD
ATOM     51  C   UNL A   1      42.841  28.528  33.300  1.00  0.00     0.037 A 
ATOM     52  C   UNL A   1      37.492  31.502  29.885  1.00  0.00     0.037 A 
ATOM     53  C   UNL A   1      42.182  29.584  34.017  1.00  0.00     0.049 A 
ATOM     54  C   UNL A   1      37.863  31.899  31.296  1.00  0.00     0.074 A 
ATOM     55  C   UNL A   1      42.481  30.096  35.265  1.00  0.00     0.029 A 
ATOM     56  N   UNL A   1      41.077  30.281  33.549  1.00  0.00    -0.354 N 
ATOM     57  N   UNL A   1      38.845  31.465  32.050  1.00  0.00    -0.248 NA
ATOM     58  C   UNL A   1      37.022  32.915  31.945  1.00  0.00     0.031 C 
ATOM     59  C   UNL A   1      41.516  31.057  35.582  1.00  0.00     0.029 A 
ATOM     60  C   UNL A   1      40.661  31.196  34.500  1.00  0.00     0.049 A 
ATOM     61  H   UNL A   1      40.653  30.144  32.671  1.00  0.00     0.167 HD
ATOM     62  C   UNL A   1      38.760  32.176  33.241  1.00  0.00     0.074 A 
ATOM     63  C   UNL A   1      37.635  33.077  33.109  1.00  0.00     0.031 C 
ATOM     64  C   UNL A   1      39.544  32.094  34.346  1.00  0.00     0.037 A 
BRANCH  51  65
ATOM     65  C   UNL A   1      43.971  27.799  33.969  1.00  0.00     0.064 A 
ATOM     66  C   UNL A   1      45.304  28.220  33.845  1.00  0.00     0.173 A 
ATOM     67  C   UNL A   1      43.714  26.659  34.746  1.00  0.00     0.173 A 
ATOM     68  F   UNL A   1      45.606  29.294  33.098  1.00  0.00    -0.203 F 
ATOM     69  C   UNL A   1      46.340  27.508  34.442  1.00  0.00     0.198 A 
ATOM     70  C   UNL A   1      44.748  25.971  35.373  1.00  0.00     0.198 A 
ATOM     71  F   UNL A   1      42.458  26.212  34.898  1.00  0.00    -0.203 F 
ATOM     72  F   UNL A   1      47.610  27.892  34.257  1.00  0.00    -0.200 F 
ATOM     73  C   UNL A   1      46.060  26.389  35.212  1.00  0.00     0.200 A 
ATOM     74  F   UNL A   1      44.475  24.898  36.127  1.00  0.00    -0.200 F 
ATOM     75  F   UNL A   1      47.057  25.705  35.791  1.00  0.00    -0.200 F 
ENDBRANCH  51  65
BRANCH  52  76
ATOM     76  C   UNL A   1      36.309  32.111  29.216  1.00  0.00     0.064 A 
ATOM     77  C   UNL A   1      36.277  33.475  28.895  1.00  0.00     0.173 A 
ATOM     78  C   UNL A   1      35.176  31.344  28.905  1.00  0.00     0.173 A 
ATOM     79  F   UNL A   1      37.324  34.259  29.197  1.00  0.00    -0.203 F 
ATOM     80  C   UNL A   1      35.152  34.053  28.309  1.00  0.00     0.198 A 
ATOM     81  C   UNL A   1      34.064  31.916  28.289  1.00  0.00     0.198 A 
ATOM     82  F   UNL A   1      35.149  30.035  29.194  1.00  0.00    -0.203 F 
ATOM     83  F   UNL A   1      35.129  35.370  28.061  1.00  0.00    -0.200 F 
ATOM     84  C   UNL A   1      34.048  33.272  28.000  1.00  0.00     0.200 A 
ATOM     85  F   UNL A   1      33.006  31.154  27.982  1.00  0.00    -0.200 F 
ATOM     86  F   UNL A   1      32.969  33.825  27.433  1.00  0.00    -0.200 F 
ENDBRANCH  52  76
BRANCH  64  87
ATOM     87  C   UNL A   1      39.252  33.030  35.486  1.00  0.00     0.064 A 
ATOM     88  C   UNL A   1      38.441  32.652  36.566  1.00  0.00     0.173 A 
ATOM     89  C   UNL A   1      39.855  34.297  35.531  1.00  0.00     0.173 A 
ATOM     90  F   UNL A   1      37.832  31.456  36.568  1.00  0.00    -0.203 F 
ATOM     91  C   UNL A   1      38.228  33.516  37.638  1.00  0.00     0.198 A 
ATOM     92  C   UNL A   1      39.668  35.144  36.620  1.00  0.00     0.198 A 
ATOM     93  F   UNL A   1      40.650  34.704  34.530  1.00  0.00    -0.203 F 
ATOM     94  F   UNL A   1      37.414  33.152  38.638  1.00  0.00    -0.200 F 
ATOM     95  C   UNL A   1      38.849  34.756  37.668  1.00  0.00     0.200 A 
ATOM     96  F   UNL A   1      40.287  36.332  36.656  1.00  0.00    -0.200 F 
ATOM     97  F   UNL A   1      38.657  35.579  38.708  1.00  0.00    -0.200 F 
ENDBRANCH  64  87
ENDBRANCH  38  39
ENDBRANCH  31  33
ENDBRANCH  30  31
ENDBRANCH  29  30
ENDBRANCH  28  29
ENDBRANCH  27  28
ENDBRANCH  26  27
ENDBRANCH   1  26
TORSDOF 20
ENDMDL
MODEL 2
REMARK VINA RESULT:     -12.1      3.066      8.089
REMARK SMILES CC[C@@](C)(NC(=O)Nc1c(C)cccc1Cl)C(=O)OCCOCCOCCOC(=O)c1ccc(-c2c3nc(c(-c4c(F)c(F)c(F)c(F)c4F)c4ccc([nH]4)c(-c4c(F)c(F)c(F)c(F)c4F)c4nc(c(-c5c(F)c(F)c(F)c(F)c5F)c5ccc2[nH]5)C=C4)C=C3)cc1
REMARK SMILES IDX 23 1 22 2 21 3 20 4 19 5 17 6 18 7 3 8 4 9 2 10 1 11 5 12
REMARK SMILES IDX 6 13 7 15 8 16 9 18 10 19 15 20 11 21 12 22 14 23 16 24
REMARK SMILES IDX 13 25 24 26 25 27 26 28 27 29 28 30 29 31 30 32 31 33 32 34
REMARK SMILES IDX 93 35 33 36 92 37 34 38 35 39 36 40 86 41 37 42 91 43 85 44
REMARK SMILES IDX 87 45 38 46 90 47 84 48 83 49 39 51 71 52 51 53 70 54 52 55
REMARK SMILES IDX 55 56 69 57 88 58 53 59 54 60 68 62 89 63 56 64 40 65 41 66
REMARK SMILES IDX 49 67 42 68 43 69 47 70 50 71 44 72 45 73 48 74 46 75 72 76
REMARK SMILES IDX 73 77 81 78 74 79 75 80 79 81 82 82 76 83 77 84 80 85 78 86
REMARK SMILES IDX 57 87 58 88 66 89 59 90 60 91 64 92 67 93 61 94 62 95 65 96
REMARK SMILES IDX 63 97
REMARK H PARENT 5 14 8 17 87 50 55 61
REMARK Flexibility Score: inf
ROOT
ATOM      1  C   UNL A   1      32.931  27.970  23.519  1.00  0.00     0.188 C 
ENDROOT
BRANCH   1   2
ATOM      2  O   UNL A   1      31.566  27.991  22.878  1.00  0.00    -0.376 OA
BRANCH   2   3
ATOM      3  C   UNL A   1      30.371  27.236  23.392  1.00  0.00     0.202 C 
BRANCH   3   4
ATOM      4  C   UNL A   1      30.476  25.498  23.720  1.00  0.00     0.261 C 
BRANCH   4   5
ATOM      5  O   UNL A   1      31.743  24.552  23.422  1.00  0.00    -0.462 OA
BRANCH   5   6
ATOM      6  C   UNL A   1      33.166  24.355  23.714  1.00  0.00     0.331 C 
ATOM      7  O   UNL A   1      34.020  24.370  22.823  1.00  0.00    -0.249 OA
BRANCH   6   8
ATOM      8  C   UNL A   1      33.686  24.043  25.424  1.00  0.00     0.136 C 
ATOM      9  C   UNL A   1      32.976  24.962  26.428  1.00  0.00     0.047 C 
BRANCH   8  10
ATOM     10  C   UNL A   1      34.119  22.763  26.435  1.00  0.00     0.037 C 
ATOM     11  C   UNL A   1      33.441  22.373  27.739  1.00  0.00     0.007 C 
ENDBRANCH   8  10
BRANCH   8  12
ATOM     12  N   UNL A   1      34.963  24.557  25.105  1.00  0.00    -0.322 N 
ATOM     13  C   UNL A   1      35.785  23.585  24.687  1.00  0.00     0.320 C 
ATOM     14  H   UNL A   1      35.217  25.506  25.181  1.00  0.00     0.166 HD
ATOM     15  O   UNL A   1      36.969  23.833  24.482  1.00  0.00    -0.248 OA
ATOM     16  N   UNL A   1      35.291  22.296  24.590  1.00  0.00    -0.306 N 
ATOM     17  H   UNL A   1      36.090  21.739  24.735  1.00  0.00     0.171 HD
BRANCH  16  18
ATOM     18  C   UNL A   1      34.153  21.237  24.376  1.00  0.00     0.064 A 
ATOM     19  C   UNL A   1      32.893  20.944  23.764  1.00  0.00    -0.026 A 
ATOM     20  C   UNL A   1      34.717  20.030  24.755  1.00  0.00     0.064 A 
ATOM     21  C   UNL A   1      32.201  21.381  22.471  1.00  0.00     0.046 C 
ATOM     22  C   UNL A   1      32.224  19.696  24.082  1.00  0.00     0.005 A 
ATOM     23  C   UNL A   1      34.227  18.736  24.752  1.00  0.00     0.023 A 
ATOM     24  Cl  UNL A   1      36.335  20.143  24.969  1.00  0.00    -0.082 Cl
ATOM     25  C   UNL A   1      32.906  18.579  24.519  1.00  0.00     0.002 A 
ENDBRANCH  16  18
ENDBRANCH   8  12
ENDBRANCH   6   8
ENDBRANCH   5   6
ENDBRANCH   4   5
ENDBRANCH   3   4
ENDBRANCH   2   3
ENDBRANCH   1   2
BRANCH   1  26
ATOM     26  C   UNL A   1      33.257  29.107  24.663  1.00  0.00     0.188 C 
BRANCH  26  27
ATOM     27  O   UNL A   1      32.220  29.396  25.604  1.00  0.00    -0.376 OA
BRANCH  27  28
ATOM     28  C   UNL A   1      31.306  30.429  25.320  1.00  0.00     0.202 C 
BRANCH  28  29
ATOM     29  C   UNL A   1      31.461  31.483  26.406  1.00  0.00     0.261 C 
BRANCH  29  30
ATOM     30  O   UNL A   1      32.595  31.201  27.260  1.00  0.00    -0.460 OA
BRANCH  30  31
ATOM     31  C   UNL A   1      33.382  32.256  27.563  1.00  0.00     0.338 C 
ATOM     32  O   UNL A   1      33.006  33.440  27.620  1.00  0.00    -0.246 OA
BRANCH  31  33
ATOM     33  C   UNL A   1      34.736  31.792  27.956  1.00  0.00     0.060 A 
ATOM     34  C   UNL A   1      34.972  30.420  28.143  1.00  0.00     0.016 A 
ATOM     35  C   UNL A   1      35.786  32.702  28.125  1.00  0.00     0.016 A 
ATOM     36  C   UNL A   1      36.222  29.971  28.588  1.00  0.00     0.010 A 
ATOM     37  C   UNL A   1      37.038  32.256  28.550  1.00  0.00     0.010 A 
ATOM     38  C   UNL A   1      37.240  30.897  28.851  1.00  0.00    -0.014 A 
BRANCH  38  39
ATOM     39  C   UNL A   1      38.378  30.544  29.738  1.00  0.00     0.031 A 
ATOM     40  C   UNL A   1      39.358  29.525  29.215  1.00  0.00     0.074 A 
ATOM     41  C   UNL A   1      38.529  31.054  30.971  1.00  0.00     0.049 A 
ATOM     42  N   UNL A   1      40.352  28.928  29.819  1.00  0.00    -0.248 NA
ATOM     43  C   UNL A   1      39.169  29.108  27.815  1.00  0.00     0.031 C 
ATOM     44  C   UNL A   1      37.674  32.066  31.583  1.00  0.00     0.029 A 
ATOM     45  N   UNL A   1      39.458  30.760  31.943  1.00  0.00    -0.354 N 
ATOM     46  C   UNL A   1      40.889  28.054  28.880  1.00  0.00     0.074 A 
ATOM     47  C   UNL A   1      40.088  28.167  27.682  1.00  0.00     0.031 C 
ATOM     48  C   UNL A   1      38.103  32.295  32.839  1.00  0.00     0.029 A 
ATOM     49  C   UNL A   1      39.238  31.417  33.129  1.00  0.00     0.049 A 
ATOM     50  H   UNL A   1      40.207  30.138  31.801  1.00  0.00     0.167 HD
ATOM     51  C   UNL A   1      41.961  27.238  28.998  1.00  0.00     0.037 A 
ATOM     52  C   UNL A   1      39.867  31.295  34.316  1.00  0.00     0.037 A 
ATOM     53  C   UNL A   1      42.757  27.129  30.189  1.00  0.00     0.049 A 
ATOM     54  C   UNL A   1      41.021  30.328  34.451  1.00  0.00     0.074 A 
ATOM     55  C   UNL A   1      43.882  26.355  30.405  1.00  0.00     0.029 A 
ATOM     56  N   UNL A   1      42.500  27.807  31.371  1.00  0.00    -0.354 N 
ATOM     57  N   UNL A   1      41.549  29.534  33.550  1.00  0.00    -0.248 NA
ATOM     58  C   UNL A   1      41.667  30.242  35.768  1.00  0.00     0.031 C 
ATOM     59  C   UNL A   1      44.266  26.513  31.740  1.00  0.00     0.029 A 
ATOM     60  C   UNL A   1      43.425  27.443  32.333  1.00  0.00     0.049 A 
ATOM     61  H   UNL A   1      41.768  28.452  31.504  1.00  0.00     0.167 HD
ATOM     62  C   UNL A   1      42.603  28.883  34.180  1.00  0.00     0.074 A 
ATOM     63  C   UNL A   1      42.648  29.380  35.538  1.00  0.00     0.031 C 
ATOM     64  C   UNL A   1      43.461  27.959  33.679  1.00  0.00     0.037 A 
BRANCH  51  65
ATOM     65  C   UNL A   1      42.304  26.374  27.819  1.00  0.00     0.064 A 
ATOM     66  C   UNL A   1      43.276  26.751  26.880  1.00  0.00     0.173 A 
ATOM     67  C   UNL A   1      41.649  25.149  27.627  1.00  0.00     0.173 A 
ATOM     68  F   UNL A   1      43.920  27.922  27.006  1.00  0.00    -0.203 F 
ATOM     69  C   UNL A   1      43.552  25.952  25.773  1.00  0.00     0.198 A 
ATOM     70  C   UNL A   1      41.954  24.334  26.540  1.00  0.00     0.198 A 
ATOM     71  F   UNL A   1      40.711  24.740  28.495  1.00  0.00    -0.203 F 
ATOM     72  F   UNL A   1      44.438  26.363  24.855  1.00  0.00    -0.200 F 
ATOM     73  C   UNL A   1      42.896  24.741  25.609  1.00  0.00     0.200 A 
ATOM     74  F   UNL A   1      41.328  23.159  26.391  1.00  0.00    -0.200 F 
ATOM     75  F   UNL A   1      43.165  23.970  24.547  1.00  0.00    -0.200 F 
ENDBRANCH  51  65
BRANCH  52  76
ATOM     76  C   UNL A   1      39.410  32.094  35.486  1.00  0.00     0.064 A 
ATOM     77  C   UNL A   1      39.884  33.394  35.709  1.00  0.00     0.173 A 
ATOM     78  C   UNL A   1      38.509  31.563  36.421  1.00  0.00     0.173 A 
ATOM     79  F   UNL A   1      40.770  33.939  34.861  1.00  0.00    -0.203 F 
ATOM     80  C   UNL A   1      39.490  34.125  36.829  1.00  0.00     0.198 A 
ATOM     81  C   UNL A   1      38.090  32.306  37.524  1.00  0.00     0.198 A 
ATOM     82  F   UNL A   1      38.027  30.321  36.262  1.00  0.00    -0.203 F 
ATOM     83  F   UNL A   1      39.999  35.346  37.044  1.00  0.00    -0.200 F 
ATOM     84  C   UNL A   1      38.588  33.583  37.733  1.00  0.00     0.200 A 
ATOM     85  F   UNL A   1      37.209  31.782  38.386  1.00  0.00    -0.200 F 
ATOM     86  F   UNL A   1      38.205  34.286  38.806  1.00  0.00    -0.200 F 
ENDBRANCH  52  76
BRANCH  64  87
ATOM     87  C   UNL A   1      44.554  27.453  34.580  1.00  0.00     0.064 A 
ATOM     88  C   UNL A   1      44.410  26.279  35.332  1.00  0.00     0.173 A 
ATOM     89  C   UNL A   1      45.791  28.117  34.630  1.00  0.00     0.173 A 
ATOM     90  F   UNL A   1      43.246  25.611  35.329  1.00  0.00    -0.203 F 
ATOM     91  C   UNL A   1      45.456  25.800  36.119  1.00  0.00     0.198 A 
ATOM     92  C   UNL A   1      46.845  27.617  35.389  1.00  0.00     0.198 A 
ATOM     93  F   UNL A   1      45.986  29.238  33.920  1.00  0.00    -0.203 F 
ATOM     94  F   UNL A   1      45.282  24.700  36.865  1.00  0.00    -0.200 F 
ATOM     95  C   UNL A   1      46.674  26.463  36.138  1.00  0.00     0.200 A 
ATOM     96  F   UNL A   1      48.027  28.248  35.389  1.00  0.00    -0.200 F 
ATOM     97  F   UNL A   1      47.684  25.992  36.882  1.00  0.00    -0.200 F 
ENDBRANCH  64  87
ENDBRANCH  38  39
ENDBRANCH  31  33
ENDBRANCH  30  31
ENDBRANCH  29  30
ENDBRANCH  28  29
ENDBRANCH  27  28
ENDBRANCH  26  27
ENDBRANCH   1  26
TORSDOF 20
ENDMDL
MODEL 3
REMARK VINA RESULT:     -11.9      5.126      7.505
REMARK SMILES CC[C@@](C)(NC(=O)Nc1c(C)cccc1Cl)C(=O)OCCOCCOCCOC(=O)c1ccc(-c2c3nc(c(-c4c(F)c(F)c(F)c(F)c4F)c4ccc([nH]4)c(-c4c(F)c(F)c(F)c(F)c4F)c4nc(c(-c5c(F)c(F)c(F)c(F)c5F)c5ccc2[nH]5)C=C4)C=C3)cc1
REMARK SMILES IDX 23 1 22 2 21 3 20 4 19 5 17 6 18 7 3 8 4 9 2 10 1 11 5 12
REMARK SMILES IDX 6 13 7 15 8 16 9 18 10 19 15 20 11 21 12 22 14 23 16 24
REMARK SMILES IDX 13 25 24 26 25 27 26 28 27 29 28 30 29 31 30 32 31 33 32 34
REMARK SMILES IDX 93 35 33 36 92 37 34 38 35 39 36 40 86 41 37 42 91 43 85 44
REMARK SMILES IDX 87 45 38 46 90 47 84 48 83 49 39 51 71 52 51 53 70 54 52 55
REMARK SMILES IDX 55 56 69 57 88 58 53 59 54 60 68 62 89 63 56 64 40 65 41 66
REMARK SMILES IDX 49 67 42 68 43 69 47 70 50 71 44 72 45 73 48 74 46 75 72 76
REMARK SMILES IDX 73 77 81 78 74 79 75 80 79 81 82 82 76 83 77 84 80 85 78 86
REMARK SMILES IDX 57 87 58 88 66 89 59 90 60 91 64 92 67 93 61 94 62 95 65 96
REMARK SMILES IDX 63 97
REMARK H PARENT 5 14 8 17 87 50 55 61
REMARK Flexibility Score: inf
ROOT
ATOM      1  C   UNL A   1      40.732  21.017  26.763  1.00  0.00     0.188 C 
ENDROOT
BRANCH   1   2
ATOM      2  O   UNL A   1      40.034  22.167  26.082  1.00  0.00    -0.376 OA
BRANCH   2   3
ATOM      3  C   UNL A   1      38.578  22.176  25.704  1.00  0.00     0.202 C 
BRANCH   3   4
ATOM      4  C   UNL A   1      37.523  23.508  26.206  1.00  0.00     0.261 C 
BRANCH   4   5
ATOM      5  O   UNL A   1      35.975  23.692  25.808  1.00  0.00    -0.462 OA
BRANCH   5   6
ATOM      6  C   UNL A   1      34.621  23.191  26.065  1.00  0.00     0.331 C 
ATOM      7  O   UNL A   1      34.046  23.397  27.138  1.00  0.00    -0.249 OA
BRANCH   6   8
ATOM      8  C   UNL A   1      33.780  22.209  24.792  1.00  0.00     0.136 C 
ATOM      9  C   UNL A   1      33.339  20.834  25.311  1.00  0.00     0.047 C 
BRANCH   8  10
ATOM     10  C   UNL A   1      32.715  22.403  23.498  1.00  0.00     0.037 C 
ATOM     11  C   UNL A   1      32.076  21.291  22.681  1.00  0.00     0.007 C 
ENDBRANCH   8  10
BRANCH   8  12
ATOM     12  N   UNL A   1      35.007  22.103  24.097  1.00  0.00    -0.322 N 
ATOM     13  C   UNL A   1      35.196  23.153  23.287  1.00  0.00     0.320 C 
ATOM     14  H   UNL A   1      35.639  21.354  24.195  1.00  0.00     0.166 HD
ATOM     15  O   UNL A   1      36.153  23.166  22.518  1.00  0.00    -0.248 OA
ATOM     16  N   UNL A   1      34.245  24.158  23.271  1.00  0.00    -0.306 N 
ATOM     17  H   UNL A   1      34.322  24.524  22.360  1.00  0.00     0.171 HD
BRANCH  16  18
ATOM     18  C   UNL A   1      33.110  25.032  23.912  1.00  0.00     0.064 A 
ATOM     19  C   UNL A   1      32.687  25.797  25.044  1.00  0.00    -0.026 A 
ATOM     20  C   UNL A   1      32.288  25.376  22.852  1.00  0.00     0.064 A 
ATOM     21  C   UNL A   1      33.406  26.650  26.092  1.00  0.00     0.046 C 
ATOM     22  C   UNL A   1      31.330  26.311  25.085  1.00  0.00     0.005 A 
ATOM     23  C   UNL A   1      31.152  26.164  22.777  1.00  0.00     0.023 A 
ATOM     24  Cl  UNL A   1      32.957  25.010  21.405  1.00  0.00    -0.082 Cl
ATOM     25  C   UNL A   1      30.591  26.547  23.944  1.00  0.00     0.002 A 
ENDBRANCH  16  18
ENDBRANCH   8  12
ENDBRANCH   6   8
ENDBRANCH   5   6
ENDBRANCH   4   5
ENDBRANCH   3   4
ENDBRANCH   2   3
ENDBRANCH   1   2
BRANCH   1  26
ATOM     26  C   UNL A   1      40.582  19.523  26.088  1.00  0.00     0.188 C 
BRANCH  26  27
ATOM     27  O   UNL A   1      41.789  18.868  25.690  1.00  0.00    -0.376 OA
BRANCH  27  28
ATOM     28  C   UNL A   1      42.610  18.285  26.675  1.00  0.00     0.202 C 
BRANCH  28  29
ATOM     29  C   UNL A   1      43.953  17.987  26.027  1.00  0.00     0.261 C 
BRANCH  29  30
ATOM     30  O   UNL A   1      44.017  18.503  24.676  1.00  0.00    -0.460 OA
BRANCH  30  31
ATOM     31  C   UNL A   1      45.050  19.330  24.410  1.00  0.00     0.338 C 
ATOM     32  O   UNL A   1      46.110  19.000  23.849  1.00  0.00    -0.246 OA
BRANCH  31  33
ATOM     33  C   UNL A   1      44.692  20.729  24.755  1.00  0.00     0.060 A 
ATOM     34  C   UNL A   1      44.598  21.692  23.738  1.00  0.00     0.016 A 
ATOM     35  C   UNL A   1      44.426  21.096  26.080  1.00  0.00     0.016 A 
ATOM     36  C   UNL A   1      44.336  23.032  24.054  1.00  0.00     0.010 A 
ATOM     37  C   UNL A   1      44.147  22.426  26.396  1.00  0.00     0.010 A 
ATOM     38  C   UNL A   1      44.170  23.411  25.392  1.00  0.00    -0.014 A 
BRANCH  38  39
ATOM     39  C   UNL A   1      44.356  24.824  25.811  1.00  0.00     0.031 A 
ATOM     40  C   UNL A   1      45.755  25.378  25.734  1.00  0.00     0.074 A 
ATOM     41  C   UNL A   1      43.355  25.584  26.285  1.00  0.00     0.049 A 
ATOM     42  N   UNL A   1      46.233  26.517  26.164  1.00  0.00    -0.248 NA
ATOM     43  C   UNL A   1      46.761  24.507  25.101  1.00  0.00     0.031 C 
ATOM     44  C   UNL A   1      41.956  25.182  26.381  1.00  0.00     0.029 A 
ATOM     45  N   UNL A   1      43.379  26.859  26.801  1.00  0.00    -0.354 N 
ATOM     46  C   UNL A   1      47.592  26.486  25.871  1.00  0.00     0.074 A 
ATOM     47  C   UNL A   1      47.871  25.204  25.267  1.00  0.00     0.031 C 
ATOM     48  C   UNL A   1      41.254  26.183  26.946  1.00  0.00     0.029 A 
ATOM     49  C   UNL A   1      42.164  27.279  27.285  1.00  0.00     0.049 A 
ATOM     50  H   UNL A   1      44.190  27.416  26.821  1.00  0.00     0.167 HD
ATOM     51  C   UNL A   1      48.524  27.445  26.076  1.00  0.00     0.037 A 
ATOM     52  C   UNL A   1      41.839  28.406  27.950  1.00  0.00     0.037 A 
ATOM     53  C   UNL A   1      48.244  28.720  26.675  1.00  0.00     0.049 A 
ATOM     54  C   UNL A   1      42.908  29.438  28.231  1.00  0.00     0.074 A 
ATOM     55  C   UNL A   1      49.108  29.774  26.901  1.00  0.00     0.029 A 
ATOM     56  N   UNL A   1      47.002  29.106  27.156  1.00  0.00    -0.354 N 
ATOM     57  N   UNL A   1      44.182  29.422  27.918  1.00  0.00    -0.248 NA
ATOM     58  C   UNL A   1      42.492  30.646  28.957  1.00  0.00     0.031 C 
ATOM     59  C   UNL A   1      48.405  30.773  27.582  1.00  0.00     0.029 A 
ATOM     60  C   UNL A   1      47.085  30.371  27.711  1.00  0.00     0.049 A 
ATOM     61  H   UNL A   1      46.183  28.561  27.109  1.00  0.00     0.167 HD
ATOM     62  C   UNL A   1      44.707  30.623  28.377  1.00  0.00     0.074 A 
ATOM     63  C   UNL A   1      43.614  31.352  28.983  1.00  0.00     0.031 C 
ATOM     64  C   UNL A   1      45.981  31.086  28.301  1.00  0.00     0.037 A 
BRANCH  51  65
ATOM     65  C   UNL A   1      49.938  27.128  25.682  1.00  0.00     0.064 A 
ATOM     66  C   UNL A   1      50.871  26.626  26.602  1.00  0.00     0.173 A 
ATOM     67  C   UNL A   1      50.365  27.331  24.361  1.00  0.00     0.173 A 
ATOM     68  F   UNL A   1      50.520  26.431  27.883  1.00  0.00    -0.203 F 
ATOM     69  C   UNL A   1      52.188  26.375  26.224  1.00  0.00     0.198 A 
ATOM     70  C   UNL A   1      51.672  27.044  23.977  1.00  0.00     0.198 A 
ATOM     71  F   UNL A   1      49.514  27.810  23.440  1.00  0.00    -0.203 F 
ATOM     72  F   UNL A   1      53.077  25.958  27.135  1.00  0.00    -0.200 F 
ATOM     73  C   UNL A   1      52.584  26.577  24.910  1.00  0.00     0.200 A 
ATOM     74  F   UNL A   1      52.049  27.227  22.705  1.00  0.00    -0.200 F 
ATOM     75  F   UNL A   1      53.850  26.331  24.545  1.00  0.00    -0.200 F 
ENDBRANCH  51  65
BRANCH  52  76
ATOM     76  C   UNL A   1      40.442  28.617  28.420  1.00  0.00     0.064 A 
ATOM     77  C   UNL A   1      40.053  28.272  29.722  1.00  0.00     0.173 A 
ATOM     78  C   UNL A   1      39.461  29.146  27.568  1.00  0.00     0.173 A 
ATOM     79  F   UNL A   1      40.946  27.735  30.568  1.00  0.00    -0.203 F 
ATOM     80  C   UNL A   1      38.735  28.428  30.147  1.00  0.00     0.198 A 
ATOM     81  C   UNL A   1      38.150  29.332  28.004  1.00  0.00     0.198 A 
ATOM     82  F   UNL A   1      39.776  29.489  26.310  1.00  0.00    -0.203 F 
ATOM     83  F   UNL A   1      38.379  28.040  31.380  1.00  0.00    -0.200 F 
ATOM     84  C   UNL A   1      37.785  28.964  29.290  1.00  0.00     0.200 A 
ATOM     85  F   UNL A   1      37.241  29.863  27.176  1.00  0.00    -0.200 F 
ATOM     86  F   UNL A   1      36.519  29.118  29.699  1.00  0.00    -0.200 F 
ENDBRANCH  52  76
BRANCH  64  87
ATOM     87  C   UNL A   1      46.263  32.461  28.842  1.00  0.00     0.064 A 
ATOM     88  C   UNL A   1      46.092  33.613  28.062  1.00  0.00     0.173 A 
ATOM     89  C   UNL A   1      46.639  32.627  30.185  1.00  0.00     0.173 A 
ATOM     90  F   UNL A   1      45.744  33.511  26.770  1.00  0.00    -0.203 F 
ATOM     91  C   UNL A   1      46.308  34.881  28.600  1.00  0.00     0.198 A 
ATOM     92  C   UNL A   1      46.819  33.896  30.729  1.00  0.00     0.198 A 
ATOM     93  F   UNL A   1      46.804  31.559  30.978  1.00  0.00    -0.203 F 
ATOM     94  F   UNL A   1      46.182  35.966  27.824  1.00  0.00    -0.200 F 
ATOM     95  C   UNL A   1      46.661  35.020  29.934  1.00  0.00     0.200 A 
ATOM     96  F   UNL A   1      47.139  34.028  32.023  1.00  0.00    -0.200 F 
ATOM     97  F   UNL A   1      46.851  36.241  30.454  1.00  0.00    -0.200 F 
ENDBRANCH  64  87
ENDBRANCH  38  39
ENDBRANCH  31  33
ENDBRANCH  30  31
ENDBRANCH  29  30
ENDBRANCH  28  29
ENDBRANCH  27  28
ENDBRANCH  26  27
ENDBRANCH   1  26
TORSDOF 20
ENDMDL
