MODEL 1
REMARK VINA RESULT:     -13.7      0.000      0.000
REMARK SMILES Cc1c(NC(=O)c2cccc(-c3cc4ccccc4oc3=O)c2)cccc1C(=O)OCCOCCOCCOC(=O)c1ccc(-c2c3nc(c(-c4c(F)c(F)c(F)c(F)c4F)c4ccc([nH]4)c(-c4c(F)c(F)c(F)c(F)c4F)c4nc(c(-c5c(F)c(F)c(F)c(F)c5F)c5ccc2[nH]5)C=C4)C=C3)cc1
REMARK SMILES IDX 34 1 33 2 32 3 31 4 30 5 28 6 29 7 27 8 1 9 2 10 3 11 24 12
REMARK SMILES IDX 26 13 25 14 4 15 5 16 6 18 7 19 8 20 23 21 9 22 11 23 10 24
REMARK SMILES IDX 12 25 13 26 21 27 14 28 20 29 22 30 15 31 19 32 16 33 18 34
REMARK SMILES IDX 17 35 35 36 36 37 37 38 38 39 39 40 40 41 41 42 42 43 43 44
REMARK SMILES IDX 104 45 44 46 103 47 45 48 46 49 47 50 97 51 48 52 102 53
REMARK SMILES IDX 96 54 98 55 49 56 101 57 95 58 94 59 50 61 82 62 62 63 81 64
REMARK SMILES IDX 63 65 66 66 80 67 99 68 64 69 65 70 79 72 100 73 67 74 51 75
REMARK SMILES IDX 52 76 60 77 53 78 54 79 58 80 61 81 55 82 56 83 59 84 57 85
REMARK SMILES IDX 83 86 84 87 92 88 85 89 86 90 90 91 93 92 87 93 88 94 91 95
REMARK SMILES IDX 89 96 68 97 69 98 77 99 70 100 71 101 75 102 78 103 72 104
REMARK SMILES IDX 73 105 76 106 74 107
REMARK H PARENT 4 17 98 60 66 71
REMARK Flexibility Score: inf
ROOT
ATOM      1  C   UNL A   1      35.004  33.786  28.542  1.00  0.00     0.188 C 
ENDROOT
BRANCH   1   2
ATOM      2  O   UNL A   1      34.506  32.457  28.241  1.00  0.00    -0.376 OA
BRANCH   2   3
ATOM      3  C   UNL A   1      35.321  31.281  28.053  1.00  0.00     0.202 C 
BRANCH   3   4
ATOM      4  C   UNL A   1      34.809  29.805  27.367  1.00  0.00     0.261 C 
BRANCH   4   5
ATOM      5  O   UNL A   1      33.288  29.226  26.694  1.00  0.00    -0.460 OA
BRANCH   5   6
ATOM      6  C   UNL A   1      32.147  29.738  25.961  1.00  0.00     0.338 C 
ATOM      7  O   UNL A   1      31.657  30.857  26.087  1.00  0.00    -0.246 OA
BRANCH   6   8
ATOM      8  C   UNL A   1      31.171  29.044  25.044  1.00  0.00     0.065 A 
ATOM      9  C   UNL A   1      31.029  26.899  26.306  1.00  0.00     0.047 C 
ATOM     10  C   UNL A   1      30.816  27.711  25.070  1.00  0.00    -0.013 A 
ATOM     11  C   UNL A   1      30.201  27.175  23.903  1.00  0.00     0.045 A 
ATOM     12  C   UNL A   1      29.835  27.973  22.801  1.00  0.00     0.026 A 
ATOM     13  C   UNL A   1      30.683  29.852  23.944  1.00  0.00     0.016 A 
ATOM     14  C   UNL A   1      30.036  29.331  22.835  1.00  0.00     0.003 A 
BRANCH  11  15
ATOM     15  N   UNL A   1      29.888  25.814  23.878  1.00  0.00    -0.322 N 
ATOM     16  C   UNL A   1      30.651  24.727  23.530  1.00  0.00     0.255 C 
ATOM     17  H   UNL A   1      28.970  25.598  24.158  1.00  0.00     0.170 HD
ATOM     18  O   UNL A   1      30.064  23.721  23.126  1.00  0.00    -0.269 OA
BRANCH  16  19
ATOM     19  C   UNL A   1      32.129  24.650  23.758  1.00  0.00     0.040 A 
ATOM     20  C   UNL A   1      32.947  24.808  22.633  1.00  0.00     0.014 A 
ATOM     21  C   UNL A   1      32.713  24.219  24.964  1.00  0.00     0.022 A 
ATOM     22  C   UNL A   1      34.312  24.532  22.698  1.00  0.00     0.001 A 
ATOM     23  C   UNL A   1      34.091  23.909  25.032  1.00  0.00    -0.010 A 
ATOM     24  C   UNL A   1      34.878  24.078  23.886  1.00  0.00     0.009 A 
BRANCH  23  25
ATOM     25  C   UNL A   1      34.769  23.259  26.186  1.00  0.00     0.068 A 
ATOM     26  C   UNL A   1      34.173  22.352  26.990  1.00  0.00     0.028 A 
ATOM     27  C   UNL A   1      36.200  22.872  25.964  1.00  0.00     0.344 A 
ATOM     28  C   UNL A   1      34.139  21.046  26.313  1.00  0.00     0.018 A 
ATOM     29  O   UNL A   1      36.357  21.578  25.460  1.00  0.00    -0.422 OA
ATOM     30  O   UNL A   1      37.132  23.642  26.146  1.00  0.00    -0.246 OA
ATOM     31  C   UNL A   1      33.033  20.219  26.368  1.00  0.00     0.012 A 
ATOM     32  C   UNL A   1      35.232  20.727  25.488  1.00  0.00     0.138 A 
ATOM     33  C   UNL A   1      33.006  19.120  25.525  1.00  0.00     0.001 A 
ATOM     34  C   UNL A   1      35.198  19.648  24.626  1.00  0.00     0.048 A 
ATOM     35  C   UNL A   1      34.055  18.863  24.628  1.00  0.00     0.004 A 
ENDBRANCH  23  25
ENDBRANCH  16  19
ENDBRANCH  11  15
ENDBRANCH   6   8
ENDBRANCH   5   6
ENDBRANCH   4   5
ENDBRANCH   3   4
ENDBRANCH   2   3
ENDBRANCH   1   2
BRANCH   1  36
ATOM     36  C   UNL A   1      34.428  35.098  27.984  1.00  0.00     0.188 C 
BRANCH  36  37
ATOM     37  O   UNL A   1      33.893  35.901  29.014  1.00  0.00    -0.376 OA
BRANCH  37  38
ATOM     38  C   UNL A   1      32.942  35.288  29.869  1.00  0.00     0.202 C 
BRANCH  38  39
ATOM     39  C   UNL A   1      32.789  35.977  31.238  1.00  0.00     0.261 C 
BRANCH  39  40
ATOM     40  O   UNL A   1      33.918  35.747  32.111  1.00  0.00    -0.460 OA
BRANCH  40  41
ATOM     41  C   UNL A   1      34.070  34.450  32.559  1.00  0.00     0.338 C 
ATOM     42  O   UNL A   1      33.177  33.749  32.939  1.00  0.00    -0.246 OA
BRANCH  41  43
ATOM     43  C   UNL A   1      35.515  34.077  32.539  1.00  0.00     0.060 A 
ATOM     44  C   UNL A   1      36.488  34.554  31.659  1.00  0.00     0.016 A 
ATOM     45  C   UNL A   1      35.893  33.086  33.377  1.00  0.00     0.016 A 
ATOM     46  C   UNL A   1      37.765  33.884  31.508  1.00  0.00     0.010 A 
ATOM     47  C   UNL A   1      37.085  32.416  33.121  1.00  0.00     0.010 A 
ATOM     48  C   UNL A   1      38.107  32.683  32.164  1.00  0.00    -0.014 A 
BRANCH  48  49
ATOM     49  C   UNL A   1      39.544  31.774  31.822  1.00  0.00     0.031 A 
ATOM     50  C   UNL A   1      39.893  30.225  31.072  1.00  0.00     0.074 A 
ATOM     51  C   UNL A   1      40.660  32.285  32.398  1.00  0.00     0.049 A 
ATOM     52  N   UNL A   1      40.995  29.517  31.278  1.00  0.00    -0.248 NA
ATOM     53  C   UNL A   1      39.095  29.339  30.121  1.00  0.00     0.031 C 
ATOM     54  C   UNL A   1      42.054  31.942  32.134  1.00  0.00     0.029 A 
ATOM     55  N   UNL A   1      40.735  33.128  33.522  1.00  0.00    -0.354 N 
ATOM     56  C   UNL A   1      40.993  28.420  30.397  1.00  0.00     0.074 A 
ATOM     57  C   UNL A   1      39.672  28.160  30.040  1.00  0.00     0.031 C 
ATOM     58  C   UNL A   1      42.783  32.265  33.214  1.00  0.00     0.029 A 
ATOM     59  C   UNL A   1      41.846  32.669  34.244  1.00  0.00     0.049 A 
ATOM     60  H   UNL A   1      40.138  33.877  33.751  1.00  0.00     0.167 HD
ATOM     61  C   UNL A   1      42.090  27.919  29.767  1.00  0.00     0.037 A 
ATOM     62  C   UNL A   1      41.725  32.113  35.480  1.00  0.00     0.037 A 
ATOM     63  C   UNL A   1      43.207  28.123  30.630  1.00  0.00     0.049 A 
ATOM     64  C   UNL A   1      42.425  30.783  35.599  1.00  0.00     0.074 A 
ATOM     65  C   UNL A   1      44.204  29.066  30.709  1.00  0.00     0.029 A 
ATOM     66  N   UNL A   1      43.121  27.500  31.863  1.00  0.00    -0.354 N 
ATOM     67  N   UNL A   1      42.732  30.021  34.584  1.00  0.00    -0.248 NA
ATOM     68  C   UNL A   1      42.855  30.220  36.873  1.00  0.00     0.031 C 
ATOM     69  C   UNL A   1      44.560  29.149  32.090  1.00  0.00     0.029 A 
ATOM     70  C   UNL A   1      43.831  28.204  32.804  1.00  0.00     0.049 A 
ATOM     71  H   UNL A   1      42.621  26.671  32.040  1.00  0.00     0.167 HD
ATOM     72  C   UNL A   1      43.339  28.880  35.040  1.00  0.00     0.074 A 
ATOM     73  C   UNL A   1      43.422  29.070  36.473  1.00  0.00     0.031 C 
ATOM     74  C   UNL A   1      43.689  27.852  34.211  1.00  0.00     0.037 A 
BRANCH  61  75
ATOM     75  C   UNL A   1      42.097  27.266  28.379  1.00  0.00     0.064 A 
ATOM     76  C   UNL A   1      42.297  25.879  28.244  1.00  0.00     0.173 A 
ATOM     77  C   UNL A   1      42.043  27.958  27.134  1.00  0.00     0.173 A 
ATOM     78  F   UNL A   1      42.441  25.104  29.328  1.00  0.00    -0.203 F 
ATOM     79  C   UNL A   1      42.388  25.243  26.992  1.00  0.00     0.198 A 
ATOM     80  C   UNL A   1      42.058  27.314  25.889  1.00  0.00     0.198 A 
ATOM     81  F   UNL A   1      42.048  29.294  27.052  1.00  0.00    -0.203 F 
ATOM     82  F   UNL A   1      42.638  23.927  26.930  1.00  0.00    -0.200 F 
ATOM     83  C   UNL A   1      42.241  25.954  25.817  1.00  0.00     0.200 A 
ATOM     84  F   UNL A   1      41.930  28.035  24.764  1.00  0.00    -0.200 F 
ATOM     85  F   UNL A   1      42.312  25.344  24.625  1.00  0.00    -0.200 F 
ENDBRANCH  61  75
BRANCH  62  86
ATOM     86  C   UNL A   1      40.541  32.576  36.266  1.00  0.00     0.064 A 
ATOM     87  C   UNL A   1      39.381  31.766  36.263  1.00  0.00     0.173 A 
ATOM     88  C   UNL A   1      40.600  33.587  37.237  1.00  0.00     0.173 A 
ATOM     89  F   UNL A   1      39.261  30.774  35.365  1.00  0.00    -0.203 F 
ATOM     90  C   UNL A   1      38.392  31.886  37.240  1.00  0.00     0.198 A 
ATOM     91  C   UNL A   1      39.591  33.721  38.206  1.00  0.00     0.198 A 
ATOM     92  F   UNL A   1      41.674  34.384  37.324  1.00  0.00    -0.203 F 
ATOM     93  F   UNL A   1      37.381  31.006  37.277  1.00  0.00    -0.200 F 
ATOM     94  C   UNL A   1      38.505  32.855  38.218  1.00  0.00     0.200 A 
ATOM     95  F   UNL A   1      39.720  34.623  39.190  1.00  0.00    -0.200 F 
ATOM     96  F   UNL A   1      37.609  32.907  39.215  1.00  0.00    -0.200 F 
ENDBRANCH  62  86
BRANCH  74  97
ATOM     97  C   UNL A   1      43.893  26.418  34.665  1.00  0.00     0.064 A 
ATOM     98  C   UNL A   1      42.837  25.539  34.971  1.00  0.00     0.173 A 
ATOM     99  C   UNL A   1      45.176  25.819  34.633  1.00  0.00     0.173 A 
ATOM    100  F   UNL A   1      41.556  25.919  34.882  1.00  0.00    -0.203 F 
ATOM    101  C   UNL A   1      43.052  24.203  35.314  1.00  0.00     0.198 A 
ATOM    102  C   UNL A   1      45.377  24.462  34.889  1.00  0.00     0.198 A 
ATOM    103  F   UNL A   1      46.272  26.520  34.308  1.00  0.00    -0.203 F 
ATOM    104  F   UNL A   1      42.011  23.434  35.662  1.00  0.00    -0.200 F 
ATOM    105  C   UNL A   1      44.319  23.659  35.259  1.00  0.00     0.200 A 
ATOM    106  F   UNL A   1      46.600  23.931  34.747  1.00  0.00    -0.200 F 
ATOM    107  F   UNL A   1      44.513  22.363  35.533  1.00  0.00    -0.200 F 
ENDBRANCH  74  97
ENDBRANCH  48  49
ENDBRANCH  41  43
ENDBRANCH  40  41
ENDBRANCH  39  40
ENDBRANCH  38  39
ENDBRANCH  37  38
ENDBRANCH  36  37
ENDBRANCH   1  36
TORSDOF 20
ENDMDL
MODEL 2
REMARK VINA RESULT:     -13.6      1.366      2.566
REMARK SMILES Cc1c(NC(=O)c2cccc(-c3cc4ccccc4oc3=O)c2)cccc1C(=O)OCCOCCOCCOC(=O)c1ccc(-c2c3nc(c(-c4c(F)c(F)c(F)c(F)c4F)c4ccc([nH]4)c(-c4c(F)c(F)c(F)c(F)c4F)c4nc(c(-c5c(F)c(F)c(F)c(F)c5F)c5ccc2[nH]5)C=C4)C=C3)cc1
REMARK SMILES IDX 34 1 33 2 32 3 31 4 30 5 28 6 29 7 27 8 1 9 2 10 3 11 24 12
REMARK SMILES IDX 26 13 25 14 4 15 5 16 6 18 7 19 8 20 23 21 9 22 11 23 10 24
REMARK SMILES IDX 12 25 13 26 21 27 14 28 20 29 22 30 15 31 19 32 16 33 18 34
REMARK SMILES IDX 17 35 35 36 36 37 37 38 38 39 39 40 40 41 41 42 42 43 43 44
REMARK SMILES IDX 104 45 44 46 103 47 45 48 46 49 47 50 97 51 48 52 102 53
REMARK SMILES IDX 96 54 98 55 49 56 101 57 95 58 94 59 50 61 82 62 62 63 81 64
REMARK SMILES IDX 63 65 66 66 80 67 99 68 64 69 65 70 79 72 100 73 67 74 51 75
REMARK SMILES IDX 52 76 60 77 53 78 54 79 58 80 61 81 55 82 56 83 59 84 57 85
REMARK SMILES IDX 83 86 84 87 92 88 85 89 86 90 90 91 93 92 87 93 88 94 91 95
REMARK SMILES IDX 89 96 68 97 69 98 77 99 70 100 71 101 75 102 78 103 72 104
REMARK SMILES IDX 73 105 76 106 74 107
REMARK H PARENT 4 17 98 60 66 71
REMARK Flexibility Score: inf
ROOT
ATOM      1  C   UNL A   1      35.256  32.942  28.650  1.00  0.00     0.188 C 
ENDROOT
BRANCH   1   2
ATOM      2  O   UNL A   1      35.941  31.664  28.669  1.00  0.00    -0.376 OA
BRANCH   2   3
ATOM      3  C   UNL A   1      35.913  30.682  27.611  1.00  0.00     0.202 C 
BRANCH   3   4
ATOM      4  C   UNL A   1      34.628  29.613  27.268  1.00  0.00     0.261 C 
BRANCH   4   5
ATOM      5  O   UNL A   1      33.655  29.280  25.839  1.00  0.00    -0.460 OA
BRANCH   5   6
ATOM      6  C   UNL A   1      33.375  28.183  24.932  1.00  0.00     0.338 C 
ATOM      7  O   UNL A   1      34.057  27.862  23.963  1.00  0.00    -0.246 OA
BRANCH   6   8
ATOM      8  C   UNL A   1      32.159  27.303  24.795  1.00  0.00     0.065 A 
ATOM      9  C   UNL A   1      31.578  27.194  27.218  1.00  0.00     0.047 C 
ATOM     10  C   UNL A   1      31.463  26.688  25.817  1.00  0.00    -0.013 A 
ATOM     11  C   UNL A   1      30.609  25.604  25.466  1.00  0.00     0.045 A 
ATOM     12  C   UNL A   1      30.359  25.233  24.130  1.00  0.00     0.026 A 
ATOM     13  C   UNL A   1      31.794  26.968  23.433  1.00  0.00     0.016 A 
ATOM     14  C   UNL A   1      30.920  25.947  23.099  1.00  0.00     0.003 A 
BRANCH  11  15
ATOM     15  N   UNL A   1      29.941  24.923  26.487  1.00  0.00    -0.322 N 
ATOM     16  C   UNL A   1      30.037  23.619  26.905  1.00  0.00     0.255 C 
ATOM     17  H   UNL A   1      29.295  25.469  26.990  1.00  0.00     0.170 HD
ATOM     18  O   UNL A   1      29.057  23.122  27.463  1.00  0.00    -0.269 OA
BRANCH  16  19
ATOM     19  C   UNL A   1      31.310  22.829  26.854  1.00  0.00     0.040 A 
ATOM     20  C   UNL A   1      32.160  22.938  27.961  1.00  0.00     0.014 A 
ATOM     21  C   UNL A   1      31.783  22.184  25.698  1.00  0.00     0.022 A 
ATOM     22  C   UNL A   1      33.457  22.429  27.918  1.00  0.00     0.001 A 
ATOM     23  C   UNL A   1      33.107  21.690  25.634  1.00  0.00    -0.010 A 
ATOM     24  C   UNL A   1      33.929  21.817  26.760  1.00  0.00     0.009 A 
BRANCH  23  25
ATOM     25  C   UNL A   1      33.774  21.176  24.406  1.00  0.00     0.068 A 
ATOM     26  C   UNL A   1      34.510  21.947  23.576  1.00  0.00     0.028 A 
ATOM     27  C   UNL A   1      34.405  19.823  24.529  1.00  0.00     0.344 A 
ATOM     28  C   UNL A   1      35.839  22.172  24.167  1.00  0.00     0.018 A 
ATOM     29  O   UNL A   1      35.741  19.864  24.939  1.00  0.00    -0.422 OA
ATOM     30  O   UNL A   1      33.787  18.783  24.351  1.00  0.00    -0.246 OA
ATOM     31  C   UNL A   1      36.466  23.402  24.115  1.00  0.00     0.012 A 
ATOM     32  C   UNL A   1      36.391  21.115  24.912  1.00  0.00     0.138 A 
ATOM     33  C   UNL A   1      37.605  23.578  24.884  1.00  0.00     0.001 A 
ATOM     34  C   UNL A   1      37.510  21.295  25.703  1.00  0.00     0.048 A 
ATOM     35  C   UNL A   1      38.095  22.552  25.708  1.00  0.00     0.004 A 
ENDBRANCH  23  25
ENDBRANCH  16  19
ENDBRANCH  11  15
ENDBRANCH   6   8
ENDBRANCH   5   6
ENDBRANCH   4   5
ENDBRANCH   3   4
ENDBRANCH   2   3
ENDBRANCH   1   2
BRANCH   1  36
ATOM     36  C   UNL A   1      33.734  33.136  28.753  1.00  0.00     0.188 C 
BRANCH  36  37
ATOM     37  O   UNL A   1      33.356  34.439  28.365  1.00  0.00    -0.376 OA
BRANCH  37  38
ATOM     38  C   UNL A   1      33.977  35.512  29.054  1.00  0.00     0.202 C 
BRANCH  38  39
ATOM     39  C   UNL A   1      33.129  36.101  30.197  1.00  0.00     0.261 C 
BRANCH  39  40
ATOM     40  O   UNL A   1      33.812  36.077  31.471  1.00  0.00    -0.460 OA
BRANCH  40  41
ATOM     41  C   UNL A   1      33.627  34.934  32.224  1.00  0.00     0.338 C 
ATOM     42  O   UNL A   1      32.573  34.558  32.649  1.00  0.00    -0.246 OA
BRANCH  41  43
ATOM     43  C   UNL A   1      34.942  34.270  32.462  1.00  0.00     0.060 A 
ATOM     44  C   UNL A   1      36.180  34.898  32.604  1.00  0.00     0.016 A 
ATOM     45  C   UNL A   1      34.953  32.918  32.410  1.00  0.00     0.016 A 
ATOM     46  C   UNL A   1      37.422  34.157  32.493  1.00  0.00     0.010 A 
ATOM     47  C   UNL A   1      36.166  32.270  32.204  1.00  0.00     0.010 A 
ATOM     48  C   UNL A   1      37.495  32.786  32.169  1.00  0.00    -0.014 A 
BRANCH  48  49
ATOM     49  C   UNL A   1      38.978  31.954  31.829  1.00  0.00     0.031 A 
ATOM     50  C   UNL A   1      39.408  30.412  31.108  1.00  0.00     0.074 A 
ATOM     51  C   UNL A   1      40.069  32.541  32.379  1.00  0.00     0.049 A 
ATOM     52  N   UNL A   1      40.551  29.773  31.315  1.00  0.00    -0.248 NA
ATOM     53  C   UNL A   1      38.651  29.460  30.187  1.00  0.00     0.031 C 
ATOM     54  C   UNL A   1      41.478  32.274  32.104  1.00  0.00     0.029 A 
ATOM     55  N   UNL A   1      40.108  33.412  33.483  1.00  0.00    -0.354 N 
ATOM     56  C   UNL A   1      40.603  28.659  30.457  1.00  0.00     0.074 A 
ATOM     57  C   UNL A   1      39.295  28.314  30.123  1.00  0.00     0.031 C 
ATOM     58  C   UNL A   1      42.199  32.662  33.168  1.00  0.00     0.029 A 
ATOM     59  C   UNL A   1      41.253  33.035  34.201  1.00  0.00     0.049 A 
ATOM     60  H   UNL A   1      39.472  34.130  33.704  1.00  0.00     0.167 HD
ATOM     61  C   UNL A   1      41.719  28.208  29.825  1.00  0.00     0.037 A 
ATOM     62  C   UNL A   1      41.178  32.500  35.450  1.00  0.00     0.037 A 
ATOM     63  C   UNL A   1      42.833  28.495  30.669  1.00  0.00     0.049 A 
ATOM     64  C   UNL A   1      41.955  31.215  35.589  1.00  0.00     0.074 A 
ATOM     65  C   UNL A   1      43.774  29.496  30.714  1.00  0.00     0.029 A 
ATOM     66  N   UNL A   1      42.797  27.896  31.915  1.00  0.00    -0.354 N 
ATOM     67  N   UNL A   1      42.295  30.449  34.587  1.00  0.00    -0.248 NA
ATOM     68  C   UNL A   1      42.432  30.706  36.869  1.00  0.00     0.031 C 
ATOM     69  C   UNL A   1      44.140  29.630  32.088  1.00  0.00     0.029 A 
ATOM     70  C   UNL A   1      43.477  28.661  32.832  1.00  0.00     0.049 A 
ATOM     71  H   UNL A   1      42.348  27.044  32.117  1.00  0.00     0.167 HD
ATOM     72  C   UNL A   1      42.972  29.356  35.059  1.00  0.00     0.074 A 
ATOM     73  C   UNL A   1      43.060  29.583  36.486  1.00  0.00     0.031 C 
ATOM     74  C   UNL A   1      43.371  28.332  34.247  1.00  0.00     0.037 A 
BRANCH  61  75
ATOM     75  C   UNL A   1      41.749  27.526  28.451  1.00  0.00     0.064 A 
ATOM     76  C   UNL A   1      41.851  28.293  27.275  1.00  0.00     0.173 A 
ATOM     77  C   UNL A   1      41.552  26.135  28.208  1.00  0.00     0.173 A 
ATOM     78  F   UNL A   1      41.966  29.627  27.341  1.00  0.00    -0.203 F 
ATOM     79  C   UNL A   1      41.806  27.723  25.989  1.00  0.00     0.198 A 
ATOM     80  C   UNL A   1      41.584  25.559  26.931  1.00  0.00     0.198 A 
ATOM     81  F   UNL A   1      41.245  25.271  29.184  1.00  0.00    -0.203 F 
ATOM     82  F   UNL A   1      41.849  28.513  24.907  1.00  0.00    -0.200 F 
ATOM     83  C   UNL A   1      41.701  26.356  25.817  1.00  0.00     0.200 A 
ATOM     84  F   UNL A   1      41.462  24.230  26.796  1.00  0.00    -0.200 F 
ATOM     85  F   UNL A   1      41.674  25.812  24.592  1.00  0.00    -0.200 F 
ENDBRANCH  61  75
BRANCH  62  86
ATOM     86  C   UNL A   1      39.978  32.911  36.242  1.00  0.00     0.064 A 
ATOM     87  C   UNL A   1      38.988  31.935  36.506  1.00  0.00     0.173 A 
ATOM     88  C   UNL A   1      39.909  34.096  36.989  1.00  0.00     0.173 A 
ATOM     89  F   UNL A   1      38.998  30.773  35.832  1.00  0.00    -0.203 F 
ATOM     90  C   UNL A   1      38.054  32.088  37.530  1.00  0.00     0.198 A 
ATOM     91  C   UNL A   1      38.953  34.257  38.005  1.00  0.00     0.198 A 
ATOM     92  F   UNL A   1      40.823  35.061  36.817  1.00  0.00    -0.203 F 
ATOM     93  F   UNL A   1      37.225  31.078  37.833  1.00  0.00    -0.200 F 
ATOM     94  C   UNL A   1      38.045  33.244  38.288  1.00  0.00     0.200 A 
ATOM     95  F   UNL A   1      38.973  35.352  38.779  1.00  0.00    -0.200 F 
ATOM     96  F   UNL A   1      37.216  33.350  39.337  1.00  0.00    -0.200 F 
ENDBRANCH  62  86
BRANCH  74  97
ATOM     97  C   UNL A   1      43.663  26.923  34.730  1.00  0.00     0.064 A 
ATOM     98  C   UNL A   1      44.945  26.476  35.100  1.00  0.00     0.173 A 
ATOM     99  C   UNL A   1      42.612  26.015  35.010  1.00  0.00     0.173 A 
ATOM    100  F   UNL A   1      46.014  27.280  35.048  1.00  0.00    -0.203 F 
ATOM    101  C   UNL A   1      45.172  25.196  35.612  1.00  0.00     0.198 A 
ATOM    102  C   UNL A   1      42.832  24.772  35.604  1.00  0.00     0.198 A 
ATOM    103  F   UNL A   1      41.331  26.323  34.758  1.00  0.00    -0.203 F 
ATOM    104  F   UNL A   1      46.425  24.805  35.881  1.00  0.00    -0.200 F 
ATOM    105  C   UNL A   1      44.116  24.350  35.879  1.00  0.00     0.200 A 
ATOM    106  F   UNL A   1      41.789  23.998  35.937  1.00  0.00    -0.200 F 
ATOM    107  F   UNL A   1      44.333  23.146  36.423  1.00  0.00    -0.200 F 
ENDBRANCH  74  97
ENDBRANCH  48  49
ENDBRANCH  41  43
ENDBRANCH  40  41
ENDBRANCH  39  40
ENDBRANCH  38  39
ENDBRANCH  37  38
ENDBRANCH  36  37
ENDBRANCH   1  36
TORSDOF 20
ENDMDL
MODEL 3
REMARK VINA RESULT:     -13.0      4.457      8.531
REMARK SMILES Cc1c(NC(=O)c2cccc(-c3cc4ccccc4oc3=O)c2)cccc1C(=O)OCCOCCOCCOC(=O)c1ccc(-c2c3nc(c(-c4c(F)c(F)c(F)c(F)c4F)c4ccc([nH]4)c(-c4c(F)c(F)c(F)c(F)c4F)c4nc(c(-c5c(F)c(F)c(F)c(F)c5F)c5ccc2[nH]5)C=C4)C=C3)cc1
REMARK SMILES IDX 34 1 33 2 32 3 31 4 30 5 28 6 29 7 27 8 1 9 2 10 3 11 24 12
REMARK SMILES IDX 26 13 25 14 4 15 5 16 6 18 7 19 8 20 23 21 9 22 11 23 10 24
REMARK SMILES IDX 12 25 13 26 21 27 14 28 20 29 22 30 15 31 19 32 16 33 18 34
REMARK SMILES IDX 17 35 35 36 36 37 37 38 38 39 39 40 40 41 41 42 42 43 43 44
REMARK SMILES IDX 104 45 44 46 103 47 45 48 46 49 47 50 97 51 48 52 102 53
REMARK SMILES IDX 96 54 98 55 49 56 101 57 95 58 94 59 50 61 82 62 62 63 81 64
REMARK SMILES IDX 63 65 66 66 80 67 99 68 64 69 65 70 79 72 100 73 67 74 51 75
REMARK SMILES IDX 52 76 60 77 53 78 54 79 58 80 61 81 55 82 56 83 59 84 57 85
REMARK SMILES IDX 83 86 84 87 92 88 85 89 86 90 90 91 93 92 87 93 88 94 91 95
REMARK SMILES IDX 89 96 68 97 69 98 77 99 70 100 71 101 75 102 78 103 72 104
REMARK SMILES IDX 73 105 76 106 74 107
REMARK H PARENT 4 17 98 60 66 71
REMARK Flexibility Score: inf
ROOT
ATOM      1  C   UNL A   1      35.940  33.461  28.376  1.00  0.00     0.188 C 
ENDROOT
BRANCH   1   2
ATOM      2  O   UNL A   1      34.920  32.752  27.629  1.00  0.00    -0.376 OA
BRANCH   2   3
ATOM      3  C   UNL A   1      34.174  31.611  28.105  1.00  0.00     0.202 C 
BRANCH   3   4
ATOM      4  C   UNL A   1      33.909  30.158  27.250  1.00  0.00     0.261 C 
BRANCH   4   5
ATOM      5  O   UNL A   1      33.346  29.774  25.626  1.00  0.00    -0.460 OA
BRANCH   5   6
ATOM      6  C   UNL A   1      32.101  29.521  24.927  1.00  0.00     0.338 C 
ATOM      7  O   UNL A   1      31.112  30.249  24.937  1.00  0.00    -0.246 OA
BRANCH   6   8
ATOM      8  C   UNL A   1      31.609  28.294  24.201  1.00  0.00     0.065 A 
ATOM      9  C   UNL A   1      33.473  28.141  22.552  1.00  0.00     0.047 C 
ATOM     10  C   UNL A   1      32.099  27.783  23.016  1.00  0.00    -0.013 A 
ATOM     11  C   UNL A   1      31.266  26.875  22.302  1.00  0.00     0.045 A 
ATOM     12  C   UNL A   1      30.046  26.395  22.818  1.00  0.00     0.026 A 
ATOM     13  C   UNL A   1      30.408  27.698  24.749  1.00  0.00     0.016 A 
ATOM     14  C   UNL A   1      29.630  26.773  24.072  1.00  0.00     0.003 A 
BRANCH  11  15
ATOM     15  N   UNL A   1      31.710  26.390  21.070  1.00  0.00    -0.322 N 
ATOM     16  C   UNL A   1      32.727  25.520  20.764  1.00  0.00     0.255 C 
ATOM     17  H   UNL A   1      31.211  26.728  20.292  1.00  0.00     0.170 HD
ATOM     18  O   UNL A   1      33.240  25.607  19.647  1.00  0.00    -0.269 OA
BRANCH  16  19
ATOM     19  C   UNL A   1      33.134  24.384  21.652  1.00  0.00     0.040 A 
ATOM     20  C   UNL A   1      32.710  23.106  21.271  1.00  0.00     0.014 A 
ATOM     21  C   UNL A   1      33.710  24.554  22.925  1.00  0.00     0.022 A 
ATOM     22  C   UNL A   1      32.841  22.021  22.137  1.00  0.00     0.001 A 
ATOM     23  C   UNL A   1      33.821  23.466  23.822  1.00  0.00    -0.010 A 
ATOM     24  C   UNL A   1      33.385  22.203  23.406  1.00  0.00     0.009 A 
BRANCH  23  25
ATOM     25  C   UNL A   1      34.222  23.570  25.251  1.00  0.00     0.068 A 
ATOM     26  C   UNL A   1      33.741  24.507  26.097  1.00  0.00     0.028 A 
ATOM     27  C   UNL A   1      34.376  22.267  25.977  1.00  0.00     0.344 A 
ATOM     28  C   UNL A   1      32.389  24.124  26.535  1.00  0.00     0.018 A 
ATOM     29  O   UNL A   1      33.201  21.829  26.594  1.00  0.00    -0.422 OA
ATOM     30  O   UNL A   1      35.415  21.623  25.971  1.00  0.00    -0.246 OA
ATOM     31  C   UNL A   1      31.367  25.047  26.651  1.00  0.00     0.012 A 
ATOM     32  C   UNL A   1      32.139  22.751  26.702  1.00  0.00     0.138 A 
ATOM     33  C   UNL A   1      30.084  24.566  26.853  1.00  0.00     0.001 A 
ATOM     34  C   UNL A   1      30.857  22.265  26.875  1.00  0.00     0.048 A 
ATOM     35  C   UNL A   1      29.823  23.187  26.915  1.00  0.00     0.004 A 
ENDBRANCH  23  25
ENDBRANCH  16  19
ENDBRANCH  11  15
ENDBRANCH   6   8
ENDBRANCH   5   6
ENDBRANCH   4   5
ENDBRANCH   3   4
ENDBRANCH   2   3
ENDBRANCH   1   2
BRANCH   1  36
ATOM     36  C   UNL A   1      35.917  33.712  29.893  1.00  0.00     0.188 C 
BRANCH  36  37
ATOM     37  O   UNL A   1      37.053  33.158  30.522  1.00  0.00    -0.376 OA
BRANCH  37  38
ATOM     38  C   UNL A   1      36.828  32.446  31.727  1.00  0.00     0.202 C 
BRANCH  38  39
ATOM     39  C   UNL A   1      36.020  31.146  31.548  1.00  0.00     0.261 C 
BRANCH  39  40
ATOM     40  O   UNL A   1      36.845  29.961  31.612  1.00  0.00    -0.460 OA
BRANCH  40  41
ATOM     41  C   UNL A   1      37.159  29.388  30.396  1.00  0.00     0.338 C 
ATOM     42  O   UNL A   1      36.384  29.217  29.499  1.00  0.00    -0.246 OA
BRANCH  41  43
ATOM     43  C   UNL A   1      38.593  28.975  30.389  1.00  0.00     0.060 A 
ATOM     44  C   UNL A   1      39.500  29.093  31.443  1.00  0.00     0.016 A 
ATOM     45  C   UNL A   1      39.095  28.559  29.204  1.00  0.00     0.016 A 
ATOM     46  C   UNL A   1      40.930  28.979  31.227  1.00  0.00     0.010 A 
ATOM     47  C   UNL A   1      40.475  28.565  29.026  1.00  0.00     0.010 A 
ATOM     48  C   UNL A   1      41.524  28.814  29.959  1.00  0.00    -0.014 A 
BRANCH  48  49
ATOM     49  C   UNL A   1      43.234  28.892  29.679  1.00  0.00     0.031 A 
ATOM     50  C   UNL A   1      44.317  30.006  28.861  1.00  0.00     0.074 A 
ATOM     51  C   UNL A   1      43.894  27.760  30.029  1.00  0.00     0.049 A 
ATOM     52  N   UNL A   1      45.516  29.687  28.392  1.00  0.00    -0.248 NA
ATOM     53  C   UNL A   1      44.176  31.471  28.461  1.00  0.00     0.031 C 
ATOM     54  C   UNL A   1      45.332  27.555  30.168  1.00  0.00     0.029 A 
ATOM     55  N   UNL A   1      43.363  26.463  30.155  1.00  0.00    -0.354 N 
ATOM     56  C   UNL A   1      46.147  30.863  27.944  1.00  0.00     0.074 A 
ATOM     57  C   UNL A   1      45.156  31.795  27.645  1.00  0.00     0.031 C 
ATOM     58  C   UNL A   1      45.592  26.247  30.020  1.00  0.00     0.029 A 
ATOM     59  C   UNL A   1      44.348  25.616  29.625  1.00  0.00     0.049 A 
ATOM     60  H   UNL A   1      42.491  26.206  30.533  1.00  0.00     0.167 HD
ATOM     61  C   UNL A   1      47.471  31.142  28.083  1.00  0.00     0.037 A 
ATOM     62  C   UNL A   1      44.142  24.888  28.493  1.00  0.00     0.037 A 
ATOM     63  C   UNL A   1      48.177  29.903  28.029  1.00  0.00     0.049 A 
ATOM     64  C   UNL A   1      45.239  25.062  27.473  1.00  0.00     0.074 A 
ATOM     65  C   UNL A   1      48.690  29.045  28.972  1.00  0.00     0.029 A 
ATOM     66  N   UNL A   1      48.028  29.191  26.852  1.00  0.00    -0.354 N 
ATOM     67  N   UNL A   1      46.053  26.082  27.436  1.00  0.00    -0.248 NA
ATOM     68  C   UNL A   1      45.518  24.084  26.429  1.00  0.00     0.031 C 
ATOM     69  C   UNL A   1      48.632  27.741  28.392  1.00  0.00     0.029 A 
ATOM     70  C   UNL A   1      48.162  27.845  27.088  1.00  0.00     0.049 A 
ATOM     71  H   UNL A   1      47.850  29.593  25.971  1.00  0.00     0.167 HD
ATOM     72  C   UNL A   1      46.912  25.940  26.378  1.00  0.00     0.074 A 
ATOM     73  C   UNL A   1      46.557  24.659  25.803  1.00  0.00     0.031 C 
ATOM     74  C   UNL A   1      47.818  26.902  26.032  1.00  0.00     0.037 A 
BRANCH  61  75
ATOM     75  C   UNL A   1      48.070  32.542  28.270  1.00  0.00     0.064 A 
ATOM     76  C   UNL A   1      48.979  33.061  27.329  1.00  0.00     0.173 A 
ATOM     77  C   UNL A   1      47.894  33.376  29.412  1.00  0.00     0.173 A 
ATOM     78  F   UNL A   1      49.302  32.356  26.235  1.00  0.00    -0.203 F 
ATOM     79  C   UNL A   1      49.613  34.307  27.491  1.00  0.00     0.198 A 
ATOM     80  C   UNL A   1      48.468  34.649  29.538  1.00  0.00     0.198 A 
ATOM     81  F   UNL A   1      47.222  32.976  30.499  1.00  0.00    -0.203 F 
ATOM     82  F   UNL A   1      50.515  34.718  26.588  1.00  0.00    -0.200 F 
ATOM     83  C   UNL A   1      49.338  35.112  28.579  1.00  0.00     0.200 A 
ATOM     84  F   UNL A   1      48.194  35.400  30.615  1.00  0.00    -0.200 F 
ATOM     85  F   UNL A   1      49.931  36.305  28.726  1.00  0.00    -0.200 F 
ENDBRANCH  61  75
BRANCH  62  86
ATOM     86  C   UNL A   1      42.715  24.532  28.224  1.00  0.00     0.064 A 
ATOM     87  C   UNL A   1      41.964  25.386  27.382  1.00  0.00     0.173 A 
ATOM     88  C   UNL A   1      42.165  23.270  28.493  1.00  0.00     0.173 A 
ATOM     89  F   UNL A   1      42.434  26.607  27.076  1.00  0.00    -0.203 F 
ATOM     90  C   UNL A   1      40.789  24.964  26.760  1.00  0.00     0.198 A 
ATOM     91  C   UNL A   1      40.970  22.856  27.884  1.00  0.00     0.198 A 
ATOM     92  F   UNL A   1      42.824  22.392  29.262  1.00  0.00    -0.203 F 
ATOM     93  F   UNL A   1      40.186  25.759  25.864  1.00  0.00    -0.200 F 
ATOM     94  C   UNL A   1      40.299  23.694  27.001  1.00  0.00     0.200 A 
ATOM     95  F   UNL A   1      40.518  21.607  28.070  1.00  0.00    -0.200 F 
ATOM     96  F   UNL A   1      39.228  23.251  26.327  1.00  0.00    -0.200 F 
ENDBRANCH  62  86
BRANCH  74  97
ATOM     97  C   UNL A   1      48.428  27.045  24.649  1.00  0.00     0.064 A 
ATOM     98  C   UNL A   1      47.744  27.592  23.548  1.00  0.00     0.173 A 
ATOM     99  C   UNL A   1      49.806  26.796  24.431  1.00  0.00     0.173 A 
ATOM    100  F   UNL A   1      46.483  28.031  23.649  1.00  0.00    -0.203 F 
ATOM    101  C   UNL A   1      48.356  27.781  22.307  1.00  0.00     0.198 A 
ATOM    102  C   UNL A   1      50.434  27.069  23.215  1.00  0.00     0.198 A 
ATOM    103  F   UNL A   1      50.597  26.321  25.404  1.00  0.00    -0.203 F 
ATOM    104  F   UNL A   1      47.633  28.242  21.277  1.00  0.00    -0.200 F 
ATOM    105  C   UNL A   1      49.703  27.534  22.143  1.00  0.00     0.200 A 
ATOM    106  F   UNL A   1      51.760  26.906  23.099  1.00  0.00    -0.200 F 
ATOM    107  F   UNL A   1      50.298  27.771  20.967  1.00  0.00    -0.200 F 
ENDBRANCH  74  97
ENDBRANCH  48  49
ENDBRANCH  41  43
ENDBRANCH  40  41
ENDBRANCH  39  40
ENDBRANCH  38  39
ENDBRANCH  37  38
ENDBRANCH  36  37
ENDBRANCH   1  36
TORSDOF 20
ENDMDL
