MODEL 1
REMARK VINA RESULT:     -13.1      0.000      0.000
REMARK SMILES O=C(OCCOCCOCCOC(=O)[C@H]1Cc2c([nH]c3ccccc23)[C@H](c2c[nH]c3ccccc23)[NH2+]1)c1ccc(-c2c3nc(c(-c4c(F)c(F)c(F)c(F)c4F)c4ccc([nH]4)c(-c4c(F)c(F)c(F)c(F)c4F)c4nc(c(-c5c(F)c(F)c(F)c(F)c5F)c5ccc2[nH]5)C=C4)C=C3)cc1
REMARK SMILES IDX 7 1 6 2 5 3 4 4 3 5 2 6 1 7 37 8 38 9 99 10 39 11 98 12
REMARK SMILES IDX 40 13 41 14 42 15 92 16 43 17 97 18 91 19 93 20 44 21 96 22
REMARK SMILES IDX 90 23 89 24 45 26 77 27 57 28 76 29 58 30 61 31 75 32 94 33
REMARK SMILES IDX 59 34 60 35 74 37 95 38 62 39 46 40 47 41 55 42 48 43 49 44
REMARK SMILES IDX 53 45 56 46 50 47 51 48 54 49 52 50 78 51 79 52 87 53 80 54
REMARK SMILES IDX 81 55 85 56 88 57 82 58 83 59 86 60 84 61 63 62 64 63 72 64
REMARK SMILES IDX 65 65 66 66 70 67 73 68 67 69 68 70 71 71 69 72 8 73 9 74
REMARK SMILES IDX 10 75 11 76 12 77 13 78 14 79 15 80 16 81 36 82 17 83 26 84
REMARK SMILES IDX 18 87 25 88 19 89 20 90 24 91 21 93 23 94 22 95 27 96 28 97
REMARK SMILES IDX 35 98 29 99 30 100 34 101 31 103 33 104 32 105
REMARK H PARENT 93 25 61 36 36 85 36 86 19 92 29 102
REMARK Flexibility Score: inf
ROOT
ATOM      1  C   UNL A   1      44.680  20.755  25.802  1.00  0.00     0.188 C 
ENDROOT
BRANCH   1   2
ATOM      2  O   UNL A   1      46.030  20.832  25.323  1.00  0.00    -0.376 OA
BRANCH   2   3
ATOM      3  C   UNL A   1      46.253  21.902  24.399  1.00  0.00     0.202 C 
BRANCH   3   4
ATOM      4  C   UNL A   1      46.296  23.299  25.030  1.00  0.00     0.261 C 
BRANCH   4   5
ATOM      5  O   UNL A   1      45.275  24.161  24.514  1.00  0.00    -0.460 OA
BRANCH   5   6
ATOM      6  C   UNL A   1      43.975  24.184  24.893  1.00  0.00     0.338 C 
ATOM      7  O   UNL A   1      43.188  23.398  24.371  1.00  0.00    -0.246 OA
BRANCH   6   8
ATOM      8  C   UNL A   1      43.445  25.100  25.947  1.00  0.00     0.060 A 
ATOM      9  C   UNL A   1      43.664  26.478  26.011  1.00  0.00     0.016 A 
ATOM     10  C   UNL A   1      42.540  24.541  26.855  1.00  0.00     0.016 A 
ATOM     11  C   UNL A   1      43.079  27.264  27.007  1.00  0.00     0.010 A 
ATOM     12  C   UNL A   1      41.849  25.350  27.763  1.00  0.00     0.010 A 
ATOM     13  C   UNL A   1      42.152  26.712  27.892  1.00  0.00    -0.014 A 
BRANCH  13  14
ATOM     14  C   UNL A   1      41.616  27.506  29.034  1.00  0.00     0.031 A 
ATOM     15  C   UNL A   1      42.400  27.523  30.323  1.00  0.00     0.074 A 
ATOM     16  C   UNL A   1      40.469  28.208  28.942  1.00  0.00     0.049 A 
ATOM     17  N   UNL A   1      42.051  27.946  31.510  1.00  0.00    -0.248 NA
ATOM     18  C   UNL A   1      43.729  26.893  30.287  1.00  0.00     0.031 C 
ATOM     19  C   UNL A   1      39.578  28.258  27.780  1.00  0.00     0.029 A 
ATOM     20  N   UNL A   1      39.869  29.044  29.850  1.00  0.00    -0.354 N 
ATOM     21  C   UNL A   1      43.053  27.507  32.367  1.00  0.00     0.074 A 
ATOM     22  C   UNL A   1      43.984  26.738  31.574  1.00  0.00     0.031 C 
ATOM     23  C   UNL A   1      38.595  29.144  28.015  1.00  0.00     0.029 A 
ATOM     24  C   UNL A   1      38.756  29.684  29.362  1.00  0.00     0.049 A 
ATOM     25  H   UNL A   1      40.205  29.172  30.767  1.00  0.00     0.167 HD
ATOM     26  C   UNL A   1      43.215  27.762  33.687  1.00  0.00     0.037 A 
ATOM     27  C   UNL A   1      37.971  30.609  29.947  1.00  0.00     0.037 A 
ATOM     28  C   UNL A   1      42.394  28.689  34.413  1.00  0.00     0.049 A 
ATOM     29  C   UNL A   1      38.269  31.021  31.366  1.00  0.00     0.074 A 
ATOM     30  C   UNL A   1      42.509  29.110  35.725  1.00  0.00     0.029 A 
ATOM     31  N   UNL A   1      41.338  29.392  33.852  1.00  0.00    -0.354 N 
ATOM     32  N   UNL A   1      39.203  30.585  32.178  1.00  0.00    -0.248 NA
ATOM     33  C   UNL A   1      37.400  32.052  31.951  1.00  0.00     0.031 C 
ATOM     34  C   UNL A   1      41.529  30.085  35.951  1.00  0.00     0.029 A 
ATOM     35  C   UNL A   1      40.817  30.278  34.777  1.00  0.00     0.049 A 
ATOM     36  H   UNL A   1      41.008  29.277  32.931  1.00  0.00     0.167 HD
ATOM     37  C   UNL A   1      39.050  31.302  33.357  1.00  0.00     0.074 A 
ATOM     38  C   UNL A   1      37.944  32.216  33.149  1.00  0.00     0.031 C 
ATOM     39  C   UNL A   1      39.748  31.206  34.515  1.00  0.00     0.037 A 
BRANCH  26  40
ATOM     40  C   UNL A   1      44.334  27.046  34.388  1.00  0.00     0.064 A 
ATOM     41  C   UNL A   1      45.634  27.575  34.448  1.00  0.00     0.173 A 
ATOM     42  C   UNL A   1      44.122  25.771  34.937  1.00  0.00     0.173 A 
ATOM     43  F   UNL A   1      45.894  28.783  33.926  1.00  0.00    -0.203 F 
ATOM     44  C   UNL A   1      46.692  26.822  34.948  1.00  0.00     0.198 A 
ATOM     45  C   UNL A   1      45.177  25.039  35.477  1.00  0.00     0.198 A 
ATOM     46  F   UNL A   1      42.899  25.221  34.922  1.00  0.00    -0.203 F 
ATOM     47  F   UNL A   1      47.942  27.305  34.884  1.00  0.00    -0.200 F 
ATOM     48  C   UNL A   1      46.464  25.555  35.460  1.00  0.00     0.200 A 
ATOM     49  F   UNL A   1      44.954  23.820  35.987  1.00  0.00    -0.200 F 
ATOM     50  F   UNL A   1      47.489  24.822  35.918  1.00  0.00    -0.200 F 
ENDBRANCH  26  40
BRANCH  27  51
ATOM     51  C   UNL A   1      36.865  31.254  29.193  1.00  0.00     0.064 A 
ATOM     52  C   UNL A   1      36.935  32.615  28.859  1.00  0.00     0.173 A 
ATOM     53  C   UNL A   1      35.703  30.555  28.843  1.00  0.00     0.173 A 
ATOM     54  F   UNL A   1      38.014  33.334  29.204  1.00  0.00    -0.203 F 
ATOM     55  C   UNL A   1      35.872  33.259  28.229  1.00  0.00     0.198 A 
ATOM     56  C   UNL A   1      34.645  31.199  28.202  1.00  0.00     0.198 A 
ATOM     57  F   UNL A   1      35.584  29.256  29.149  1.00  0.00    -0.203 F 
ATOM     58  F   UNL A   1      35.943  34.574  27.977  1.00  0.00    -0.200 F 
ATOM     59  C   UNL A   1      34.728  32.550  27.898  1.00  0.00     0.200 A 
ATOM     60  F   UNL A   1      33.524  30.521  27.917  1.00  0.00    -0.200 F 
ATOM     61  F   UNL A   1      33.697  33.175  27.313  1.00  0.00    -0.200 F 
ENDBRANCH  27  51
BRANCH  39  62
ATOM     62  C   UNL A   1      39.384  32.153  35.616  1.00  0.00     0.064 A 
ATOM     63  C   UNL A   1      38.451  31.806  36.602  1.00  0.00     0.173 A 
ATOM     64  C   UNL A   1      40.029  33.394  35.721  1.00  0.00     0.173 A 
ATOM     65  F   UNL A   1      37.799  30.635  36.533  1.00  0.00    -0.203 F 
ATOM     66  C   UNL A   1      38.167  32.675  37.651  1.00  0.00     0.198 A 
ATOM     67  C   UNL A   1      39.761  34.251  36.784  1.00  0.00     0.198 A 
ATOM     68  F   UNL A   1      40.934  33.766  34.802  1.00  0.00    -0.203 F 
ATOM     69  F   UNL A   1      37.249  32.339  38.568  1.00  0.00    -0.200 F 
ATOM     70  C   UNL A   1      38.828  33.892  37.746  1.00  0.00     0.200 A 
ATOM     71  F   UNL A   1      40.409  35.420  36.881  1.00  0.00    -0.200 F 
ATOM     72  F   UNL A   1      38.564  34.721  38.764  1.00  0.00    -0.200 F 
ENDBRANCH  39  62
ENDBRANCH  13  14
ENDBRANCH   6   8
ENDBRANCH   5   6
ENDBRANCH   4   5
ENDBRANCH   3   4
ENDBRANCH   2   3
ENDBRANCH   1   2
BRANCH   1  73
ATOM     73  C   UNL A   1      43.983  19.489  25.301  1.00  0.00     0.188 C 
BRANCH  73  74
ATOM     74  O   UNL A   1      42.596  19.622  24.999  1.00  0.00    -0.376 OA
BRANCH  74  75
ATOM     75  C   UNL A   1      41.665  19.299  26.023  1.00  0.00     0.202 C 
BRANCH  75  76
ATOM     76  C   UNL A   1      40.759  20.420  26.554  1.00  0.00     0.261 C 
BRANCH  76  77
ATOM     77  O   UNL A   1      39.537  20.670  25.839  1.00  0.00    -0.459 OA
BRANCH  77  78
ATOM     78  C   UNL A   1      39.002  21.915  26.052  1.00  0.00     0.365 C 
ATOM     79  O   UNL A   1      39.465  22.734  26.834  1.00  0.00    -0.245 OA
BRANCH  78  80
ATOM     80  C   UNL A   1      37.681  22.101  25.276  1.00  0.00     0.298 C 
ATOM     81  C   UNL A   1      37.221  20.637  25.014  1.00  0.00     0.115 C 
ATOM     82  N   UNL A   1      36.776  22.966  26.073  1.00  0.00    -0.323 N 
ATOM     83  C   UNL A   1      35.749  20.497  25.043  1.00  0.00    -0.006 A 
ATOM     84  C   UNL A   1      35.338  22.925  25.820  1.00  0.00     0.264 C 
ATOM     85  H   UNL A   1      37.077  23.929  25.924  1.00  0.00     0.347 HD
ATOM     86  H   UNL A   1      36.864  22.598  27.021  1.00  0.00     0.347 HD
ATOM     87  C   UNL A   1      34.934  21.535  25.433  1.00  0.00     0.083 A 
ATOM     88  C   UNL A   1      34.927  19.365  24.782  1.00  0.00     0.003 A 
ATOM     89  N   UNL A   1      33.651  21.060  25.464  1.00  0.00    -0.353 N 
ATOM     90  C   UNL A   1      33.610  19.762  25.013  1.00  0.00     0.046 A 
ATOM     91  C   UNL A   1      35.168  18.034  24.389  1.00  0.00     0.010 A 
ATOM     92  H   UNL A   1      32.869  21.574  25.767  1.00  0.00     0.166 HD
ATOM     93  C   UNL A   1      32.514  18.917  24.824  1.00  0.00     0.026 A 
ATOM     94  C   UNL A   1      34.083  17.168  24.214  1.00  0.00     0.001 A 
ATOM     95  C   UNL A   1      32.777  17.608  24.417  1.00  0.00     0.002 A 
BRANCH  84  96
ATOM     96  C   UNL A   1      34.785  23.974  24.856  1.00  0.00     0.041 A 
ATOM     97  C   UNL A   1      34.658  23.740  23.487  1.00  0.00     0.093 A 
ATOM     98  C   UNL A   1      34.162  25.266  25.060  1.00  0.00     0.009 A 
ATOM     99  N   UNL A   1      34.184  24.853  22.865  1.00  0.00    -0.361 N 
ATOM    100  C   UNL A   1      33.830  25.784  23.799  1.00  0.00     0.046 A 
ATOM    101  C   UNL A   1      33.801  26.048  26.176  1.00  0.00     0.011 A 
ATOM    102  H   UNL A   1      34.109  24.969  21.890  1.00  0.00     0.166 HD
ATOM    103  C   UNL A   1      33.213  27.023  23.592  1.00  0.00     0.026 A 
ATOM    104  C   UNL A   1      33.083  27.236  25.987  1.00  0.00     0.001 A 
ATOM    105  C   UNL A   1      32.821  27.735  24.716  1.00  0.00     0.002 A 
ENDBRANCH  84  96
ENDBRANCH  78  80
ENDBRANCH  77  78
ENDBRANCH  76  77
ENDBRANCH  75  76
ENDBRANCH  74  75
ENDBRANCH  73  74
ENDBRANCH   1  73
TORSDOF 18
ENDMDL
MODEL 2
REMARK VINA RESULT:     -13.1      4.794      7.357
REMARK SMILES O=C(OCCOCCOCCOC(=O)[C@H]1Cc2c([nH]c3ccccc23)[C@H](c2c[nH]c3ccccc23)[NH2+]1)c1ccc(-c2c3nc(c(-c4c(F)c(F)c(F)c(F)c4F)c4ccc([nH]4)c(-c4c(F)c(F)c(F)c(F)c4F)c4nc(c(-c5c(F)c(F)c(F)c(F)c5F)c5ccc2[nH]5)C=C4)C=C3)cc1
REMARK SMILES IDX 7 1 6 2 5 3 4 4 3 5 2 6 1 7 37 8 38 9 99 10 39 11 98 12
REMARK SMILES IDX 40 13 41 14 42 15 92 16 43 17 97 18 91 19 93 20 44 21 96 22
REMARK SMILES IDX 90 23 89 24 45 26 77 27 57 28 76 29 58 30 61 31 75 32 94 33
REMARK SMILES IDX 59 34 60 35 74 37 95 38 62 39 46 40 47 41 55 42 48 43 49 44
REMARK SMILES IDX 53 45 56 46 50 47 51 48 54 49 52 50 78 51 79 52 87 53 80 54
REMARK SMILES IDX 81 55 85 56 88 57 82 58 83 59 86 60 84 61 63 62 64 63 72 64
REMARK SMILES IDX 65 65 66 66 70 67 73 68 67 69 68 70 71 71 69 72 8 73 9 74
REMARK SMILES IDX 10 75 11 76 12 77 13 78 14 79 15 80 16 81 36 82 17 83 26 84
REMARK SMILES IDX 18 87 25 88 19 89 20 90 24 91 21 93 23 94 22 95 27 96 28 97
REMARK SMILES IDX 35 98 29 99 30 100 34 101 31 103 33 104 32 105
REMARK H PARENT 93 25 61 36 36 85 36 86 19 92 29 102
REMARK Flexibility Score: inf
ROOT
ATOM      1  C   UNL A   1      41.590  19.600  27.251  1.00  0.00     0.188 C 
ENDROOT
BRANCH   1   2
ATOM      2  O   UNL A   1      42.607  18.764  27.821  1.00  0.00    -0.376 OA
BRANCH   2   3
ATOM      3  C   UNL A   1      43.295  17.957  26.859  1.00  0.00     0.202 C 
BRANCH   3   4
ATOM      4  C   UNL A   1      43.238  18.483  25.420  1.00  0.00     0.261 C 
BRANCH   4   5
ATOM      5  O   UNL A   1      44.487  18.328  24.735  1.00  0.00    -0.460 OA
BRANCH   5   6
ATOM      6  C   UNL A   1      45.164  19.293  24.069  1.00  0.00     0.338 C 
ATOM      7  O   UNL A   1      45.791  18.992  23.057  1.00  0.00    -0.246 OA
BRANCH   6   8
ATOM      8  C   UNL A   1      45.165  20.728  24.485  1.00  0.00     0.060 A 
ATOM      9  C   UNL A   1      44.585  21.781  23.775  1.00  0.00     0.016 A 
ATOM     10  C   UNL A   1      45.670  21.003  25.760  1.00  0.00     0.016 A 
ATOM     11  C   UNL A   1      44.589  23.086  24.273  1.00  0.00     0.010 A 
ATOM     12  C   UNL A   1      45.550  22.280  26.315  1.00  0.00     0.010 A 
ATOM     13  C   UNL A   1      45.062  23.353  25.557  1.00  0.00    -0.014 A 
BRANCH  13  14
ATOM     14  C   UNL A   1      45.189  24.754  26.051  1.00  0.00     0.031 A 
ATOM     15  C   UNL A   1      46.492  25.479  25.821  1.00  0.00     0.074 A 
ATOM     16  C   UNL A   1      44.178  25.384  26.683  1.00  0.00     0.049 A 
ATOM     17  N   UNL A   1      46.929  26.600  26.332  1.00  0.00    -0.248 NA
ATOM     18  C   UNL A   1      47.474  24.798  24.963  1.00  0.00     0.031 C 
ATOM     19  C   UNL A   1      42.875  24.806  27.018  1.00  0.00     0.029 A 
ATOM     20  N   UNL A   1      44.087  26.677  27.135  1.00  0.00    -0.354 N 
ATOM     21  C   UNL A   1      48.268  26.674  25.967  1.00  0.00     0.074 A 
ATOM     22  C   UNL A   1      48.580  25.461  25.249  1.00  0.00     0.031 C 
ATOM     23  C   UNL A   1      42.089  25.762  27.543  1.00  0.00     0.029 A 
ATOM     24  C   UNL A   1      42.849  27.005  27.631  1.00  0.00     0.049 A 
ATOM     25  H   UNL A   1      44.841  27.311  27.106  1.00  0.00     0.167 HD
ATOM     26  C   UNL A   1      49.148  27.684  26.167  1.00  0.00     0.037 A 
ATOM     27  C   UNL A   1      42.393  28.185  28.090  1.00  0.00     0.037 A 
ATOM     28  C   UNL A   1      48.771  28.960  26.703  1.00  0.00     0.049 A 
ATOM     29  C   UNL A   1      43.338  29.359  28.142  1.00  0.00     0.074 A 
ATOM     30  C   UNL A   1      49.540  30.097  26.869  1.00  0.00     0.029 A 
ATOM     31  N   UNL A   1      47.480  29.281  27.100  1.00  0.00    -0.354 N 
ATOM     32  N   UNL A   1      44.608  29.416  27.818  1.00  0.00    -0.248 NA
ATOM     33  C   UNL A   1      42.785  30.631  28.626  1.00  0.00     0.031 C 
ATOM     34  C   UNL A   1      48.706  31.114  27.350  1.00  0.00     0.029 A 
ATOM     35  C   UNL A   1      47.419  30.612  27.469  1.00  0.00     0.049 A 
ATOM     36  H   UNL A   1      46.721  28.654  27.116  1.00  0.00     0.167 HD
ATOM     37  C   UNL A   1      45.000  30.730  28.037  1.00  0.00     0.074 A 
ATOM     38  C   UNL A   1      43.827  31.443  28.503  1.00  0.00     0.031 C 
ATOM     39  C   UNL A   1      46.220  31.297  27.881  1.00  0.00     0.037 A 
BRANCH  26  40
ATOM     40  C   UNL A   1      50.575  27.432  25.771  1.00  0.00     0.064 A 
ATOM     41  C   UNL A   1      51.036  27.662  24.463  1.00  0.00     0.173 A 
ATOM     42  C   UNL A   1      51.476  26.874  26.691  1.00  0.00     0.173 A 
ATOM     43  F   UNL A   1      50.212  28.181  23.541  1.00  0.00    -0.203 F 
ATOM     44  C   UNL A   1      52.310  27.262  24.071  1.00  0.00     0.198 A 
ATOM     45  C   UNL A   1      52.766  26.516  26.305  1.00  0.00     0.198 A 
ATOM     46  F   UNL A   1      51.098  26.647  27.957  1.00  0.00    -0.203 F 
ATOM     47  F   UNL A   1      52.681  27.385  22.788  1.00  0.00    -0.200 F 
ATOM     48  C   UNL A   1      53.173  26.689  24.990  1.00  0.00     0.200 A 
ATOM     49  F   UNL A   1      53.607  25.976  27.198  1.00  0.00    -0.200 F 
ATOM     50  F   UNL A   1      54.391  26.282  24.604  1.00  0.00    -0.200 F 
ENDBRANCH  26  40
BRANCH  27  51
ATOM     51  C   UNL A   1      40.971  28.347  28.489  1.00  0.00     0.064 A 
ATOM     52  C   UNL A   1      40.043  28.902  27.593  1.00  0.00     0.173 A 
ATOM     53  C   UNL A   1      40.519  28.012  29.772  1.00  0.00     0.173 A 
ATOM     54  F   UNL A   1      40.436  29.271  26.365  1.00  0.00    -0.203 F 
ATOM     55  C   UNL A   1      38.725  29.142  27.977  1.00  0.00     0.198 A 
ATOM     56  C   UNL A   1      39.197  28.242  30.149  1.00  0.00     0.198 A 
ATOM     57  F   UNL A   1      41.369  27.488  30.666  1.00  0.00    -0.203 F 
ATOM     58  F   UNL A   1      37.877  29.729  27.121  1.00  0.00    -0.200 F 
ATOM     59  C   UNL A   1      38.301  28.809  29.254  1.00  0.00     0.200 A 
ATOM     60  F   UNL A   1      38.799  27.956  31.396  1.00  0.00    -0.200 F 
ATOM     61  F   UNL A   1      37.040  29.062  29.629  1.00  0.00    -0.200 F 
ENDBRANCH  27  51
BRANCH  39  62
ATOM     62  C   UNL A   1      46.335  32.765  28.153  1.00  0.00     0.064 A 
ATOM     63  C   UNL A   1      46.747  33.250  29.402  1.00  0.00     0.173 A 
ATOM     64  C   UNL A   1      46.095  33.692  27.128  1.00  0.00     0.173 A 
ATOM     65  F   UNL A   1      46.973  32.399  30.414  1.00  0.00    -0.203 F 
ATOM     66  C   UNL A   1      46.903  34.615  29.619  1.00  0.00     0.198 A 
ATOM     67  C   UNL A   1      46.275  35.055  27.341  1.00  0.00     0.198 A 
ATOM     68  F   UNL A   1      45.703  33.273  25.914  1.00  0.00    -0.203 F 
ATOM     69  F   UNL A   1      47.268  35.062  30.828  1.00  0.00    -0.200 F 
ATOM     70  C   UNL A   1      46.676  35.515  28.587  1.00  0.00     0.200 A 
ATOM     71  F   UNL A   1      46.067  35.922  26.341  1.00  0.00    -0.200 F 
ATOM     72  F   UNL A   1      46.841  36.828  28.794  1.00  0.00    -0.200 F 
ENDBRANCH  39  62
ENDBRANCH  13  14
ENDBRANCH   6   8
ENDBRANCH   5   6
ENDBRANCH   4   5
ENDBRANCH   3   4
ENDBRANCH   2   3
ENDBRANCH   1   2
BRANCH   1  73
ATOM     73  C   UNL A   1      41.844  21.075  27.561  1.00  0.00     0.188 C 
BRANCH  73  74
ATOM     74  O   UNL A   1      40.743  21.793  28.115  1.00  0.00    -0.376 OA
BRANCH  74  75
ATOM     75  C   UNL A   1      39.986  22.617  27.239  1.00  0.00     0.202 C 
BRANCH  75  76
ATOM     76  C   UNL A   1      39.321  21.958  26.022  1.00  0.00     0.261 C 
BRANCH  76  77
ATOM     77  O   UNL A   1      37.891  21.811  26.055  1.00  0.00    -0.459 OA
BRANCH  77  78
ATOM     78  C   UNL A   1      37.199  22.925  25.654  1.00  0.00     0.365 C 
ATOM     79  O   UNL A   1      37.628  24.068  25.746  1.00  0.00    -0.245 OA
BRANCH  78  80
ATOM     80  C   UNL A   1      35.772  22.566  25.190  1.00  0.00     0.298 C 
ATOM     81  C   UNL A   1      35.902  21.067  24.792  1.00  0.00     0.115 C 
ATOM     82  N   UNL A   1      34.816  22.902  26.275  1.00  0.00    -0.323 N 
ATOM     83  C   UNL A   1      34.671  20.299  25.083  1.00  0.00    -0.006 A 
ATOM     84  C   UNL A   1      33.507  22.255  26.303  1.00  0.00     0.264 C 
ATOM     85  H   UNL A   1      34.652  23.906  26.226  1.00  0.00     0.347 HD
ATOM     86  H   UNL A   1      35.275  22.551  27.117  1.00  0.00     0.347 HD
ATOM     87  C   UNL A   1      33.626  20.855  25.785  1.00  0.00     0.083 A 
ATOM     88  C   UNL A   1      34.348  18.941  24.810  1.00  0.00     0.003 A 
ATOM     89  N   UNL A   1      32.700  19.868  25.988  1.00  0.00    -0.353 N 
ATOM     90  C   UNL A   1      33.084  18.712  25.352  1.00  0.00     0.046 A 
ATOM     91  C   UNL A   1      35.008  17.874  24.171  1.00  0.00     0.010 A 
ATOM     92  H   UNL A   1      31.875  19.971  26.515  1.00  0.00     0.166 HD
ATOM     93  C   UNL A   1      32.419  17.487  25.247  1.00  0.00     0.026 A 
ATOM     94  C   UNL A   1      34.366  16.634  24.074  1.00  0.00     0.001 A 
ATOM     95  C   UNL A   1      33.087  16.449  24.594  1.00  0.00     0.002 A 
BRANCH  84  96
ATOM     96  C   UNL A   1      32.357  23.016  25.644  1.00  0.00     0.041 A 
ATOM     97  C   UNL A   1      31.114  23.173  26.258  1.00  0.00     0.093 A 
ATOM     98  C   UNL A   1      32.270  23.824  24.445  1.00  0.00     0.009 A 
ATOM     99  N   UNL A   1      30.268  23.848  25.434  1.00  0.00    -0.361 N 
ATOM    100  C   UNL A   1      30.953  24.297  24.342  1.00  0.00     0.046 A 
ATOM    101  C   UNL A   1      33.171  24.247  23.446  1.00  0.00     0.011 A 
ATOM    102  H   UNL A   1      29.308  23.989  25.601  1.00  0.00     0.166 HD
ATOM    103  C   UNL A   1      30.487  25.112  23.305  1.00  0.00     0.026 A 
ATOM    104  C   UNL A   1      32.743  25.152  22.467  1.00  0.00     0.001 A 
ATOM    105  C   UNL A   1      31.416  25.554  22.375  1.00  0.00     0.002 A 
ENDBRANCH  84  96
ENDBRANCH  78  80
ENDBRANCH  77  78
ENDBRANCH  76  77
ENDBRANCH  75  76
ENDBRANCH  74  75
ENDBRANCH  73  74
ENDBRANCH   1  73
TORSDOF 18
ENDMDL
MODEL 3
REMARK VINA RESULT:     -12.9      0.989      3.456
REMARK SMILES O=C(OCCOCCOCCOC(=O)[C@H]1Cc2c([nH]c3ccccc23)[C@H](c2c[nH]c3ccccc23)[NH2+]1)c1ccc(-c2c3nc(c(-c4c(F)c(F)c(F)c(F)c4F)c4ccc([nH]4)c(-c4c(F)c(F)c(F)c(F)c4F)c4nc(c(-c5c(F)c(F)c(F)c(F)c5F)c5ccc2[nH]5)C=C4)C=C3)cc1
REMARK SMILES IDX 7 1 6 2 5 3 4 4 3 5 2 6 1 7 37 8 38 9 99 10 39 11 98 12
REMARK SMILES IDX 40 13 41 14 42 15 92 16 43 17 97 18 91 19 93 20 44 21 96 22
REMARK SMILES IDX 90 23 89 24 45 26 77 27 57 28 76 29 58 30 61 31 75 32 94 33
REMARK SMILES IDX 59 34 60 35 74 37 95 38 62 39 46 40 47 41 55 42 48 43 49 44
REMARK SMILES IDX 53 45 56 46 50 47 51 48 54 49 52 50 78 51 79 52 87 53 80 54
REMARK SMILES IDX 81 55 85 56 88 57 82 58 83 59 86 60 84 61 63 62 64 63 72 64
REMARK SMILES IDX 65 65 66 66 70 67 73 68 67 69 68 70 71 71 69 72 8 73 9 74
REMARK SMILES IDX 10 75 11 76 12 77 13 78 14 79 15 80 16 81 36 82 17 83 26 84
REMARK SMILES IDX 18 87 25 88 19 89 20 90 24 91 21 93 23 94 22 95 27 96 28 97
REMARK SMILES IDX 35 98 29 99 30 100 34 101 31 103 33 104 32 105
REMARK H PARENT 93 25 61 36 36 85 36 86 19 92 29 102
REMARK Flexibility Score: inf
ROOT
ATOM      1  C   UNL A   1      43.888  18.784  25.669  1.00  0.00     0.188 C 
ENDROOT
BRANCH   1   2
ATOM      2  O   UNL A   1      43.939  19.314  24.337  1.00  0.00    -0.376 OA
BRANCH   2   3
ATOM      3  C   UNL A   1      44.564  20.599  24.251  1.00  0.00     0.202 C 
BRANCH   3   4
ATOM      4  C   UNL A   1      44.146  21.592  25.342  1.00  0.00     0.261 C 
BRANCH   4   5
ATOM      5  O   UNL A   1      43.487  22.745  24.805  1.00  0.00    -0.460 OA
BRANCH   5   6
ATOM      6  C   UNL A   1      43.786  24.038  25.071  1.00  0.00     0.338 C 
ATOM      7  O   UNL A   1      44.538  24.644  24.311  1.00  0.00    -0.246 OA
BRANCH   6   8
ATOM      8  C   UNL A   1      43.222  24.788  26.233  1.00  0.00     0.060 A 
ATOM      9  C   UNL A   1      42.529  24.223  27.306  1.00  0.00     0.016 A 
ATOM     10  C   UNL A   1      43.545  26.146  26.309  1.00  0.00     0.016 A 
ATOM     11  C   UNL A   1      42.086  25.001  28.378  1.00  0.00     0.010 A 
ATOM     12  C   UNL A   1      43.222  26.894  27.445  1.00  0.00     0.010 A 
ATOM     13  C   UNL A   1      42.436  26.348  28.469  1.00  0.00    -0.014 A 
BRANCH  13  14
ATOM     14  C   UNL A   1      41.868  27.217  29.539  1.00  0.00     0.031 A 
ATOM     15  C   UNL A   1      42.615  27.326  30.845  1.00  0.00     0.074 A 
ATOM     16  C   UNL A   1      40.722  27.905  29.367  1.00  0.00     0.049 A 
ATOM     17  N   UNL A   1      42.233  27.828  31.990  1.00  0.00    -0.248 NA
ATOM     18  C   UNL A   1      43.946  26.700  30.888  1.00  0.00     0.031 C 
ATOM     19  C   UNL A   1      39.863  27.872  28.181  1.00  0.00     0.029 A 
ATOM     20  N   UNL A   1      40.095  28.800  30.199  1.00  0.00    -0.354 N 
ATOM     21  C   UNL A   1      43.213  27.453  32.902  1.00  0.00     0.074 A 
ATOM     22  C   UNL A   1      44.166  26.635  32.189  1.00  0.00     0.031 C 
ATOM     23  C   UNL A   1      38.872  28.768  28.328  1.00  0.00     0.029 A 
ATOM     24  C   UNL A   1      38.995  29.400  29.638  1.00  0.00     0.049 A 
ATOM     25  H   UNL A   1      40.406  28.992  31.113  1.00  0.00     0.167 HD
ATOM     26  C   UNL A   1      43.337  27.799  34.205  1.00  0.00     0.037 A 
ATOM     27  C   UNL A   1      38.192  30.360  30.136  1.00  0.00     0.037 A 
ATOM     28  C   UNL A   1      42.495  28.771  34.843  1.00  0.00     0.049 A 
ATOM     29  C   UNL A   1      38.450  30.870  31.531  1.00  0.00     0.074 A 
ATOM     30  C   UNL A   1      42.573  29.281  36.125  1.00  0.00     0.029 A 
ATOM     31  N   UNL A   1      41.452  29.429  34.206  1.00  0.00    -0.354 N 
ATOM     32  N   UNL A   1      39.362  30.495  32.396  1.00  0.00    -0.248 NA
ATOM     33  C   UNL A   1      37.563  31.936  32.019  1.00  0.00     0.031 C 
ATOM     34  C   UNL A   1      41.585  30.266  36.257  1.00  0.00     0.029 A 
ATOM     35  C   UNL A   1      40.905  30.374  35.053  1.00  0.00     0.049 A 
ATOM     36  H   UNL A   1      41.149  29.249  33.286  1.00  0.00     0.167 HD
ATOM     37  C   UNL A   1      39.175  31.291  33.519  1.00  0.00     0.074 A 
ATOM     38  C   UNL A   1      38.074  32.184  33.217  1.00  0.00     0.031 C 
ATOM     39  C   UNL A   1      39.841  31.278  34.698  1.00  0.00     0.037 A 
BRANCH  26  40
ATOM     40  C   UNL A   1      44.438  27.137  34.984  1.00  0.00     0.064 A 
ATOM     41  C   UNL A   1      44.234  25.939  35.689  1.00  0.00     0.173 A 
ATOM     42  C   UNL A   1      45.693  27.755  35.098  1.00  0.00     0.173 A 
ATOM     43  F   UNL A   1      43.048  25.315  35.627  1.00  0.00    -0.203 F 
ATOM     44  C   UNL A   1      45.210  25.434  36.543  1.00  0.00     0.198 A 
ATOM     45  C   UNL A   1      46.684  27.221  35.920  1.00  0.00     0.198 A 
ATOM     46  F   UNL A   1      45.951  28.893  34.436  1.00  0.00    -0.203 F 
ATOM     47  F   UNL A   1      44.945  24.354  37.292  1.00  0.00    -0.200 F 
ATOM     48  C   UNL A   1      46.433  26.075  36.659  1.00  0.00     0.200 A 
ATOM     49  F   UNL A   1      47.872  27.832  36.020  1.00  0.00    -0.200 F 
ATOM     50  F   UNL A   1      47.361  25.600  37.501  1.00  0.00    -0.200 F 
ENDBRANCH  26  40
BRANCH  27  51
ATOM     51  C   UNL A   1      37.106  30.947  29.309  1.00  0.00     0.064 A 
ATOM     52  C   UNL A   1      37.189  32.278  28.872  1.00  0.00     0.173 A 
ATOM     53  C   UNL A   1      35.949  30.226  28.988  1.00  0.00     0.173 A 
ATOM     54  F   UNL A   1      38.262  33.019  29.185  1.00  0.00    -0.203 F 
ATOM     55  C   UNL A   1      36.143  32.873  28.170  1.00  0.00     0.198 A 
ATOM     56  C   UNL A   1      34.908  30.820  28.276  1.00  0.00     0.198 A 
ATOM     57  F   UNL A   1      35.818  28.954  29.392  1.00  0.00    -0.203 F 
ATOM     58  F   UNL A   1      36.225  34.164  27.818  1.00  0.00    -0.200 F 
ATOM     59  C   UNL A   1      35.003  32.143  27.870  1.00  0.00     0.200 A 
ATOM     60  F   UNL A   1      33.791  30.125  28.020  1.00  0.00    -0.200 F 
ATOM     61  F   UNL A   1      33.988  32.724  27.215  1.00  0.00    -0.200 F 
ENDBRANCH  27  51
BRANCH  39  62
ATOM     62  C   UNL A   1      39.445  32.297  35.722  1.00  0.00     0.064 A 
ATOM     63  C   UNL A   1      38.458  32.028  36.679  1.00  0.00     0.173 A 
ATOM     64  C   UNL A   1      40.112  33.529  35.784  1.00  0.00     0.173 A 
ATOM     65  F   UNL A   1      37.785  30.868  36.648  1.00  0.00    -0.203 F 
ATOM     66  C   UNL A   1      38.143  32.965  37.658  1.00  0.00     0.198 A 
ATOM     67  C   UNL A   1      39.811  34.454  36.779  1.00  0.00     0.198 A 
ATOM     68  F   UNL A   1      41.067  33.828  34.890  1.00  0.00    -0.203 F 
ATOM     69  F   UNL A   1      37.174  32.703  38.547  1.00  0.00    -0.200 F 
ATOM     70  C   UNL A   1      38.825  34.173  37.713  1.00  0.00     0.200 A 
ATOM     71  F   UNL A   1      40.478  35.615  36.837  1.00  0.00    -0.200 F 
ATOM     72  F   UNL A   1      38.529  35.067  38.665  1.00  0.00    -0.200 F 
ENDBRANCH  39  62
ENDBRANCH  13  14
ENDBRANCH   6   8
ENDBRANCH   5   6
ENDBRANCH   4   5
ENDBRANCH   3   4
ENDBRANCH   2   3
ENDBRANCH   1   2
BRANCH   1  73
ATOM     73  C   UNL A   1      42.467  18.365  26.047  1.00  0.00     0.188 C 
BRANCH  73  74
ATOM     74  O   UNL A   1      41.441  19.310  25.752  1.00  0.00    -0.376 OA
BRANCH  74  75
ATOM     75  C   UNL A   1      40.979  20.133  26.814  1.00  0.00     0.202 C 
BRANCH  75  76
ATOM     76  C   UNL A   1      40.407  21.514  26.461  1.00  0.00     0.261 C 
BRANCH  76  77
ATOM     77  O   UNL A   1      39.149  21.544  25.764  1.00  0.00    -0.459 OA
BRANCH  77  78
ATOM     78  C   UNL A   1      38.385  22.652  26.024  1.00  0.00     0.365 C 
ATOM     79  O   UNL A   1      38.842  23.732  26.374  1.00  0.00    -0.245 OA
BRANCH  78  80
ATOM     80  C   UNL A   1      36.878  22.331  25.938  1.00  0.00     0.298 C 
ATOM     81  C   UNL A   1      36.245  23.713  25.608  1.00  0.00     0.115 C 
ATOM     82  N   UNL A   1      36.678  21.237  24.954  1.00  0.00    -0.323 N 
ATOM     83  C   UNL A   1      35.062  23.594  24.727  1.00  0.00    -0.006 A 
ATOM     84  C   UNL A   1      35.365  21.059  24.339  1.00  0.00     0.264 C 
ATOM     85  H   UNL A   1      36.905  20.364  25.429  1.00  0.00     0.347 HD
ATOM     86  H   UNL A   1      37.276  21.505  24.171  1.00  0.00     0.347 HD
ATOM     87  C   UNL A   1      34.710  22.393  24.154  1.00  0.00     0.083 A 
ATOM     88  C   UNL A   1      34.162  24.590  24.255  1.00  0.00     0.003 A 
ATOM     89  N   UNL A   1      33.656  22.634  23.314  1.00  0.00    -0.353 N 
ATOM     90  C   UNL A   1      33.263  23.948  23.404  1.00  0.00     0.046 A 
ATOM     91  C   UNL A   1      34.028  25.978  24.451  1.00  0.00     0.010 A 
ATOM     92  H   UNL A   1      33.239  21.962  22.728  1.00  0.00     0.166 HD
ATOM     93  C   UNL A   1      32.204  24.607  22.775  1.00  0.00     0.026 A 
ATOM     94  C   UNL A   1      32.985  26.659  23.813  1.00  0.00     0.001 A 
ATOM     95  C   UNL A   1      32.081  25.980  22.998  1.00  0.00     0.002 A 
BRANCH  84  96
ATOM     96  C   UNL A   1      34.432  20.047  25.002  1.00  0.00     0.041 A 
ATOM     97  C   UNL A   1      33.571  20.392  26.044  1.00  0.00     0.093 A 
ATOM     98  C   UNL A   1      34.087  18.675  24.690  1.00  0.00     0.009 A 
ATOM     99  N   UNL A   1      32.894  19.294  26.474  1.00  0.00    -0.361 N 
ATOM    100  C   UNL A   1      33.151  18.242  25.642  1.00  0.00     0.046 A 
ATOM    101  C   UNL A   1      34.430  17.753  23.680  1.00  0.00     0.011 A 
ATOM    102  H   UNL A   1      32.309  19.263  27.264  1.00  0.00     0.166 HD
ATOM    103  C   UNL A   1      32.586  16.963  25.667  1.00  0.00     0.026 A 
ATOM    104  C   UNL A   1      33.786  16.509  23.630  1.00  0.00     0.001 A 
ATOM    105  C   UNL A   1      32.903  16.105  24.624  1.00  0.00     0.002 A 
ENDBRANCH  84  96
ENDBRANCH  78  80
ENDBRANCH  77  78
ENDBRANCH  76  77
ENDBRANCH  75  76
ENDBRANCH  74  75
ENDBRANCH  73  74
ENDBRANCH   1  73
TORSDOF 18
ENDMDL
