MODEL 1
REMARK VINA RESULT:     -13.4      0.000      0.000
REMARK SMILES Cc1cc(/C=C2/C(=O)NC(=S)N=C2OCCOCCOCCOC(=O)c2ccc(-c3c4nc(c(-c5c(F)c(F)c(F)c(F)c5F)c5ccc([nH]5)c(-c5c(F)c(F)c(F)c(F)c5F)c5nc(c(-c6c(F)c(F)c(F)c(F)c6F)c6ccc3[nH]6)C=C5)C=C4)cc2)c(C)n1-c1cccc(C(=O)[O-])c1
REMARK SMILES IDX 18 1 17 2 16 3 15 4 14 5 13 6 5 7 6 8 7 9 8 10 9 11 12 12
REMARK SMILES IDX 10 13 11 15 4 16 1 17 2 18 3 19 91 20 89 21 90 22 92 23
REMARK SMILES IDX 93 24 100 25 94 26 96 27 95 28 97 29 98 30 99 31 19 32 20 33
REMARK SMILES IDX 21 34 22 35 23 36 24 37 25 38 26 39 27 40 88 41 28 42 87 43
REMARK SMILES IDX 29 44 30 45 31 46 81 47 32 48 86 49 80 50 82 51 33 52 85 53
REMARK SMILES IDX 79 54 78 55 34 57 66 58 46 59 65 60 47 61 50 62 64 63 83 64
REMARK SMILES IDX 48 65 49 66 63 68 84 69 51 70 35 71 36 72 44 73 37 74 38 75
REMARK SMILES IDX 42 76 45 77 39 78 40 79 43 80 41 81 67 82 68 83 76 84 69 85
REMARK SMILES IDX 70 86 74 87 77 88 71 89 72 90 75 91 73 92 52 93 53 94 61 95
REMARK SMILES IDX 54 96 55 97 59 98 62 99 56 100 57 101 60 102 58 103
REMARK H PARENT 9 14 82 56 50 67
REMARK Flexibility Score: inf
ROOT
ATOM      1  C   UNL A   1      37.114  22.035  25.395  1.00  0.00     0.188 C 
ENDROOT
BRANCH   1   2
ATOM      2  O   UNL A   1      35.750  21.940  25.013  1.00  0.00    -0.376 OA
BRANCH   2   3
ATOM      3  C   UNL A   1      34.772  22.221  26.029  1.00  0.00     0.201 C 
BRANCH   3   4
ATOM      4  C   UNL A   1      34.123  21.044  26.821  1.00  0.00     0.260 C 
BRANCH   4   5
ATOM      5  O   UNL A   1      32.869  20.531  26.270  1.00  0.00    -0.475 OA
BRANCH   5   6
ATOM      6  C   UNL A   1      32.926  19.571  25.337  1.00  0.00     0.229 C 
ATOM      7  C   UNL A   1      32.161  21.135  23.318  1.00  0.00     0.029 C 
ATOM      8  C   UNL A   1      32.523  19.987  23.954  1.00  0.00     0.103 C 
ATOM      9  C   UNL A   1      32.381  18.777  23.053  1.00  0.00     0.262 C 
ATOM     10  O   UNL A   1      32.094  18.823  21.860  1.00  0.00    -0.269 OA
ATOM     11  N   UNL A   1      32.546  17.558  23.650  1.00  0.00    -0.297 N 
ATOM     12  N   UNL A   1      33.159  18.374  25.745  1.00  0.00    -0.184 NA
ATOM     13  C   UNL A   1      32.927  17.316  24.934  1.00  0.00     0.203 C 
ATOM     14  H   UNL A   1      32.369  16.767  23.090  1.00  0.00     0.172 HD
ATOM     15  S   UNL A   1      32.992  15.728  25.463  1.00  0.00    -0.038 S 
BRANCH   7  16
ATOM     16  C   UNL A   1      31.984  22.551  23.575  1.00  0.00    -0.003 A 
ATOM     17  C   UNL A   1      30.969  25.386  25.847  1.00  0.00     0.065 C 
ATOM     18  C   UNL A   1      31.439  24.437  24.800  1.00  0.00     0.020 A 
ATOM     19  C   UNL A   1      31.404  23.049  24.795  1.00  0.00     0.031 A 
ATOM     20  N   UNL A   1      31.931  24.817  23.573  1.00  0.00    -0.318 N 
ATOM     21  C   UNL A   1      32.415  23.686  22.921  1.00  0.00     0.027 A 
ATOM     22  C   UNL A   1      33.345  23.866  21.794  1.00  0.00     0.065 C 
BRANCH  20  23
ATOM     23  C   UNL A   1      32.119  26.125  23.046  1.00  0.00     0.046 A 
ATOM     24  C   UNL A   1      33.316  26.781  23.379  1.00  0.00     0.026 A 
ATOM     25  C   UNL A   1      31.003  26.849  22.607  1.00  0.00     0.036 A 
ATOM     26  C   UNL A   1      33.385  28.169  23.338  1.00  0.00     0.003 A 
ATOM     27  C   UNL A   1      31.082  28.248  22.568  1.00  0.00    -0.001 A 
ATOM     28  C   UNL A   1      32.264  28.903  22.949  1.00  0.00     0.010 A 
BRANCH  27  29
ATOM     29  C   UNL A   1      29.917  29.118  22.218  1.00  0.00     0.072 C 
ATOM     30  O   UNL A   1      29.902  29.975  21.405  1.00  0.00    -0.545 OA
ATOM     31  O   UNL A   1      28.825  28.818  22.966  1.00  0.00    -0.545 OA
ENDBRANCH  27  29
ENDBRANCH  20  23
ENDBRANCH   7  16
ENDBRANCH   5   6
ENDBRANCH   4   5
ENDBRANCH   3   4
ENDBRANCH   2   3
ENDBRANCH   1   2
BRANCH   1  32
ATOM     32  C   UNL A   1      37.685  23.345  25.940  1.00  0.00     0.188 C 
BRANCH  32  33
ATOM     33  O   UNL A   1      38.996  23.273  26.450  1.00  0.00    -0.376 OA
BRANCH  33  34
ATOM     34  C   UNL A   1      39.634  21.996  26.319  1.00  0.00     0.202 C 
BRANCH  34  35
ATOM     35  C   UNL A   1      41.189  21.936  26.028  1.00  0.00     0.261 C 
BRANCH  35  36
ATOM     36  O   UNL A   1      42.246  22.731  26.788  1.00  0.00    -0.460 OA
BRANCH  36  37
ATOM     37  C   UNL A   1      42.555  24.032  26.366  1.00  0.00     0.338 C 
ATOM     38  O   UNL A   1      42.658  24.265  25.161  1.00  0.00    -0.246 OA
BRANCH  37  39
ATOM     39  C   UNL A   1      42.757  25.305  27.372  1.00  0.00     0.060 A 
ATOM     40  C   UNL A   1      42.480  25.175  28.730  1.00  0.00     0.016 A 
ATOM     41  C   UNL A   1      42.892  26.689  27.104  1.00  0.00     0.016 A 
ATOM     42  C   UNL A   1      42.330  26.349  29.726  1.00  0.00     0.010 A 
ATOM     43  C   UNL A   1      42.565  27.881  28.107  1.00  0.00     0.010 A 
ATOM     44  C   UNL A   1      42.108  27.785  29.467  1.00  0.00    -0.014 A 
BRANCH  44  45
ATOM     45  C   UNL A   1      41.147  29.062  30.451  1.00  0.00     0.031 A 
ATOM     46  C   UNL A   1      41.819  29.945  32.058  1.00  0.00     0.074 A 
ATOM     47  C   UNL A   1      39.805  29.475  30.055  1.00  0.00     0.049 A 
ATOM     48  N   UNL A   1      42.832  29.514  32.810  1.00  0.00    -0.248 NA
ATOM     49  C   UNL A   1      42.520  31.498  32.485  1.00  0.00     0.031 C 
ATOM     50  C   UNL A   1      38.656  28.805  29.410  1.00  0.00     0.029 A 
ATOM     51  N   UNL A   1      39.196  30.789  30.141  1.00  0.00    -0.354 N 
ATOM     52  C   UNL A   1      43.931  30.145  32.106  1.00  0.00     0.074 A 
ATOM     53  C   UNL A   1      43.841  31.491  32.370  1.00  0.00     0.031 C 
ATOM     54  C   UNL A   1      37.556  29.638  29.275  1.00  0.00     0.029 A 
ATOM     55  C   UNL A   1      37.834  31.019  29.690  1.00  0.00     0.049 A 
ATOM     56  H   UNL A   1      39.714  31.539  30.511  1.00  0.00     0.167 HD
ATOM     57  C   UNL A   1      43.965  29.758  30.810  1.00  0.00     0.037 A 
ATOM     58  C   UNL A   1      37.078  32.217  29.809  1.00  0.00     0.037 A 
ATOM     59  C   UNL A   1      43.105  30.985  29.903  1.00  0.00     0.049 A 
ATOM     60  C   UNL A   1      37.947  33.280  30.388  1.00  0.00     0.074 A 
ATOM     61  C   UNL A   1      43.301  32.116  29.060  1.00  0.00     0.029 A 
ATOM     62  N   UNL A   1      41.761  31.483  30.126  1.00  0.00    -0.354 N 
ATOM     63  N   UNL A   1      38.284  33.364  31.638  1.00  0.00    -0.248 NA
ATOM     64  C   UNL A   1      38.485  34.373  29.563  1.00  0.00     0.031 C 
ATOM     65  C   UNL A   1      42.312  33.258  29.483  1.00  0.00     0.029 A 
ATOM     66  C   UNL A   1      41.566  32.797  30.570  1.00  0.00     0.049 A 
ATOM     67  H   UNL A   1      40.986  30.897  29.965  1.00  0.00     0.167 HD
ATOM     68  C   UNL A   1      39.511  33.959  31.520  1.00  0.00     0.074 A 
ATOM     69  C   UNL A   1      39.444  34.819  30.376  1.00  0.00     0.031 C 
ATOM     70  C   UNL A   1      40.486  33.059  31.751  1.00  0.00     0.037 A 
BRANCH  57  71
ATOM     71  C   UNL A   1      43.984  28.080  31.537  1.00  0.00     0.064 A 
ATOM     72  C   UNL A   1      44.967  27.261  30.915  1.00  0.00     0.173 A 
ATOM     73  C   UNL A   1      43.767  27.618  32.960  1.00  0.00     0.173 A 
ATOM     74  F   UNL A   1      45.321  27.527  29.648  1.00  0.00    -0.203 F 
ATOM     75  C   UNL A   1      45.796  26.374  31.656  1.00  0.00     0.198 A 
ATOM     76  C   UNL A   1      44.551  26.681  33.641  1.00  0.00     0.198 A 
ATOM     77  F   UNL A   1      43.010  28.232  33.881  1.00  0.00    -0.203 F 
ATOM     78  F   UNL A   1      46.880  25.852  31.065  1.00  0.00    -0.200 F 
ATOM     79  C   UNL A   1      45.609  26.111  33.007  1.00  0.00     0.200 A 
ATOM     80  F   UNL A   1      44.362  26.500  34.963  1.00  0.00    -0.200 F 
ATOM     81  F   UNL A   1      46.467  25.353  33.705  1.00  0.00    -0.200 F 
ENDBRANCH  57  71
BRANCH  58  82
ATOM     82  C   UNL A   1      35.720  32.958  29.545  1.00  0.00     0.064 A 
ATOM     83  C   UNL A   1      34.892  33.384  30.659  1.00  0.00     0.173 A 
ATOM     84  C   UNL A   1      35.480  33.682  28.375  1.00  0.00     0.173 A 
ATOM     85  F   UNL A   1      34.999  32.788  31.858  1.00  0.00    -0.203 F 
ATOM     86  C   UNL A   1      34.023  34.496  30.620  1.00  0.00     0.198 A 
ATOM     87  C   UNL A   1      34.575  34.777  28.330  1.00  0.00     0.198 A 
ATOM     88  F   UNL A   1      36.203  33.421  27.281  1.00  0.00    -0.203 F 
ATOM     89  F   UNL A   1      33.404  34.922  31.735  1.00  0.00    -0.200 F 
ATOM     90  C   UNL A   1      33.878  35.204  29.453  1.00  0.00     0.200 A 
ATOM     91  F   UNL A   1      34.442  35.481  27.196  1.00  0.00    -0.200 F 
ATOM     92  F   UNL A   1      33.114  36.309  29.417  1.00  0.00    -0.200 F 
ENDBRANCH  58  82
BRANCH  70  93
ATOM     93  C   UNL A   1      39.961  32.111  33.137  1.00  0.00     0.064 A 
ATOM     94  C   UNL A   1      38.991  31.053  33.154  1.00  0.00     0.173 A 
ATOM     95  C   UNL A   1      40.329  32.442  34.470  1.00  0.00     0.173 A 
ATOM     96  F   UNL A   1      38.453  30.555  32.057  1.00  0.00    -0.203 F 
ATOM     97  C   UNL A   1      38.438  30.430  34.282  1.00  0.00     0.198 A 
ATOM     98  C   UNL A   1      39.818  31.768  35.623  1.00  0.00     0.198 A 
ATOM     99  F   UNL A   1      41.225  33.412  34.700  1.00  0.00    -0.203 F 
ATOM    100  F   UNL A   1      37.485  29.497  34.117  1.00  0.00    -0.200 F 
ATOM    101  C   UNL A   1      38.847  30.789  35.528  1.00  0.00     0.200 A 
ATOM    102  F   UNL A   1      40.271  32.090  36.842  1.00  0.00    -0.200 F 
ATOM    103  F   UNL A   1      38.300  30.215  36.609  1.00  0.00    -0.200 F 
ENDBRANCH  70  93
ENDBRANCH  44  45
ENDBRANCH  37  39
ENDBRANCH  36  37
ENDBRANCH  35  36
ENDBRANCH  34  35
ENDBRANCH  33  34
ENDBRANCH  32  33
ENDBRANCH   1  32
TORSDOF 19
ENDMDL
MODEL 2
REMARK VINA RESULT:     -13.3      2.022      4.709
REMARK SMILES Cc1cc(/C=C2/C(=O)NC(=S)N=C2OCCOCCOCCOC(=O)c2ccc(-c3c4nc(c(-c5c(F)c(F)c(F)c(F)c5F)c5ccc([nH]5)c(-c5c(F)c(F)c(F)c(F)c5F)c5nc(c(-c6c(F)c(F)c(F)c(F)c6F)c6ccc3[nH]6)C=C5)C=C4)cc2)c(C)n1-c1cccc(C(=O)[O-])c1
REMARK SMILES IDX 18 1 17 2 16 3 15 4 14 5 13 6 5 7 6 8 7 9 8 10 9 11 12 12
REMARK SMILES IDX 10 13 11 15 4 16 1 17 2 18 3 19 91 20 89 21 90 22 92 23
REMARK SMILES IDX 93 24 100 25 94 26 96 27 95 28 97 29 98 30 99 31 19 32 20 33
REMARK SMILES IDX 21 34 22 35 23 36 24 37 25 38 26 39 27 40 88 41 28 42 87 43
REMARK SMILES IDX 29 44 30 45 31 46 81 47 32 48 86 49 80 50 82 51 33 52 85 53
REMARK SMILES IDX 79 54 78 55 34 57 66 58 46 59 65 60 47 61 50 62 64 63 83 64
REMARK SMILES IDX 48 65 49 66 63 68 84 69 51 70 35 71 36 72 44 73 37 74 38 75
REMARK SMILES IDX 42 76 45 77 39 78 40 79 43 80 41 81 67 82 68 83 76 84 69 85
REMARK SMILES IDX 70 86 74 87 77 88 71 89 72 90 75 91 73 92 52 93 53 94 61 95
REMARK SMILES IDX 54 96 55 97 59 98 62 99 56 100 57 101 60 102 58 103
REMARK H PARENT 9 14 82 56 50 67
REMARK Flexibility Score: inf
ROOT
ATOM      1  C   UNL A   1      37.524  21.773  24.625  1.00  0.00     0.188 C 
ENDROOT
BRANCH   1   2
ATOM      2  O   UNL A   1      36.143  21.842  24.303  1.00  0.00    -0.376 OA
BRANCH   2   3
ATOM      3  C   UNL A   1      35.689  23.039  23.648  1.00  0.00     0.201 C 
BRANCH   3   4
ATOM      4  C   UNL A   1      35.058  24.188  24.494  1.00  0.00     0.260 C 
BRANCH   4   5
ATOM      5  O   UNL A   1      33.898  24.846  23.894  1.00  0.00    -0.475 OA
BRANCH   5   6
ATOM      6  C   UNL A   1      33.075  25.542  24.689  1.00  0.00     0.229 C 
ATOM      7  C   UNL A   1      31.591  23.449  25.411  1.00  0.00     0.029 C 
ATOM      8  C   UNL A   1      31.978  24.751  25.336  1.00  0.00     0.103 C 
ATOM      9  C   UNL A   1      30.973  25.675  25.995  1.00  0.00     0.262 C 
ATOM     10  O   UNL A   1      29.989  25.300  26.628  1.00  0.00    -0.269 OA
ATOM     11  N   UNL A   1      31.176  27.015  25.817  1.00  0.00    -0.297 N 
ATOM     12  N   UNL A   1      33.207  26.821  24.689  1.00  0.00    -0.184 NA
ATOM     13  C   UNL A   1      32.237  27.611  25.206  1.00  0.00     0.203 C 
ATOM     14  H   UNL A   1      30.480  27.616  26.168  1.00  0.00     0.172 HD
ATOM     15  S   UNL A   1      32.233  29.278  25.044  1.00  0.00    -0.038 S 
BRANCH   7  16
ATOM     16  C   UNL A   1      31.995  22.132  24.959  1.00  0.00    -0.003 A 
ATOM     17  C   UNL A   1      32.268  19.515  22.255  1.00  0.00     0.065 C 
ATOM     18  C   UNL A   1      32.285  20.396  23.455  1.00  0.00     0.020 A 
ATOM     19  C   UNL A   1      31.707  21.645  23.635  1.00  0.00     0.031 A 
ATOM     20  N   UNL A   1      32.837  20.047  24.666  1.00  0.00    -0.318 N 
ATOM     21  C   UNL A   1      32.811  21.161  25.501  1.00  0.00     0.027 A 
ATOM     22  C   UNL A   1      33.691  21.178  26.681  1.00  0.00     0.065 C 
BRANCH  20  23
ATOM     23  C   UNL A   1      33.503  18.846  25.037  1.00  0.00     0.046 A 
ATOM     24  C   UNL A   1      34.827  18.688  24.594  1.00  0.00     0.026 A 
ATOM     25  C   UNL A   1      32.741  17.738  25.429  1.00  0.00     0.036 A 
ATOM     26  C   UNL A   1      35.376  17.416  24.478  1.00  0.00     0.003 A 
ATOM     27  C   UNL A   1      33.303  16.459  25.310  1.00  0.00    -0.001 A 
ATOM     28  C   UNL A   1      34.609  16.301  24.819  1.00  0.00     0.010 A 
BRANCH  27  29
ATOM     29  C   UNL A   1      32.539  15.206  25.598  1.00  0.00     0.072 C 
ATOM     30  O   UNL A   1      31.378  15.125  25.797  1.00  0.00    -0.545 OA
ATOM     31  O   UNL A   1      33.349  14.118  25.616  1.00  0.00    -0.545 OA
ENDBRANCH  27  29
ENDBRANCH  20  23
ENDBRANCH   7  16
ENDBRANCH   5   6
ENDBRANCH   4   5
ENDBRANCH   3   4
ENDBRANCH   2   3
ENDBRANCH   1   2
BRANCH   1  32
ATOM     32  C   UNL A   1      37.989  21.776  26.083  1.00  0.00     0.188 C 
BRANCH  32  33
ATOM     33  O   UNL A   1      39.151  22.525  26.349  1.00  0.00    -0.376 OA
BRANCH  33  34
ATOM     34  C   UNL A   1      40.388  21.834  26.130  1.00  0.00     0.202 C 
BRANCH  34  35
ATOM     35  C   UNL A   1      41.651  22.213  27.008  1.00  0.00     0.261 C 
BRANCH  35  36
ATOM     36  O   UNL A   1      42.879  22.952  26.486  1.00  0.00    -0.460 OA
BRANCH  36  37
ATOM     37  C   UNL A   1      42.778  24.320  26.194  1.00  0.00     0.338 C 
ATOM     38  O   UNL A   1      42.521  24.672  25.041  1.00  0.00    -0.246 OA
BRANCH  37  39
ATOM     39  C   UNL A   1      42.940  25.514  27.299  1.00  0.00     0.060 A 
ATOM     40  C   UNL A   1      42.537  25.309  28.615  1.00  0.00     0.016 A 
ATOM     41  C   UNL A   1      43.155  26.905  27.140  1.00  0.00     0.016 A 
ATOM     42  C   UNL A   1      42.345  26.421  29.673  1.00  0.00     0.010 A 
ATOM     43  C   UNL A   1      42.788  28.043  28.189  1.00  0.00     0.010 A 
ATOM     44  C   UNL A   1      42.206  27.881  29.495  1.00  0.00    -0.014 A 
BRANCH  44  45
ATOM     45  C   UNL A   1      41.213  29.134  30.477  1.00  0.00     0.031 A 
ATOM     46  C   UNL A   1      41.851  30.012  32.101  1.00  0.00     0.074 A 
ATOM     47  C   UNL A   1      39.871  29.530  30.066  1.00  0.00     0.049 A 
ATOM     48  N   UNL A   1      42.860  29.591  32.863  1.00  0.00    -0.248 NA
ATOM     49  C   UNL A   1      42.523  31.572  32.551  1.00  0.00     0.031 C 
ATOM     50  C   UNL A   1      38.741  28.849  29.401  1.00  0.00     0.029 A 
ATOM     51  N   UNL A   1      39.241  30.834  30.156  1.00  0.00    -0.354 N 
ATOM     52  C   UNL A   1      43.959  30.244  32.179  1.00  0.00     0.074 A 
ATOM     53  C   UNL A   1      43.845  31.585  32.454  1.00  0.00     0.031 C 
ATOM     54  C   UNL A   1      37.630  29.667  29.258  1.00  0.00     0.029 A 
ATOM     55  C   UNL A   1      37.882  31.048  29.689  1.00  0.00     0.049 A 
ATOM     56  H   UNL A   1      39.743  31.589  30.540  1.00  0.00     0.167 HD
ATOM     57  C   UNL A   1      44.016  29.869  30.879  1.00  0.00     0.037 A 
ATOM     58  C   UNL A   1      37.106  32.233  29.808  1.00  0.00     0.037 A 
ATOM     59  C   UNL A   1      43.149  31.091  29.972  1.00  0.00     0.049 A 
ATOM     60  C   UNL A   1      37.952  33.304  30.408  1.00  0.00     0.074 A 
ATOM     61  C   UNL A   1      43.339  32.232  29.142  1.00  0.00     0.029 A 
ATOM     62  N   UNL A   1      41.795  31.567  30.181  1.00  0.00    -0.354 N 
ATOM     63  N   UNL A   1      38.271  33.382  31.663  1.00  0.00    -0.248 NA
ATOM     64  C   UNL A   1      38.484  34.413  29.599  1.00  0.00     0.031 C 
ATOM     65  C   UNL A   1      42.329  33.355  29.562  1.00  0.00     0.029 A 
ATOM     66  C   UNL A   1      41.574  32.874  30.635  1.00  0.00     0.049 A 
ATOM     67  H   UNL A   1      41.031  30.971  30.005  1.00  0.00     0.167 HD
ATOM     68  C   UNL A   1      39.491  33.997  31.566  1.00  0.00     0.074 A 
ATOM     69  C   UNL A   1      39.425  34.865  30.429  1.00  0.00     0.031 C 
ATOM     70  C   UNL A   1      40.476  33.109  31.803  1.00  0.00     0.037 A 
BRANCH  57  71
ATOM     71  C   UNL A   1      44.050  28.185  31.592  1.00  0.00     0.064 A 
ATOM     72  C   UNL A   1      45.077  27.397  31.001  1.00  0.00     0.173 A 
ATOM     73  C   UNL A   1      43.792  27.703  33.003  1.00  0.00     0.173 A 
ATOM     74  F   UNL A   1      45.471  27.684  29.751  1.00  0.00    -0.203 F 
ATOM     75  C   UNL A   1      45.899  26.523  31.765  1.00  0.00     0.198 A 
ATOM     76  C   UNL A   1      44.573  26.780  33.704  1.00  0.00     0.198 A 
ATOM     77  F   UNL A   1      42.985  28.290  33.900  1.00  0.00    -0.203 F 
ATOM     78  F   UNL A   1      47.018  26.036  31.211  1.00  0.00    -0.200 F 
ATOM     79  C   UNL A   1      45.669  26.243  33.106  1.00  0.00     0.200 A 
ATOM     80  F   UNL A   1      44.339  26.582  35.016  1.00  0.00    -0.200 F 
ATOM     81  F   UNL A   1      46.519  25.500  33.829  1.00  0.00    -0.200 F 
ENDBRANCH  57  71
BRANCH  58  82
ATOM     82  C   UNL A   1      35.741  32.956  29.532  1.00  0.00     0.064 A 
ATOM     83  C   UNL A   1      34.902  33.379  30.640  1.00  0.00     0.173 A 
ATOM     84  C   UNL A   1      35.499  33.671  28.357  1.00  0.00     0.173 A 
ATOM     85  F   UNL A   1      35.010  32.792  31.842  1.00  0.00    -0.203 F 
ATOM     86  C   UNL A   1      34.021  34.480  30.589  1.00  0.00     0.198 A 
ATOM     87  C   UNL A   1      34.581  34.755  28.300  1.00  0.00     0.198 A 
ATOM     88  F   UNL A   1      36.231  33.412  27.268  1.00  0.00    -0.203 F 
ATOM     89  F   UNL A   1      33.390  34.906  31.698  1.00  0.00    -0.200 F 
ATOM     90  C   UNL A   1      33.873  35.180  29.417  1.00  0.00     0.200 A 
ATOM     91  F   UNL A   1      34.446  35.450  27.161  1.00  0.00    -0.200 F 
ATOM     92  F   UNL A   1      33.096  36.275  29.370  1.00  0.00    -0.200 F 
ENDBRANCH  58  82
BRANCH  70  93
ATOM     93  C   UNL A   1      39.947  32.141  33.173  1.00  0.00     0.064 A 
ATOM     94  C   UNL A   1      39.000  31.062  33.166  1.00  0.00     0.173 A 
ATOM     95  C   UNL A   1      40.282  32.471  34.515  1.00  0.00     0.173 A 
ATOM     96  F   UNL A   1      38.492  30.559  32.057  1.00  0.00    -0.203 F 
ATOM     97  C   UNL A   1      38.440  30.420  34.280  1.00  0.00     0.198 A 
ATOM     98  C   UNL A   1      39.766  31.779  35.654  1.00  0.00     0.198 A 
ATOM     99  F   UNL A   1      41.153  33.460  34.767  1.00  0.00    -0.203 F 
ATOM    100  F   UNL A   1      37.511  29.467  34.093  1.00  0.00    -0.200 F 
ATOM    101  C   UNL A   1      38.819  30.780  35.535  1.00  0.00     0.200 A 
ATOM    102  F   UNL A   1      40.189  32.104  36.884  1.00  0.00    -0.200 F 
ATOM    103  F   UNL A   1      38.265  30.187  36.603  1.00  0.00    -0.200 F 
ENDBRANCH  70  93
ENDBRANCH  44  45
ENDBRANCH  37  39
ENDBRANCH  36  37
ENDBRANCH  35  36
ENDBRANCH  34  35
ENDBRANCH  33  34
ENDBRANCH  32  33
ENDBRANCH   1  32
TORSDOF 19
ENDMDL
MODEL 3
REMARK VINA RESULT:     -13.0      4.128      9.860
REMARK SMILES Cc1cc(/C=C2/C(=O)NC(=S)N=C2OCCOCCOCCOC(=O)c2ccc(-c3c4nc(c(-c5c(F)c(F)c(F)c(F)c5F)c5ccc([nH]5)c(-c5c(F)c(F)c(F)c(F)c5F)c5nc(c(-c6c(F)c(F)c(F)c(F)c6F)c6ccc3[nH]6)C=C5)C=C4)cc2)c(C)n1-c1cccc(C(=O)[O-])c1
REMARK SMILES IDX 18 1 17 2 16 3 15 4 14 5 13 6 5 7 6 8 7 9 8 10 9 11 12 12
REMARK SMILES IDX 10 13 11 15 4 16 1 17 2 18 3 19 91 20 89 21 90 22 92 23
REMARK SMILES IDX 93 24 100 25 94 26 96 27 95 28 97 29 98 30 99 31 19 32 20 33
REMARK SMILES IDX 21 34 22 35 23 36 24 37 25 38 26 39 27 40 88 41 28 42 87 43
REMARK SMILES IDX 29 44 30 45 31 46 81 47 32 48 86 49 80 50 82 51 33 52 85 53
REMARK SMILES IDX 79 54 78 55 34 57 66 58 46 59 65 60 47 61 50 62 64 63 83 64
REMARK SMILES IDX 48 65 49 66 63 68 84 69 51 70 35 71 36 72 44 73 37 74 38 75
REMARK SMILES IDX 42 76 45 77 39 78 40 79 43 80 41 81 67 82 68 83 76 84 69 85
REMARK SMILES IDX 70 86 74 87 77 88 71 89 72 90 75 91 73 92 52 93 53 94 61 95
REMARK SMILES IDX 54 96 55 97 59 98 62 99 56 100 57 101 60 102 58 103
REMARK H PARENT 9 14 82 56 50 67
REMARK Flexibility Score: inf
ROOT
ATOM      1  C   UNL A   1      33.328  27.441  26.327  1.00  0.00     0.188 C 
ENDROOT
BRANCH   1   2
ATOM      2  O   UNL A   1      34.044  27.523  25.104  1.00  0.00    -0.376 OA
BRANCH   2   3
ATOM      3  C   UNL A   1      33.815  28.691  24.296  1.00  0.00     0.201 C 
BRANCH   3   4
ATOM      4  C   UNL A   1      32.402  28.939  23.685  1.00  0.00     0.260 C 
BRANCH   4   5
ATOM      5  O   UNL A   1      31.378  29.390  24.628  1.00  0.00    -0.475 OA
BRANCH   5   6
ATOM      6  C   UNL A   1      30.176  29.736  24.150  1.00  0.00     0.229 C 
ATOM      7  C   UNL A   1      29.311  27.238  23.806  1.00  0.00     0.029 C 
ATOM      8  C   UNL A   1      29.283  28.598  23.755  1.00  0.00     0.103 C 
ATOM      9  C   UNL A   1      28.072  29.107  23.000  1.00  0.00     0.262 C 
ATOM     10  O   UNL A   1      27.158  28.400  22.586  1.00  0.00    -0.269 OA
ATOM     11  N   UNL A   1      28.045  30.449  22.736  1.00  0.00    -0.297 N 
ATOM     12  N   UNL A   1      29.974  30.987  23.929  1.00  0.00    -0.184 NA
ATOM     13  C   UNL A   1      28.929  31.389  23.169  1.00  0.00     0.203 C 
ATOM     14  H   UNL A   1      27.305  30.770  22.172  1.00  0.00     0.172 HD
ATOM     15  S   UNL A   1      28.729  32.971  22.655  1.00  0.00    -0.038 S 
BRANCH   7  16
ATOM     16  C   UNL A   1      30.153  26.150  24.263  1.00  0.00    -0.003 A 
ATOM     17  C   UNL A   1      31.020  23.495  26.800  1.00  0.00     0.065 C 
ATOM     18  C   UNL A   1      30.854  24.450  25.670  1.00  0.00     0.020 A 
ATOM     19  C   UNL A   1      29.963  25.507  25.537  1.00  0.00     0.031 A 
ATOM     20  N   UNL A   1      31.662  24.484  24.557  1.00  0.00    -0.318 N 
ATOM     21  C   UNL A   1      31.123  25.389  23.647  1.00  0.00     0.027 A 
ATOM     22  C   UNL A   1      31.552  25.313  22.240  1.00  0.00     0.065 C 
BRANCH  20  23
ATOM     23  C   UNL A   1      32.769  23.655  24.225  1.00  0.00     0.046 A 
ATOM     24  C   UNL A   1      32.497  22.299  23.974  1.00  0.00     0.026 A 
ATOM     25  C   UNL A   1      34.061  24.075  24.564  1.00  0.00     0.036 A 
ATOM     26  C   UNL A   1      33.501  21.347  24.122  1.00  0.00     0.003 A 
ATOM     27  C   UNL A   1      35.067  23.109  24.710  1.00  0.00    -0.001 A 
ATOM     28  C   UNL A   1      34.780  21.750  24.507  1.00  0.00     0.010 A 
BRANCH  27  29
ATOM     29  C   UNL A   1      36.450  23.441  25.173  1.00  0.00     0.072 C 
ATOM     30  O   UNL A   1      36.768  23.741  26.270  1.00  0.00    -0.545 OA
ATOM     31  O   UNL A   1      37.349  23.366  24.159  1.00  0.00    -0.545 OA
ENDBRANCH  27  29
ENDBRANCH  20  23
ENDBRANCH   7  16
ENDBRANCH   5   6
ENDBRANCH   4   5
ENDBRANCH   3   4
ENDBRANCH   2   3
ENDBRANCH   1   2
BRANCH   1  32
ATOM     32  C   UNL A   1      33.340  28.606  27.320  1.00  0.00     0.188 C 
BRANCH  32  33
ATOM     33  O   UNL A   1      34.602  29.174  27.576  1.00  0.00    -0.376 OA
BRANCH  33  34
ATOM     34  C   UNL A   1      34.680  30.595  27.406  1.00  0.00     0.202 C 
BRANCH  34  35
ATOM     35  C   UNL A   1      34.387  31.539  28.643  1.00  0.00     0.261 C 
BRANCH  35  36
ATOM     36  O   UNL A   1      35.454  32.284  29.438  1.00  0.00    -0.460 OA
BRANCH  36  37
ATOM     37  C   UNL A   1      36.086  31.633  30.507  1.00  0.00     0.338 C 
ATOM     38  O   UNL A   1      35.418  31.297  31.487  1.00  0.00    -0.246 OA
BRANCH  37  39
ATOM     39  C   UNL A   1      37.672  31.239  30.541  1.00  0.00     0.060 A 
ATOM     40  C   UNL A   1      38.511  31.621  29.498  1.00  0.00     0.016 A 
ATOM     41  C   UNL A   1      38.377  30.284  31.314  1.00  0.00     0.016 A 
ATOM     42  C   UNL A   1      39.933  31.067  29.246  1.00  0.00     0.010 A 
ATOM     43  C   UNL A   1      39.767  29.606  30.939  1.00  0.00     0.010 A 
ATOM     44  C   UNL A   1      40.580  29.850  29.778  1.00  0.00    -0.014 A 
BRANCH  44  45
ATOM     45  C   UNL A   1      41.837  28.701  28.990  1.00  0.00     0.031 A 
ATOM     46  C   UNL A   1      43.760  29.041  28.945  1.00  0.00     0.074 A 
ATOM     47  C   UNL A   1      41.431  27.455  28.349  1.00  0.00     0.049 A 
ATOM     48  N   UNL A   1      44.340  30.225  29.138  1.00  0.00    -0.248 NA
ATOM     49  C   UNL A   1      45.189  28.505  29.814  1.00  0.00     0.031 C 
ATOM     50  C   UNL A   1      40.244  27.013  27.588  1.00  0.00     0.029 A 
ATOM     51  N   UNL A   1      42.118  26.178  28.328  1.00  0.00    -0.354 N 
ATOM     52  C   UNL A   1      44.465  30.192  30.583  1.00  0.00     0.074 A 
ATOM     53  C   UNL A   1      45.441  29.268  30.867  1.00  0.00     0.031 C 
ATOM     54  C   UNL A   1      40.349  25.705  27.142  1.00  0.00     0.029 A 
ATOM     55  C   UNL A   1      41.558  25.031  27.635  1.00  0.00     0.049 A 
ATOM     56  H   UNL A   1      42.981  26.085  28.794  1.00  0.00     0.167 HD
ATOM     57  C   UNL A   1      43.257  30.034  31.172  1.00  0.00     0.037 A 
ATOM     58  C   UNL A   1      42.163  23.759  27.443  1.00  0.00     0.037 A 
ATOM     59  C   UNL A   1      43.071  28.319  31.472  1.00  0.00     0.049 A 
ATOM     60  C   UNL A   1      43.461  23.728  28.174  1.00  0.00     0.074 A 
ATOM     61  C   UNL A   1      43.152  27.334  32.497  1.00  0.00     0.029 A 
ATOM     62  N   UNL A   1      43.187  27.228  30.524  1.00  0.00    -0.354 N 
ATOM     63  N   UNL A   1      44.550  24.310  27.778  1.00  0.00    -0.248 NA
ATOM     64  C   UNL A   1      43.622  22.983  29.433  1.00  0.00     0.031 C 
ATOM     65  C   UNL A   1      43.895  26.068  31.944  1.00  0.00     0.029 A 
ATOM     66  C   UNL A   1      44.255  26.327  30.619  1.00  0.00     0.049 A 
ATOM     67  H   UNL A   1      42.515  27.122  29.811  1.00  0.00     0.167 HD
ATOM     68  C   UNL A   1      45.133  24.586  28.986  1.00  0.00     0.074 A 
ATOM     69  C   UNL A   1      44.755  23.530  29.876  1.00  0.00     0.031 C 
ATOM     70  C   UNL A   1      45.029  25.901  29.260  1.00  0.00     0.037 A 
BRANCH  57  71
ATOM     71  C   UNL A   1      42.819  31.500  30.170  1.00  0.00     0.064 A 
ATOM     72  C   UNL A   1      42.145  32.477  30.954  1.00  0.00     0.173 A 
ATOM     73  C   UNL A   1      43.558  32.182  29.040  1.00  0.00     0.173 A 
ATOM     74  F   UNL A   1      41.447  32.073  32.027  1.00  0.00    -0.203 F 
ATOM     75  C   UNL A   1      42.414  33.868  30.832  1.00  0.00     0.198 A 
ATOM     76  C   UNL A   1      43.741  33.561  28.901  1.00  0.00     0.198 A 
ATOM     77  F   UNL A   1      44.402  31.590  28.181  1.00  0.00    -0.203 F 
ATOM     78  F   UNL A   1      41.968  34.702  31.782  1.00  0.00    -0.200 F 
ATOM     79  C   UNL A   1      43.226  34.400  29.837  1.00  0.00     0.200 A 
ATOM     80  F   UNL A   1      44.578  34.022  27.950  1.00  0.00    -0.200 F 
ATOM     81  F   UNL A   1      43.549  35.701  29.808  1.00  0.00    -0.200 F 
ENDBRANCH  57  71
BRANCH  58  82
ATOM     82  C   UNL A   1      42.049  22.315  26.839  1.00  0.00     0.064 A 
ATOM     83  C   UNL A   1      42.937  21.899  25.768  1.00  0.00     0.173 A 
ATOM     84  C   UNL A   1      41.522  21.243  27.563  1.00  0.00     0.173 A 
ATOM     85  F   UNL A   1      43.527  22.809  24.977  1.00  0.00    -0.203 F 
ATOM     86  C   UNL A   1      43.341  20.565  25.549  1.00  0.00     0.198 A 
ATOM     87  C   UNL A   1      41.901  19.896  27.312  1.00  0.00     0.198 A 
ATOM     88  F   UNL A   1      40.719  21.484  28.605  1.00  0.00    -0.203 F 
ATOM     89  F   UNL A   1      44.284  20.275  24.636  1.00  0.00    -0.200 F 
ATOM     90  C   UNL A   1      42.831  19.561  26.337  1.00  0.00     0.200 A 
ATOM     91  F   UNL A   1      41.418  18.916  28.090  1.00  0.00    -0.200 F 
ATOM     92  F   UNL A   1      43.260  18.297  26.191  1.00  0.00    -0.200 F 
ENDBRANCH  58  82
BRANCH  70  93
ATOM     93  C   UNL A   1      45.384  26.746  27.760  1.00  0.00     0.064 A 
ATOM     94  C   UNL A   1      44.511  26.935  26.636  1.00  0.00     0.173 A 
ATOM     95  C   UNL A   1      46.695  27.185  27.423  1.00  0.00     0.173 A 
ATOM     96  F   UNL A   1      43.236  26.596  26.652  1.00  0.00    -0.203 F 
ATOM     97  C   UNL A   1      44.853  27.442  25.374  1.00  0.00     0.198 A 
ATOM     98  C   UNL A   1      47.037  27.761  26.161  1.00  0.00     0.198 A 
ATOM     99  F   UNL A   1      47.684  27.100  28.324  1.00  0.00    -0.203 F 
ATOM    100  F   UNL A   1      43.920  27.488  24.408  1.00  0.00    -0.200 F 
ATOM    101  C   UNL A   1      46.125  27.854  25.128  1.00  0.00     0.200 A 
ATOM    102  F   UNL A   1      48.279  28.218  25.949  1.00  0.00    -0.200 F 
ATOM    103  F   UNL A   1      46.462  28.312  23.913  1.00  0.00    -0.200 F 
ENDBRANCH  70  93
ENDBRANCH  44  45
ENDBRANCH  37  39
ENDBRANCH  36  37
ENDBRANCH  35  36
ENDBRANCH  34  35
ENDBRANCH  33  34
ENDBRANCH  32  33
ENDBRANCH   1  32
TORSDOF 19
ENDMDL
