MODEL 1
REMARK VINA RESULT:     -10.9      0.000      0.000
REMARK SMILES O=C(CCC(=O)N1N=C(c2ccc(F)cc2)C[C@@H]1c1ccc2nccnc2c1)OCCOCCOCCOC(=O)c1ccc(-c2c3nc(c(-c4c(F)c(F)c(F)c(F)c4F)c4ccc([nH]4)c(-c4c(F)c(F)c(F)c(F)c4F)c4nc(c(-c5c(F)c(F)c(F)c(F)c5F)c5ccc2[nH]5)C=C4)C=C3)cc1
REMARK SMILES IDX 33 1 32 2 31 3 30 4 29 5 2 6 1 7 3 8 4 9 5 10 6 11 7 12 8 13
REMARK SMILES IDX 18 14 9 15 17 16 19 17 20 18 28 19 21 20 27 21 22 22 26 23
REMARK SMILES IDX 23 24 25 25 24 26 10 27 11 28 16 29 12 30 15 31 13 32 14 33
REMARK SMILES IDX 34 34 35 35 36 36 37 37 38 38 39 39 40 40 41 41 42 42 103 43
REMARK SMILES IDX 43 44 102 45 44 46 45 47 46 48 96 49 47 50 101 51 95 52
REMARK SMILES IDX 97 53 48 54 100 55 94 56 93 57 49 59 81 60 61 61 80 62 62 63
REMARK SMILES IDX 65 64 79 65 98 66 63 67 64 68 78 70 99 71 66 72 50 73 51 74
REMARK SMILES IDX 59 75 52 76 53 77 57 78 60 79 54 80 55 81 58 82 56 83 82 84
REMARK SMILES IDX 83 85 91 86 84 87 85 88 89 89 92 90 86 91 87 92 90 93 88 94
REMARK SMILES IDX 67 95 68 96 76 97 69 98 70 99 74 100 77 101 71 102 72 103
REMARK SMILES IDX 75 104 73 105
REMARK H PARENT 97 58 65 69
REMARK Flexibility Score: inf
ROOT
ATOM      1  C   UNL A   1      52.459  25.259  32.603  1.00  0.00     0.188 C 
ENDROOT
BRANCH   1   2
ATOM      2  O   UNL A   1      52.546  24.140  33.490  1.00  0.00    -0.376 OA
BRANCH   2   3
ATOM      3  C   UNL A   1      53.805  23.965  34.137  1.00  0.00     0.202 C 
BRANCH   3   4
ATOM      4  C   UNL A   1      54.517  22.873  33.369  1.00  0.00     0.261 C 
BRANCH   4   5
ATOM      5  O   UNL A   1      54.068  21.632  33.975  1.00  0.00    -0.463 OA
BRANCH   5   6
ATOM      6  C   UNL A   1      53.153  20.800  33.446  1.00  0.00     0.306 C 
ATOM      7  O   UNL A   1      53.131  20.448  32.272  1.00  0.00    -0.252 OA
BRANCH   6   8
ATOM      8  C   UNL A   1      52.391  20.079  34.451  1.00  0.00     0.132 C 
BRANCH   8   9
ATOM      9  C   UNL A   1      51.229  20.970  34.815  1.00  0.00     0.114 C 
BRANCH   9  10
ATOM     10  C   UNL A   1      50.713  21.473  36.197  1.00  0.00     0.243 C 
ATOM     11  O   UNL A   1      51.564  22.236  36.720  1.00  0.00    -0.273 OA
BRANCH  10  12
ATOM     12  N   UNL A   1      49.506  21.242  36.904  1.00  0.00    -0.225 N 
ATOM     13  N   UNL A   1      48.556  22.190  36.517  1.00  0.00    -0.174 NA
ATOM     14  C   UNL A   1      48.743  19.957  37.212  1.00  0.00     0.147 C 
ATOM     15  C   UNL A   1      47.561  21.534  36.015  1.00  0.00     0.071 C 
ATOM     16  C   UNL A   1      47.569  20.054  36.220  1.00  0.00     0.091 C 
BRANCH  14  17
ATOM     17  C   UNL A   1      48.134  19.676  38.653  1.00  0.00    -0.021 A 
ATOM     18  C   UNL A   1      46.698  18.655  38.583  1.00  0.00     0.008 A 
ATOM     19  C   UNL A   1      49.038  19.811  40.176  1.00  0.00     0.036 A 
ATOM     20  C   UNL A   1      46.132  17.697  39.935  1.00  0.00     0.031 A 
ATOM     21  C   UNL A   1      48.559  18.898  41.676  1.00  0.00     0.089 A 
ATOM     22  C   UNL A   1      46.906  17.793  41.510  1.00  0.00     0.089 A 
ATOM     23  N   UNL A   1      49.061  19.343  43.254  1.00  0.00    -0.253 NA
ATOM     24  N   UNL A   1      46.001  17.541  42.973  1.00  0.00    -0.253 NA
ATOM     25  C   UNL A   1      48.070  18.986  44.600  1.00  0.00     0.132 A 
ATOM     26  C   UNL A   1      46.606  18.143  44.478  1.00  0.00     0.132 A 
ENDBRANCH  14  17
BRANCH  15  27
ATOM     27  C   UNL A   1      46.595  22.187  35.132  1.00  0.00    -0.002 A 
ATOM     28  C   UNL A   1      45.303  21.693  34.986  1.00  0.00     0.013 A 
ATOM     29  C   UNL A   1      46.997  23.375  34.503  1.00  0.00     0.013 A 
ATOM     30  C   UNL A   1      44.388  22.425  34.225  1.00  0.00     0.040 A 
ATOM     31  C   UNL A   1      46.085  24.089  33.731  1.00  0.00     0.040 A 
ATOM     32  C   UNL A   1      44.783  23.614  33.612  1.00  0.00     0.123 A 
ATOM     33  F   UNL A   1      43.889  24.319  32.907  1.00  0.00    -0.207 F 
ENDBRANCH  15  27
ENDBRANCH  10  12
ENDBRANCH   9  10
ENDBRANCH   8   9
ENDBRANCH   6   8
ENDBRANCH   5   6
ENDBRANCH   4   5
ENDBRANCH   3   4
ENDBRANCH   2   3
ENDBRANCH   1   2
BRANCH   1  34
ATOM     34  C   UNL A   1      51.637  26.620  32.844  1.00  0.00     0.188 C 
BRANCH  34  35
ATOM     35  O   UNL A   1      50.646  27.005  33.958  1.00  0.00    -0.376 OA
BRANCH  35  36
ATOM     36  C   UNL A   1      48.964  26.585  34.939  1.00  0.00     0.202 C 
BRANCH  36  37
ATOM     37  C   UNL A   1      49.226  26.927  36.764  1.00  0.00     0.261 C 
BRANCH  37  38
ATOM     38  O   UNL A   1      47.477  26.509  37.718  1.00  0.00    -0.460 OA
BRANCH  38  39
ATOM     39  C   UNL A   1      46.086  26.110  37.701  1.00  0.00     0.338 C 
ATOM     40  O   UNL A   1      45.434  25.577  38.601  1.00  0.00    -0.246 OA
BRANCH  39  41
ATOM     41  C   UNL A   1      45.241  26.496  36.550  1.00  0.00     0.060 A 
ATOM     42  C   UNL A   1      45.692  27.603  35.790  1.00  0.00     0.016 A 
ATOM     43  C   UNL A   1      44.008  25.924  36.262  1.00  0.00     0.016 A 
ATOM     44  C   UNL A   1      44.956  28.096  34.716  1.00  0.00     0.010 A 
ATOM     45  C   UNL A   1      43.234  26.463  35.221  1.00  0.00     0.010 A 
ATOM     46  C   UNL A   1      43.700  27.553  34.455  1.00  0.00    -0.014 A 
BRANCH  46  47
ATOM     47  C   UNL A   1      42.778  28.279  33.551  1.00  0.00     0.031 A 
ATOM     48  C   UNL A   1      41.865  29.300  34.162  1.00  0.00     0.074 A 
ATOM     49  C   UNL A   1      42.752  28.044  32.228  1.00  0.00     0.049 A 
ATOM     50  N   UNL A   1      40.864  29.949  33.629  1.00  0.00    -0.248 NA
ATOM     51  C   UNL A   1      42.116  29.630  35.575  1.00  0.00     0.031 C 
ATOM     52  C   UNL A   1      43.661  27.155  31.511  1.00  0.00     0.029 A 
ATOM     53  N   UNL A   1      41.910  28.528  31.257  1.00  0.00    -0.354 N 
ATOM     54  C   UNL A   1      40.349  30.737  34.648  1.00  0.00     0.074 A 
ATOM     55  C   UNL A   1      41.146  30.493  35.828  1.00  0.00     0.031 C 
ATOM     56  C   UNL A   1      43.302  27.124  30.215  1.00  0.00     0.029 A 
ATOM     57  C   UNL A   1      42.112  27.955  30.027  1.00  0.00     0.049 A 
ATOM     58  H   UNL A   1      41.229  29.219  31.427  1.00  0.00     0.167 HD
ATOM     59  C   UNL A   1      39.291  31.579  34.601  1.00  0.00     0.037 A 
ATOM     60  C   UNL A   1      41.386  28.056  28.894  1.00  0.00     0.037 A 
ATOM     61  C   UNL A   1      38.509  31.813  33.419  1.00  0.00     0.049 A 
ATOM     62  C   UNL A   1      40.157  28.930  28.880  1.00  0.00     0.074 A 
ATOM     63  C   UNL A   1      37.431  32.662  33.254  1.00  0.00     0.029 A 
ATOM     64  N   UNL A   1      38.718  31.181  32.201  1.00  0.00    -0.354 N 
ATOM     65  N   UNL A   1      39.659  29.665  29.846  1.00  0.00    -0.248 NA
ATOM     66  C   UNL A   1      39.384  28.979  27.632  1.00  0.00     0.031 C 
ATOM     67  C   UNL A   1      36.948  32.498  31.952  1.00  0.00     0.029 A 
ATOM     68  C   UNL A   1      37.763  31.592  31.288  1.00  0.00     0.049 A 
ATOM     69  H   UNL A   1      39.438  30.537  32.014  1.00  0.00     0.167 HD
ATOM     70  C   UNL A   1      38.527  30.276  29.322  1.00  0.00     0.074 A 
ATOM     71  C   UNL A   1      38.412  29.829  27.948  1.00  0.00     0.031 C 
ATOM     72  C   UNL A   1      37.666  31.132  29.925  1.00  0.00     0.037 A 
BRANCH  59  73
ATOM     73  C   UNL A   1      38.887  32.254  35.877  1.00  0.00     0.064 A 
ATOM     74  C   UNL A   1      38.122  31.557  36.826  1.00  0.00     0.173 A 
ATOM     75  C   UNL A   1      39.240  33.580  36.164  1.00  0.00     0.173 A 
ATOM     76  F   UNL A   1      37.760  30.285  36.601  1.00  0.00    -0.203 F 
ATOM     77  C   UNL A   1      37.722  32.166  38.012  1.00  0.00     0.198 A 
ATOM     78  C   UNL A   1      38.863  34.177  37.365  1.00  0.00     0.198 A 
ATOM     79  F   UNL A   1      39.988  34.282  35.300  1.00  0.00    -0.203 F 
ATOM     80  F   UNL A   1      36.976  31.487  38.893  1.00  0.00    -0.200 F 
ATOM     81  C   UNL A   1      38.100  33.472  38.285  1.00  0.00     0.200 A 
ATOM     82  F   UNL A   1      39.254  35.428  37.642  1.00  0.00    -0.200 F 
ATOM     83  F   UNL A   1      37.734  34.049  39.437  1.00  0.00    -0.200 F 
ENDBRANCH  59  73
BRANCH  60  84
ATOM     84  C   UNL A   1      41.798  27.272  27.702  1.00  0.00     0.064 A 
ATOM     85  C   UNL A   1      41.316  25.971  27.487  1.00  0.00     0.173 A 
ATOM     86  C   UNL A   1      42.735  27.777  26.791  1.00  0.00     0.173 A 
ATOM     87  F   UNL A   1      40.411  25.444  28.325  1.00  0.00    -0.203 F 
ATOM     88  C   UNL A   1      41.788  25.191  26.432  1.00  0.00     0.198 A 
ATOM     89  C   UNL A   1      43.190  27.004  25.724  1.00  0.00     0.198 A 
ATOM     90  F   UNL A   1      43.204  29.025  26.937  1.00  0.00    -0.203 F 
ATOM     91  F   UNL A   1      41.346  23.935  26.280  1.00  0.00    -0.200 F 
ATOM     92  C   UNL A   1      42.727  25.708  25.554  1.00  0.00     0.200 A 
ATOM     93  F   UNL A   1      44.084  27.512  24.864  1.00  0.00    -0.200 F 
ATOM     94  F   UNL A   1      43.188  24.955  24.545  1.00  0.00    -0.200 F 
ENDBRANCH  60  84
BRANCH  72  95
ATOM     95  C   UNL A   1      36.520  31.666  29.117  1.00  0.00     0.064 A 
ATOM     96  C   UNL A   1      36.466  33.028  28.781  1.00  0.00     0.173 A 
ATOM     97  C   UNL A   1      35.414  30.864  28.801  1.00  0.00     0.173 A 
ATOM     98  F   UNL A   1      37.494  33.838  29.075  1.00  0.00    -0.203 F 
ATOM     99  C   UNL A   1      35.332  33.574  28.187  1.00  0.00     0.198 A 
ATOM    100  C   UNL A   1      34.292  31.410  28.182  1.00  0.00     0.198 A 
ATOM    101  F   UNL A   1      35.424  29.556  29.094  1.00  0.00    -0.203 F 
ATOM    102  F   UNL A   1      35.282  34.887  27.924  1.00  0.00    -0.200 F 
ATOM    103  C   UNL A   1      34.246  32.765  27.889  1.00  0.00     0.200 A 
ATOM    104  F   UNL A   1      33.249  30.625  27.879  1.00  0.00    -0.200 F 
ATOM    105  F   UNL A   1      33.151  33.293  27.325  1.00  0.00    -0.200 F 
ENDBRANCH  72  95
ENDBRANCH  46  47
ENDBRANCH  39  41
ENDBRANCH  38  39
ENDBRANCH  37  38
ENDBRANCH  36  37
ENDBRANCH  35  36
ENDBRANCH  34  35
ENDBRANCH   1  34
TORSDOF 22
ENDMDL
MODEL 2
REMARK VINA RESULT:     -10.6      4.267      7.352
REMARK SMILES O=C(CCC(=O)N1N=C(c2ccc(F)cc2)C[C@@H]1c1ccc2nccnc2c1)OCCOCCOCCOC(=O)c1ccc(-c2c3nc(c(-c4c(F)c(F)c(F)c(F)c4F)c4ccc([nH]4)c(-c4c(F)c(F)c(F)c(F)c4F)c4nc(c(-c5c(F)c(F)c(F)c(F)c5F)c5ccc2[nH]5)C=C4)C=C3)cc1
REMARK SMILES IDX 33 1 32 2 31 3 30 4 29 5 2 6 1 7 3 8 4 9 5 10 6 11 7 12 8 13
REMARK SMILES IDX 18 14 9 15 17 16 19 17 20 18 28 19 21 20 27 21 22 22 26 23
REMARK SMILES IDX 23 24 25 25 24 26 10 27 11 28 16 29 12 30 15 31 13 32 14 33
REMARK SMILES IDX 34 34 35 35 36 36 37 37 38 38 39 39 40 40 41 41 42 42 103 43
REMARK SMILES IDX 43 44 102 45 44 46 45 47 46 48 96 49 47 50 101 51 95 52
REMARK SMILES IDX 97 53 48 54 100 55 94 56 93 57 49 59 81 60 61 61 80 62 62 63
REMARK SMILES IDX 65 64 79 65 98 66 63 67 64 68 78 70 99 71 66 72 50 73 51 74
REMARK SMILES IDX 59 75 52 76 53 77 57 78 60 79 54 80 55 81 58 82 56 83 82 84
REMARK SMILES IDX 83 85 91 86 84 87 85 88 89 89 92 90 86 91 87 92 90 93 88 94
REMARK SMILES IDX 67 95 68 96 76 97 69 98 70 99 74 100 77 101 71 102 72 103
REMARK SMILES IDX 75 104 73 105
REMARK H PARENT 97 58 65 69
REMARK Flexibility Score: inf
ROOT
ATOM      1  C   UNL A   1      49.616  29.258  37.476  1.00  0.00     0.188 C 
ENDROOT
BRANCH   1   2
ATOM      2  O   UNL A   1      50.258  28.102  36.930  1.00  0.00    -0.376 OA
BRANCH   2   3
ATOM      3  C   UNL A   1      50.632  28.198  35.557  1.00  0.00     0.202 C 
BRANCH   3   4
ATOM      4  C   UNL A   1      50.681  29.679  35.244  1.00  0.00     0.261 C 
BRANCH   4   5
ATOM      5  O   UNL A   1      50.628  29.760  33.796  1.00  0.00    -0.463 OA
BRANCH   5   6
ATOM      6  C   UNL A   1      51.698  29.855  32.987  1.00  0.00     0.306 C 
ATOM      7  O   UNL A   1      52.859  29.690  33.346  1.00  0.00    -0.252 OA
BRANCH   6   8
ATOM      8  C   UNL A   1      51.350  29.833  31.576  1.00  0.00     0.132 C 
BRANCH   8   9
ATOM      9  C   UNL A   1      49.988  29.188  31.490  1.00  0.00     0.114 C 
BRANCH   9  10
ATOM     10  C   UNL A   1      48.604  29.761  31.058  1.00  0.00     0.243 C 
ATOM     11  O   UNL A   1      48.398  30.859  31.632  1.00  0.00    -0.273 OA
BRANCH  10  12
ATOM     12  N   UNL A   1      47.614  29.283  30.164  1.00  0.00    -0.225 N 
ATOM     13  N   UNL A   1      46.354  29.433  30.749  1.00  0.00    -0.174 NA
ATOM     14  C   UNL A   1      47.426  29.479  28.662  1.00  0.00     0.147 C 
ATOM     15  C   UNL A   1      45.674  30.211  29.970  1.00  0.00     0.071 C 
ATOM     16  C   UNL A   1      46.268  30.493  28.628  1.00  0.00     0.091 C 
BRANCH  14  17
ATOM     17  C   UNL A   1      47.035  28.270  27.708  1.00  0.00    -0.021 A 
ATOM     18  C   UNL A   1      47.590  28.518  26.053  1.00  0.00     0.008 A 
ATOM     19  C   UNL A   1      46.651  26.627  28.265  1.00  0.00     0.036 A 
ATOM     20  C   UNL A   1      47.851  27.209  24.919  1.00  0.00     0.031 A 
ATOM     21  C   UNL A   1      46.845  25.167  27.195  1.00  0.00     0.089 A 
ATOM     22  C   UNL A   1      47.450  25.549  25.333  1.00  0.00     0.089 A 
ATOM     23  N   UNL A   1      46.054  23.673  27.482  1.00  0.00    -0.253 NA
ATOM     24  N   UNL A   1      46.944  24.417  24.114  1.00  0.00    -0.253 NA
ATOM     25  C   UNL A   1      45.659  22.648  26.173  1.00  0.00     0.132 A 
ATOM     26  C   UNL A   1      46.063  22.997  24.565  1.00  0.00     0.132 A 
ENDBRANCH  14  17
BRANCH  15  27
ATOM     27  C   UNL A   1      44.494  30.924  30.459  1.00  0.00    -0.002 A 
ATOM     28  C   UNL A   1      44.427  31.392  31.767  1.00  0.00     0.013 A 
ATOM     29  C   UNL A   1      43.471  31.186  29.536  1.00  0.00     0.013 A 
ATOM     30  C   UNL A   1      43.329  32.170  32.144  1.00  0.00     0.040 A 
ATOM     31  C   UNL A   1      42.371  31.947  29.924  1.00  0.00     0.040 A 
ATOM     32  C   UNL A   1      42.318  32.444  31.222  1.00  0.00     0.123 A 
ATOM     33  F   UNL A   1      41.285  33.212  31.589  1.00  0.00    -0.207 F 
ENDBRANCH  15  27
ENDBRANCH  10  12
ENDBRANCH   9  10
ENDBRANCH   8   9
ENDBRANCH   6   8
ENDBRANCH   5   6
ENDBRANCH   4   5
ENDBRANCH   3   4
ENDBRANCH   2   3
ENDBRANCH   1   2
BRANCH   1  34
ATOM     34  C   UNL A   1      48.073  29.392  37.909  1.00  0.00     0.188 C 
BRANCH  34  35
ATOM     35  O   UNL A   1      47.348  28.918  39.181  1.00  0.00    -0.376 OA
BRANCH  35  36
ATOM     36  C   UNL A   1      46.864  27.404  40.383  1.00  0.00     0.202 C 
BRANCH  36  37
ATOM     37  C   UNL A   1      47.882  25.903  39.906  1.00  0.00     0.261 C 
BRANCH  37  38
ATOM     38  O   UNL A   1      47.145  25.206  38.141  1.00  0.00    -0.460 OA
BRANCH  38  39
ATOM     39  C   UNL A   1      47.077  25.231  36.695  1.00  0.00     0.338 C 
ATOM     40  O   UNL A   1      47.618  24.469  35.893  1.00  0.00    -0.246 OA
BRANCH  39  41
ATOM     41  C   UNL A   1      46.138  26.165  36.037  1.00  0.00     0.060 A 
ATOM     42  C   UNL A   1      44.780  25.762  36.002  1.00  0.00     0.016 A 
ATOM     43  C   UNL A   1      46.527  27.318  35.367  1.00  0.00     0.016 A 
ATOM     44  C   UNL A   1      43.810  26.529  35.362  1.00  0.00     0.010 A 
ATOM     45  C   UNL A   1      45.561  28.057  34.665  1.00  0.00     0.010 A 
ATOM     46  C   UNL A   1      44.207  27.661  34.652  1.00  0.00    -0.014 A 
BRANCH  46  47
ATOM     47  C   UNL A   1      43.255  28.282  33.703  1.00  0.00     0.031 A 
ATOM     48  C   UNL A   1      42.306  29.310  34.243  1.00  0.00     0.074 A 
ATOM     49  C   UNL A   1      43.234  27.951  32.401  1.00  0.00     0.049 A 
ATOM     50  N   UNL A   1      41.278  29.879  33.671  1.00  0.00    -0.248 NA
ATOM     51  C   UNL A   1      42.548  29.752  35.627  1.00  0.00     0.031 C 
ATOM     52  C   UNL A   1      44.174  27.047  31.745  1.00  0.00     0.029 A 
ATOM     53  N   UNL A   1      42.371  28.330  31.402  1.00  0.00    -0.354 N 
ATOM     54  C   UNL A   1      40.736  30.720  34.633  1.00  0.00     0.074 A 
ATOM     55  C   UNL A   1      41.547  30.594  35.822  1.00  0.00     0.031 C 
ATOM     56  C   UNL A   1      43.812  26.908  30.457  1.00  0.00     0.029 A 
ATOM     57  C   UNL A   1      42.590  27.677  30.216  1.00  0.00     0.049 A 
ATOM     58  H   UNL A   1      41.664  29.005  31.526  1.00  0.00     0.167 HD
ATOM     59  C   UNL A   1      39.647  31.516  34.531  1.00  0.00     0.037 A 
ATOM     60  C   UNL A   1      41.857  27.667  29.084  1.00  0.00     0.037 A 
ATOM     61  C   UNL A   1      38.853  31.632  33.339  1.00  0.00     0.049 A 
ATOM     62  C   UNL A   1      40.595  28.490  29.014  1.00  0.00     0.074 A 
ATOM     63  C   UNL A   1      37.742  32.425  33.120  1.00  0.00     0.029 A 
ATOM     64  N   UNL A   1      39.082  30.921  32.170  1.00  0.00    -0.354 N 
ATOM     65  N   UNL A   1      40.073  29.274  29.926  1.00  0.00    -0.248 NA
ATOM     66  C   UNL A   1      39.816  28.418  27.769  1.00  0.00     0.031 C 
ATOM     67  C   UNL A   1      37.262  32.148  31.837  1.00  0.00     0.029 A 
ATOM     68  C   UNL A   1      38.109  31.228  31.236  1.00  0.00     0.049 A 
ATOM     69  H   UNL A   1      39.825  30.293  32.026  1.00  0.00     0.167 HD
ATOM     70  C   UNL A   1      38.916  29.801  29.365  1.00  0.00     0.074 A 
ATOM     71  C   UNL A   1      38.814  29.251  28.029  1.00  0.00     0.031 C 
ATOM     72  C   UNL A   1      38.025  30.666  29.910  1.00  0.00     0.037 A 
BRANCH  59  73
ATOM     73  C   UNL A   1      39.221  32.266  35.757  1.00  0.00     0.064 A 
ATOM     74  C   UNL A   1      39.744  33.542  36.014  1.00  0.00     0.173 A 
ATOM     75  C   UNL A   1      38.311  31.730  36.680  1.00  0.00     0.173 A 
ATOM     76  F   UNL A   1      40.616  34.101  35.161  1.00  0.00    -0.203 F 
ATOM     77  C   UNL A   1      39.376  34.252  37.153  1.00  0.00     0.198 A 
ATOM     78  C   UNL A   1      37.922  32.456  37.804  1.00  0.00     0.198 A 
ATOM     79  F   UNL A   1      37.766  30.523  36.470  1.00  0.00    -0.203 F 
ATOM     80  F   UNL A   1      39.903  35.461  37.387  1.00  0.00    -0.200 F 
ATOM     81  C   UNL A   1      38.458  33.712  38.043  1.00  0.00     0.200 A 
ATOM     82  F   UNL A   1      37.013  31.947  38.646  1.00  0.00    -0.200 F 
ATOM     83  F   UNL A   1      38.087  34.407  39.126  1.00  0.00    -0.200 F 
ENDBRANCH  59  73
BRANCH  60  84
ATOM     84  C   UNL A   1      42.295  26.814  27.949  1.00  0.00     0.064 A 
ATOM     85  C   UNL A   1      43.241  27.272  27.019  1.00  0.00     0.173 A 
ATOM     86  C   UNL A   1      41.724  25.553  27.729  1.00  0.00     0.173 A 
ATOM     87  F   UNL A   1      43.823  28.468  27.189  1.00  0.00    -0.203 F 
ATOM     88  C   UNL A   1      43.567  26.521  25.891  1.00  0.00     0.198 A 
ATOM     89  C   UNL A   1      42.067  24.793  26.612  1.00  0.00     0.198 A 
ATOM     90  F   UNL A   1      40.836  25.059  28.604  1.00  0.00    -0.203 F 
ATOM     91  F   UNL A   1      44.438  27.005  24.995  1.00  0.00    -0.200 F 
ATOM     92  C   UNL A   1      42.977  25.284  25.687  1.00  0.00     0.200 A 
ATOM     93  F   UNL A   1      41.510  23.588  26.426  1.00  0.00    -0.200 F 
ATOM     94  F   UNL A   1      43.284  24.565  24.598  1.00  0.00    -0.200 F 
ENDBRANCH  60  84
BRANCH  72  95
ATOM     95  C   UNL A   1      36.856  31.096  29.073  1.00  0.00     0.064 A 
ATOM     96  C   UNL A   1      36.767  32.418  28.609  1.00  0.00     0.173 A 
ATOM     97  C   UNL A   1      35.766  30.243  28.851  1.00  0.00     0.173 A 
ATOM     98  F   UNL A   1      37.780  33.273  28.809  1.00  0.00    -0.203 F 
ATOM     99  C   UNL A   1      35.613  32.879  27.983  1.00  0.00     0.198 A 
ATOM    100  C   UNL A   1      34.623  30.703  28.200  1.00  0.00     0.198 A 
ATOM    101  F   UNL A   1      35.809  28.970  29.267  1.00  0.00    -0.203 F 
ATOM    102  F   UNL A   1      35.530  34.160  27.596  1.00  0.00    -0.200 F 
ATOM    103  C   UNL A   1      34.543  32.022  27.780  1.00  0.00     0.200 A 
ATOM    104  F   UNL A   1      33.594  29.870  27.989  1.00  0.00    -0.200 F 
ATOM    105  F   UNL A   1      33.428  32.470  27.185  1.00  0.00    -0.200 F 
ENDBRANCH  72  95
ENDBRANCH  46  47
ENDBRANCH  39  41
ENDBRANCH  38  39
ENDBRANCH  37  38
ENDBRANCH  36  37
ENDBRANCH  35  36
ENDBRANCH  34  35
ENDBRANCH   1  34
TORSDOF 22
ENDMDL
MODEL 3
REMARK VINA RESULT:     -10.6      9.076     17.356
REMARK SMILES O=C(CCC(=O)N1N=C(c2ccc(F)cc2)C[C@@H]1c1ccc2nccnc2c1)OCCOCCOCCOC(=O)c1ccc(-c2c3nc(c(-c4c(F)c(F)c(F)c(F)c4F)c4ccc([nH]4)c(-c4c(F)c(F)c(F)c(F)c4F)c4nc(c(-c5c(F)c(F)c(F)c(F)c5F)c5ccc2[nH]5)C=C4)C=C3)cc1
REMARK SMILES IDX 33 1 32 2 31 3 30 4 29 5 2 6 1 7 3 8 4 9 5 10 6 11 7 12 8 13
REMARK SMILES IDX 18 14 9 15 17 16 19 17 20 18 28 19 21 20 27 21 22 22 26 23
REMARK SMILES IDX 23 24 25 25 24 26 10 27 11 28 16 29 12 30 15 31 13 32 14 33
REMARK SMILES IDX 34 34 35 35 36 36 37 37 38 38 39 39 40 40 41 41 42 42 103 43
REMARK SMILES IDX 43 44 102 45 44 46 45 47 46 48 96 49 47 50 101 51 95 52
REMARK SMILES IDX 97 53 48 54 100 55 94 56 93 57 49 59 81 60 61 61 80 62 62 63
REMARK SMILES IDX 65 64 79 65 98 66 63 67 64 68 78 70 99 71 66 72 50 73 51 74
REMARK SMILES IDX 59 75 52 76 53 77 57 78 60 79 54 80 55 81 58 82 56 83 82 84
REMARK SMILES IDX 83 85 91 86 84 87 85 88 89 89 92 90 86 91 87 92 90 93 88 94
REMARK SMILES IDX 67 95 68 96 76 97 69 98 70 99 74 100 77 101 71 102 72 103
REMARK SMILES IDX 75 104 73 105
REMARK H PARENT 97 58 65 69
REMARK Flexibility Score: inf
ROOT
ATOM      1  C   UNL A   1      35.742  33.995  33.337  1.00  0.00     0.188 C 
ENDROOT
BRANCH   1   2
ATOM      2  O   UNL A   1      35.212  35.074  32.562  1.00  0.00    -0.376 OA
BRANCH   2   3
ATOM      3  C   UNL A   1      33.955  34.822  31.937  1.00  0.00     0.202 C 
BRANCH   3   4
ATOM      4  C   UNL A   1      34.226  34.822  30.448  1.00  0.00     0.261 C 
BRANCH   4   5
ATOM      5  O   UNL A   1      33.989  33.455  30.021  1.00  0.00    -0.463 OA
BRANCH   5   6
ATOM      6  C   UNL A   1      34.948  32.549  29.760  1.00  0.00     0.306 C 
ATOM      7  O   UNL A   1      35.571  31.929  30.616  1.00  0.00    -0.252 OA
BRANCH   6   8
ATOM      8  C   UNL A   1      34.956  32.109  28.375  1.00  0.00     0.132 C 
BRANCH   8   9
ATOM      9  C   UNL A   1      34.439  30.691  28.383  1.00  0.00     0.114 C 
BRANCH   9  10
ATOM     10  C   UNL A   1      34.483  29.574  27.296  1.00  0.00     0.243 C 
ATOM     11  O   UNL A   1      35.561  28.935  27.384  1.00  0.00    -0.273 OA
BRANCH  10  12
ATOM     12  N   UNL A   1      33.554  29.176  26.302  1.00  0.00    -0.225 N 
ATOM     13  N   UNL A   1      33.881  27.894  25.854  1.00  0.00    -0.174 NA
ATOM     14  C   UNL A   1      32.035  29.292  26.233  1.00  0.00     0.147 C 
ATOM     15  C   UNL A   1      32.859  27.142  26.106  1.00  0.00     0.071 C 
ATOM     16  C   UNL A   1      31.604  27.841  26.519  1.00  0.00     0.091 C 
BRANCH  14  17
ATOM     17  C   UNL A   1      31.296  29.760  24.906  1.00  0.00    -0.021 A 
ATOM     18  C   UNL A   1      30.990  28.419  23.803  1.00  0.00     0.008 A 
ATOM     19  C   UNL A   1      30.345  31.253  24.752  1.00  0.00     0.036 A 
ATOM     20  C   UNL A   1      29.738  28.445  22.579  1.00  0.00     0.031 A 
ATOM     21  C   UNL A   1      29.027  31.444  23.511  1.00  0.00     0.089 A 
ATOM     22  C   UNL A   1      28.775  29.886  22.289  1.00  0.00     0.089 A 
ATOM     23  N   UNL A   1      28.432  32.965  22.990  1.00  0.00    -0.253 NA
ATOM     24  N   UNL A   1      28.146  30.244  20.709  1.00  0.00    -0.253 NA
ATOM     25  C   UNL A   1      27.806  33.144  21.410  1.00  0.00     0.132 A 
ATOM     26  C   UNL A   1      27.679  31.863  20.311  1.00  0.00     0.132 A 
ENDBRANCH  14  17
BRANCH  15  27
ATOM     27  C   UNL A   1      32.991  25.687  26.173  1.00  0.00    -0.002 A 
ATOM     28  C   UNL A   1      34.202  25.061  25.899  1.00  0.00     0.013 A 
ATOM     29  C   UNL A   1      31.873  24.957  26.603  1.00  0.00     0.013 A 
ATOM     30  C   UNL A   1      34.303  23.681  26.096  1.00  0.00     0.040 A 
ATOM     31  C   UNL A   1      31.975  23.579  26.778  1.00  0.00     0.040 A 
ATOM     32  C   UNL A   1      33.195  22.957  26.537  1.00  0.00     0.123 A 
ATOM     33  F   UNL A   1      33.312  21.639  26.746  1.00  0.00    -0.207 F 
ENDBRANCH  15  27
ENDBRANCH  10  12
ENDBRANCH   9  10
ENDBRANCH   8   9
ENDBRANCH   6   8
ENDBRANCH   5   6
ENDBRANCH   4   5
ENDBRANCH   3   4
ENDBRANCH   2   3
ENDBRANCH   1   2
BRANCH   1  34
ATOM     34  C   UNL A   1      37.236  33.404  33.275  1.00  0.00     0.188 C 
BRANCH  34  35
ATOM     35  O   UNL A   1      38.496  33.944  32.574  1.00  0.00    -0.376 OA
BRANCH  35  36
ATOM     36  C   UNL A   1      39.747  33.829  31.027  1.00  0.00     0.202 C 
BRANCH  36  37
ATOM     37  C   UNL A   1      39.025  34.795  29.591  1.00  0.00     0.261 C 
BRANCH  37  38
ATOM     38  O   UNL A   1      40.456  36.093  28.951  1.00  0.00    -0.460 OA
BRANCH  38  39
ATOM     39  C   UNL A   1      41.606  36.412  28.132  1.00  0.00     0.338 C 
ATOM     40  O   UNL A   1      42.049  37.523  27.837  1.00  0.00    -0.246 OA
BRANCH  39  41
ATOM     41  C   UNL A   1      42.496  35.318  27.686  1.00  0.00     0.060 A 
ATOM     42  C   UNL A   1      43.077  34.531  28.711  1.00  0.00     0.016 A 
ATOM     43  C   UNL A   1      42.874  35.109  26.365  1.00  0.00     0.016 A 
ATOM     44  C   UNL A   1      43.975  33.507  28.421  1.00  0.00     0.010 A 
ATOM     45  C   UNL A   1      43.830  34.121  26.079  1.00  0.00     0.010 A 
ATOM     46  C   UNL A   1      44.388  33.327  27.103  1.00  0.00    -0.014 A 
BRANCH  46  47
ATOM     47  C   UNL A   1      45.576  32.485  26.831  1.00  0.00     0.031 A 
ATOM     48  C   UNL A   1      45.387  30.996  26.831  1.00  0.00     0.074 A 
ATOM     49  C   UNL A   1      46.784  33.019  26.588  1.00  0.00     0.049 A 
ATOM     50  N   UNL A   1      46.279  30.043  26.785  1.00  0.00    -0.248 NA
ATOM     51  C   UNL A   1      43.995  30.520  26.899  1.00  0.00     0.031 C 
ATOM     52  C   UNL A   1      47.064  34.447  26.459  1.00  0.00     0.029 A 
ATOM     53  N   UNL A   1      48.006  32.415  26.424  1.00  0.00    -0.354 N 
ATOM     54  C   UNL A   1      45.559  28.858  26.850  1.00  0.00     0.074 A 
ATOM     55  C   UNL A   1      44.159  29.208  26.933  1.00  0.00     0.031 C 
ATOM     56  C   UNL A   1      48.387  34.611  26.276  1.00  0.00     0.029 A 
ATOM     57  C   UNL A   1      49.045  33.305  26.322  1.00  0.00     0.049 A 
ATOM     58  H   UNL A   1      48.125  31.438  26.384  1.00  0.00     0.167 HD
ATOM     59  C   UNL A   1      46.032  27.591  26.854  1.00  0.00     0.037 A 
ATOM     60  C   UNL A   1      50.376  33.087  26.316  1.00  0.00     0.037 A 
ATOM     61  C   UNL A   1      47.427  27.259  26.768  1.00  0.00     0.049 A 
ATOM     62  C   UNL A   1      50.893  31.674  26.410  1.00  0.00     0.074 A 
ATOM     63  C   UNL A   1      48.014  26.008  26.741  1.00  0.00     0.029 A 
ATOM     64  N   UNL A   1      48.453  28.191  26.709  1.00  0.00    -0.354 N 
ATOM     65  N   UNL A   1      50.215  30.553  26.486  1.00  0.00    -0.248 NA
ATOM     66  C   UNL A   1      52.351  31.493  26.432  1.00  0.00     0.031 C 
ATOM     67  C   UNL A   1      49.401  26.183  26.727  1.00  0.00     0.029 A 
ATOM     68  C   UNL A   1      49.676  27.543  26.684  1.00  0.00     0.049 A 
ATOM     69  H   UNL A   1      48.331  29.167  26.687  1.00  0.00     0.167 HD
ATOM     70  C   UNL A   1      51.158  29.534  26.548  1.00  0.00     0.074 A 
ATOM     71  C   UNL A   1      52.459  30.170  26.498  1.00  0.00     0.031 C 
ATOM     72  C   UNL A   1      50.961  28.196  26.636  1.00  0.00     0.037 A 
BRANCH  59  73
ATOM     73  C   UNL A   1      45.036  26.482  27.019  1.00  0.00     0.064 A 
ATOM     74  C   UNL A   1      44.547  25.806  25.891  1.00  0.00     0.173 A 
ATOM     75  C   UNL A   1      44.558  26.091  28.278  1.00  0.00     0.173 A 
ATOM     76  F   UNL A   1      44.976  26.139  24.664  1.00  0.00    -0.203 F 
ATOM     77  C   UNL A   1      43.612  24.783  26.016  1.00  0.00     0.198 A 
ATOM     78  C   UNL A   1      43.644  25.047  28.403  1.00  0.00     0.198 A 
ATOM     79  F   UNL A   1      45.009  26.691  29.389  1.00  0.00    -0.203 F 
ATOM     80  F   UNL A   1      43.146  24.165  24.923  1.00  0.00    -0.200 F 
ATOM     81  C   UNL A   1      43.167  24.398  27.273  1.00  0.00     0.200 A 
ATOM     82  F   UNL A   1      43.238  24.655  29.618  1.00  0.00    -0.200 F 
ATOM     83  F   UNL A   1      42.285  23.398  27.394  1.00  0.00    -0.200 F 
ENDBRANCH  59  73
BRANCH  60  84
ATOM     84  C   UNL A   1      51.297  34.251  26.254  1.00  0.00     0.064 A 
ATOM     85  C   UNL A   1      51.612  34.989  27.405  1.00  0.00     0.173 A 
ATOM     86  C   UNL A   1      51.824  34.693  25.034  1.00  0.00     0.173 A 
ATOM     87  F   UNL A   1      51.139  34.603  28.600  1.00  0.00    -0.203 F 
ATOM     88  C   UNL A   1      52.383  36.147  27.332  1.00  0.00     0.198 A 
ATOM     89  C   UNL A   1      52.614  35.840  24.964  1.00  0.00     0.198 A 
ATOM     90  F   UNL A   1      51.576  34.005  23.909  1.00  0.00    -0.203 F 
ATOM     91  F   UNL A   1      52.627  36.859  28.441  1.00  0.00    -0.200 F 
ATOM     92  C   UNL A   1      52.880  36.574  26.111  1.00  0.00     0.200 A 
ATOM     93  F   UNL A   1      53.110  36.239  23.785  1.00  0.00    -0.200 F 
ATOM     94  F   UNL A   1      53.614  37.693  26.038  1.00  0.00    -0.200 F 
ENDBRANCH  60  84
BRANCH  72  95
ATOM     95  C   UNL A   1      52.167  27.305  26.671  1.00  0.00     0.064 A 
ATOM     96  C   UNL A   1      52.586  26.636  25.510  1.00  0.00     0.173 A 
ATOM     97  C   UNL A   1      52.818  27.006  27.876  1.00  0.00     0.173 A 
ATOM     98  F   UNL A   1      51.985  26.880  24.336  1.00  0.00    -0.203 F 
ATOM     99  C   UNL A   1      53.591  25.675  25.561  1.00  0.00     0.198 A 
ATOM    100  C   UNL A   1      53.841  26.062  27.917  1.00  0.00     0.198 A 
ATOM    101  F   UNL A   1      52.459  27.626  29.009  1.00  0.00    -0.203 F 
ATOM    102  F   UNL A   1      53.937  25.010  24.450  1.00  0.00    -0.200 F 
ATOM    103  C   UNL A   1      54.216  25.388  26.764  1.00  0.00     0.200 A 
ATOM    104  F   UNL A   1      54.457  25.796  29.078  1.00  0.00    -0.200 F 
ATOM    105  F   UNL A   1      55.178  24.456  26.815  1.00  0.00    -0.200 F 
ENDBRANCH  72  95
ENDBRANCH  46  47
ENDBRANCH  39  41
ENDBRANCH  38  39
ENDBRANCH  37  38
ENDBRANCH  36  37
ENDBRANCH  35  36
ENDBRANCH  34  35
ENDBRANCH   1  34
TORSDOF 22
ENDMDL
