MODEL 1
REMARK VINA RESULT:     -10.7      0.000      0.000
REMARK SMILES C[C@@H]1[C@H](C(=O)OCCOCCOCCOC(=O)c2ccc(-c3c4nc(c(-c5c(F)c(F)c(F)c(F)c5F)c5ccc([nH]5)c(-c5c(F)c(F)c(F)c(F)c5F)c5nc(c(-c6c(F)c(F)c(F)c(F)c6F)c6ccc3[nH]6)C=C5)C=C4)cc2)CCN1C(=O)/C=C/c1cccc(Br)c1
REMARK SMILES IDX 10 1 9 2 8 3 7 4 6 5 4 6 5 7 3 8 1 9 2 10 83 11 81 12 82 13
REMARK SMILES IDX 84 14 85 15 86 16 87 17 88 18 89 19 94 20 90 21 92 22 91 23
REMARK SMILES IDX 93 24 11 25 12 26 13 27 14 28 15 29 16 30 17 31 18 32 19 33
REMARK SMILES IDX 80 34 20 35 79 36 21 37 22 38 23 39 73 40 24 41 78 42 72 43
REMARK SMILES IDX 74 44 25 45 77 46 71 47 70 48 26 50 58 51 38 52 57 53 39 54
REMARK SMILES IDX 42 55 56 56 75 57 40 58 41 59 55 61 76 62 43 63 27 64 28 65
REMARK SMILES IDX 36 66 29 67 30 68 34 69 37 70 31 71 32 72 35 73 33 74 59 75
REMARK SMILES IDX 60 76 68 77 61 78 62 79 66 80 69 81 63 82 64 83 67 84 65 85
REMARK SMILES IDX 44 86 45 87 53 88 46 89 47 90 51 91 54 92 48 93 49 94 52 95
REMARK SMILES IDX 50 96
REMARK H PARENT 74 49 42 60
REMARK Flexibility Score: inf
ROOT
ATOM      1  C   UNL A   1      34.570  22.489  24.228  1.00  0.00     0.188 C 
ENDROOT
BRANCH   1   2
ATOM      2  O   UNL A   1      33.866  21.493  24.938  1.00  0.00    -0.376 OA
BRANCH   2   3
ATOM      3  C   UNL A   1      33.860  21.577  26.360  1.00  0.00     0.202 C 
BRANCH   3   4
ATOM      4  C   UNL A   1      33.470  22.899  27.041  1.00  0.00     0.261 C 
BRANCH   4   5
ATOM      5  O   UNL A   1      32.110  22.918  27.532  1.00  0.00    -0.463 OA
BRANCH   5   6
ATOM      6  C   UNL A   1      31.150  23.184  26.614  1.00  0.00     0.311 C 
ATOM      7  O   UNL A   1      30.178  22.462  26.414  1.00  0.00    -0.252 OA
BRANCH   6   8
ATOM      8  C   UNL A   1      31.283  24.536  25.939  1.00  0.00     0.123 C 
ATOM      9  C   UNL A   1      30.950  23.704  23.493  1.00  0.00     0.032 C 
ATOM     10  C   UNL A   1      31.602  24.701  24.445  1.00  0.00     0.096 C 
ATOM     11  N   UNL A   1      31.147  26.068  24.143  1.00  0.00    -0.336 N 
ATOM     12  C   UNL A   1      29.988  25.331  26.083  1.00  0.00     0.039 C 
ATOM     13  C   UNL A   1      30.195  26.513  25.153  1.00  0.00     0.121 C 
BRANCH  11  14
ATOM     14  C   UNL A   1      31.504  26.957  23.155  1.00  0.00     0.246 C 
ATOM     15  O   UNL A   1      32.440  26.698  22.391  1.00  0.00    -0.270 OA
BRANCH  14  16
ATOM     16  C   UNL A   1      30.805  28.256  22.895  1.00  0.00     0.072 C 
ATOM     17  C   UNL A   1      29.534  28.559  22.596  1.00  0.00     0.014 C 
BRANCH  17  18
ATOM     18  C   UNL A   1      29.018  29.909  22.310  1.00  0.00    -0.024 A 
ATOM     19  C   UNL A   1      28.215  30.072  21.171  1.00  0.00     0.008 A 
ATOM     20  C   UNL A   1      29.391  31.045  23.041  1.00  0.00     0.023 A 
ATOM     21  C   UNL A   1      27.786  31.338  20.769  1.00  0.00     0.002 A 
ATOM     22  C   UNL A   1      28.960  32.311  22.630  1.00  0.00     0.018 A 
ATOM     23  C   UNL A   1      28.161  32.464  21.498  1.00  0.00     0.016 A 
ATOM     24  Br  UNL A   1      29.498  33.846  23.596  1.00  0.00    -0.051 Br
ENDBRANCH  17  18
ENDBRANCH  14  16
ENDBRANCH  11  14
ENDBRANCH   6   8
ENDBRANCH   5   6
ENDBRANCH   4   5
ENDBRANCH   3   4
ENDBRANCH   2   3
ENDBRANCH   1   2
BRANCH   1  25
ATOM     25  C   UNL A   1      36.060  22.686  24.514  1.00  0.00     0.188 C 
BRANCH  25  26
ATOM     26  O   UNL A   1      37.025  21.767  24.070  1.00  0.00    -0.376 OA
BRANCH  26  27
ATOM     27  C   UNL A   1      37.690  20.882  24.963  1.00  0.00     0.202 C 
BRANCH  27  28
ATOM     28  C   UNL A   1      39.018  21.135  25.712  1.00  0.00     0.261 C 
BRANCH  28  29
ATOM     29  O   UNL A   1      39.591  20.073  26.474  1.00  0.00    -0.460 OA
BRANCH  29  30
ATOM     30  C   UNL A   1      40.900  19.808  26.215  1.00  0.00     0.338 C 
ATOM     31  O   UNL A   1      41.351  18.846  25.632  1.00  0.00    -0.246 OA
BRANCH  30  32
ATOM     32  C   UNL A   1      41.669  21.037  26.529  1.00  0.00     0.060 A 
ATOM     33  C   UNL A   1      41.872  21.376  27.877  1.00  0.00     0.016 A 
ATOM     34  C   UNL A   1      42.234  21.805  25.514  1.00  0.00     0.016 A 
ATOM     35  C   UNL A   1      42.631  22.497  28.212  1.00  0.00     0.010 A 
ATOM     36  C   UNL A   1      42.964  22.948  25.849  1.00  0.00     0.010 A 
ATOM     37  C   UNL A   1      43.144  23.314  27.197  1.00  0.00    -0.014 A 
BRANCH  37  38
ATOM     38  C   UNL A   1      43.674  24.661  27.519  1.00  0.00     0.031 A 
ATOM     39  C   UNL A   1      42.707  25.689  28.038  1.00  0.00     0.074 A 
ATOM     40  C   UNL A   1      44.971  24.976  27.354  1.00  0.00     0.049 A 
ATOM     41  N   UNL A   1      42.888  26.963  28.275  1.00  0.00    -0.248 NA
ATOM     42  C   UNL A   1      41.342  25.211  28.318  1.00  0.00     0.031 C 
ATOM     43  C   UNL A   1      46.019  24.059  26.917  1.00  0.00     0.029 A 
ATOM     44  N   UNL A   1      45.620  26.176  27.525  1.00  0.00    -0.354 N 
ATOM     45  C   UNL A   1      41.663  27.438  28.722  1.00  0.00     0.074 A 
ATOM     46  C   UNL A   1      40.737  26.328  28.691  1.00  0.00     0.031 C 
ATOM     47  C   UNL A   1      47.181  24.733  26.835  1.00  0.00     0.029 A 
ATOM     48  C   UNL A   1      46.947  26.137  27.173  1.00  0.00     0.049 A 
ATOM     49  H   UNL A   1      45.176  26.984  27.867  1.00  0.00     0.167 HD
ATOM     50  C   UNL A   1      41.341  28.687  29.133  1.00  0.00     0.037 A 
ATOM     51  C   UNL A   1      47.856  27.132  27.103  1.00  0.00     0.037 A 
ATOM     52  C   UNL A   1      42.261  29.793  29.158  1.00  0.00     0.049 A 
ATOM     53  C   UNL A   1      47.444  28.539  27.466  1.00  0.00     0.074 A 
ATOM     54  C   UNL A   1      42.030  31.097  29.555  1.00  0.00     0.029 A 
ATOM     55  N   UNL A   1      43.588  29.723  28.761  1.00  0.00    -0.354 N 
ATOM     56  N   UNL A   1      46.287  28.984  27.898  1.00  0.00    -0.248 NA
ATOM     57  C   UNL A   1      48.468  29.587  27.330  1.00  0.00     0.031 C 
ATOM     58  C   UNL A   1      43.202  31.831  29.343  1.00  0.00     0.029 A 
ATOM     59  C   UNL A   1      44.183  30.969  28.880  1.00  0.00     0.049 A 
ATOM     60  H   UNL A   1      44.041  28.909  28.442  1.00  0.00     0.167 HD
ATOM     61  C   UNL A   1      46.457  30.345  28.123  1.00  0.00     0.074 A 
ATOM     62  C   UNL A   1      47.831  30.653  27.790  1.00  0.00     0.031 C 
ATOM     63  C   UNL A   1      45.558  31.258  28.566  1.00  0.00     0.037 A 
BRANCH  50  64
ATOM     64  C   UNL A   1      39.923  28.931  29.562  1.00  0.00     0.064 A 
ATOM     65  C   UNL A   1      38.945  29.375  28.660  1.00  0.00     0.173 A 
ATOM     66  C   UNL A   1      39.530  28.684  30.886  1.00  0.00     0.173 A 
ATOM     67  F   UNL A   1      39.272  29.643  27.386  1.00  0.00    -0.203 F 
ATOM     68  C   UNL A   1      37.633  29.589  29.074  1.00  0.00     0.198 A 
ATOM     69  C   UNL A   1      38.211  28.866  31.288  1.00  0.00     0.198 A 
ATOM     70  F   UNL A   1      40.425  28.256  31.789  1.00  0.00    -0.203 F 
ATOM     71  F   UNL A   1      36.727  30.063  28.207  1.00  0.00    -0.200 F 
ATOM     72  C   UNL A   1      37.265  29.326  30.384  1.00  0.00     0.200 A 
ATOM     73  F   UNL A   1      37.854  28.596  32.552  1.00  0.00    -0.200 F 
ATOM     74  F   UNL A   1      35.999  29.521  30.779  1.00  0.00    -0.200 F 
ENDBRANCH  50  64
BRANCH  51  75
ATOM     75  C   UNL A   1      49.247  26.853  26.653  1.00  0.00     0.064 A 
ATOM     76  C   UNL A   1      49.599  26.941  25.299  1.00  0.00     0.173 A 
ATOM     77  C   UNL A   1      50.239  26.440  27.556  1.00  0.00     0.173 A 
ATOM     78  F   UNL A   1      48.680  27.301  24.391  1.00  0.00    -0.203 F 
ATOM     79  C   UNL A   1      50.878  26.599  24.861  1.00  0.00     0.198 A 
ATOM     80  C   UNL A   1      51.526  26.131  27.123  1.00  0.00     0.198 A 
ATOM     81  F   UNL A   1      49.955  26.331  28.863  1.00  0.00    -0.203 F 
ATOM     82  F   UNL A   1      51.167  26.629  23.553  1.00  0.00    -0.200 F 
ATOM     83  C   UNL A   1      51.842  26.199  25.775  1.00  0.00     0.200 A 
ATOM     84  F   UNL A   1      52.458  25.755  28.010  1.00  0.00    -0.200 F 
ATOM     85  F   UNL A   1      53.070  25.866  25.353  1.00  0.00    -0.200 F 
ENDBRANCH  51  75
BRANCH  63  86
ATOM     86  C   UNL A   1      46.040  32.668  28.777  1.00  0.00     0.064 A 
ATOM     87  C   UNL A   1      45.915  33.653  27.787  1.00  0.00     0.173 A 
ATOM     88  C   UNL A   1      46.592  33.048  30.012  1.00  0.00     0.173 A 
ATOM     89  F   UNL A   1      45.405  33.343  26.586  1.00  0.00    -0.203 F 
ATOM     90  C   UNL A   1      46.352  34.957  28.014  1.00  0.00     0.198 A 
ATOM     91  C   UNL A   1      46.993  34.359  30.248  1.00  0.00     0.198 A 
ATOM     92  F   UNL A   1      46.725  32.148  30.999  1.00  0.00    -0.203 F 
ATOM     93  F   UNL A   1      46.271  35.867  27.034  1.00  0.00    -0.200 F 
ATOM     94  C   UNL A   1      46.881  35.311  29.246  1.00  0.00     0.200 A 
ATOM     95  F   UNL A   1      47.487  34.703  31.445  1.00  0.00    -0.200 F 
ATOM     96  F   UNL A   1      47.291  36.567  29.464  1.00  0.00    -0.200 F 
ENDBRANCH  63  86
ENDBRANCH  37  38
ENDBRANCH  30  32
ENDBRANCH  29  30
ENDBRANCH  28  29
ENDBRANCH  27  28
ENDBRANCH  26  27
ENDBRANCH  25  26
ENDBRANCH   1  25
TORSDOF 20
ENDMDL
MODEL 2
REMARK VINA RESULT:     -10.7      2.254      7.752
REMARK SMILES C[C@@H]1[C@H](C(=O)OCCOCCOCCOC(=O)c2ccc(-c3c4nc(c(-c5c(F)c(F)c(F)c(F)c5F)c5ccc([nH]5)c(-c5c(F)c(F)c(F)c(F)c5F)c5nc(c(-c6c(F)c(F)c(F)c(F)c6F)c6ccc3[nH]6)C=C5)C=C4)cc2)CCN1C(=O)/C=C/c1cccc(Br)c1
REMARK SMILES IDX 10 1 9 2 8 3 7 4 6 5 4 6 5 7 3 8 1 9 2 10 83 11 81 12 82 13
REMARK SMILES IDX 84 14 85 15 86 16 87 17 88 18 89 19 94 20 90 21 92 22 91 23
REMARK SMILES IDX 93 24 11 25 12 26 13 27 14 28 15 29 16 30 17 31 18 32 19 33
REMARK SMILES IDX 80 34 20 35 79 36 21 37 22 38 23 39 73 40 24 41 78 42 72 43
REMARK SMILES IDX 74 44 25 45 77 46 71 47 70 48 26 50 58 51 38 52 57 53 39 54
REMARK SMILES IDX 42 55 56 56 75 57 40 58 41 59 55 61 76 62 43 63 27 64 28 65
REMARK SMILES IDX 36 66 29 67 30 68 34 69 37 70 31 71 32 72 35 73 33 74 59 75
REMARK SMILES IDX 60 76 68 77 61 78 62 79 66 80 69 81 63 82 64 83 67 84 65 85
REMARK SMILES IDX 44 86 45 87 53 88 46 89 47 90 51 91 54 92 48 93 49 94 52 95
REMARK SMILES IDX 50 96
REMARK H PARENT 74 49 42 60
REMARK Flexibility Score: inf
ROOT
ATOM      1  C   UNL A   1      34.034  21.507  27.164  1.00  0.00     0.188 C 
ENDROOT
BRANCH   1   2
ATOM      2  O   UNL A   1      32.847  21.990  27.756  1.00  0.00    -0.376 OA
BRANCH   2   3
ATOM      3  C   UNL A   1      32.102  22.969  27.036  1.00  0.00     0.202 C 
BRANCH   3   4
ATOM      4  C   UNL A   1      32.834  23.941  26.097  1.00  0.00     0.261 C 
BRANCH   4   5
ATOM      5  O   UNL A   1      32.775  23.554  24.705  1.00  0.00    -0.463 OA
BRANCH   5   6
ATOM      6  C   UNL A   1      31.655  23.914  24.034  1.00  0.00     0.311 C 
ATOM      7  O   UNL A   1      31.015  23.153  23.316  1.00  0.00    -0.252 OA
BRANCH   6   8
ATOM      8  C   UNL A   1      31.154  25.311  24.351  1.00  0.00     0.123 C 
ATOM      9  C   UNL A   1      32.746  26.594  22.736  1.00  0.00     0.032 C 
ATOM     10  C   UNL A   1      31.960  26.583  24.043  1.00  0.00     0.096 C 
ATOM     11  N   UNL A   1      30.941  27.645  24.035  1.00  0.00    -0.336 N 
ATOM     12  C   UNL A   1      29.837  25.579  23.627  1.00  0.00     0.039 C 
ATOM     13  C   UNL A   1      29.618  27.067  23.835  1.00  0.00     0.121 C 
BRANCH  11  14
ATOM     14  C   UNL A   1      31.030  29.003  24.237  1.00  0.00     0.246 C 
ATOM     15  O   UNL A   1      30.211  29.766  23.714  1.00  0.00    -0.270 OA
BRANCH  14  16
ATOM     16  C   UNL A   1      32.061  29.663  25.100  1.00  0.00     0.072 C 
ATOM     17  C   UNL A   1      32.857  29.205  26.076  1.00  0.00     0.014 C 
BRANCH  17  18
ATOM     18  C   UNL A   1      33.790  30.018  26.875  1.00  0.00    -0.024 A 
ATOM     19  C   UNL A   1      34.940  29.387  27.375  1.00  0.00     0.008 A 
ATOM     20  C   UNL A   1      33.525  31.338  27.259  1.00  0.00     0.023 A 
ATOM     21  C   UNL A   1      35.811  30.057  28.236  1.00  0.00     0.002 A 
ATOM     22  C   UNL A   1      34.400  32.003  28.125  1.00  0.00     0.018 A 
ATOM     23  C   UNL A   1      35.540  31.368  28.616  1.00  0.00     0.016 A 
ATOM     24  Br  UNL A   1      34.018  33.772  28.673  1.00  0.00    -0.051 Br
ENDBRANCH  17  18
ENDBRANCH  14  16
ENDBRANCH  11  14
ENDBRANCH   6   8
ENDBRANCH   5   6
ENDBRANCH   4   5
ENDBRANCH   3   4
ENDBRANCH   2   3
ENDBRANCH   1   2
BRANCH   1  25
ATOM     25  C   UNL A   1      33.930  20.499  26.017  1.00  0.00     0.188 C 
BRANCH  25  26
ATOM     26  O   UNL A   1      34.767  20.573  24.891  1.00  0.00    -0.376 OA
BRANCH  26  27
ATOM     27  C   UNL A   1      36.185  20.530  25.002  1.00  0.00     0.202 C 
BRANCH  27  28
ATOM     28  C   UNL A   1      37.095  21.544  25.732  1.00  0.00     0.261 C 
BRANCH  28  29
ATOM     29  O   UNL A   1      38.454  21.671  25.314  1.00  0.00    -0.460 OA
BRANCH  29  30
ATOM     30  C   UNL A   1      39.385  21.445  26.281  1.00  0.00     0.338 C 
ATOM     31  O   UNL A   1      39.906  20.386  26.562  1.00  0.00    -0.246 OA
BRANCH  30  32
ATOM     32  C   UNL A   1      39.862  22.767  26.752  1.00  0.00     0.060 A 
ATOM     33  C   UNL A   1      39.239  23.923  26.252  1.00  0.00     0.016 A 
ATOM     34  C   UNL A   1      40.861  22.864  27.718  1.00  0.00     0.016 A 
ATOM     35  C   UNL A   1      39.626  25.183  26.709  1.00  0.00     0.010 A 
ATOM     36  C   UNL A   1      41.273  24.127  28.149  1.00  0.00     0.010 A 
ATOM     37  C   UNL A   1      40.677  25.293  27.628  1.00  0.00    -0.014 A 
BRANCH  37  38
ATOM     38  C   UNL A   1      41.310  26.609  27.884  1.00  0.00     0.031 A 
ATOM     39  C   UNL A   1      42.715  26.819  27.391  1.00  0.00     0.074 A 
ATOM     40  C   UNL A   1      40.671  27.593  28.540  1.00  0.00     0.049 A 
ATOM     41  N   UNL A   1      43.530  27.822  27.590  1.00  0.00    -0.248 NA
ATOM     42  C   UNL A   1      43.279  25.738  26.563  1.00  0.00     0.031 C 
ATOM     43  C   UNL A   1      39.292  27.540  29.017  1.00  0.00     0.029 A 
ATOM     44  N   UNL A   1      41.117  28.833  28.930  1.00  0.00    -0.354 N 
ATOM     45  C   UNL A   1      44.702  27.491  26.923  1.00  0.00     0.074 A 
ATOM     46  C   UNL A   1      44.507  26.181  26.342  1.00  0.00     0.031 C 
ATOM     47  C   UNL A   1      39.008  28.691  29.654  1.00  0.00     0.029 A 
ATOM     48  C   UNL A   1      40.198  29.541  29.666  1.00  0.00     0.049 A 
ATOM     49  H   UNL A   1      42.009  29.181  28.704  1.00  0.00     0.167 HD
ATOM     50  C   UNL A   1      45.836  28.218  26.797  1.00  0.00     0.037 A 
ATOM     51  C   UNL A   1      40.321  30.725  30.300  1.00  0.00     0.037 A 
ATOM     52  C   UNL A   1      46.032  29.519  27.380  1.00  0.00     0.049 A 
ATOM     53  C   UNL A   1      41.633  31.470  30.232  1.00  0.00     0.074 A 
ATOM     54  C   UNL A   1      47.146  30.335  27.311  1.00  0.00     0.029 A 
ATOM     55  N   UNL A   1      45.090  30.189  28.147  1.00  0.00    -0.354 N 
ATOM     56  N   UNL A   1      42.736  31.159  29.593  1.00  0.00    -0.248 NA
ATOM     57  C   UNL A   1      41.718  32.736  30.978  1.00  0.00     0.031 C 
ATOM     58  C   UNL A   1      46.900  31.474  28.086  1.00  0.00     0.029 A 
ATOM     59  C   UNL A   1      45.608  31.399  28.580  1.00  0.00     0.049 A 
ATOM     60  H   UNL A   1      44.188  29.854  28.355  1.00  0.00     0.167 HD
ATOM     61  C   UNL A   1      43.623  32.204  29.824  1.00  0.00     0.074 A 
ATOM     62  C   UNL A   1      42.929  33.164  30.655  1.00  0.00     0.031 C 
ATOM     63  C   UNL A   1      44.898  32.356  29.388  1.00  0.00     0.037 A 
BRANCH  50  64
ATOM     64  C   UNL A   1      46.967  27.609  26.019  1.00  0.00     0.064 A 
ATOM     65  C   UNL A   1      47.176  27.909  24.664  1.00  0.00     0.173 A 
ATOM     66  C   UNL A   1      47.872  26.740  26.647  1.00  0.00     0.173 A 
ATOM     67  F   UNL A   1      46.329  28.721  24.013  1.00  0.00    -0.203 F 
ATOM     68  C   UNL A   1      48.234  27.340  23.961  1.00  0.00     0.198 A 
ATOM     69  C   UNL A   1      48.948  26.200  25.949  1.00  0.00     0.198 A 
ATOM     70  F   UNL A   1      47.719  26.421  27.940  1.00  0.00    -0.203 F 
ATOM     71  F   UNL A   1      48.385  27.600  22.655  1.00  0.00    -0.200 F 
ATOM     72  C   UNL A   1      49.124  26.494  24.605  1.00  0.00     0.200 A 
ATOM     73  F   UNL A   1      49.816  25.395  26.577  1.00  0.00    -0.200 F 
ATOM     74  F   UNL A   1      50.149  25.956  23.929  1.00  0.00    -0.200 F 
ENDBRANCH  50  64
BRANCH  51  75
ATOM     75  C   UNL A   1      39.182  31.286  31.078  1.00  0.00     0.064 A 
ATOM     76  C   UNL A   1      38.359  32.284  30.536  1.00  0.00     0.173 A 
ATOM     77  C   UNL A   1      38.925  30.878  32.395  1.00  0.00     0.173 A 
ATOM     78  F   UNL A   1      38.581  32.732  29.291  1.00  0.00    -0.203 F 
ATOM     79  C   UNL A   1      37.344  32.872  31.291  1.00  0.00     0.198 A 
ATOM     80  C   UNL A   1      37.889  31.442  33.138  1.00  0.00     0.198 A 
ATOM     81  F   UNL A   1      39.686  29.932  32.966  1.00  0.00    -0.203 F 
ATOM     82  F   UNL A   1      36.618  33.870  30.770  1.00  0.00    -0.200 F 
ATOM     83  C   UNL A   1      37.107  32.446  32.589  1.00  0.00     0.200 A 
ATOM     84  F   UNL A   1      37.656  31.020  34.388  1.00  0.00    -0.200 F 
ATOM     85  F   UNL A   1      36.135  33.015  33.315  1.00  0.00    -0.200 F 
ENDBRANCH  51  75
BRANCH  63  86
ATOM     86  C   UNL A   1      45.612  33.631  29.747  1.00  0.00     0.064 A 
ATOM     87  C   UNL A   1      46.308  33.780  30.955  1.00  0.00     0.173 A 
ATOM     88  C   UNL A   1      45.638  34.704  28.840  1.00  0.00     0.173 A 
ATOM     89  F   UNL A   1      46.307  32.791  31.862  1.00  0.00    -0.203 F 
ATOM     90  C   UNL A   1      46.977  34.965  31.255  1.00  0.00     0.198 A 
ATOM     91  C   UNL A   1      46.337  35.872  29.128  1.00  0.00     0.198 A 
ATOM     92  F   UNL A   1      44.998  34.612  27.665  1.00  0.00    -0.203 F 
ATOM     93  F   UNL A   1      47.589  35.104  32.440  1.00  0.00    -0.200 F 
ATOM     94  C   UNL A   1      46.999  36.006  30.339  1.00  0.00     0.200 A 
ATOM     95  F   UNL A   1      46.374  36.869  28.233  1.00  0.00    -0.200 F 
ATOM     96  F   UNL A   1      47.652  37.140  30.626  1.00  0.00    -0.200 F 
ENDBRANCH  63  86
ENDBRANCH  37  38
ENDBRANCH  30  32
ENDBRANCH  29  30
ENDBRANCH  28  29
ENDBRANCH  27  28
ENDBRANCH  26  27
ENDBRANCH  25  26
ENDBRANCH   1  25
TORSDOF 20
ENDMDL
MODEL 3
REMARK VINA RESULT:     -10.6      1.804      2.653
REMARK SMILES C[C@@H]1[C@H](C(=O)OCCOCCOCCOC(=O)c2ccc(-c3c4nc(c(-c5c(F)c(F)c(F)c(F)c5F)c5ccc([nH]5)c(-c5c(F)c(F)c(F)c(F)c5F)c5nc(c(-c6c(F)c(F)c(F)c(F)c6F)c6ccc3[nH]6)C=C5)C=C4)cc2)CCN1C(=O)/C=C/c1cccc(Br)c1
REMARK SMILES IDX 10 1 9 2 8 3 7 4 6 5 4 6 5 7 3 8 1 9 2 10 83 11 81 12 82 13
REMARK SMILES IDX 84 14 85 15 86 16 87 17 88 18 89 19 94 20 90 21 92 22 91 23
REMARK SMILES IDX 93 24 11 25 12 26 13 27 14 28 15 29 16 30 17 31 18 32 19 33
REMARK SMILES IDX 80 34 20 35 79 36 21 37 22 38 23 39 73 40 24 41 78 42 72 43
REMARK SMILES IDX 74 44 25 45 77 46 71 47 70 48 26 50 58 51 38 52 57 53 39 54
REMARK SMILES IDX 42 55 56 56 75 57 40 58 41 59 55 61 76 62 43 63 27 64 28 65
REMARK SMILES IDX 36 66 29 67 30 68 34 69 37 70 31 71 32 72 35 73 33 74 59 75
REMARK SMILES IDX 60 76 68 77 61 78 62 79 66 80 69 81 63 82 64 83 67 84 65 85
REMARK SMILES IDX 44 86 45 87 53 88 46 89 47 90 51 91 54 92 48 93 49 94 52 95
REMARK SMILES IDX 50 96
REMARK H PARENT 74 49 42 60
REMARK Flexibility Score: inf
ROOT
ATOM      1  C   UNL A   1      34.882  21.046  24.707  1.00  0.00     0.188 C 
ENDROOT
BRANCH   1   2
ATOM      2  O   UNL A   1      33.889  20.330  25.408  1.00  0.00    -0.376 OA
BRANCH   2   3
ATOM      3  C   UNL A   1      33.269  20.976  26.517  1.00  0.00     0.202 C 
BRANCH   3   4
ATOM      4  C   UNL A   1      32.914  22.469  26.424  1.00  0.00     0.261 C 
BRANCH   4   5
ATOM      5  O   UNL A   1      31.672  22.726  25.729  1.00  0.00    -0.463 OA
BRANCH   5   6
ATOM      6  C   UNL A   1      31.777  23.010  24.409  1.00  0.00     0.311 C 
ATOM      7  O   UNL A   1      31.703  22.167  23.521  1.00  0.00    -0.252 OA
BRANCH   6   8
ATOM      8  C   UNL A   1      31.846  24.491  24.089  1.00  0.00     0.123 C 
ATOM      9  C   UNL A   1      34.270  24.496  23.133  1.00  0.00     0.032 C 
ATOM     10  C   UNL A   1      33.169  25.244  23.878  1.00  0.00     0.096 C 
ATOM     11  N   UNL A   1      32.769  26.445  23.127  1.00  0.00    -0.336 N 
ATOM     12  C   UNL A   1      31.095  24.791  22.794  1.00  0.00     0.039 C 
ATOM     13  C   UNL A   1      31.477  26.227  22.489  1.00  0.00     0.121 C 
BRANCH  11  14
ATOM     14  C   UNL A   1      33.357  27.682  22.993  1.00  0.00     0.246 C 
ATOM     15  O   UNL A   1      34.039  27.944  21.997  1.00  0.00    -0.270 OA
BRANCH  14  16
ATOM     16  C   UNL A   1      33.206  28.799  23.979  1.00  0.00     0.072 C 
ATOM     17  C   UNL A   1      32.855  28.828  25.273  1.00  0.00     0.014 C 
BRANCH  17  18
ATOM     18  C   UNL A   1      32.700  30.042  26.092  1.00  0.00    -0.024 A 
ATOM     19  C   UNL A   1      31.560  30.832  25.876  1.00  0.00     0.008 A 
ATOM     20  C   UNL A   1      33.683  30.505  26.975  1.00  0.00     0.023 A 
ATOM     21  C   UNL A   1      31.399  32.056  26.528  1.00  0.00     0.002 A 
ATOM     22  C   UNL A   1      33.518  31.734  27.623  1.00  0.00     0.018 A 
ATOM     23  C   UNL A   1      32.382  32.512  27.403  1.00  0.00     0.016 A 
ATOM     24  Br  UNL A   1      34.866  32.375  28.784  1.00  0.00    -0.051 Br
ENDBRANCH  17  18
ENDBRANCH  14  16
ENDBRANCH  11  14
ENDBRANCH   6   8
ENDBRANCH   5   6
ENDBRANCH   4   5
ENDBRANCH   3   4
ENDBRANCH   2   3
ENDBRANCH   1   2
BRANCH   1  25
ATOM     25  C   UNL A   1      36.287  21.138  25.304  1.00  0.00     0.188 C 
BRANCH  25  26
ATOM     26  O   UNL A   1      37.412  20.641  24.625  1.00  0.00    -0.376 OA
BRANCH  26  27
ATOM     27  C   UNL A   1      38.444  19.927  25.297  1.00  0.00     0.202 C 
BRANCH  27  28
ATOM     28  C   UNL A   1      39.605  20.523  26.125  1.00  0.00     0.261 C 
BRANCH  28  29
ATOM     29  O   UNL A   1      40.532  19.634  26.747  1.00  0.00    -0.460 OA
BRANCH  29  30
ATOM     30  C   UNL A   1      41.768  19.590  26.180  1.00  0.00     0.338 C 
ATOM     31  O   UNL A   1      42.175  18.780  25.374  1.00  0.00    -0.246 OA
BRANCH  30  32
ATOM     32  C   UNL A   1      42.449  20.866  26.506  1.00  0.00     0.060 A 
ATOM     33  C   UNL A   1      42.534  21.256  27.854  1.00  0.00     0.016 A 
ATOM     34  C   UNL A   1      43.050  21.631  25.510  1.00  0.00     0.016 A 
ATOM     35  C   UNL A   1      43.210  22.424  28.205  1.00  0.00     0.010 A 
ATOM     36  C   UNL A   1      43.696  22.820  25.858  1.00  0.00     0.010 A 
ATOM     37  C   UNL A   1      43.756  23.236  27.203  1.00  0.00    -0.014 A 
BRANCH  37  38
ATOM     38  C   UNL A   1      44.193  24.617  27.517  1.00  0.00     0.031 A 
ATOM     39  C   UNL A   1      43.137  25.617  27.898  1.00  0.00     0.074 A 
ATOM     40  C   UNL A   1      45.484  24.988  27.462  1.00  0.00     0.049 A 
ATOM     41  N   UNL A   1      43.238  26.906  28.098  1.00  0.00    -0.248 NA
ATOM     42  C   UNL A   1      41.773  25.086  28.067  1.00  0.00     0.031 C 
ATOM     43  C   UNL A   1      46.609  24.106  27.165  1.00  0.00     0.029 A 
ATOM     44  N   UNL A   1      46.061  26.222  27.643  1.00  0.00    -0.354 N 
ATOM     45  C   UNL A   1      41.956  27.339  28.406  1.00  0.00     0.074 A 
ATOM     46  C   UNL A   1      41.086  26.186  28.335  1.00  0.00     0.031 C 
ATOM     47  C   UNL A   1      47.743  24.831  27.165  1.00  0.00     0.029 A 
ATOM     48  C   UNL A   1      47.416  26.234  27.420  1.00  0.00     0.049 A 
ATOM     49  H   UNL A   1      45.551  27.021  27.906  1.00  0.00     0.167 HD
ATOM     50  C   UNL A   1      41.541  28.586  28.732  1.00  0.00     0.037 A 
ATOM     51  C   UNL A   1      48.283  27.267  27.395  1.00  0.00     0.037 A 
ATOM     52  C   UNL A   1      42.405  29.735  28.797  1.00  0.00     0.049 A 
ATOM     53  C   UNL A   1      47.777  28.666  27.657  1.00  0.00     0.074 A 
ATOM     54  C   UNL A   1      42.080  31.040  29.115  1.00  0.00     0.029 A 
ATOM     55  N   UNL A   1      43.766  29.713  28.531  1.00  0.00    -0.354 N 
ATOM     56  N   UNL A   1      46.565  29.071  27.958  1.00  0.00    -0.248 NA
ATOM     57  C   UNL A   1      48.762  29.755  27.575  1.00  0.00     0.031 C 
ATOM     58  C   UNL A   1      43.234  31.821  28.985  1.00  0.00     0.029 A 
ATOM     59  C   UNL A   1      44.292  30.989  28.653  1.00  0.00     0.049 A 
ATOM     60  H   UNL A   1      44.283  28.910  28.291  1.00  0.00     0.167 HD
ATOM     61  C   UNL A   1      46.654  30.447  28.141  1.00  0.00     0.074 A 
ATOM     62  C   UNL A   1      48.039  30.807  27.928  1.00  0.00     0.031 C 
ATOM     63  C   UNL A   1      45.677  31.332  28.459  1.00  0.00     0.037 A 
BRANCH  50  64
ATOM     64  C   UNL A   1      40.079  28.778  29.014  1.00  0.00     0.064 A 
ATOM     65  C   UNL A   1      39.548  28.610  30.302  1.00  0.00     0.173 A 
ATOM     66  C   UNL A   1      39.203  29.167  27.989  1.00  0.00     0.173 A 
ATOM     67  F   UNL A   1      40.340  28.222  31.314  1.00  0.00    -0.203 F 
ATOM     68  C   UNL A   1      38.191  28.800  30.547  1.00  0.00     0.198 A 
ATOM     69  C   UNL A   1      37.854  29.388  28.245  1.00  0.00     0.198 A 
ATOM     70  F   UNL A   1      39.658  29.342  26.740  1.00  0.00    -0.203 F 
ATOM     71  F   UNL A   1      37.697  28.584  31.775  1.00  0.00    -0.200 F 
ATOM     72  C   UNL A   1      37.347  29.197  29.522  1.00  0.00     0.200 A 
ATOM     73  F   UNL A   1      37.043  29.786  27.255  1.00  0.00    -0.200 F 
ATOM     74  F   UNL A   1      36.042  29.389  29.762  1.00  0.00    -0.200 F 
ENDBRANCH  50  64
BRANCH  51  75
ATOM     75  C   UNL A   1      49.722  27.038  27.090  1.00  0.00     0.064 A 
ATOM     76  C   UNL A   1      50.169  26.908  25.768  1.00  0.00     0.173 A 
ATOM     77  C   UNL A   1      50.671  26.889  28.113  1.00  0.00     0.173 A 
ATOM     78  F   UNL A   1      49.296  27.011  24.754  1.00  0.00    -0.203 F 
ATOM     79  C   UNL A   1      51.500  26.609  25.480  1.00  0.00     0.198 A 
ATOM     80  C   UNL A   1      52.008  26.624  27.825  1.00  0.00     0.198 A 
ATOM     81  F   UNL A   1      50.298  26.996  29.397  1.00  0.00    -0.203 F 
ATOM     82  F   UNL A   1      51.884  26.425  24.210  1.00  0.00    -0.200 F 
ATOM     83  C   UNL A   1      52.420  26.473  26.509  1.00  0.00     0.200 A 
ATOM     84  F   UNL A   1      52.896  26.504  28.821  1.00  0.00    -0.200 F 
ATOM     85  F   UNL A   1      53.698  26.181  26.233  1.00  0.00    -0.200 F 
ENDBRANCH  51  75
BRANCH  63  86
ATOM     86  C   UNL A   1      46.074  32.770  28.655  1.00  0.00     0.064 A 
ATOM     87  C   UNL A   1      46.512  33.258  29.895  1.00  0.00     0.173 A 
ATOM     88  C   UNL A   1      46.061  33.660  27.568  1.00  0.00     0.173 A 
ATOM     89  F   UNL A   1      46.534  32.454  30.968  1.00  0.00    -0.203 F 
ATOM     90  C   UNL A   1      46.892  34.590  30.046  1.00  0.00     0.198 A 
ATOM     91  C   UNL A   1      46.476  34.980  27.715  1.00  0.00     0.198 A 
ATOM     92  F   UNL A   1      45.661  33.243  26.357  1.00  0.00    -0.203 F 
ATOM     93  F   UNL A   1      47.256  35.047  31.252  1.00  0.00    -0.200 F 
ATOM     94  C   UNL A   1      46.883  35.447  28.955  1.00  0.00     0.200 A 
ATOM     95  F   UNL A   1      46.485  35.800  26.656  1.00  0.00    -0.200 F 
ATOM     96  F   UNL A   1      47.260  36.724  29.102  1.00  0.00    -0.200 F 
ENDBRANCH  63  86
ENDBRANCH  37  38
ENDBRANCH  30  32
ENDBRANCH  29  30
ENDBRANCH  28  29
ENDBRANCH  27  28
ENDBRANCH  26  27
ENDBRANCH  25  26
ENDBRANCH   1  25
TORSDOF 20
ENDMDL
