MODEL 1
REMARK VINA RESULT:     -11.5      0.000      0.000
REMARK SMILES CN1C(=O)C(=Cc2ccc(OCc3cccc(C(=O)OCCOCCOCCOC(=O)c4ccc(-c5c6nc(c(-c7c(F)c(F)c(F)c(F)c7F)c7ccc([nH]7)c(-c7c(F)c(F)c(F)c(F)c7F)c7nc(c(-c8c(F)c(F)c(F)c(F)c8F)c8ccc5[nH]8)C=C7)C=C6)cc4)c3)c(Cl)c2)C(=O)N(C)C1=S
REMARK SMILES IDX 24 1 23 2 22 3 21 4 20 5 18 6 19 7 17 8 13 9 14 10 95 11
REMARK SMILES IDX 15 12 16 13 12 14 11 15 10 16 7 17 8 18 98 19 9 20 96 21
REMARK SMILES IDX 97 22 6 23 1 24 2 25 3 26 103 27 4 28 5 29 101 30 104 31
REMARK SMILES IDX 99 32 102 33 100 34 25 35 26 36 27 37 28 38 29 39 30 40
REMARK SMILES IDX 31 41 32 42 33 43 94 44 34 45 93 46 35 47 36 48 37 49 87 50
REMARK SMILES IDX 38 51 92 52 86 53 88 54 39 55 91 56 85 57 84 58 40 60 72 61
REMARK SMILES IDX 52 62 71 63 53 64 56 65 70 66 89 67 54 68 55 69 69 71 90 72
REMARK SMILES IDX 57 73 41 74 42 75 50 76 43 77 44 78 48 79 51 80 45 81 46 82
REMARK SMILES IDX 49 83 47 84 73 85 74 86 82 87 75 88 76 89 80 90 83 91 77 92
REMARK SMILES IDX 78 93 81 94 79 95 58 96 59 97 67 98 60 99 61 100 65 101
REMARK SMILES IDX 68 102 62 103 63 104 66 105 64 106
REMARK H PARENT 88 59 56 70
REMARK Flexibility Score: inf
ROOT
ATOM      1  C   UNL A   1      41.639  21.408  26.276  1.00  0.00     0.188 C 
ENDROOT
BRANCH   1   2
ATOM      2  O   UNL A   1      41.107  22.708  26.457  1.00  0.00    -0.376 OA
BRANCH   2   3
ATOM      3  C   UNL A   1      39.964  22.913  27.272  1.00  0.00     0.202 C 
BRANCH   3   4
ATOM      4  C   UNL A   1      38.880  23.945  26.921  1.00  0.00     0.261 C 
BRANCH   4   5
ATOM      5  O   UNL A   1      38.213  23.738  25.672  1.00  0.00    -0.460 OA
BRANCH   5   6
ATOM      6  C   UNL A   1      36.856  23.751  25.713  1.00  0.00     0.338 C 
ATOM      7  O   UNL A   1      36.138  24.735  25.784  1.00  0.00    -0.246 OA
BRANCH   6   8
ATOM      8  C   UNL A   1      36.329  22.381  25.499  1.00  0.00     0.060 A 
ATOM      9  C   UNL A   1      34.516  20.757  25.631  1.00  0.00    -0.010 A 
ATOM     10  C   UNL A   1      35.330  19.821  24.982  1.00  0.00     0.007 A 
ATOM     11  C   UNL A   1      35.056  22.016  25.938  1.00  0.00     0.023 A 
ATOM     12  C   UNL A   1      36.642  20.149  24.625  1.00  0.00     0.001 A 
ATOM     13  C   UNL A   1      37.132  21.436  24.856  1.00  0.00     0.016 A 
BRANCH   9  14
ATOM     14  C   UNL A   1      33.059  20.463  25.932  1.00  0.00     0.265 C 
BRANCH  14  15
ATOM     15  O   UNL A   1      32.155  20.634  24.824  1.00  0.00    -0.487 OA
BRANCH  15  16
ATOM     16  C   UNL A   1      31.778  21.909  24.497  1.00  0.00     0.138 A 
ATOM     17  C   UNL A   1      31.251  24.520  23.610  1.00  0.00    -0.023 A 
ATOM     18  C   UNL A   1      31.941  23.626  22.785  1.00  0.00     0.012 A 
ATOM     19  C   UNL A   1      30.794  24.097  24.858  1.00  0.00     0.032 A 
ATOM     20  C   UNL A   1      32.216  22.334  23.237  1.00  0.00     0.048 A 
ATOM     21  C   UNL A   1      30.979  22.772  25.259  1.00  0.00     0.083 A 
ATOM     22  Cl  UNL A   1      30.043  22.248  26.616  1.00  0.00    -0.080 Cl
BRANCH  17  23
ATOM     23  C   UNL A   1      30.813  25.818  23.096  1.00  0.00     0.027 C 
ATOM     24  C   UNL A   1      33.041  27.733  26.660  1.00  0.00     0.156 C 
ATOM     25  N   UNL A   1      32.352  28.011  25.398  1.00  0.00    -0.288 N 
ATOM     26  C   UNL A   1      32.493  27.018  24.445  1.00  0.00     0.265 C 
ATOM     27  C   UNL A   1      31.670  29.221  25.175  1.00  0.00     0.185 C 
ATOM     28  O   UNL A   1      33.444  26.243  24.396  1.00  0.00    -0.268 OA
ATOM     29  C   UNL A   1      31.387  26.973  23.482  1.00  0.00     0.106 C 
ATOM     30  N   UNL A   1      30.871  29.261  24.010  1.00  0.00    -0.288 N 
ATOM     31  S   UNL A   1      31.829  30.533  26.236  1.00  0.00    -0.040 S 
ATOM     32  C   UNL A   1      30.757  28.231  23.073  1.00  0.00     0.265 C 
ATOM     33  C   UNL A   1      29.990  30.390  23.702  1.00  0.00     0.156 C 
ATOM     34  O   UNL A   1      30.140  28.319  22.014  1.00  0.00    -0.268 OA
ENDBRANCH  17  23
ENDBRANCH  15  16
ENDBRANCH  14  15
ENDBRANCH   9  14
ENDBRANCH   6   8
ENDBRANCH   5   6
ENDBRANCH   4   5
ENDBRANCH   3   4
ENDBRANCH   2   3
ENDBRANCH   1   2
BRANCH   1  35
ATOM     35  C   UNL A   1      40.706  20.190  26.113  1.00  0.00     0.188 C 
BRANCH  35  36
ATOM     36  O   UNL A   1      41.284  18.977  25.706  1.00  0.00    -0.376 OA
BRANCH  36  37
ATOM     37  C   UNL A   1      42.540  18.569  26.221  1.00  0.00     0.202 C 
BRANCH  37  38
ATOM     38  C   UNL A   1      43.826  18.325  25.403  1.00  0.00     0.261 C 
BRANCH  38  39
ATOM     39  O   UNL A   1      44.052  19.106  24.227  1.00  0.00    -0.460 OA
BRANCH  39  40
ATOM     40  C   UNL A   1      45.226  19.774  24.176  1.00  0.00     0.338 C 
ATOM     41  O   UNL A   1      46.259  19.423  23.616  1.00  0.00    -0.246 OA
BRANCH  40  42
ATOM     42  C   UNL A   1      45.042  21.117  24.753  1.00  0.00     0.060 A 
ATOM     43  C   UNL A   1      44.557  22.145  23.933  1.00  0.00     0.016 A 
ATOM     44  C   UNL A   1      45.380  21.370  26.084  1.00  0.00     0.016 A 
ATOM     45  C   UNL A   1      44.434  23.440  24.433  1.00  0.00     0.010 A 
ATOM     46  C   UNL A   1      45.278  22.674  26.576  1.00  0.00     0.010 A 
ATOM     47  C   UNL A   1      44.839  23.720  25.745  1.00  0.00    -0.014 A 
BRANCH  47  48
ATOM     48  C   UNL A   1      44.987  25.130  26.184  1.00  0.00     0.031 A 
ATOM     49  C   UNL A   1      46.349  25.764  26.104  1.00  0.00     0.074 A 
ATOM     50  C   UNL A   1      43.938  25.842  26.631  1.00  0.00     0.049 A 
ATOM     51  N   UNL A   1      46.739  26.954  26.482  1.00  0.00    -0.248 NA
ATOM     52  C   UNL A   1      47.417  24.937  25.521  1.00  0.00     0.031 C 
ATOM     53  C   UNL A   1      42.564  25.357  26.718  1.00  0.00     0.029 A 
ATOM     54  N   UNL A   1      43.876  27.127  27.111  1.00  0.00    -0.354 N 
ATOM     55  C   UNL A   1      48.098  27.012  26.196  1.00  0.00     0.074 A 
ATOM     56  C   UNL A   1      48.470  25.729  25.643  1.00  0.00     0.031 C 
ATOM     57  C   UNL A   1      41.792  26.329  27.237  1.00  0.00     0.029 A 
ATOM     58  C   UNL A   1      42.627  27.488  27.549  1.00  0.00     0.049 A 
ATOM     59  H   UNL A   1      44.653  27.731  27.137  1.00  0.00     0.167 HD
ATOM     60  C   UNL A   1      48.955  28.046  26.372  1.00  0.00     0.037 A 
ATOM     61  C   UNL A   1      42.214  28.618  28.159  1.00  0.00     0.037 A 
ATOM     62  C   UNL A   1      48.583  29.321  26.928  1.00  0.00     0.049 A 
ATOM     63  C   UNL A   1      43.203  29.728  28.414  1.00  0.00     0.074 A 
ATOM     64  C   UNL A   1      49.373  30.439  27.129  1.00  0.00     0.029 A 
ATOM     65  N   UNL A   1      47.313  29.641  27.386  1.00  0.00    -0.354 N 
ATOM     66  N   UNL A   1      44.478  29.790  28.114  1.00  0.00    -0.248 NA
ATOM     67  C   UNL A   1      42.691  30.930  29.088  1.00  0.00     0.031 C 
ATOM     68  C   UNL A   1      48.598  31.413  27.766  1.00  0.00     0.029 A 
ATOM     69  C   UNL A   1      47.306  30.930  27.897  1.00  0.00     0.049 A 
ATOM     70  H   UNL A   1      46.533  29.042  27.353  1.00  0.00     0.167 HD
ATOM     71  C   UNL A   1      44.911  31.045  28.528  1.00  0.00     0.074 A 
ATOM     72  C   UNL A   1      43.758  31.716  29.092  1.00  0.00     0.031 C 
ATOM     73  C   UNL A   1      46.150  31.592  28.447  1.00  0.00     0.037 A 
BRANCH  60  74
ATOM     74  C   UNL A   1      50.392  27.823  25.992  1.00  0.00     0.064 A 
ATOM     75  C   UNL A   1      50.841  27.969  24.671  1.00  0.00     0.173 A 
ATOM     76  C   UNL A   1      51.337  27.476  26.970  1.00  0.00     0.173 A 
ATOM     77  F   UNL A   1      49.978  28.288  23.694  1.00  0.00    -0.203 F 
ATOM     78  C   UNL A   1      52.174  27.740  24.337  1.00  0.00     0.198 A 
ATOM     79  C   UNL A   1      52.675  27.282  26.639  1.00  0.00     0.198 A 
ATOM     80  F   UNL A   1      50.963  27.327  28.250  1.00  0.00    -0.203 F 
ATOM     81  F   UNL A   1      52.567  27.827  23.059  1.00  0.00    -0.200 F 
ATOM     82  C   UNL A   1      53.091  27.404  25.322  1.00  0.00     0.200 A 
ATOM     83  F   UNL A   1      53.561  26.972  27.595  1.00  0.00    -0.200 F 
ATOM     84  F   UNL A   1      54.373  27.188  25.001  1.00  0.00    -0.200 F 
ENDBRANCH  60  74
BRANCH  61  85
ATOM     85  C   UNL A   1      40.795  28.756  28.582  1.00  0.00     0.064 A 
ATOM     86  C   UNL A   1      40.396  28.449  29.890  1.00  0.00     0.173 A 
ATOM     87  C   UNL A   1      39.805  29.180  27.683  1.00  0.00     0.173 A 
ATOM     88  F   UNL A   1      41.300  28.013  30.781  1.00  0.00    -0.203 F 
ATOM     89  C   UNL A   1      39.060  28.542  30.278  1.00  0.00     0.198 A 
ATOM     90  C   UNL A   1      38.476  29.303  28.080  1.00  0.00     0.198 A 
ATOM     91  F   UNL A   1      40.132  29.481  26.418  1.00  0.00    -0.203 F 
ATOM     92  F   UNL A   1      38.700  28.193  31.520  1.00  0.00    -0.200 F 
ATOM     93  C   UNL A   1      38.102  28.976  29.374  1.00  0.00     0.200 A 
ATOM     94  F   UNL A   1      37.554  29.732  27.206  1.00  0.00    -0.200 F 
ATOM     95  F   UNL A   1      36.819  29.068  29.748  1.00  0.00    -0.200 F 
ENDBRANCH  61  85
BRANCH  73  96
ATOM     96  C   UNL A   1      46.318  33.008  28.929  1.00  0.00     0.064 A 
ATOM     97  C   UNL A   1      46.627  33.307  30.265  1.00  0.00     0.173 A 
ATOM     98  C   UNL A   1      46.209  34.079  28.029  1.00  0.00     0.173 A 
ATOM     99  F   UNL A   1      46.731  32.323  31.171  1.00  0.00    -0.203 F 
ATOM    100  C   UNL A   1      46.787  34.625  30.686  1.00  0.00     0.198 A 
ATOM    101  C   UNL A   1      46.406  35.393  28.444  1.00  0.00     0.198 A 
ATOM    102  F   UNL A   1      45.926  33.851  26.737  1.00  0.00    -0.203 F 
ATOM    103  F   UNL A   1      47.026  34.890  31.977  1.00  0.00    -0.200 F 
ATOM    104  C   UNL A   1      46.684  35.665  29.775  1.00  0.00     0.200 A 
ATOM    105  F   UNL A   1      46.325  36.394  27.557  1.00  0.00    -0.200 F 
ATOM    106  F   UNL A   1      46.847  36.933  30.179  1.00  0.00    -0.200 F 
ENDBRANCH  73  96
ENDBRANCH  47  48
ENDBRANCH  40  42
ENDBRANCH  39  40
ENDBRANCH  38  39
ENDBRANCH  37  38
ENDBRANCH  36  37
ENDBRANCH  35  36
ENDBRANCH   1  35
TORSDOF 21
ENDMDL
MODEL 2
REMARK VINA RESULT:     -11.4      0.454      6.772
REMARK SMILES CN1C(=O)C(=Cc2ccc(OCc3cccc(C(=O)OCCOCCOCCOC(=O)c4ccc(-c5c6nc(c(-c7c(F)c(F)c(F)c(F)c7F)c7ccc([nH]7)c(-c7c(F)c(F)c(F)c(F)c7F)c7nc(c(-c8c(F)c(F)c(F)c(F)c8F)c8ccc5[nH]8)C=C7)C=C6)cc4)c3)c(Cl)c2)C(=O)N(C)C1=S
REMARK SMILES IDX 24 1 23 2 22 3 21 4 20 5 18 6 19 7 17 8 13 9 14 10 95 11
REMARK SMILES IDX 15 12 16 13 12 14 11 15 10 16 7 17 8 18 98 19 9 20 96 21
REMARK SMILES IDX 97 22 6 23 1 24 2 25 3 26 103 27 4 28 5 29 101 30 104 31
REMARK SMILES IDX 99 32 102 33 100 34 25 35 26 36 27 37 28 38 29 39 30 40
REMARK SMILES IDX 31 41 32 42 33 43 94 44 34 45 93 46 35 47 36 48 37 49 87 50
REMARK SMILES IDX 38 51 92 52 86 53 88 54 39 55 91 56 85 57 84 58 40 60 72 61
REMARK SMILES IDX 52 62 71 63 53 64 56 65 70 66 89 67 54 68 55 69 69 71 90 72
REMARK SMILES IDX 57 73 41 74 42 75 50 76 43 77 44 78 48 79 51 80 45 81 46 82
REMARK SMILES IDX 49 83 47 84 73 85 74 86 82 87 75 88 76 89 80 90 83 91 77 92
REMARK SMILES IDX 78 93 81 94 79 95 58 96 59 97 67 98 60 99 61 100 65 101
REMARK SMILES IDX 68 102 62 103 63 104 66 105 64 106
REMARK H PARENT 88 59 56 70
REMARK Flexibility Score: inf
ROOT
ATOM      1  C   UNL A   1      41.575  21.637  26.107  1.00  0.00     0.188 C 
ENDROOT
BRANCH   1   2
ATOM      2  O   UNL A   1      41.122  22.922  26.493  1.00  0.00    -0.376 OA
BRANCH   2   3
ATOM      3  C   UNL A   1      40.007  23.066  27.358  1.00  0.00     0.202 C 
BRANCH   3   4
ATOM      4  C   UNL A   1      38.844  24.023  27.048  1.00  0.00     0.261 C 
BRANCH   4   5
ATOM      5  O   UNL A   1      38.245  23.868  25.758  1.00  0.00    -0.460 OA
BRANCH   5   6
ATOM      6  C   UNL A   1      36.889  23.830  25.732  1.00  0.00     0.338 C 
ATOM      7  O   UNL A   1      36.132  24.786  25.754  1.00  0.00    -0.246 OA
BRANCH   6   8
ATOM      8  C   UNL A   1      36.425  22.437  25.511  1.00  0.00     0.060 A 
ATOM      9  C   UNL A   1      34.652  20.765  25.504  1.00  0.00    -0.010 A 
ATOM     10  C   UNL A   1      35.557  19.834  24.980  1.00  0.00     0.007 A 
ATOM     11  C   UNL A   1      35.122  22.049  25.823  1.00  0.00     0.023 A 
ATOM     12  C   UNL A   1      36.890  20.190  24.755  1.00  0.00     0.001 A 
ATOM     13  C   UNL A   1      37.318  21.497  24.992  1.00  0.00     0.016 A 
BRANCH   9  14
ATOM     14  C   UNL A   1      33.180  20.437  25.657  1.00  0.00     0.265 C 
BRANCH  14  15
ATOM     15  O   UNL A   1      32.376  20.651  24.481  1.00  0.00    -0.487 OA
BRANCH  15  16
ATOM     16  C   UNL A   1      31.966  21.929  24.210  1.00  0.00     0.138 A 
ATOM     17  C   UNL A   1      31.367  24.559  23.433  1.00  0.00    -0.023 A 
ATOM     18  C   UNL A   1      32.051  23.709  22.557  1.00  0.00     0.012 A 
ATOM     19  C   UNL A   1      30.952  24.083  24.676  1.00  0.00     0.032 A 
ATOM     20  C   UNL A   1      32.362  22.407  22.955  1.00  0.00     0.048 A 
ATOM     21  C   UNL A   1      31.173  22.748  25.024  1.00  0.00     0.083 A 
ATOM     22  Cl  UNL A   1      30.284  22.158  26.385  1.00  0.00    -0.080 Cl
BRANCH  17  23
ATOM     23  C   UNL A   1      30.891  25.866  22.978  1.00  0.00     0.027 C 
ATOM     24  C   UNL A   1      33.162  27.694  26.559  1.00  0.00     0.156 C 
ATOM     25  N   UNL A   1      32.439  28.004  25.325  1.00  0.00    -0.288 N 
ATOM     26  C   UNL A   1      32.578  27.050  24.332  1.00  0.00     0.265 C 
ATOM     27  C   UNL A   1      31.727  29.207  25.163  1.00  0.00     0.185 C 
ATOM     28  O   UNL A   1      33.542  26.298  24.232  1.00  0.00    -0.268 OA
ATOM     29  C   UNL A   1      31.450  27.018  23.393  1.00  0.00     0.106 C 
ATOM     30  N   UNL A   1      30.900  29.273  24.018  1.00  0.00    -0.288 N 
ATOM     31  S   UNL A   1      31.885  30.482  26.267  1.00  0.00    -0.040 S 
ATOM     32  C   UNL A   1      30.786  28.276  23.046  1.00  0.00     0.265 C 
ATOM     33  C   UNL A   1      29.991  30.394  23.772  1.00  0.00     0.156 C 
ATOM     34  O   UNL A   1      30.143  28.391  22.005  1.00  0.00    -0.268 OA
ENDBRANCH  17  23
ENDBRANCH  15  16
ENDBRANCH  14  15
ENDBRANCH   9  14
ENDBRANCH   6   8
ENDBRANCH   5   6
ENDBRANCH   4   5
ENDBRANCH   3   4
ENDBRANCH   2   3
ENDBRANCH   1   2
BRANCH   1  35
ATOM     35  C   UNL A   1      40.640  20.413  26.196  1.00  0.00     0.188 C 
BRANCH  35  36
ATOM     36  O   UNL A   1      41.169  19.162  25.837  1.00  0.00    -0.376 OA
BRANCH  36  37
ATOM     37  C   UNL A   1      42.459  18.773  26.276  1.00  0.00     0.202 C 
BRANCH  37  38
ATOM     38  C   UNL A   1      43.683  18.491  25.378  1.00  0.00     0.261 C 
BRANCH  38  39
ATOM     39  O   UNL A   1      43.938  19.359  24.271  1.00  0.00    -0.460 OA
BRANCH  39  40
ATOM     40  C   UNL A   1      45.176  19.899  24.216  1.00  0.00     0.338 C 
ATOM     41  O   UNL A   1      46.163  19.443  23.650  1.00  0.00    -0.246 OA
BRANCH  40  42
ATOM     42  C   UNL A   1      45.139  21.252  24.798  1.00  0.00     0.060 A 
ATOM     43  C   UNL A   1      44.906  22.345  23.952  1.00  0.00     0.016 A 
ATOM     44  C   UNL A   1      45.366  21.445  26.161  1.00  0.00     0.016 A 
ATOM     45  C   UNL A   1      44.929  23.642  24.463  1.00  0.00     0.010 A 
ATOM     46  C   UNL A   1      45.413  22.748  26.666  1.00  0.00     0.010 A 
ATOM     47  C   UNL A   1      45.229  23.852  25.815  1.00  0.00    -0.014 A 
BRANCH  47  48
ATOM     48  C   UNL A   1      45.543  25.221  26.296  1.00  0.00     0.031 A 
ATOM     49  C   UNL A   1      44.431  26.045  26.883  1.00  0.00     0.074 A 
ATOM     50  C   UNL A   1      46.789  25.721  26.227  1.00  0.00     0.049 A 
ATOM     51  N   UNL A   1      44.445  27.281  27.313  1.00  0.00    -0.248 NA
ATOM     52  C   UNL A   1      43.122  25.383  26.997  1.00  0.00     0.031 C 
ATOM     53  C   UNL A   1      47.958  25.010  25.719  1.00  0.00     0.029 A 
ATOM     54  N   UNL A   1      47.269  26.959  26.578  1.00  0.00    -0.354 N 
ATOM     55  C   UNL A   1      43.148  27.547  27.733  1.00  0.00     0.074 A 
ATOM     56  C   UNL A   1      42.367  26.356  27.478  1.00  0.00     0.031 C 
ATOM     57  C   UNL A   1      49.023  25.830  25.775  1.00  0.00     0.029 A 
ATOM     58  C   UNL A   1      48.600  27.132  26.290  1.00  0.00     0.049 A 
ATOM     59  H   UNL A   1      46.713  27.655  26.996  1.00  0.00     0.167 HD
ATOM     60  C   UNL A   1      42.655  28.680  28.289  1.00  0.00     0.037 A 
ATOM     61  C   UNL A   1      49.378  28.226  26.406  1.00  0.00     0.037 A 
ATOM     62  C   UNL A   1      43.433  29.865  28.537  1.00  0.00     0.049 A 
ATOM     63  C   UNL A   1      48.789  29.501  26.958  1.00  0.00     0.074 A 
ATOM     64  C   UNL A   1      43.032  31.057  29.114  1.00  0.00     0.029 A 
ATOM     65  N   UNL A   1      44.773  30.012  28.207  1.00  0.00    -0.354 N 
ATOM     66  N   UNL A   1      47.572  29.738  27.382  1.00  0.00    -0.248 NA
ATOM     67  C   UNL A   1      49.689  30.660  27.052  1.00  0.00     0.031 C 
ATOM     68  C   UNL A   1      44.110  31.946  29.075  1.00  0.00     0.029 A 
ATOM     69  C   UNL A   1      45.205  31.286  28.541  1.00  0.00     0.049 A 
ATOM     70  H   UNL A   1      45.334  29.315  27.797  1.00  0.00     0.167 HD
ATOM     71  C   UNL A   1      47.567  31.056  27.824  1.00  0.00     0.074 A 
ATOM     72  C   UNL A   1      48.909  31.564  27.626  1.00  0.00     0.031 C 
ATOM     73  C   UNL A   1      46.546  31.779  28.349  1.00  0.00     0.037 A 
BRANCH  60  74
ATOM     74  C   UNL A   1      41.191  28.701  28.631  1.00  0.00     0.064 A 
ATOM     75  C   UNL A   1      40.216  29.082  27.697  1.00  0.00     0.173 A 
ATOM     76  C   UNL A   1      40.759  28.315  29.909  1.00  0.00     0.173 A 
ATOM     77  F   UNL A   1      40.576  29.472  26.465  1.00  0.00    -0.203 F 
ATOM     78  C   UNL A   1      38.867  29.112  28.042  1.00  0.00     0.198 A 
ATOM     79  C   UNL A   1      39.406  28.313  30.239  1.00  0.00     0.198 A 
ATOM     80  F   UNL A   1      41.648  27.937  30.840  1.00  0.00    -0.203 F 
ATOM     81  F   UNL A   1      37.959  29.537  27.152  1.00  0.00    -0.200 F 
ATOM     82  C   UNL A   1      38.463  28.720  29.310  1.00  0.00     0.200 A 
ATOM     83  F   UNL A   1      39.017  27.920  31.460  1.00  0.00    -0.200 F 
ATOM     84  F   UNL A   1      37.164  28.745  29.638  1.00  0.00    -0.200 F 
ENDBRANCH  60  74
BRANCH  61  85
ATOM     85  C   UNL A   1      50.804  28.172  25.982  1.00  0.00     0.064 A 
ATOM     86  C   UNL A   1      51.159  28.246  24.628  1.00  0.00     0.173 A 
ATOM     87  C   UNL A   1      51.837  28.027  26.920  1.00  0.00     0.173 A 
ATOM     88  F   UNL A   1      50.206  28.357  23.690  1.00  0.00    -0.203 F 
ATOM     89  C   UNL A   1      52.491  28.157  24.227  1.00  0.00     0.198 A 
ATOM     90  C   UNL A   1      53.170  27.970  26.520  1.00  0.00     0.198 A 
ATOM     91  F   UNL A   1      51.551  27.946  28.227  1.00  0.00    -0.203 F 
ATOM     92  F   UNL A   1      52.798  28.178  22.923  1.00  0.00    -0.200 F 
ATOM     93  C   UNL A   1      53.496  28.026  25.174  1.00  0.00     0.200 A 
ATOM     94  F   UNL A   1      54.139  27.854  27.439  1.00  0.00    -0.200 F 
ATOM     95  F   UNL A   1      54.776  27.944  24.788  1.00  0.00    -0.200 F 
ENDBRANCH  61  85
BRANCH  73  96
ATOM     96  C   UNL A   1      46.847  33.183  28.800  1.00  0.00     0.064 A 
ATOM     97  C   UNL A   1      47.317  33.465  30.091  1.00  0.00     0.173 A 
ATOM     98  C   UNL A   1      46.699  34.258  27.909  1.00  0.00     0.173 A 
ATOM     99  F   UNL A   1      47.466  32.477  30.987  1.00  0.00    -0.203 F 
ATOM    100  C   UNL A   1      47.597  34.772  30.483  1.00  0.00     0.198 A 
ATOM    101  C   UNL A   1      47.015  35.559  28.291  1.00  0.00     0.198 A 
ATOM    102  F   UNL A   1      46.262  34.046  26.658  1.00  0.00    -0.203 F 
ATOM    103  F   UNL A   1      47.992  35.024  31.738  1.00  0.00    -0.200 F 
ATOM    104  C   UNL A   1      47.453  35.816  29.581  1.00  0.00     0.200 A 
ATOM    105  F   UNL A   1      46.893  36.563  27.412  1.00  0.00    -0.200 F 
ATOM    106  F   UNL A   1      47.731  37.073  29.956  1.00  0.00    -0.200 F 
ENDBRANCH  73  96
ENDBRANCH  47  48
ENDBRANCH  40  42
ENDBRANCH  39  40
ENDBRANCH  38  39
ENDBRANCH  37  38
ENDBRANCH  36  37
ENDBRANCH  35  36
ENDBRANCH   1  35
TORSDOF 21
ENDMDL
MODEL 3
REMARK VINA RESULT:     -11.0      0.933      2.127
REMARK SMILES CN1C(=O)C(=Cc2ccc(OCc3cccc(C(=O)OCCOCCOCCOC(=O)c4ccc(-c5c6nc(c(-c7c(F)c(F)c(F)c(F)c7F)c7ccc([nH]7)c(-c7c(F)c(F)c(F)c(F)c7F)c7nc(c(-c8c(F)c(F)c(F)c(F)c8F)c8ccc5[nH]8)C=C7)C=C6)cc4)c3)c(Cl)c2)C(=O)N(C)C1=S
REMARK SMILES IDX 24 1 23 2 22 3 21 4 20 5 18 6 19 7 17 8 13 9 14 10 95 11
REMARK SMILES IDX 15 12 16 13 12 14 11 15 10 16 7 17 8 18 98 19 9 20 96 21
REMARK SMILES IDX 97 22 6 23 1 24 2 25 3 26 103 27 4 28 5 29 101 30 104 31
REMARK SMILES IDX 99 32 102 33 100 34 25 35 26 36 27 37 28 38 29 39 30 40
REMARK SMILES IDX 31 41 32 42 33 43 94 44 34 45 93 46 35 47 36 48 37 49 87 50
REMARK SMILES IDX 38 51 92 52 86 53 88 54 39 55 91 56 85 57 84 58 40 60 72 61
REMARK SMILES IDX 52 62 71 63 53 64 56 65 70 66 89 67 54 68 55 69 69 71 90 72
REMARK SMILES IDX 57 73 41 74 42 75 50 76 43 77 44 78 48 79 51 80 45 81 46 82
REMARK SMILES IDX 49 83 47 84 73 85 74 86 82 87 75 88 76 89 80 90 83 91 77 92
REMARK SMILES IDX 78 93 81 94 79 95 58 96 59 97 67 98 60 99 61 100 65 101
REMARK SMILES IDX 68 102 62 103 63 104 66 105 64 106
REMARK H PARENT 88 59 56 70
REMARK Flexibility Score: inf
ROOT
ATOM      1  C   UNL A   1      41.291  21.786  26.220  1.00  0.00     0.188 C 
ENDROOT
BRANCH   1   2
ATOM      2  O   UNL A   1      40.885  23.120  26.463  1.00  0.00    -0.376 OA
BRANCH   2   3
ATOM      3  C   UNL A   1      39.706  23.393  27.204  1.00  0.00     0.202 C 
BRANCH   3   4
ATOM      4  C   UNL A   1      38.529  24.187  26.614  1.00  0.00     0.261 C 
BRANCH   4   5
ATOM      5  O   UNL A   1      37.810  23.533  25.564  1.00  0.00    -0.460 OA
BRANCH   5   6
ATOM      6  C   UNL A   1      36.470  23.749  25.537  1.00  0.00     0.338 C 
ATOM      7  O   UNL A   1      35.906  24.829  25.497  1.00  0.00    -0.246 OA
BRANCH   6   8
ATOM      8  C   UNL A   1      35.751  22.457  25.403  1.00  0.00     0.060 A 
ATOM      9  C   UNL A   1      33.679  21.178  25.326  1.00  0.00    -0.010 A 
ATOM     10  C   UNL A   1      34.421  20.026  25.037  1.00  0.00     0.007 A 
ATOM     11  C   UNL A   1      34.368  22.376  25.569  1.00  0.00     0.023 A 
ATOM     12  C   UNL A   1      35.816  20.081  24.965  1.00  0.00     0.001 A 
ATOM     13  C   UNL A   1      36.480  21.300  25.118  1.00  0.00     0.016 A 
BRANCH   9  14
ATOM     14  C   UNL A   1      32.163  21.166  25.305  1.00  0.00     0.265 C 
BRANCH  14  15
ATOM     15  O   UNL A   1      31.557  21.851  24.192  1.00  0.00    -0.487 OA
BRANCH  15  16
ATOM     16  C   UNL A   1      31.315  23.193  24.321  1.00  0.00     0.138 A 
ATOM     17  C   UNL A   1      30.999  25.982  24.312  1.00  0.00    -0.023 A 
ATOM     18  C   UNL A   1      31.299  25.308  23.124  1.00  0.00     0.012 A 
ATOM     19  C   UNL A   1      30.819  25.259  25.491  1.00  0.00     0.032 A 
ATOM     20  C   UNL A   1      31.474  23.922  23.136  1.00  0.00     0.048 A 
ATOM     21  C   UNL A   1      30.890  23.864  25.474  1.00  0.00     0.083 A 
ATOM     22  Cl  UNL A   1      30.266  23.052  26.869  1.00  0.00    -0.080 Cl
BRANCH  17  23
ATOM     23  C   UNL A   1      30.654  27.404  24.292  1.00  0.00     0.027 C 
ATOM     24  C   UNL A   1      34.414  28.124  26.875  1.00  0.00     0.156 C 
ATOM     25  N   UNL A   1      33.357  28.779  26.102  1.00  0.00    -0.288 N 
ATOM     26  C   UNL A   1      32.923  28.053  25.007  1.00  0.00     0.265 C 
ATOM     27  C   UNL A   1      32.889  30.066  26.426  1.00  0.00     0.185 C 
ATOM     28  O   UNL A   1      33.611  27.230  24.413  1.00  0.00    -0.268 OA
ATOM     29  C   UNL A   1      31.543  28.362  24.614  1.00  0.00     0.106 C 
ATOM     30  N   UNL A   1      31.724  30.478  25.741  1.00  0.00    -0.288 N 
ATOM     31  S   UNL A   1      33.697  31.043  27.551  1.00  0.00    -0.040 S 
ATOM     32  C   UNL A   1      31.059  29.736  24.760  1.00  0.00     0.265 C 
ATOM     33  C   UNL A   1      31.028  31.727  26.057  1.00  0.00     0.156 C 
ATOM     34  O   UNL A   1      30.109  30.151  24.100  1.00  0.00    -0.268 OA
ENDBRANCH  17  23
ENDBRANCH  15  16
ENDBRANCH  14  15
ENDBRANCH   9  14
ENDBRANCH   6   8
ENDBRANCH   5   6
ENDBRANCH   4   5
ENDBRANCH   3   4
ENDBRANCH   2   3
ENDBRANCH   1   2
BRANCH   1  35
ATOM     35  C   UNL A   1      40.319  20.611  26.454  1.00  0.00     0.188 C 
BRANCH  35  36
ATOM     36  O   UNL A   1      40.872  19.329  26.608  1.00  0.00    -0.376 OA
BRANCH  36  37
ATOM     37  C   UNL A   1      42.268  19.164  26.790  1.00  0.00     0.202 C 
BRANCH  37  38
ATOM     38  C   UNL A   1      43.274  18.669  25.729  1.00  0.00     0.261 C 
BRANCH  38  39
ATOM     39  O   UNL A   1      43.585  19.523  24.626  1.00  0.00    -0.460 OA
BRANCH  39  40
ATOM     40  C   UNL A   1      44.901  19.700  24.367  1.00  0.00     0.338 C 
ATOM     41  O   UNL A   1      45.650  18.941  23.764  1.00  0.00    -0.246 OA
BRANCH  40  42
ATOM     42  C   UNL A   1      45.292  21.064  24.766  1.00  0.00     0.060 A 
ATOM     43  C   UNL A   1      45.375  21.372  26.131  1.00  0.00     0.016 A 
ATOM     44  C   UNL A   1      45.539  22.042  23.801  1.00  0.00     0.016 A 
ATOM     45  C   UNL A   1      45.678  22.670  26.537  1.00  0.00     0.010 A 
ATOM     46  C   UNL A   1      45.819  23.348  24.211  1.00  0.00     0.010 A 
ATOM     47  C   UNL A   1      45.856  23.676  25.578  1.00  0.00    -0.014 A 
BRANCH  47  48
ATOM     48  C   UNL A   1      45.885  25.099  26.001  1.00  0.00     0.031 A 
ATOM     49  C   UNL A   1      47.196  25.832  25.950  1.00  0.00     0.074 A 
ATOM     50  C   UNL A   1      44.773  25.734  26.407  1.00  0.00     0.049 A 
ATOM     51  N   UNL A   1      47.485  27.054  26.322  1.00  0.00    -0.248 NA
ATOM     52  C   UNL A   1      48.341  25.082  25.410  1.00  0.00     0.031 C 
ATOM     53  C   UNL A   1      43.437  25.148  26.462  1.00  0.00     0.029 A 
ATOM     54  N   UNL A   1      44.600  27.017  26.867  1.00  0.00    -0.354 N 
ATOM     55  C   UNL A   1      48.843  27.211  26.074  1.00  0.00     0.074 A 
ATOM     56  C   UNL A   1      49.327  25.952  25.550  1.00  0.00     0.031 C 
ATOM     57  C   UNL A   1      42.579  26.065  26.944  1.00  0.00     0.029 A 
ATOM     58  C   UNL A   1      43.315  27.288  27.264  1.00  0.00     0.049 A 
ATOM     59  H   UNL A   1      45.327  27.678  26.906  1.00  0.00     0.167 HD
ATOM     60  C   UNL A   1      49.615  28.309  26.259  1.00  0.00     0.037 A 
ATOM     61  C   UNL A   1      42.800  28.390  27.845  1.00  0.00     0.037 A 
ATOM     62  C   UNL A   1      49.131  29.558  26.786  1.00  0.00     0.049 A 
ATOM     63  C   UNL A   1      43.695  29.576  28.112  1.00  0.00     0.074 A 
ATOM     64  C   UNL A   1      49.828  30.735  26.992  1.00  0.00     0.029 A 
ATOM     65  N   UNL A   1      47.828  29.787  27.203  1.00  0.00    -0.354 N 
ATOM     66  N   UNL A   1      44.969  29.730  27.847  1.00  0.00    -0.248 NA
ATOM     67  C   UNL A   1      43.073  30.744  28.753  1.00  0.00     0.031 C 
ATOM     68  C   UNL A   1      48.964  31.656  27.593  1.00  0.00     0.029 A 
ATOM     69  C   UNL A   1      47.709  31.078  27.694  1.00  0.00     0.049 A 
ATOM     70  H   UNL A   1      47.096  29.131  27.157  1.00  0.00     0.167 HD
ATOM     71  C   UNL A   1      45.294  31.019  28.256  1.00  0.00     0.074 A 
ATOM     72  C   UNL A   1      44.078  31.608  28.776  1.00  0.00     0.031 C 
ATOM     73  C   UNL A   1      46.490  31.658  28.202  1.00  0.00     0.037 A 
BRANCH  60  74
ATOM     74  C   UNL A   1      51.075  28.191  25.923  1.00  0.00     0.064 A 
ATOM     75  C   UNL A   1      52.042  27.915  26.902  1.00  0.00     0.173 A 
ATOM     76  C   UNL A   1      51.509  28.339  24.598  1.00  0.00     0.173 A 
ATOM     77  F   UNL A   1      51.682  27.777  28.188  1.00  0.00    -0.203 F 
ATOM     78  C   UNL A   1      53.392  27.829  26.572  1.00  0.00     0.198 A 
ATOM     79  C   UNL A   1      52.856  28.217  24.266  1.00  0.00     0.198 A 
ATOM     80  F   UNL A   1      50.627  28.600  23.621  1.00  0.00    -0.203 F 
ATOM     81  F   UNL A   1      54.303  27.624  27.533  1.00  0.00    -0.200 F 
ATOM     82  C   UNL A   1      53.797  27.973  25.253  1.00  0.00     0.200 A 
ATOM     83  F   UNL A   1      53.243  28.341  22.988  1.00  0.00    -0.200 F 
ATOM     84  F   UNL A   1      55.095  27.884  24.936  1.00  0.00    -0.200 F 
ENDBRANCH  60  74
BRANCH  61  85
ATOM     85  C   UNL A   1      41.362  28.426  28.226  1.00  0.00     0.064 A 
ATOM     86  C   UNL A   1      40.391  28.912  27.340  1.00  0.00     0.173 A 
ATOM     87  C   UNL A   1      40.933  27.994  29.490  1.00  0.00     0.173 A 
ATOM     88  F   UNL A   1      40.754  29.363  26.130  1.00  0.00    -0.203 F 
ATOM     89  C   UNL A   1      39.049  28.981  27.710  1.00  0.00     0.198 A 
ATOM     90  C   UNL A   1      39.587  28.035  29.846  1.00  0.00     0.198 A 
ATOM     91  F   UNL A   1      41.822  27.526  30.377  1.00  0.00    -0.203 F 
ATOM     92  F   UNL A   1      38.149  29.498  26.862  1.00  0.00    -0.200 F 
ATOM     93  C   UNL A   1      38.647  28.536  28.960  1.00  0.00     0.200 A 
ATOM     94  F   UNL A   1      39.202  27.594  31.052  1.00  0.00    -0.200 F 
ATOM     95  F   UNL A   1      37.356  28.601  29.313  1.00  0.00    -0.200 F 
ENDBRANCH  61  85
BRANCH  73  96
ATOM     96  C   UNL A   1      46.537  33.088  28.668  1.00  0.00     0.064 A 
ATOM     97  C   UNL A   1      46.264  34.161  27.806  1.00  0.00     0.173 A 
ATOM     98  C   UNL A   1      46.820  33.385  30.010  1.00  0.00     0.173 A 
ATOM     99  F   UNL A   1      45.999  33.935  26.510  1.00  0.00    -0.203 F 
ATOM    100  C   UNL A   1      46.305  35.476  28.262  1.00  0.00     0.198 A 
ATOM    101  C   UNL A   1      46.824  34.698  30.472  1.00  0.00     0.198 A 
ATOM    102  F   UNL A   1      47.079  32.397  30.882  1.00  0.00    -0.203 F 
ATOM    103  F   UNL A   1      46.096  36.487  27.408  1.00  0.00    -0.200 F 
ATOM    104  C   UNL A   1      46.577  35.743  29.596  1.00  0.00     0.200 A 
ATOM    105  F   UNL A   1      47.069  34.951  31.766  1.00  0.00    -0.200 F 
ATOM    106  F   UNL A   1      46.608  37.009  30.036  1.00  0.00    -0.200 F 
ENDBRANCH  73  96
ENDBRANCH  47  48
ENDBRANCH  40  42
ENDBRANCH  39  40
ENDBRANCH  38  39
ENDBRANCH  37  38
ENDBRANCH  36  37
ENDBRANCH  35  36
ENDBRANCH   1  35
TORSDOF 21
ENDMDL
