MODEL 1
REMARK VINA RESULT:     -10.2      0.000      0.000
REMARK SMILES Cc1ccc(C)c([C@H]([NH3+])CCCCC(=O)OCCOCCOCCOC(=O)c2ccc(-c3c4nc(c(-c5c(F)c(F)c(F)c(F)c5F)c5ccc([nH]5)c(-c5c(F)c(F)c(F)c(F)c5F)c5nc(c(-c6c(F)c(F)c(F)c(F)c6F)c6ccc3[nH]6)C=C5)C=C4)cc2)c1
REMARK SMILES IDX 19 1 18 2 17 3 16 4 14 5 15 6 13 7 12 8 11 9 10 10 8 11 7 12
REMARK SMILES IDX 1 13 2 14 3 15 91 16 4 17 5 18 6 19 9 20 20 24 21 25 22 26
REMARK SMILES IDX 23 27 24 28 25 29 26 30 27 31 28 32 29 33 90 34 30 35 89 36
REMARK SMILES IDX 31 37 32 38 33 39 83 40 34 41 88 42 82 43 84 44 35 45 87 46
REMARK SMILES IDX 81 47 80 48 36 50 68 51 48 52 67 53 49 54 52 55 66 56 85 57
REMARK SMILES IDX 50 58 51 59 65 61 86 62 53 63 37 64 38 65 46 66 39 67 40 68
REMARK SMILES IDX 44 69 47 70 41 71 42 72 45 73 43 74 69 75 70 76 78 77 71 78
REMARK SMILES IDX 72 79 76 80 79 81 73 82 74 83 77 84 75 85 54 86 55 87 63 88
REMARK SMILES IDX 56 89 57 90 61 91 64 92 58 93 59 94 62 95 60 96
REMARK H PARENT 9 21 9 22 9 23 84 49 52 60
REMARK Flexibility Score: inf
ROOT
ATOM      1  O   UNL A   1      34.638  19.389  24.813  1.00  0.00    -0.376 OA
ENDROOT
BRANCH   1   2
ATOM      2  C   UNL A   1      33.225  19.239  24.668  1.00  0.00     0.202 C 
BRANCH   2   3
ATOM      3  C   UNL A   1      32.540  20.148  23.616  1.00  0.00     0.261 C 
BRANCH   3   4
ATOM      4  O   UNL A   1      31.824  21.277  24.190  1.00  0.00    -0.463 OA
BRANCH   4   5
ATOM      5  C   UNL A   1      31.945  22.476  23.554  1.00  0.00     0.305 C 
ATOM      6  O   UNL A   1      32.910  22.766  22.856  1.00  0.00    -0.252 OA
BRANCH   5   7
ATOM      7  C   UNL A   1      30.852  23.495  23.953  1.00  0.00     0.123 C 
BRANCH   7   8
ATOM      8  C   UNL A   1      30.681  24.799  23.147  1.00  0.00     0.012 C 
BRANCH   8   9
ATOM      9  C   UNL A   1      30.023  26.020  23.857  1.00  0.00     0.007 C 
BRANCH   9  10
ATOM     10  C   UNL A   1      30.086  26.136  25.380  1.00  0.00     0.070 C 
BRANCH  10  11
ATOM     11  C   UNL A   1      31.305  26.869  25.975  1.00  0.00     0.212 C 
BRANCH  11  12
ATOM     12  C   UNL A   1      32.492  25.903  25.951  1.00  0.00     0.012 A 
ATOM     13  C   UNL A   1      33.524  22.527  27.458  1.00  0.00     0.044 C 
ATOM     14  C   UNL A   1      33.534  23.783  26.639  1.00  0.00    -0.051 A 
ATOM     15  C   UNL A   1      34.621  24.057  25.808  1.00  0.00     0.004 A 
ATOM     16  C   UNL A   1      32.480  24.706  26.703  1.00  0.00     0.013 A 
ATOM     17  C   UNL A   1      34.646  25.223  25.045  1.00  0.00     0.004 A 
ATOM     18  C   UNL A   1      33.595  26.151  25.101  1.00  0.00    -0.042 A 
ATOM     19  C   UNL A   1      33.696  27.348  24.191  1.00  0.00     0.045 C 
ENDBRANCH  11  12
BRANCH  11  20
ATOM     20  N   UNL A   1      31.014  27.373  27.326  1.00  0.00    -0.351 N 
ATOM     21  H   UNL A   1      31.367  28.325  27.417  1.00  0.00     0.345 HD
ATOM     22  H   UNL A   1      31.467  26.775  28.017  1.00  0.00     0.345 HD
ATOM     23  H   UNL A   1      30.006  27.368  27.480  1.00  0.00     0.345 HD
ENDBRANCH  11  20
ENDBRANCH  10  11
ENDBRANCH   9  10
ENDBRANCH   8   9
ENDBRANCH   7   8
ENDBRANCH   5   7
ENDBRANCH   4   5
ENDBRANCH   3   4
ENDBRANCH   2   3
ENDBRANCH   1   2
BRANCH   1  24
ATOM     24  C   UNL A   1      35.145  20.718  24.665  1.00  0.00     0.188 C 
BRANCH  24  25
ATOM     25  C   UNL A   1      36.423  21.045  25.469  1.00  0.00     0.188 C 
BRANCH  25  26
ATOM     26  O   UNL A   1      37.582  20.834  24.681  1.00  0.00    -0.376 OA
BRANCH  26  27
ATOM     27  C   UNL A   1      38.236  19.581  24.787  1.00  0.00     0.202 C 
BRANCH  27  28
ATOM     28  C   UNL A   1      39.362  19.428  25.821  1.00  0.00     0.261 C 
BRANCH  28  29
ATOM     29  O   UNL A   1      40.582  18.680  25.561  1.00  0.00    -0.460 OA
BRANCH  29  30
ATOM     30  C   UNL A   1      41.864  18.898  25.908  1.00  0.00     0.338 C 
ATOM     31  O   UNL A   1      42.725  18.024  25.842  1.00  0.00    -0.246 OA
BRANCH  30  32
ATOM     32  C   UNL A   1      42.172  20.196  26.495  1.00  0.00     0.060 A 
ATOM     33  C   UNL A   1      41.612  20.447  27.731  1.00  0.00     0.016 A 
ATOM     34  C   UNL A   1      42.901  21.188  25.834  1.00  0.00     0.016 A 
ATOM     35  C   UNL A   1      41.687  21.738  28.230  1.00  0.00     0.010 A 
ATOM     36  C   UNL A   1      42.900  22.503  26.338  1.00  0.00     0.010 A 
ATOM     37  C   UNL A   1      42.226  22.801  27.522  1.00  0.00    -0.014 A 
BRANCH  37  38
ATOM     38  C   UNL A   1      42.335  24.053  28.305  1.00  0.00     0.031 A 
ATOM     39  C   UNL A   1      41.286  25.026  27.896  1.00  0.00     0.074 A 
ATOM     40  C   UNL A   1      43.283  24.387  29.218  1.00  0.00     0.049 A 
ATOM     41  N   UNL A   1      41.464  26.231  27.453  1.00  0.00    -0.248 NA
ATOM     42  C   UNL A   1      39.891  24.558  27.829  1.00  0.00     0.031 C 
ATOM     43  C   UNL A   1      44.348  23.520  29.722  1.00  0.00     0.029 A 
ATOM     44  N   UNL A   1      43.469  25.544  29.963  1.00  0.00    -0.354 N 
ATOM     45  C   UNL A   1      40.181  26.738  27.284  1.00  0.00     0.074 A 
ATOM     46  C   UNL A   1      39.267  25.633  27.354  1.00  0.00     0.031 C 
ATOM     47  C   UNL A   1      44.885  24.066  30.836  1.00  0.00     0.029 A 
ATOM     48  C   UNL A   1      44.265  25.357  31.099  1.00  0.00     0.049 A 
ATOM     49  H   UNL A   1      43.078  26.413  29.716  1.00  0.00     0.167 HD
ATOM     50  C   UNL A   1      39.930  28.045  27.547  1.00  0.00     0.037 A 
ATOM     51  C   UNL A   1      44.389  26.143  32.209  1.00  0.00     0.037 A 
ATOM     52  C   UNL A   1      41.091  28.868  27.387  1.00  0.00     0.049 A 
ATOM     53  C   UNL A   1      43.970  27.519  31.880  1.00  0.00     0.074 A 
ATOM     54  C   UNL A   1      41.803  29.444  26.359  1.00  0.00     0.029 A 
ATOM     55  N   UNL A   1      41.882  28.907  28.492  1.00  0.00    -0.354 N 
ATOM     56  N   UNL A   1      44.721  28.364  31.238  1.00  0.00    -0.248 NA
ATOM     57  C   UNL A   1      42.580  27.922  32.072  1.00  0.00     0.031 C 
ATOM     58  C   UNL A   1      43.059  29.845  26.906  1.00  0.00     0.029 A 
ATOM     59  C   UNL A   1      43.070  29.533  28.259  1.00  0.00     0.049 A 
ATOM     60  H   UNL A   1      41.626  28.526  29.363  1.00  0.00     0.167 HD
ATOM     61  C   UNL A   1      43.816  29.147  30.563  1.00  0.00     0.074 A 
ATOM     62  C   UNL A   1      42.543  28.970  31.247  1.00  0.00     0.031 C 
ATOM     63  C   UNL A   1      44.081  29.518  29.282  1.00  0.00     0.037 A 
BRANCH  50  64
ATOM     64  C   UNL A   1      38.832  28.418  28.523  1.00  0.00     0.064 A 
ATOM     65  C   UNL A   1      37.912  29.425  28.197  1.00  0.00     0.173 A 
ATOM     66  C   UNL A   1      38.836  28.017  29.883  1.00  0.00     0.173 A 
ATOM     67  F   UNL A   1      37.899  29.963  26.967  1.00  0.00    -0.203 F 
ATOM     68  C   UNL A   1      37.044  29.964  29.155  1.00  0.00     0.198 A 
ATOM     69  C   UNL A   1      37.921  28.494  30.813  1.00  0.00     0.198 A 
ATOM     70  F   UNL A   1      39.809  27.254  30.395  1.00  0.00    -0.203 F 
ATOM     71  F   UNL A   1      36.253  30.996  28.833  1.00  0.00    -0.200 F 
ATOM     72  C   UNL A   1      37.034  29.482  30.455  1.00  0.00     0.200 A 
ATOM     73  F   UNL A   1      37.971  28.047  32.076  1.00  0.00    -0.200 F 
ATOM     74  F   UNL A   1      36.220  30.011  31.377  1.00  0.00    -0.200 F 
ENDBRANCH  50  64
BRANCH  51  75
ATOM     75  C   UNL A   1      44.740  25.811  33.624  1.00  0.00     0.064 A 
ATOM     76  C   UNL A   1      43.743  25.556  34.595  1.00  0.00     0.173 A 
ATOM     77  C   UNL A   1      46.047  25.443  33.987  1.00  0.00     0.173 A 
ATOM     78  F   UNL A   1      42.457  25.844  34.346  1.00  0.00    -0.203 F 
ATOM     79  C   UNL A   1      44.032  24.923  35.811  1.00  0.00     0.198 A 
ATOM     80  C   UNL A   1      46.335  24.822  35.207  1.00  0.00     0.198 A 
ATOM     81  F   UNL A   1      47.065  25.588  33.129  1.00  0.00    -0.203 F 
ATOM     82  F   UNL A   1      43.040  24.627  36.665  1.00  0.00    -0.200 F 
ATOM     83  C   UNL A   1      45.326  24.541  36.108  1.00  0.00     0.200 A 
ATOM     84  F   UNL A   1      47.590  24.433  35.471  1.00  0.00    -0.200 F 
ATOM     85  F   UNL A   1      45.594  23.868  37.236  1.00  0.00    -0.200 F 
ENDBRANCH  51  75
BRANCH  63  86
ATOM     86  C   UNL A   1      45.498  29.780  28.919  1.00  0.00     0.064 A 
ATOM     87  C   UNL A   1      46.164  30.999  29.106  1.00  0.00     0.173 A 
ATOM     88  C   UNL A   1      46.223  28.706  28.381  1.00  0.00     0.173 A 
ATOM     89  F   UNL A   1      45.546  32.047  29.674  1.00  0.00    -0.203 F 
ATOM     90  C   UNL A   1      47.500  31.139  28.732  1.00  0.00     0.198 A 
ATOM     91  C   UNL A   1      47.563  28.839  28.046  1.00  0.00     0.198 A 
ATOM     92  F   UNL A   1      45.628  27.516  28.202  1.00  0.00    -0.203 F 
ATOM     93  F   UNL A   1      48.121  32.317  28.892  1.00  0.00    -0.200 F 
ATOM     94  C   UNL A   1      48.199  30.058  28.212  1.00  0.00     0.200 A 
ATOM     95  F   UNL A   1      48.238  27.782  27.574  1.00  0.00    -0.200 F 
ATOM     96  F   UNL A   1      49.491  30.186  27.884  1.00  0.00    -0.200 F 
ENDBRANCH  63  86
ENDBRANCH  37  38
ENDBRANCH  30  32
ENDBRANCH  29  30
ENDBRANCH  28  29
ENDBRANCH  27  28
ENDBRANCH  26  27
ENDBRANCH  25  26
ENDBRANCH  24  25
ENDBRANCH   1  24
TORSDOF 23
ENDMDL
MODEL 2
REMARK VINA RESULT:     -10.1      2.039      6.881
REMARK SMILES Cc1ccc(C)c([C@H]([NH3+])CCCCC(=O)OCCOCCOCCOC(=O)c2ccc(-c3c4nc(c(-c5c(F)c(F)c(F)c(F)c5F)c5ccc([nH]5)c(-c5c(F)c(F)c(F)c(F)c5F)c5nc(c(-c6c(F)c(F)c(F)c(F)c6F)c6ccc3[nH]6)C=C5)C=C4)cc2)c1
REMARK SMILES IDX 19 1 18 2 17 3 16 4 14 5 15 6 13 7 12 8 11 9 10 10 8 11 7 12
REMARK SMILES IDX 1 13 2 14 3 15 91 16 4 17 5 18 6 19 9 20 20 24 21 25 22 26
REMARK SMILES IDX 23 27 24 28 25 29 26 30 27 31 28 32 29 33 90 34 30 35 89 36
REMARK SMILES IDX 31 37 32 38 33 39 83 40 34 41 88 42 82 43 84 44 35 45 87 46
REMARK SMILES IDX 81 47 80 48 36 50 68 51 48 52 67 53 49 54 52 55 66 56 85 57
REMARK SMILES IDX 50 58 51 59 65 61 86 62 53 63 37 64 38 65 46 66 39 67 40 68
REMARK SMILES IDX 44 69 47 70 41 71 42 72 45 73 43 74 69 75 70 76 78 77 71 78
REMARK SMILES IDX 72 79 76 80 79 81 73 82 74 83 77 84 75 85 54 86 55 87 63 88
REMARK SMILES IDX 56 89 57 90 61 91 64 92 58 93 59 94 62 95 60 96
REMARK H PARENT 9 21 9 22 9 23 84 49 52 60
REMARK Flexibility Score: inf
ROOT
ATOM      1  O   UNL A   1      39.717  21.918  27.027  1.00  0.00    -0.376 OA
ENDROOT
BRANCH   1   2
ATOM      2  C   UNL A   1      38.887  22.661  26.132  1.00  0.00     0.202 C 
BRANCH   2   3
ATOM      3  C   UNL A   1      37.969  21.834  25.196  1.00  0.00     0.261 C 
BRANCH   3   4
ATOM      4  O   UNL A   1      36.559  21.894  25.551  1.00  0.00    -0.463 OA
BRANCH   4   5
ATOM      5  C   UNL A   1      35.781  22.770  24.855  1.00  0.00     0.305 C 
ATOM      6  O   UNL A   1      35.561  22.657  23.656  1.00  0.00    -0.252 OA
BRANCH   5   7
ATOM      7  C   UNL A   1      35.370  24.013  25.680  1.00  0.00     0.123 C 
BRANCH   7   8
ATOM      8  C   UNL A   1      34.750  25.236  24.973  1.00  0.00     0.012 C 
BRANCH   8   9
ATOM      9  C   UNL A   1      33.419  25.814  25.539  1.00  0.00     0.007 C 
BRANCH   9  10
ATOM     10  C   UNL A   1      32.103  25.080  25.281  1.00  0.00     0.070 C 
BRANCH  10  11
ATOM     11  C   UNL A   1      31.728  23.953  26.264  1.00  0.00     0.212 C 
BRANCH  11  12
ATOM     12  C   UNL A   1      32.120  22.620  25.623  1.00  0.00     0.012 A 
ATOM     13  C   UNL A   1      31.978  20.887  22.201  1.00  0.00     0.044 C 
ATOM     14  C   UNL A   1      32.275  21.166  23.644  1.00  0.00    -0.051 A 
ATOM     15  C   UNL A   1      32.957  20.216  24.405  1.00  0.00     0.004 A 
ATOM     16  C   UNL A   1      31.863  22.359  24.258  1.00  0.00     0.013 A 
ATOM     17  C   UNL A   1      33.236  20.461  25.749  1.00  0.00     0.004 A 
ATOM     18  C   UNL A   1      32.830  21.651  26.370  1.00  0.00    -0.042 A 
ATOM     19  C   UNL A   1      33.233  21.838  27.810  1.00  0.00     0.045 C 
ENDBRANCH  11  12
BRANCH  11  20
ATOM     20  N   UNL A   1      30.301  24.012  26.620  1.00  0.00    -0.351 N 
ATOM     21  H   UNL A   1      30.192  23.843  27.619  1.00  0.00     0.345 HD
ATOM     22  H   UNL A   1      29.791  23.300  26.097  1.00  0.00     0.345 HD
ATOM     23  H   UNL A   1      29.932  24.934  26.388  1.00  0.00     0.345 HD
ENDBRANCH  11  20
ENDBRANCH  10  11
ENDBRANCH   9  10
ENDBRANCH   8   9
ENDBRANCH   7   8
ENDBRANCH   5   7
ENDBRANCH   4   5
ENDBRANCH   3   4
ENDBRANCH   2   3
ENDBRANCH   1   2
BRANCH   1  24
ATOM     24  C   UNL A   1      40.874  21.309  26.447  1.00  0.00     0.188 C 
BRANCH  24  25
ATOM     25  C   UNL A   1      41.946  20.816  27.443  1.00  0.00     0.188 C 
BRANCH  25  26
ATOM     26  O   UNL A   1      42.161  19.422  27.304  1.00  0.00    -0.376 OA
BRANCH  26  27
ATOM     27  C   UNL A   1      42.540  18.934  26.029  1.00  0.00     0.202 C 
BRANCH  27  28
ATOM     28  C   UNL A   1      44.016  18.581  25.789  1.00  0.00     0.261 C 
BRANCH  28  29
ATOM     29  O   UNL A   1      44.976  19.521  25.232  1.00  0.00    -0.460 OA
BRANCH  29  30
ATOM     30  C   UNL A   1      44.844  20.530  24.352  1.00  0.00     0.338 C 
ATOM     31  O   UNL A   1      45.047  20.388  23.148  1.00  0.00    -0.246 OA
BRANCH  30  32
ATOM     32  C   UNL A   1      44.569  21.850  24.904  1.00  0.00     0.060 A 
ATOM     33  C   UNL A   1      45.122  22.114  26.140  1.00  0.00     0.016 A 
ATOM     34  C   UNL A   1      43.720  22.779  24.297  1.00  0.00     0.016 A 
ATOM     35  C   UNL A   1      44.713  23.257  26.807  1.00  0.00     0.010 A 
ATOM     36  C   UNL A   1      43.275  23.896  25.029  1.00  0.00     0.010 A 
ATOM     37  C   UNL A   1      43.726  24.107  26.332  1.00  0.00    -0.014 A 
BRANCH  37  38
ATOM     38  C   UNL A   1      43.555  25.340  27.134  1.00  0.00     0.031 A 
ATOM     39  C   UNL A   1      44.756  26.213  27.026  1.00  0.00     0.074 A 
ATOM     40  C   UNL A   1      42.525  25.665  27.956  1.00  0.00     0.049 A 
ATOM     41  N   UNL A   1      45.502  26.643  27.993  1.00  0.00    -0.248 NA
ATOM     42  C   UNL A   1      45.274  26.518  25.681  1.00  0.00     0.031 C 
ATOM     43  C   UNL A   1      41.284  24.911  28.135  1.00  0.00     0.029 A 
ATOM     44  N   UNL A   1      42.310  26.777  28.760  1.00  0.00    -0.354 N 
ATOM     45  C   UNL A   1      46.437  27.468  27.378  1.00  0.00     0.074 A 
ATOM     46  C   UNL A   1      46.368  27.220  25.966  1.00  0.00     0.031 C 
ATOM     47  C   UNL A   1      40.371  25.686  28.762  1.00  0.00     0.029 A 
ATOM     48  C   UNL A   1      40.967  26.970  29.103  1.00  0.00     0.049 A 
ATOM     49  H   UNL A   1      43.034  27.373  29.059  1.00  0.00     0.167 HD
ATOM     50  C   UNL A   1      46.867  28.590  28.007  1.00  0.00     0.037 A 
ATOM     51  C   UNL A   1      40.346  28.090  29.576  1.00  0.00     0.037 A 
ATOM     52  C   UNL A   1      46.779  28.487  29.432  1.00  0.00     0.049 A 
ATOM     53  C   UNL A   1      41.350  28.979  30.193  1.00  0.00     0.074 A 
ATOM     54  C   UNL A   1      47.486  27.910  30.462  1.00  0.00     0.029 A 
ATOM     55  N   UNL A   1      45.552  28.810  29.922  1.00  0.00    -0.354 N 
ATOM     56  N   UNL A   1      41.842  28.790  31.381  1.00  0.00    -0.248 NA
ATOM     57  C   UNL A   1      42.008  30.003  29.387  1.00  0.00     0.031 C 
ATOM     58  C   UNL A   1      46.628  27.914  31.602  1.00  0.00     0.029 A 
ATOM     59  C   UNL A   1      45.430  28.522  31.249  1.00  0.00     0.049 A 
ATOM     60  H   UNL A   1      44.833  29.206  29.380  1.00  0.00     0.167 HD
ATOM     61  C   UNL A   1      43.109  29.313  31.288  1.00  0.00     0.074 A 
ATOM     62  C   UNL A   1      43.094  30.202  30.136  1.00  0.00     0.031 C 
ATOM     63  C   UNL A   1      44.145  28.658  31.879  1.00  0.00     0.037 A 
BRANCH  50  64
ATOM     64  C   UNL A   1      46.759  29.932  27.309  1.00  0.00     0.064 A 
ATOM     65  C   UNL A   1      47.850  30.812  27.300  1.00  0.00     0.173 A 
ATOM     66  C   UNL A   1      45.522  30.494  26.901  1.00  0.00     0.173 A 
ATOM     67  F   UNL A   1      49.043  30.421  27.775  1.00  0.00    -0.203 F 
ATOM     68  C   UNL A   1      47.716  32.143  26.885  1.00  0.00     0.198 A 
ATOM     69  C   UNL A   1      45.407  31.790  26.414  1.00  0.00     0.198 A 
ATOM     70  F   UNL A   1      44.358  29.860  27.087  1.00  0.00    -0.203 F 
ATOM     71  F   UNL A   1      48.754  32.982  26.990  1.00  0.00    -0.200 F 
ATOM     72  C   UNL A   1      46.501  32.623  26.422  1.00  0.00     0.200 A 
ATOM     73  F   UNL A   1      44.207  32.242  26.022  1.00  0.00    -0.200 F 
ATOM     74  F   UNL A   1      46.366  33.901  26.045  1.00  0.00    -0.200 F 
ENDBRANCH  50  64
BRANCH  51  75
ATOM     75  C   UNL A   1      38.933  28.565  29.459  1.00  0.00     0.064 A 
ATOM     76  C   UNL A   1      38.107  28.723  30.597  1.00  0.00     0.173 A 
ATOM     77  C   UNL A   1      38.455  29.157  28.277  1.00  0.00     0.173 A 
ATOM     78  F   UNL A   1      38.476  28.220  31.785  1.00  0.00    -0.203 F 
ATOM     79  C   UNL A   1      36.924  29.471  30.561  1.00  0.00     0.198 A 
ATOM     80  C   UNL A   1      37.267  29.894  28.241  1.00  0.00     0.198 A 
ATOM     81  F   UNL A   1      39.176  29.118  27.150  1.00  0.00    -0.203 F 
ATOM     82  F   UNL A   1      36.217  29.663  31.685  1.00  0.00    -0.200 F 
ATOM     83  C   UNL A   1      36.514  30.071  29.386  1.00  0.00     0.200 A 
ATOM     84  F   UNL A   1      36.895  30.492  27.101  1.00  0.00    -0.200 F 
ATOM     85  F   UNL A   1      35.424  30.850  29.365  1.00  0.00    -0.200 F 
ENDBRANCH  51  75
BRANCH  63  86
ATOM     86  C   UNL A   1      43.873  27.949  33.156  1.00  0.00     0.064 A 
ATOM     87  C   UNL A   1      43.729  28.569  34.406  1.00  0.00     0.173 A 
ATOM     88  C   UNL A   1      43.718  26.557  33.088  1.00  0.00     0.173 A 
ATOM     89  F   UNL A   1      43.804  29.904  34.530  1.00  0.00    -0.203 F 
ATOM     90  C   UNL A   1      43.472  27.810  35.546  1.00  0.00     0.198 A 
ATOM     91  C   UNL A   1      43.424  25.809  34.219  1.00  0.00     0.198 A 
ATOM     92  F   UNL A   1      43.830  25.925  31.909  1.00  0.00    -0.203 F 
ATOM     93  F   UNL A   1      43.361  28.410  36.740  1.00  0.00    -0.200 F 
ATOM     94  C   UNL A   1      43.311  26.434  35.450  1.00  0.00     0.200 A 
ATOM     95  F   UNL A   1      43.239  24.487  34.113  1.00  0.00    -0.200 F 
ATOM     96  F   UNL A   1      43.033  25.711  36.543  1.00  0.00    -0.200 F 
ENDBRANCH  63  86
ENDBRANCH  37  38
ENDBRANCH  30  32
ENDBRANCH  29  30
ENDBRANCH  28  29
ENDBRANCH  27  28
ENDBRANCH  26  27
ENDBRANCH  25  26
ENDBRANCH  24  25
ENDBRANCH   1  24
TORSDOF 23
ENDMDL
MODEL 3
REMARK VINA RESULT:     -10.1      2.139      7.004
REMARK SMILES Cc1ccc(C)c([C@H]([NH3+])CCCCC(=O)OCCOCCOCCOC(=O)c2ccc(-c3c4nc(c(-c5c(F)c(F)c(F)c(F)c5F)c5ccc([nH]5)c(-c5c(F)c(F)c(F)c(F)c5F)c5nc(c(-c6c(F)c(F)c(F)c(F)c6F)c6ccc3[nH]6)C=C5)C=C4)cc2)c1
REMARK SMILES IDX 19 1 18 2 17 3 16 4 14 5 15 6 13 7 12 8 11 9 10 10 8 11 7 12
REMARK SMILES IDX 1 13 2 14 3 15 91 16 4 17 5 18 6 19 9 20 20 24 21 25 22 26
REMARK SMILES IDX 23 27 24 28 25 29 26 30 27 31 28 32 29 33 90 34 30 35 89 36
REMARK SMILES IDX 31 37 32 38 33 39 83 40 34 41 88 42 82 43 84 44 35 45 87 46
REMARK SMILES IDX 81 47 80 48 36 50 68 51 48 52 67 53 49 54 52 55 66 56 85 57
REMARK SMILES IDX 50 58 51 59 65 61 86 62 53 63 37 64 38 65 46 66 39 67 40 68
REMARK SMILES IDX 44 69 47 70 41 71 42 72 45 73 43 74 69 75 70 76 78 77 71 78
REMARK SMILES IDX 72 79 76 80 79 81 73 82 74 83 77 84 75 85 54 86 55 87 63 88
REMARK SMILES IDX 56 89 57 90 61 91 64 92 58 93 59 94 62 95 60 96
REMARK H PARENT 9 21 9 22 9 23 84 49 52 60
REMARK Flexibility Score: inf
ROOT
ATOM      1  O   UNL A   1      39.003  21.917  26.647  1.00  0.00    -0.376 OA
ENDROOT
BRANCH   1   2
ATOM      2  C   UNL A   1      38.160  22.485  25.642  1.00  0.00     0.202 C 
BRANCH   2   3
ATOM      3  C   UNL A   1      37.315  21.488  24.809  1.00  0.00     0.261 C 
BRANCH   3   4
ATOM      4  O   UNL A   1      35.975  21.965  24.503  1.00  0.00    -0.463 OA
BRANCH   4   5
ATOM      5  C   UNL A   1      35.851  22.852  23.476  1.00  0.00     0.305 C 
ATOM      6  O   UNL A   1      36.688  22.964  22.588  1.00  0.00    -0.252 OA
BRANCH   5   7
ATOM      7  C   UNL A   1      34.661  23.826  23.647  1.00  0.00     0.123 C 
BRANCH   7   8
ATOM      8  C   UNL A   1      34.080  24.094  25.052  1.00  0.00     0.012 C 
BRANCH   8   9
ATOM      9  C   UNL A   1      34.389  25.466  25.723  1.00  0.00     0.007 C 
BRANCH   9  10
ATOM     10  C   UNL A   1      33.642  26.719  25.266  1.00  0.00     0.070 C 
BRANCH  10  11
ATOM     11  C   UNL A   1      32.432  27.160  26.114  1.00  0.00     0.212 C 
BRANCH  11  12
ATOM     12  C   UNL A   1      31.226  27.287  25.182  1.00  0.00     0.012 A 
ATOM     13  C   UNL A   1      29.854  29.680  22.511  1.00  0.00     0.044 C 
ATOM     14  C   UNL A   1      30.013  28.491  23.411  1.00  0.00    -0.051 A 
ATOM     15  C   UNL A   1      29.071  27.462  23.368  1.00  0.00     0.004 A 
ATOM     16  C   UNL A   1      31.081  28.395  24.315  1.00  0.00     0.013 A 
ATOM     17  C   UNL A   1      29.203  26.353  24.202  1.00  0.00     0.004 A 
ATOM     18  C   UNL A   1      30.270  26.248  25.107  1.00  0.00    -0.042 A 
ATOM     19  C   UNL A   1      30.350  24.981  25.919  1.00  0.00     0.045 C 
ENDBRANCH  11  12
BRANCH  11  20
ATOM     20  N   UNL A   1      32.721  28.408  26.839  1.00  0.00    -0.351 N 
ATOM     21  H   UNL A   1      31.893  28.697  27.361  1.00  0.00     0.345 HD
ATOM     22  H   UNL A   1      32.974  29.138  26.173  1.00  0.00     0.345 HD
ATOM     23  H   UNL A   1      33.494  28.253  27.486  1.00  0.00     0.345 HD
ENDBRANCH  11  20
ENDBRANCH  10  11
ENDBRANCH   9  10
ENDBRANCH   8   9
ENDBRANCH   7   8
ENDBRANCH   5   7
ENDBRANCH   4   5
ENDBRANCH   3   4
ENDBRANCH   2   3
ENDBRANCH   1   2
BRANCH   1  24
ATOM     24  C   UNL A   1      40.161  21.224  26.172  1.00  0.00     0.188 C 
BRANCH  24  25
ATOM     25  C   UNL A   1      41.334  21.110  27.171  1.00  0.00     0.188 C 
BRANCH  25  26
ATOM     26  O   UNL A   1      41.769  19.766  27.287  1.00  0.00    -0.376 OA
BRANCH  26  27
ATOM     27  C   UNL A   1      42.175  19.098  26.106  1.00  0.00     0.202 C 
BRANCH  27  28
ATOM     28  C   UNL A   1      43.650  18.695  25.962  1.00  0.00     0.261 C 
BRANCH  28  29
ATOM     29  O   UNL A   1      44.664  19.576  25.402  1.00  0.00    -0.460 OA
BRANCH  29  30
ATOM     30  C   UNL A   1      44.590  20.584  24.514  1.00  0.00     0.338 C 
ATOM     31  O   UNL A   1      44.841  20.433  23.320  1.00  0.00    -0.246 OA
BRANCH  30  32
ATOM     32  C   UNL A   1      44.322  21.912  25.050  1.00  0.00     0.060 A 
ATOM     33  C   UNL A   1      44.855  22.179  26.294  1.00  0.00     0.016 A 
ATOM     34  C   UNL A   1      43.497  22.846  24.420  1.00  0.00     0.016 A 
ATOM     35  C   UNL A   1      44.449  23.333  26.943  1.00  0.00     0.010 A 
ATOM     36  C   UNL A   1      43.051  23.975  25.134  1.00  0.00     0.010 A 
ATOM     37  C   UNL A   1      43.481  24.191  26.443  1.00  0.00    -0.014 A 
BRANCH  37  38
ATOM     38  C   UNL A   1      43.311  25.433  27.231  1.00  0.00     0.031 A 
ATOM     39  C   UNL A   1      44.519  26.297  27.127  1.00  0.00     0.074 A 
ATOM     40  C   UNL A   1      42.275  25.773  28.040  1.00  0.00     0.049 A 
ATOM     41  N   UNL A   1      45.258  26.731  28.098  1.00  0.00    -0.248 NA
ATOM     42  C   UNL A   1      45.052  26.585  25.784  1.00  0.00     0.031 C 
ATOM     43  C   UNL A   1      41.027  25.030  28.213  1.00  0.00     0.029 A 
ATOM     44  N   UNL A   1      42.060  26.895  28.830  1.00  0.00    -0.354 N 
ATOM     45  C   UNL A   1      46.205  27.544  27.484  1.00  0.00     0.074 A 
ATOM     46  C   UNL A   1      46.149  27.282  26.073  1.00  0.00     0.031 C 
ATOM     47  C   UNL A   1      40.113  25.817  28.824  1.00  0.00     0.029 A 
ATOM     48  C   UNL A   1      40.715  27.100  29.159  1.00  0.00     0.049 A 
ATOM     49  H   UNL A   1      42.785  27.489  29.131  1.00  0.00     0.167 HD
ATOM     50  C   UNL A   1      46.636  28.669  28.106  1.00  0.00     0.037 A 
ATOM     51  C   UNL A   1      40.097  28.229  29.614  1.00  0.00     0.037 A 
ATOM     52  C   UNL A   1      46.533  28.580  29.531  1.00  0.00     0.049 A 
ATOM     53  C   UNL A   1      41.101  29.117  30.232  1.00  0.00     0.074 A 
ATOM     54  C   UNL A   1      47.227  28.008  30.574  1.00  0.00     0.029 A 
ATOM     55  N   UNL A   1      45.304  28.916  30.006  1.00  0.00    -0.354 N 
ATOM     56  N   UNL A   1      41.580  28.936  31.427  1.00  0.00    -0.248 NA
ATOM     57  C   UNL A   1      41.774  30.129  29.423  1.00  0.00     0.031 C 
ATOM     58  C   UNL A   1      46.357  28.030  31.705  1.00  0.00     0.029 A 
ATOM     59  C   UNL A   1      45.167  28.642  31.334  1.00  0.00     0.049 A 
ATOM     60  H   UNL A   1      44.593  29.312  29.453  1.00  0.00     0.167 HD
ATOM     61  C   UNL A   1      42.852  29.449  31.342  1.00  0.00     0.074 A 
ATOM     62  C   UNL A   1      42.854  30.328  30.181  1.00  0.00     0.031 C 
ATOM     63  C   UNL A   1      43.877  28.793  31.949  1.00  0.00     0.037 A 
BRANCH  50  64
ATOM     64  C   UNL A   1      46.545  30.004  27.394  1.00  0.00     0.064 A 
ATOM     65  C   UNL A   1      47.641  30.879  27.392  1.00  0.00     0.173 A 
ATOM     66  C   UNL A   1      45.317  30.568  26.964  1.00  0.00     0.173 A 
ATOM     67  F   UNL A   1      48.825  30.486  27.886  1.00  0.00    -0.203 F 
ATOM     68  C   UNL A   1      47.519  32.206  26.962  1.00  0.00     0.198 A 
ATOM     69  C   UNL A   1      45.215  31.861  26.464  1.00  0.00     0.198 A 
ATOM     70  F   UNL A   1      44.147  29.943  27.140  1.00  0.00    -0.203 F 
ATOM     71  F   UNL A   1      48.560  33.041  27.073  1.00  0.00    -0.200 F 
ATOM     72  C   UNL A   1      46.313  32.688  26.478  1.00  0.00     0.200 A 
ATOM     73  F   UNL A   1      44.023  32.315  26.051  1.00  0.00    -0.200 F 
ATOM     74  F   UNL A   1      46.190  33.963  26.088  1.00  0.00    -0.200 F 
ENDBRANCH  50  64
BRANCH  51  75
ATOM     75  C   UNL A   1      38.688  28.712  29.478  1.00  0.00     0.064 A 
ATOM     76  C   UNL A   1      37.874  28.952  30.611  1.00  0.00     0.173 A 
ATOM     77  C   UNL A   1      38.207  29.234  28.265  1.00  0.00     0.173 A 
ATOM     78  F   UNL A   1      38.248  28.523  31.825  1.00  0.00    -0.203 F 
ATOM     79  C   UNL A   1      36.699  29.712  30.536  1.00  0.00     0.198 A 
ATOM     80  C   UNL A   1      37.027  29.982  28.191  1.00  0.00     0.198 A 
ATOM     81  F   UNL A   1      38.918  29.115  27.136  1.00  0.00    -0.203 F 
ATOM     82  F   UNL A   1      36.005  29.983  31.651  1.00  0.00    -0.200 F 
ATOM     83  C   UNL A   1      36.286  30.240  29.328  1.00  0.00     0.200 A 
ATOM     84  F   UNL A   1      36.653  30.510  27.018  1.00  0.00    -0.200 F 
ATOM     85  F   UNL A   1      35.205  31.029  29.266  1.00  0.00    -0.200 F 
ENDBRANCH  51  75
BRANCH  63  86
ATOM     86  C   UNL A   1      43.587  28.099  33.231  1.00  0.00     0.064 A 
ATOM     87  C   UNL A   1      43.525  26.708  33.397  1.00  0.00     0.173 A 
ATOM     88  C   UNL A   1      43.395  28.908  34.361  1.00  0.00     0.173 A 
ATOM     89  F   UNL A   1      43.761  25.877  32.369  1.00  0.00    -0.203 F 
ATOM     90  C   UNL A   1      43.247  26.156  34.647  1.00  0.00     0.198 A 
ATOM     91  C   UNL A   1      43.157  28.354  35.610  1.00  0.00     0.198 A 
ATOM     92  F   UNL A   1      43.464  30.244  34.250  1.00  0.00    -0.203 F 
ATOM     93  F   UNL A   1      43.166  24.826  34.789  1.00  0.00    -0.200 F 
ATOM     94  C   UNL A   1      43.073  26.978  35.752  1.00  0.00     0.200 A 
ATOM     95  F   UNL A   1      43.021  29.153  36.677  1.00  0.00    -0.200 F 
ATOM     96  F   UNL A   1      42.838  26.445  36.957  1.00  0.00    -0.200 F 
ENDBRANCH  63  86
ENDBRANCH  37  38
ENDBRANCH  30  32
ENDBRANCH  29  30
ENDBRANCH  28  29
ENDBRANCH  27  28
ENDBRANCH  26  27
ENDBRANCH  25  26
ENDBRANCH  24  25
ENDBRANCH   1  24
TORSDOF 23
ENDMDL
