MODEL 1
REMARK VINA RESULT:     -11.5      0.000      0.000
REMARK SMILES O=C(CCn1cc(/C=C\C(=O)c2ccc(F)cc2)c(-c2cccc(Cl)c2)n1)OCCOCCOCCOC(=O)c1ccc(-c2c3nc(c(-c4c(F)c(F)c(F)c(F)c4F)c4ccc([nH]4)c(-c4c(F)c(F)c(F)c(F)c4F)c4nc(c(-c5c(F)c(F)c(F)c(F)c5F)c5ccc2[nH]5)C=C4)C=C3)cc1
REMARK SMILES IDX 31 1 30 2 29 3 28 4 2 5 1 6 3 7 4 8 5 9 6 10 27 11 7 12
REMARK SMILES IDX 19 13 8 14 9 15 10 16 11 17 12 18 13 19 18 20 14 21 17 22
REMARK SMILES IDX 15 23 16 24 20 25 21 26 26 27 22 28 24 29 23 30 25 31 32 32
REMARK SMILES IDX 33 33 34 34 35 35 36 36 37 37 38 38 39 39 40 40 41 41 102 42
REMARK SMILES IDX 42 43 101 44 43 45 44 46 45 47 95 48 46 49 100 50 94 51
REMARK SMILES IDX 96 52 47 53 99 54 93 55 92 56 48 58 80 59 60 60 79 61 61 62
REMARK SMILES IDX 64 63 78 64 97 65 62 66 63 67 77 69 98 70 65 71 49 72 50 73
REMARK SMILES IDX 58 74 51 75 52 76 56 77 59 78 53 79 54 80 57 81 55 82 81 83
REMARK SMILES IDX 82 84 90 85 83 86 84 87 88 88 91 89 85 90 86 91 89 92 87 93
REMARK SMILES IDX 66 94 67 95 75 96 68 97 69 98 73 99 76 100 70 101 71 102
REMARK SMILES IDX 74 103 72 104
REMARK H PARENT 96 57 64 68
REMARK Flexibility Score: inf
ROOT
ATOM      1  O   UNL A   1      37.049  20.630  25.511  1.00  0.00    -0.376 OA
ENDROOT
BRANCH   1   2
ATOM      2  C   UNL A   1      36.894  19.518  24.627  1.00  0.00     0.202 C 
BRANCH   2   3
ATOM      3  C   UNL A   1      36.068  18.286  25.032  1.00  0.00     0.261 C 
BRANCH   3   4
ATOM      4  O   UNL A   1      35.348  17.752  23.917  1.00  0.00    -0.463 OA
BRANCH   4   5
ATOM      5  C   UNL A   1      34.166  17.115  23.961  1.00  0.00     0.307 C 
ATOM      6  O   UNL A   1      34.087  15.892  23.943  1.00  0.00    -0.252 OA
BRANCH   5   7
ATOM      7  C   UNL A   1      32.965  17.987  24.066  1.00  0.00     0.146 C 
BRANCH   7   8
ATOM      8  C   UNL A   1      32.757  18.569  25.460  1.00  0.00     0.156 C 
BRANCH   8   9
ATOM      9  N   UNL A   1      32.651  20.011  25.612  1.00  0.00    -0.271 N 
ATOM     10  C   UNL A   1      33.564  20.806  26.243  1.00  0.00     0.117 A 
ATOM     11  N   UNL A   1      31.646  20.711  25.036  1.00  0.00    -0.172 NA
ATOM     12  C   UNL A   1      33.098  22.100  26.149  1.00  0.00     0.021 A 
ATOM     13  C   UNL A   1      31.824  21.975  25.465  1.00  0.00     0.100 A 
BRANCH  12  14
ATOM     14  C   UNL A   1      33.849  23.219  26.665  1.00  0.00     0.016 C 
ATOM     15  C   UNL A   1      34.411  24.318  26.116  1.00  0.00     0.053 C 
BRANCH  15  16
ATOM     16  C   UNL A   1      34.503  24.920  24.727  1.00  0.00     0.185 C 
ATOM     17  O   UNL A   1      34.904  24.226  23.801  1.00  0.00    -0.289 OA
BRANCH  16  18
ATOM     18  C   UNL A   1      34.230  26.422  24.598  1.00  0.00     0.022 A 
ATOM     19  C   UNL A   1      33.590  26.794  26.254  1.00  0.00     0.015 A 
ATOM     20  C   UNL A   1      33.961  27.847  23.174  1.00  0.00     0.015 A 
ATOM     21  C   UNL A   1      32.685  28.285  26.471  1.00  0.00     0.040 A 
ATOM     22  C   UNL A   1      33.027  29.320  23.585  1.00  0.00     0.040 A 
ATOM     23  C   UNL A   1      32.412  29.470  25.195  1.00  0.00     0.123 A 
ATOM     24  F   UNL A   1      31.786  30.607  25.531  1.00  0.00    -0.207 F 
ENDBRANCH  16  18
ENDBRANCH  15  16
ENDBRANCH  12  14
BRANCH  13  25
ATOM     25  C   UNL A   1      30.916  23.187  25.096  1.00  0.00     0.004 A 
ATOM     26  C   UNL A   1      30.064  24.766  26.057  1.00  0.00     0.010 A 
ATOM     27  C   UNL A   1      31.492  23.496  23.398  1.00  0.00     0.031 A 
ATOM     28  C   UNL A   1      30.017  26.364  25.239  1.00  0.00     0.002 A 
ATOM     29  C   UNL A   1      31.367  25.118  22.744  1.00  0.00     0.041 A 
ATOM     30  C   UNL A   1      30.676  26.482  23.629  1.00  0.00     0.020 A 
ATOM     31  Cl  UNL A   1      31.934  25.391  21.140  1.00  0.00    -0.084 Cl
ENDBRANCH  13  25
ENDBRANCH   8   9
ENDBRANCH   7   8
ENDBRANCH   5   7
ENDBRANCH   4   5
ENDBRANCH   3   4
ENDBRANCH   2   3
ENDBRANCH   1   2
BRANCH   1  32
ATOM     32  C   UNL A   1      37.745  21.807  25.101  1.00  0.00     0.188 C 
BRANCH  32  33
ATOM     33  C   UNL A   1      38.711  22.466  26.097  1.00  0.00     0.188 C 
BRANCH  33  34
ATOM     34  O   UNL A   1      40.047  21.972  26.228  1.00  0.00    -0.376 OA
BRANCH  34  35
ATOM     35  C   UNL A   1      40.321  20.627  26.585  1.00  0.00     0.202 C 
BRANCH  35  36
ATOM     36  C   UNL A   1      41.773  20.178  26.596  1.00  0.00     0.261 C 
BRANCH  36  37
ATOM     37  O   UNL A   1      42.565  21.301  26.256  1.00  0.00    -0.460 OA
BRANCH  37  38
ATOM     38  C   UNL A   1      43.572  20.984  25.424  1.00  0.00     0.338 C 
ATOM     39  O   UNL A   1      43.830  19.884  24.964  1.00  0.00    -0.246 OA
BRANCH  38  40
ATOM     40  C   UNL A   1      44.374  22.189  25.160  1.00  0.00     0.060 A 
ATOM     41  C   UNL A   1      45.298  22.462  26.163  1.00  0.00     0.016 A 
ATOM     42  C   UNL A   1      43.778  23.185  24.376  1.00  0.00     0.016 A 
ATOM     43  C   UNL A   1      45.199  23.698  26.728  1.00  0.00     0.010 A 
ATOM     44  C   UNL A   1      43.692  24.426  24.927  1.00  0.00     0.010 A 
ATOM     45  C   UNL A   1      44.271  24.590  26.177  1.00  0.00    -0.014 A 
BRANCH  45  46
ATOM     46  C   UNL A   1      43.910  25.726  26.975  1.00  0.00     0.031 A 
ATOM     47  C   UNL A   1      44.898  26.802  26.846  1.00  0.00     0.074 A 
ATOM     48  C   UNL A   1      42.787  25.745  27.712  1.00  0.00     0.049 A 
ATOM     49  N   UNL A   1      45.739  27.207  27.735  1.00  0.00    -0.248 NA
ATOM     50  C   UNL A   1      45.129  27.325  25.490  1.00  0.00     0.031 C 
ATOM     51  C   UNL A   1      41.641  24.831  27.710  1.00  0.00     0.029 A 
ATOM     52  N   UNL A   1      42.419  26.693  28.607  1.00  0.00    -0.354 N 
ATOM     53  C   UNL A   1      46.503  28.166  27.092  1.00  0.00     0.074 A 
ATOM     54  C   UNL A   1      46.222  28.058  25.684  1.00  0.00     0.031 C 
ATOM     55  C   UNL A   1      40.617  25.402  28.391  1.00  0.00     0.029 A 
ATOM     56  C   UNL A   1      41.088  26.636  28.992  1.00  0.00     0.049 A 
ATOM     57  H   UNL A   1      43.046  27.368  28.955  1.00  0.00     0.167 HD
ATOM     58  C   UNL A   1      47.137  29.145  27.786  1.00  0.00     0.037 A 
ATOM     59  C   UNL A   1      40.456  27.630  29.663  1.00  0.00     0.037 A 
ATOM     60  C   UNL A   1      47.299  28.797  29.171  1.00  0.00     0.049 A 
ATOM     61  C   UNL A   1      41.520  28.458  30.307  1.00  0.00     0.074 A 
ATOM     62  C   UNL A   1      48.018  27.814  29.824  1.00  0.00     0.029 A 
ATOM     63  N   UNL A   1      46.341  29.217  30.063  1.00  0.00    -0.354 N 
ATOM     64  N   UNL A   1      42.293  28.021  31.266  1.00  0.00    -0.248 NA
ATOM     65  C   UNL A   1      42.046  29.583  29.545  1.00  0.00     0.031 C 
ATOM     66  C   UNL A   1      47.167  27.367  30.876  1.00  0.00     0.029 A 
ATOM     67  C   UNL A   1      46.007  28.142  30.853  1.00  0.00     0.049 A 
ATOM     68  H   UNL A   1      45.963  30.123  30.126  1.00  0.00     0.167 HD
ATOM     69  C   UNL A   1      43.549  28.543  30.982  1.00  0.00     0.074 A 
ATOM     70  C   UNL A   1      43.323  29.537  29.935  1.00  0.00     0.031 C 
ATOM     71  C   UNL A   1      44.688  27.923  31.407  1.00  0.00     0.037 A 
BRANCH  58  72
ATOM     72  C   UNL A   1      47.317  30.520  27.229  1.00  0.00     0.064 A 
ATOM     73  C   UNL A   1      46.234  31.386  26.948  1.00  0.00     0.173 A 
ATOM     74  C   UNL A   1      48.594  31.096  27.176  1.00  0.00     0.173 A 
ATOM     75  F   UNL A   1      44.960  31.010  27.120  1.00  0.00    -0.203 F 
ATOM     76  C   UNL A   1      46.417  32.712  26.577  1.00  0.00     0.198 A 
ATOM     77  C   UNL A   1      48.770  32.448  26.869  1.00  0.00     0.198 A 
ATOM     78  F   UNL A   1      49.681  30.373  27.481  1.00  0.00    -0.203 F 
ATOM     79  F   UNL A   1      45.348  33.474  26.304  1.00  0.00    -0.200 F 
ATOM     80  C   UNL A   1      47.685  33.251  26.560  1.00  0.00     0.200 A 
ATOM     81  F   UNL A   1      49.996  32.985  26.919  1.00  0.00    -0.200 F 
ATOM     82  F   UNL A   1      47.851  34.552  26.293  1.00  0.00    -0.200 F 
ENDBRANCH  58  72
BRANCH  59  83
ATOM     83  C   UNL A   1      39.097  28.165  29.397  1.00  0.00     0.064 A 
ATOM     84  C   UNL A   1      38.764  28.748  28.158  1.00  0.00     0.173 A 
ATOM     85  C   UNL A   1      38.199  28.388  30.453  1.00  0.00     0.173 A 
ATOM     86  F   UNL A   1      39.592  28.658  27.108  1.00  0.00    -0.203 F 
ATOM     87  C   UNL A   1      37.620  29.531  27.994  1.00  0.00     0.198 A 
ATOM     88  C   UNL A   1      37.054  29.176  30.289  1.00  0.00     0.198 A 
ATOM     89  F   UNL A   1      38.465  27.906  31.676  1.00  0.00    -0.203 F 
ATOM     90  F   UNL A   1      37.380  30.120  26.814  1.00  0.00    -0.200 F 
ATOM     91  C   UNL A   1      36.773  29.758  29.063  1.00  0.00     0.200 A 
ATOM     92  F   UNL A   1      36.255  29.423  31.337  1.00  0.00    -0.200 F 
ATOM     93  F   UNL A   1      35.716  30.570  28.923  1.00  0.00    -0.200 F 
ENDBRANCH  59  83
BRANCH  71  94
ATOM     94  C   UNL A   1      44.545  26.762  32.357  1.00  0.00     0.064 A 
ATOM     95  C   UNL A   1      44.736  26.994  33.726  1.00  0.00     0.173 A 
ATOM     96  C   UNL A   1      44.415  25.424  31.943  1.00  0.00     0.173 A 
ATOM     97  F   UNL A   1      44.915  28.246  34.174  1.00  0.00    -0.203 F 
ATOM     98  C   UNL A   1      44.811  25.942  34.635  1.00  0.00     0.198 A 
ATOM     99  C   UNL A   1      44.455  24.372  32.860  1.00  0.00     0.198 A 
ATOM    100  F   UNL A   1      44.320  25.113  30.644  1.00  0.00    -0.203 F 
ATOM    101  F   UNL A   1      45.064  26.196  35.926  1.00  0.00    -0.200 F 
ATOM    102  C   UNL A   1      44.666  24.633  34.204  1.00  0.00     0.200 A 
ATOM    103  F   UNL A   1      44.331  23.105  32.439  1.00  0.00    -0.200 F 
ATOM    104  F   UNL A   1      44.761  23.622  35.080  1.00  0.00    -0.200 F 
ENDBRANCH  71  94
ENDBRANCH  45  46
ENDBRANCH  38  40
ENDBRANCH  37  38
ENDBRANCH  36  37
ENDBRANCH  35  36
ENDBRANCH  34  35
ENDBRANCH  33  34
ENDBRANCH  32  33
ENDBRANCH   1  32
TORSDOF 23
ENDMDL
MODEL 2
REMARK VINA RESULT:     -11.1      1.230      2.068
REMARK SMILES O=C(CCn1cc(/C=C\C(=O)c2ccc(F)cc2)c(-c2cccc(Cl)c2)n1)OCCOCCOCCOC(=O)c1ccc(-c2c3nc(c(-c4c(F)c(F)c(F)c(F)c4F)c4ccc([nH]4)c(-c4c(F)c(F)c(F)c(F)c4F)c4nc(c(-c5c(F)c(F)c(F)c(F)c5F)c5ccc2[nH]5)C=C4)C=C3)cc1
REMARK SMILES IDX 31 1 30 2 29 3 28 4 2 5 1 6 3 7 4 8 5 9 6 10 27 11 7 12
REMARK SMILES IDX 19 13 8 14 9 15 10 16 11 17 12 18 13 19 18 20 14 21 17 22
REMARK SMILES IDX 15 23 16 24 20 25 21 26 26 27 22 28 24 29 23 30 25 31 32 32
REMARK SMILES IDX 33 33 34 34 35 35 36 36 37 37 38 38 39 39 40 40 41 41 102 42
REMARK SMILES IDX 42 43 101 44 43 45 44 46 45 47 95 48 46 49 100 50 94 51
REMARK SMILES IDX 96 52 47 53 99 54 93 55 92 56 48 58 80 59 60 60 79 61 61 62
REMARK SMILES IDX 64 63 78 64 97 65 62 66 63 67 77 69 98 70 65 71 49 72 50 73
REMARK SMILES IDX 58 74 51 75 52 76 56 77 59 78 53 79 54 80 57 81 55 82 81 83
REMARK SMILES IDX 82 84 90 85 83 86 84 87 88 88 91 89 85 90 86 91 89 92 87 93
REMARK SMILES IDX 66 94 67 95 75 96 68 97 69 98 73 99 76 100 70 101 71 102
REMARK SMILES IDX 74 103 72 104
REMARK H PARENT 96 57 64 68
REMARK Flexibility Score: inf
ROOT
ATOM      1  O   UNL A   1      37.588  20.884  25.362  1.00  0.00    -0.376 OA
ENDROOT
BRANCH   1   2
ATOM      2  C   UNL A   1      37.135  19.608  24.906  1.00  0.00     0.202 C 
BRANCH   2   3
ATOM      3  C   UNL A   1      35.649  19.216  24.979  1.00  0.00     0.261 C 
BRANCH   3   4
ATOM      4  O   UNL A   1      35.382  18.044  24.203  1.00  0.00    -0.463 OA
BRANCH   4   5
ATOM      5  C   UNL A   1      34.541  17.047  24.527  1.00  0.00     0.307 C 
ATOM      6  O   UNL A   1      34.809  16.229  25.399  1.00  0.00    -0.252 OA
BRANCH   5   7
ATOM      7  C   UNL A   1      33.252  17.023  23.783  1.00  0.00     0.146 C 
BRANCH   7   8
ATOM      8  C   UNL A   1      32.197  17.959  24.363  1.00  0.00     0.156 C 
BRANCH   8   9
ATOM      9  N   UNL A   1      32.410  19.395  24.280  1.00  0.00    -0.271 N 
ATOM     10  C   UNL A   1      32.572  20.102  23.124  1.00  0.00     0.117 A 
ATOM     11  N   UNL A   1      32.368  20.181  25.381  1.00  0.00    -0.172 NA
ATOM     12  C   UNL A   1      32.727  21.424  23.484  1.00  0.00     0.021 A 
ATOM     13  C   UNL A   1      32.694  21.409  24.934  1.00  0.00     0.100 A 
BRANCH  12  14
ATOM     14  C   UNL A   1      32.867  22.469  22.499  1.00  0.00     0.016 C 
ATOM     15  C   UNL A   1      32.220  23.628  22.246  1.00  0.00     0.053 C 
BRANCH  15  16
ATOM     16  C   UNL A   1      31.075  24.399  22.874  1.00  0.00     0.185 C 
ATOM     17  O   UNL A   1      30.019  23.820  23.100  1.00  0.00    -0.289 OA
BRANCH  16  18
ATOM     18  C   UNL A   1      31.261  25.909  23.047  1.00  0.00     0.022 A 
ATOM     19  C   UNL A   1      29.565  26.417  23.441  1.00  0.00     0.015 A 
ATOM     20  C   UNL A   1      32.570  27.389  22.572  1.00  0.00     0.015 A 
ATOM     21  C   UNL A   1      29.152  28.117  23.260  1.00  0.00     0.040 A 
ATOM     22  C   UNL A   1      31.972  29.074  22.456  1.00  0.00     0.040 A 
ATOM     23  C   UNL A   1      30.298  29.366  22.780  1.00  0.00     0.123 A 
ATOM     24  F   UNL A   1      29.864  30.635  22.778  1.00  0.00    -0.207 F 
ENDBRANCH  16  18
ENDBRANCH  15  16
ENDBRANCH  12  14
BRANCH  13  25
ATOM     25  C   UNL A   1      32.803  22.688  25.817  1.00  0.00     0.004 A 
ATOM     26  C   UNL A   1      34.011  24.322  25.942  1.00  0.00     0.010 A 
ATOM     27  C   UNL A   1      31.041  22.963  26.177  1.00  0.00     0.031 A 
ATOM     28  C   UNL A   1      33.279  25.924  26.294  1.00  0.00     0.002 A 
ATOM     29  C   UNL A   1      30.489  24.594  26.508  1.00  0.00     0.041 A 
ATOM     30  C   UNL A   1      31.556  26.002  26.551  1.00  0.00     0.020 A 
ATOM     31  Cl  UNL A   1      28.813  24.833  26.831  1.00  0.00    -0.084 Cl
ENDBRANCH  13  25
ENDBRANCH   8   9
ENDBRANCH   7   8
ENDBRANCH   5   7
ENDBRANCH   4   5
ENDBRANCH   3   4
ENDBRANCH   2   3
ENDBRANCH   1   2
BRANCH   1  32
ATOM     32  C   UNL A   1      38.977  21.212  25.375  1.00  0.00     0.188 C 
BRANCH  32  33
ATOM     33  C   UNL A   1      39.526  22.010  26.567  1.00  0.00     0.188 C 
BRANCH  33  34
ATOM     34  O   UNL A   1      40.717  21.575  27.230  1.00  0.00    -0.376 OA
BRANCH  34  35
ATOM     35  C   UNL A   1      41.138  20.220  27.209  1.00  0.00     0.202 C 
BRANCH  35  36
ATOM     36  C   UNL A   1      42.200  19.824  26.198  1.00  0.00     0.261 C 
BRANCH  36  37
ATOM     37  O   UNL A   1      42.835  21.013  25.764  1.00  0.00    -0.460 OA
BRANCH  37  38
ATOM     38  C   UNL A   1      44.095  20.797  25.345  1.00  0.00     0.338 C 
ATOM     39  O   UNL A   1      44.691  19.734  25.320  1.00  0.00    -0.246 OA
BRANCH  38  40
ATOM     40  C   UNL A   1      44.690  22.079  24.937  1.00  0.00     0.060 A 
ATOM     41  C   UNL A   1      45.742  22.479  25.756  1.00  0.00     0.016 A 
ATOM     42  C   UNL A   1      43.852  22.982  24.271  1.00  0.00     0.016 A 
ATOM     43  C   UNL A   1      45.603  23.709  26.326  1.00  0.00     0.010 A 
ATOM     44  C   UNL A   1      43.723  24.218  24.825  1.00  0.00     0.010 A 
ATOM     45  C   UNL A   1      44.494  24.476  25.949  1.00  0.00    -0.014 A 
BRANCH  45  46
ATOM     46  C   UNL A   1      44.152  25.583  26.796  1.00  0.00     0.031 A 
ATOM     47  C   UNL A   1      45.154  26.650  26.706  1.00  0.00     0.074 A 
ATOM     48  C   UNL A   1      43.033  25.586  27.540  1.00  0.00     0.049 A 
ATOM     49  N   UNL A   1      46.005  27.007  27.606  1.00  0.00    -0.248 NA
ATOM     50  C   UNL A   1      45.384  27.226  25.372  1.00  0.00     0.031 C 
ATOM     51  C   UNL A   1      41.876  24.688  27.506  1.00  0.00     0.029 A 
ATOM     52  N   UNL A   1      42.684  26.501  28.475  1.00  0.00    -0.354 N 
ATOM     53  C   UNL A   1      46.778  27.981  26.999  1.00  0.00     0.074 A 
ATOM     54  C   UNL A   1      46.488  27.936  25.589  1.00  0.00     0.031 C 
ATOM     55  C   UNL A   1      40.863  25.243  28.217  1.00  0.00     0.029 A 
ATOM     56  C   UNL A   1      41.354  26.445  28.866  1.00  0.00     0.049 A 
ATOM     57  H   UNL A   1      43.321  27.152  28.848  1.00  0.00     0.167 HD
ATOM     58  C   UNL A   1      47.429  28.922  27.729  1.00  0.00     0.037 A 
ATOM     59  C   UNL A   1      40.738  27.419  29.581  1.00  0.00     0.037 A 
ATOM     60  C   UNL A   1      47.594  28.515  29.098  1.00  0.00     0.049 A 
ATOM     61  C   UNL A   1      41.817  28.205  30.253  1.00  0.00     0.074 A 
ATOM     62  C   UNL A   1      48.303  27.496  29.704  1.00  0.00     0.029 A 
ATOM     63  N   UNL A   1      46.647  28.910  30.012  1.00  0.00    -0.354 N 
ATOM     64  N   UNL A   1      42.589  27.718  31.188  1.00  0.00    -0.248 NA
ATOM     65  C   UNL A   1      42.354  29.354  29.535  1.00  0.00     0.031 C 
ATOM     66  C   UNL A   1      47.452  27.016  30.743  1.00  0.00     0.029 A 
ATOM     67  C   UNL A   1      46.302  27.807  30.758  1.00  0.00     0.049 A 
ATOM     68  H   UNL A   1      46.281  29.817  30.115  1.00  0.00     0.167 HD
ATOM     69  C   UNL A   1      43.851  28.235  30.919  1.00  0.00     0.074 A 
ATOM     70  C   UNL A   1      43.633  29.274  29.916  1.00  0.00     0.031 C 
ATOM     71  C   UNL A   1      44.984  27.582  31.311  1.00  0.00     0.037 A 
BRANCH  58  72
ATOM     72  C   UNL A   1      47.624  30.317  27.229  1.00  0.00     0.064 A 
ATOM     73  C   UNL A   1      46.551  31.201  26.970  1.00  0.00     0.173 A 
ATOM     74  C   UNL A   1      48.906  30.886  27.214  1.00  0.00     0.173 A 
ATOM     75  F   UNL A   1      45.272  30.827  27.112  1.00  0.00    -0.203 F 
ATOM     76  C   UNL A   1      46.746  32.539  26.654  1.00  0.00     0.198 A 
ATOM     77  C   UNL A   1      49.094  32.247  26.962  1.00  0.00     0.198 A 
ATOM     78  F   UNL A   1      49.985  30.144  27.502  1.00  0.00    -0.203 F 
ATOM     79  F   UNL A   1      45.686  33.319  26.399  1.00  0.00    -0.200 F 
ATOM     80  C   UNL A   1      48.018  33.069  26.672  1.00  0.00     0.200 A 
ATOM     81  F   UNL A   1      50.323  32.774  27.047  1.00  0.00    -0.200 F 
ATOM     82  F   UNL A   1      48.196  34.379  26.459  1.00  0.00    -0.200 F 
ENDBRANCH  58  72
BRANCH  59  83
ATOM     83  C   UNL A   1      39.386  27.982  29.346  1.00  0.00     0.064 A 
ATOM     84  C   UNL A   1      39.051  28.613  28.131  1.00  0.00     0.173 A 
ATOM     85  C   UNL A   1      38.499  28.181  30.417  1.00  0.00     0.173 A 
ATOM     86  F   UNL A   1      39.869  28.549  27.071  1.00  0.00    -0.203 F 
ATOM     87  C   UNL A   1      37.918  29.418  28.005  1.00  0.00     0.198 A 
ATOM     88  C   UNL A   1      37.365  28.990  30.291  1.00  0.00     0.198 A 
ATOM     89  F   UNL A   1      38.768  27.652  31.619  1.00  0.00    -0.203 F 
ATOM     90  F   UNL A   1      37.677  30.052  26.848  1.00  0.00    -0.200 F 
ATOM     91  C   UNL A   1      37.082  29.619  29.088  1.00  0.00     0.200 A 
ATOM     92  F   UNL A   1      36.578  29.211  31.353  1.00  0.00    -0.200 F 
ATOM     93  F   UNL A   1      36.036  30.450  28.986  1.00  0.00    -0.200 F 
ENDBRANCH  59  83
BRANCH  71  94
ATOM     94  C   UNL A   1      44.830  26.385  32.213  1.00  0.00     0.064 A 
ATOM     95  C   UNL A   1      44.627  25.130  31.625  1.00  0.00     0.173 A 
ATOM     96  C   UNL A   1      44.692  26.471  33.610  1.00  0.00     0.173 A 
ATOM     97  F   UNL A   1      44.697  24.996  30.291  1.00  0.00    -0.203 F 
ATOM     98  C   UNL A   1      44.286  24.018  32.390  1.00  0.00     0.198 A 
ATOM     99  C   UNL A   1      44.385  25.348  34.380  1.00  0.00     0.198 A 
ATOM    100  F   UNL A   1      44.782  27.650  34.238  1.00  0.00    -0.203 F 
ATOM    101  F   UNL A   1      44.031  22.848  31.787  1.00  0.00    -0.200 F 
ATOM    102  C   UNL A   1      44.170  24.125  33.767  1.00  0.00     0.200 A 
ATOM    103  F   UNL A   1      44.256  25.457  35.711  1.00  0.00    -0.200 F 
ATOM    104  F   UNL A   1      43.820  23.056  34.497  1.00  0.00    -0.200 F 
ENDBRANCH  71  94
ENDBRANCH  45  46
ENDBRANCH  38  40
ENDBRANCH  37  38
ENDBRANCH  36  37
ENDBRANCH  35  36
ENDBRANCH  34  35
ENDBRANCH  33  34
ENDBRANCH  32  33
ENDBRANCH   1  32
TORSDOF 23
ENDMDL
MODEL 3
REMARK VINA RESULT:     -10.8      2.711      3.963
REMARK SMILES O=C(CCn1cc(/C=C\C(=O)c2ccc(F)cc2)c(-c2cccc(Cl)c2)n1)OCCOCCOCCOC(=O)c1ccc(-c2c3nc(c(-c4c(F)c(F)c(F)c(F)c4F)c4ccc([nH]4)c(-c4c(F)c(F)c(F)c(F)c4F)c4nc(c(-c5c(F)c(F)c(F)c(F)c5F)c5ccc2[nH]5)C=C4)C=C3)cc1
REMARK SMILES IDX 31 1 30 2 29 3 28 4 2 5 1 6 3 7 4 8 5 9 6 10 27 11 7 12
REMARK SMILES IDX 19 13 8 14 9 15 10 16 11 17 12 18 13 19 18 20 14 21 17 22
REMARK SMILES IDX 15 23 16 24 20 25 21 26 26 27 22 28 24 29 23 30 25 31 32 32
REMARK SMILES IDX 33 33 34 34 35 35 36 36 37 37 38 38 39 39 40 40 41 41 102 42
REMARK SMILES IDX 42 43 101 44 43 45 44 46 45 47 95 48 46 49 100 50 94 51
REMARK SMILES IDX 96 52 47 53 99 54 93 55 92 56 48 58 80 59 60 60 79 61 61 62
REMARK SMILES IDX 64 63 78 64 97 65 62 66 63 67 77 69 98 70 65 71 49 72 50 73
REMARK SMILES IDX 58 74 51 75 52 76 56 77 59 78 53 79 54 80 57 81 55 82 81 83
REMARK SMILES IDX 82 84 90 85 83 86 84 87 88 88 91 89 85 90 86 91 89 92 87 93
REMARK SMILES IDX 66 94 67 95 75 96 68 97 69 98 73 99 76 100 70 101 71 102
REMARK SMILES IDX 74 103 72 104
REMARK H PARENT 96 57 64 68
REMARK Flexibility Score: inf
ROOT
ATOM      1  O   UNL A   1      36.251  19.449  24.996  1.00  0.00    -0.376 OA
ENDROOT
BRANCH   1   2
ATOM      2  C   UNL A   1      35.799  18.111  24.779  1.00  0.00     0.202 C 
BRANCH   2   3
ATOM      3  C   UNL A   1      34.728  17.792  23.722  1.00  0.00     0.261 C 
BRANCH   3   4
ATOM      4  O   UNL A   1      33.464  17.510  24.331  1.00  0.00    -0.463 OA
BRANCH   4   5
ATOM      5  C   UNL A   1      32.843  18.256  25.260  1.00  0.00     0.307 C 
ATOM      6  O   UNL A   1      32.106  17.759  26.104  1.00  0.00    -0.252 OA
BRANCH   5   7
ATOM      7  C   UNL A   1      33.133  19.715  25.218  1.00  0.00     0.146 C 
BRANCH   7   8
ATOM      8  C   UNL A   1      32.342  20.461  24.150  1.00  0.00     0.156 C 
BRANCH   8   9
ATOM      9  N   UNL A   1      31.912  21.825  24.417  1.00  0.00    -0.271 N 
ATOM     10  C   UNL A   1      31.912  22.425  25.643  1.00  0.00     0.117 A 
ATOM     11  N   UNL A   1      31.554  22.662  23.416  1.00  0.00    -0.172 NA
ATOM     12  C   UNL A   1      31.452  23.711  25.456  1.00  0.00     0.021 A 
ATOM     13  C   UNL A   1      31.139  23.780  24.041  1.00  0.00     0.100 A 
BRANCH  12  14
ATOM     14  C   UNL A   1      31.374  24.656  26.544  1.00  0.00     0.016 C 
ATOM     15  C   UNL A   1      32.024  25.798  26.857  1.00  0.00     0.053 C 
BRANCH  15  16
ATOM     16  C   UNL A   1      33.108  26.647  26.221  1.00  0.00     0.185 C 
ATOM     17  O   UNL A   1      33.748  26.192  25.281  1.00  0.00    -0.289 OA
BRANCH  16  18
ATOM     18  C   UNL A   1      33.442  27.978  26.902  1.00  0.00     0.022 A 
ATOM     19  C   UNL A   1      31.897  28.891  26.638  1.00  0.00     0.015 A 
ATOM     20  C   UNL A   1      35.047  29.060  27.520  1.00  0.00     0.015 A 
ATOM     21  C   UNL A   1      31.934  30.640  26.813  1.00  0.00     0.040 A 
ATOM     22  C   UNL A   1      34.893  30.839  27.663  1.00  0.00     0.040 A 
ATOM     23  C   UNL A   1      33.363  31.555  27.285  1.00  0.00     0.123 A 
ATOM     24  F   UNL A   1      33.218  32.875  27.473  1.00  0.00    -0.207 F 
ENDBRANCH  16  18
ENDBRANCH  15  16
ENDBRANCH  12  14
BRANCH  13  25
ATOM     25  C   UNL A   1      30.605  25.062  23.334  1.00  0.00     0.004 A 
ATOM     26  C   UNL A   1      29.085  26.391  23.592  1.00  0.00     0.010 A 
ATOM     27  C   UNL A   1      32.172  25.746  22.713  1.00  0.00     0.031 A 
ATOM     28  C   UNL A   1      29.391  28.135  23.298  1.00  0.00     0.002 A 
ATOM     29  C   UNL A   1      32.304  27.477  22.472  1.00  0.00     0.041 A 
ATOM     30  C   UNL A   1      30.982  28.612  22.764  1.00  0.00     0.020 A 
ATOM     31  Cl  UNL A   1      33.803  28.104  21.899  1.00  0.00    -0.084 Cl
ENDBRANCH  13  25
ENDBRANCH   8   9
ENDBRANCH   7   8
ENDBRANCH   5   7
ENDBRANCH   4   5
ENDBRANCH   3   4
ENDBRANCH   2   3
ENDBRANCH   1   2
BRANCH   1  32
ATOM     32  C   UNL A   1      37.581  19.842  24.656  1.00  0.00     0.188 C 
BRANCH  32  33
ATOM     33  C   UNL A   1      38.749  19.156  25.381  1.00  0.00     0.188 C 
BRANCH  33  34
ATOM     34  O   UNL A   1      39.723  19.946  26.072  1.00  0.00    -0.376 OA
BRANCH  34  35
ATOM     35  C   UNL A   1      39.665  21.363  26.093  1.00  0.00     0.202 C 
BRANCH  35  36
ATOM     36  C   UNL A   1      40.915  22.116  26.514  1.00  0.00     0.261 C 
BRANCH  36  37
ATOM     37  O   UNL A   1      40.621  22.777  27.731  1.00  0.00    -0.460 OA
BRANCH  37  38
ATOM     38  C   UNL A   1      40.012  23.961  27.537  1.00  0.00     0.338 C 
ATOM     39  O   UNL A   1      38.818  24.197  27.613  1.00  0.00    -0.246 OA
BRANCH  38  40
ATOM     40  C   UNL A   1      41.023  24.965  27.172  1.00  0.00     0.060 A 
ATOM     41  C   UNL A   1      41.968  25.180  28.171  1.00  0.00     0.016 A 
ATOM     42  C   UNL A   1      40.630  25.956  26.265  1.00  0.00     0.016 A 
ATOM     43  C   UNL A   1      42.087  26.469  28.596  1.00  0.00     0.010 A 
ATOM     44  C   UNL A   1      40.764  27.248  26.675  1.00  0.00     0.010 A 
ATOM     45  C   UNL A   1      41.345  27.445  27.919  1.00  0.00    -0.014 A 
BRANCH  45  46
ATOM     46  C   UNL A   1      41.185  28.710  28.576  1.00  0.00     0.031 A 
ATOM     47  C   UNL A   1      42.313  29.603  28.291  1.00  0.00     0.074 A 
ATOM     48  C   UNL A   1      40.107  28.985  29.329  1.00  0.00     0.049 A 
ATOM     49  N   UNL A   1      43.239  29.983  29.104  1.00  0.00    -0.248 NA
ATOM     50  C   UNL A   1      42.562  29.919  26.875  1.00  0.00     0.031 C 
ATOM     51  C   UNL A   1      38.842  28.258  29.467  1.00  0.00     0.029 A 
ATOM     52  N   UNL A   1      39.918  30.078  30.106  1.00  0.00    -0.354 N 
ATOM     53  C   UNL A   1      44.107  30.732  28.328  1.00  0.00     0.074 A 
ATOM     54  C   UNL A   1      43.757  30.499  26.952  1.00  0.00     0.031 C 
ATOM     55  C   UNL A   1      37.940  29.053  30.094  1.00  0.00     0.029 A 
ATOM     56  C   UNL A   1      38.609  30.267  30.525  1.00  0.00     0.049 A 
ATOM     57  H   UNL A   1      40.649  30.689  30.353  1.00  0.00     0.167 HD
ATOM     58  C   UNL A   1      44.903  31.682  28.880  1.00  0.00     0.037 A 
ATOM     59  C   UNL A   1      38.155  31.418  31.079  1.00  0.00     0.037 A 
ATOM     60  C   UNL A   1      45.069  31.485  30.294  1.00  0.00     0.049 A 
ATOM     61  C   UNL A   1      39.353  32.150  31.591  1.00  0.00     0.074 A 
ATOM     62  C   UNL A   1      45.664  30.491  31.048  1.00  0.00     0.029 A 
ATOM     63  N   UNL A   1      44.220  32.147  31.147  1.00  0.00    -0.354 N 
ATOM     64  N   UNL A   1      40.092  31.722  32.579  1.00  0.00    -0.248 NA
ATOM     65  C   UNL A   1      40.006  33.084  30.682  1.00  0.00     0.031 C 
ATOM     66  C   UNL A   1      44.800  30.306  32.168  1.00  0.00     0.029 A 
ATOM     67  C   UNL A   1      43.765  31.237  32.072  1.00  0.00     0.049 A 
ATOM     68  H   UNL A   1      43.980  33.100  31.104  1.00  0.00     0.167 HD
ATOM     69  C   UNL A   1      41.399  32.012  32.205  1.00  0.00     0.074 A 
ATOM     70  C   UNL A   1      41.277  32.895  31.047  1.00  0.00     0.031 C 
ATOM     71  C   UNL A   1      42.452  31.285  32.679  1.00  0.00     0.037 A 
BRANCH  58  72
ATOM     72  C   UNL A   1      45.259  32.938  28.151  1.00  0.00     0.064 A 
ATOM     73  C   UNL A   1      46.482  33.110  27.462  1.00  0.00     0.173 A 
ATOM     74  C   UNL A   1      44.286  33.923  27.930  1.00  0.00     0.173 A 
ATOM     75  F   UNL A   1      47.433  32.165  27.456  1.00  0.00    -0.203 F 
ATOM     76  C   UNL A   1      46.739  34.216  26.663  1.00  0.00     0.198 A 
ATOM     77  C   UNL A   1      44.524  35.000  27.073  1.00  0.00     0.198 A 
ATOM     78  F   UNL A   1      43.074  33.823  28.493  1.00  0.00    -0.203 F 
ATOM     79  F   UNL A   1      47.928  34.329  26.054  1.00  0.00    -0.200 F 
ATOM     80  C   UNL A   1      45.751  35.152  26.449  1.00  0.00     0.200 A 
ATOM     81  F   UNL A   1      43.539  35.871  26.813  1.00  0.00    -0.200 F 
ATOM     82  F   UNL A   1      45.968  36.168  25.606  1.00  0.00    -0.200 F 
ENDBRANCH  58  72
BRANCH  59  83
ATOM     83  C   UNL A   1      36.879  32.113  30.779  1.00  0.00     0.064 A 
ATOM     84  C   UNL A   1      36.733  32.926  29.636  1.00  0.00     0.173 A 
ATOM     85  C   UNL A   1      35.884  32.237  31.762  1.00  0.00     0.173 A 
ATOM     86  F   UNL A   1      37.667  32.939  28.675  1.00  0.00    -0.203 F 
ATOM     87  C   UNL A   1      35.677  33.828  29.501  1.00  0.00     0.198 A 
ATOM     88  C   UNL A   1      34.827  33.143  31.628  1.00  0.00     0.198 A 
ATOM     89  F   UNL A   1      35.972  31.532  32.900  1.00  0.00    -0.203 F 
ATOM     90  F   UNL A   1      35.618  34.628  28.427  1.00  0.00    -0.200 F 
ATOM     91  C   UNL A   1      34.732  33.948  30.503  1.00  0.00     0.200 A 
ATOM     92  F   UNL A   1      33.933  33.281  32.617  1.00  0.00    -0.200 F 
ATOM     93  F   UNL A   1      33.760  34.865  30.405  1.00  0.00    -0.200 F 
ENDBRANCH  59  83
BRANCH  71  94
ATOM     94  C   UNL A   1      42.180  30.282  33.770  1.00  0.00     0.064 A 
ATOM     95  C   UNL A   1      42.527  30.618  35.085  1.00  0.00     0.173 A 
ATOM     96  C   UNL A   1      41.773  28.957  33.530  1.00  0.00     0.173 A 
ATOM     97  F   UNL A   1      42.970  31.854  35.366  1.00  0.00    -0.203 F 
ATOM     98  C   UNL A   1      42.485  29.675  36.109  1.00  0.00     0.198 A 
ATOM     99  C   UNL A   1      41.697  28.022  34.564  1.00  0.00     0.198 A 
ATOM    100  F   UNL A   1      41.511  28.533  32.288  1.00  0.00    -0.203 F 
ATOM    101  F   UNL A   1      42.890  30.013  37.341  1.00  0.00    -0.200 F 
ATOM    102  C   UNL A   1      42.066  28.380  35.850  1.00  0.00     0.200 A 
ATOM    103  F   UNL A   1      41.308  26.764  34.309  1.00  0.00    -0.200 F 
ATOM    104  F   UNL A   1      42.049  27.470  36.835  1.00  0.00    -0.200 F 
ENDBRANCH  71  94
ENDBRANCH  45  46
ENDBRANCH  38  40
ENDBRANCH  37  38
ENDBRANCH  36  37
ENDBRANCH  35  36
ENDBRANCH  34  35
ENDBRANCH  33  34
ENDBRANCH  32  33
ENDBRANCH   1  32
TORSDOF 23
ENDMDL
