MODEL 1
REMARK VINA RESULT:     -10.6      0.000      0.000
REMARK SMILES CCOc1cccc(OCC)c1-c1ccc([C@@H](C)C(=O)OCCOCCOCCOC(=O)c2ccc(-c3c4nc(c(-c5c(F)c(F)c(F)c(F)c5F)c5ccc([nH]5)c(-c5c(F)c(F)c(F)c(F)c5F)c5nc(c(-c6c(F)c(F)c(F)c(F)c6F)c6ccc3[nH]6)C=C5)C=C4)cc2)cc1F
REMARK SMILES IDX 25 1 24 2 23 3 22 4 21 5 19 6 20 7 17 8 18 9 16 10 13 11
REMARK SMILES IDX 14 12 97 13 15 14 96 15 98 16 12 17 4 18 5 19 6 20 8 21 7 22
REMARK SMILES IDX 3 23 2 24 1 25 9 26 10 27 11 28 26 29 27 30 28 31 29 32
REMARK SMILES IDX 30 33 31 34 32 35 33 36 34 37 95 38 35 39 94 40 36 41 37 42
REMARK SMILES IDX 38 43 88 44 39 45 93 46 87 47 89 48 40 49 92 50 86 51 85 52
REMARK SMILES IDX 41 54 73 55 53 56 72 57 54 58 57 59 71 60 90 61 55 62 56 63
REMARK SMILES IDX 70 65 91 66 58 67 42 68 43 69 51 70 44 71 45 72 49 73 52 74
REMARK SMILES IDX 46 75 47 76 50 77 48 78 74 79 75 80 83 81 76 82 77 83 81 84
REMARK SMILES IDX 84 85 78 86 79 87 82 88 80 89 59 90 60 91 68 92 61 93 62 94
REMARK SMILES IDX 66 95 69 96 63 97 64 98 67 99 65 100
REMARK H PARENT 89 53 57 64
REMARK Flexibility Score: inf
ROOT
ATOM      1  C   UNL A   1      35.979  21.243  25.758  1.00  0.00     0.188 C 
ENDROOT
BRANCH   1   2
ATOM      2  O   UNL A   1      35.574  20.339  24.738  1.00  0.00    -0.376 OA
BRANCH   2   3
ATOM      3  C   UNL A   1      34.196  20.025  24.588  1.00  0.00     0.202 C 
BRANCH   3   4
ATOM      4  C   UNL A   1      33.183  20.880  25.358  1.00  0.00     0.261 C 
BRANCH   4   5
ATOM      5  O   UNL A   1      32.963  22.205  24.825  1.00  0.00    -0.463 OA
BRANCH   5   6
ATOM      6  C   UNL A   1      32.559  22.275  23.532  1.00  0.00     0.313 C 
ATOM      7  O   UNL A   1      31.944  21.369  22.969  1.00  0.00    -0.252 OA
BRANCH   6   8
ATOM      8  C   UNL A   1      32.957  23.530  22.757  1.00  0.00     0.126 C 
ATOM      9  C   UNL A   1      34.475  23.683  22.848  1.00  0.00     0.025 C 
BRANCH   8  10
ATOM     10  C   UNL A   1      32.290  24.890  22.963  1.00  0.00    -0.031 A 
ATOM     11  C   UNL A   1      31.315  27.536  23.538  1.00  0.00     0.025 A 
ATOM     12  C   UNL A   1      30.566  26.381  23.832  1.00  0.00     0.012 A 
ATOM     13  C   UNL A   1      32.520  27.337  22.862  1.00  0.00     0.131 A 
ATOM     14  C   UNL A   1      31.072  25.085  23.618  1.00  0.00     0.005 A 
ATOM     15  C   UNL A   1      32.992  26.050  22.567  1.00  0.00     0.044 A 
ATOM     16  F   UNL A   1      33.278  28.385  22.502  1.00  0.00    -0.206 F 
BRANCH  11  17
ATOM     17  C   UNL A   1      30.833  28.876  23.955  1.00  0.00     0.069 A 
ATOM     18  C   UNL A   1      31.423  29.511  25.084  1.00  0.00     0.130 A 
ATOM     19  C   UNL A   1      31.087  30.810  25.489  1.00  0.00     0.047 A 
ATOM     20  C   UNL A   1      30.152  31.532  24.772  1.00  0.00     0.008 A 
ATOM     21  C   UNL A   1      29.823  29.609  23.285  1.00  0.00     0.130 A 
ATOM     22  C   UNL A   1      29.515  30.924  23.699  1.00  0.00     0.047 A 
BRANCH  18  23
ATOM     23  O   UNL A   1      32.276  28.802  25.898  1.00  0.00    -0.493 OA
BRANCH  23  24
ATOM     24  C   UNL A   1      31.679  28.452  27.147  1.00  0.00     0.226 C 
ATOM     25  C   UNL A   1      31.698  26.952  27.243  1.00  0.00     0.049 C 
ENDBRANCH  23  24
ENDBRANCH  18  23
BRANCH  21  26
ATOM     26  O   UNL A   1      28.958  29.242  22.287  1.00  0.00    -0.493 OA
BRANCH  26  27
ATOM     27  C   UNL A   1      27.548  29.330  22.387  1.00  0.00     0.226 C 
ATOM     28  C   UNL A   1      27.016  28.276  23.343  1.00  0.00     0.049 C 
ENDBRANCH  26  27
ENDBRANCH  21  26
ENDBRANCH  11  17
ENDBRANCH   8  10
ENDBRANCH   6   8
ENDBRANCH   5   6
ENDBRANCH   4   5
ENDBRANCH   3   4
ENDBRANCH   2   3
ENDBRANCH   1   2
BRANCH   1  29
ATOM     29  C   UNL A   1      37.085  22.267  25.467  1.00  0.00     0.188 C 
BRANCH  29  30
ATOM     30  O   UNL A   1      38.358  21.714  25.184  1.00  0.00    -0.376 OA
BRANCH  30  31
ATOM     31  C   UNL A   1      39.259  21.620  26.276  1.00  0.00     0.202 C 
BRANCH  31  32
ATOM     32  C   UNL A   1      40.679  21.194  25.893  1.00  0.00     0.261 C 
BRANCH  32  33
ATOM     33  O   UNL A   1      41.678  22.014  26.531  1.00  0.00    -0.460 OA
BRANCH  33  34
ATOM     34  C   UNL A   1      42.207  23.041  25.847  1.00  0.00     0.338 C 
ATOM     35  O   UNL A   1      42.844  23.000  24.799  1.00  0.00    -0.246 OA
BRANCH  34  36
ATOM     36  C   UNL A   1      41.897  24.283  26.576  1.00  0.00     0.060 A 
ATOM     37  C   UNL A   1      42.613  25.465  26.337  1.00  0.00     0.016 A 
ATOM     38  C   UNL A   1      40.904  24.251  27.551  1.00  0.00     0.016 A 
ATOM     39  C   UNL A   1      42.352  26.615  27.083  1.00  0.00     0.010 A 
ATOM     40  C   UNL A   1      40.642  25.399  28.298  1.00  0.00     0.010 A 
ATOM     41  C   UNL A   1      41.381  26.578  28.086  1.00  0.00    -0.014 A 
BRANCH  41  42
ATOM     42  C   UNL A   1      41.226  27.693  29.047  1.00  0.00     0.031 A 
ATOM     43  C   UNL A   1      42.092  27.691  30.272  1.00  0.00     0.074 A 
ATOM     44  C   UNL A   1      40.293  28.642  28.870  1.00  0.00     0.049 A 
ATOM     45  N   UNL A   1      41.965  28.368  31.382  1.00  0.00    -0.248 NA
ATOM     46  C   UNL A   1      43.253  26.787  30.243  1.00  0.00     0.031 C 
ATOM     47  C   UNL A   1      39.446  28.789  27.689  1.00  0.00     0.029 A 
ATOM     48  N   UNL A   1      39.876  29.641  29.715  1.00  0.00    -0.354 N 
ATOM     49  C   UNL A   1      43.011  27.952  32.194  1.00  0.00     0.074 A 
ATOM     50  C   UNL A   1      43.759  26.958  31.455  1.00  0.00     0.031 C 
ATOM     51  C   UNL A   1      38.572  29.788  27.904  1.00  0.00     0.029 A 
ATOM     52  C   UNL A   1      38.768  30.310  29.256  1.00  0.00     0.049 A 
ATOM     53  H   UNL A   1      40.326  29.856  30.563  1.00  0.00     0.167 HD
ATOM     54  C   UNL A   1      43.313  28.362  33.448  1.00  0.00     0.037 A 
ATOM     55  C   UNL A   1      37.971  31.196  29.884  1.00  0.00     0.037 A 
ATOM     56  C   UNL A   1      42.559  29.349  34.173  1.00  0.00     0.049 A 
ATOM     57  C   UNL A   1      38.278  31.581  31.310  1.00  0.00     0.074 A 
ATOM     58  C   UNL A   1      42.762  29.823  35.457  1.00  0.00     0.029 A 
ATOM     59  N   UNL A   1      41.453  30.018  33.668  1.00  0.00    -0.354 N 
ATOM     60  N   UNL A   1      39.243  31.164  32.091  1.00  0.00    -0.248 NA
ATOM     61  C   UNL A   1      37.378  32.557  31.941  1.00  0.00     0.031 C 
ATOM     62  C   UNL A   1      41.757  30.753  35.741  1.00  0.00     0.029 A 
ATOM     63  C   UNL A   1      40.959  30.895  34.618  1.00  0.00     0.049 A 
ATOM     64  H   UNL A   1      41.076  29.888  32.768  1.00  0.00     0.167 HD
ATOM     65  C   UNL A   1      39.087  31.847  33.292  1.00  0.00     0.074 A 
ATOM     66  C   UNL A   1      37.938  32.712  33.132  1.00  0.00     0.031 C 
ATOM     67  C   UNL A   1      39.827  31.766  34.425  1.00  0.00     0.037 A 
BRANCH  54  68
ATOM     68  C   UNL A   1      44.488  27.722  34.123  1.00  0.00     0.064 A 
ATOM     69  C   UNL A   1      45.762  28.308  34.094  1.00  0.00     0.173 A 
ATOM     70  C   UNL A   1      44.332  26.522  34.833  1.00  0.00     0.173 A 
ATOM     71  F   UNL A   1      45.966  29.444  33.411  1.00  0.00    -0.203 F 
ATOM     72  C   UNL A   1      46.841  27.707  34.737  1.00  0.00     0.198 A 
ATOM     73  C   UNL A   1      45.406  25.938  35.498  1.00  0.00     0.198 A 
ATOM     74  F   UNL A   1      43.135  25.920  34.891  1.00  0.00    -0.203 F 
ATOM     75  F   UNL A   1      48.058  28.263  34.662  1.00  0.00    -0.200 F 
ATOM     76  C   UNL A   1      46.660  26.528  35.445  1.00  0.00     0.200 A 
ATOM     77  F   UNL A   1      45.229  24.804  36.190  1.00  0.00    -0.200 F 
ATOM     78  F   UNL A   1      47.698  25.955  36.072  1.00  0.00    -0.200 F 
ENDBRANCH  54  68
BRANCH  55  79
ATOM     79  C   UNL A   1      36.772  31.743  29.193  1.00  0.00     0.064 A 
ATOM     80  C   UNL A   1      36.717  33.086  28.796  1.00  0.00     0.173 A 
ATOM     81  C   UNL A   1      35.644  30.945  28.950  1.00  0.00     0.173 A 
ATOM     82  F   UNL A   1      37.759  33.896  29.033  1.00  0.00    -0.203 F 
ATOM     83  C   UNL A   1      35.572  33.616  28.204  1.00  0.00     0.198 A 
ATOM     84  C   UNL A   1      34.511  31.468  28.330  1.00  0.00     0.198 A 
ATOM     85  F   UNL A   1      35.642  29.655  29.315  1.00  0.00    -0.203 F 
ATOM     86  F   UNL A   1      35.526  34.916  27.887  1.00  0.00    -0.200 F 
ATOM     87  C   UNL A   1      34.472  32.806  27.968  1.00  0.00     0.200 A 
ATOM     88  F   UNL A   1      33.454  30.680  28.096  1.00  0.00    -0.200 F 
ATOM     89  F   UNL A   1      33.371  33.317  27.402  1.00  0.00    -0.200 F 
ENDBRANCH  55  79
BRANCH  67  90
ATOM     90  C   UNL A   1      39.457  32.676  35.558  1.00  0.00     0.064 A 
ATOM     91  C   UNL A   1      38.632  32.251  36.609  1.00  0.00     0.173 A 
ATOM     92  C   UNL A   1      39.981  33.977  35.618  1.00  0.00     0.173 A 
ATOM     93  F   UNL A   1      38.095  31.022  36.592  1.00  0.00    -0.203 F 
ATOM     94  C   UNL A   1      38.328  33.103  37.667  1.00  0.00     0.198 A 
ATOM     95  C   UNL A   1      39.698  34.815  36.691  1.00  0.00     0.198 A 
ATOM     96  F   UNL A   1      40.782  34.428  34.640  1.00  0.00    -0.203 F 
ATOM     97  F   UNL A   1      37.504  32.691  38.641  1.00  0.00    -0.200 F 
ATOM     98  C   UNL A   1      38.866  34.381  37.712  1.00  0.00     0.200 A 
ATOM     99  F   UNL A   1      40.231  36.044  36.739  1.00  0.00    -0.200 F 
ATOM    100  F   UNL A   1      38.580  35.195  38.737  1.00  0.00    -0.200 F 
ENDBRANCH  67  90
ENDBRANCH  41  42
ENDBRANCH  34  36
ENDBRANCH  33  34
ENDBRANCH  32  33
ENDBRANCH  31  32
ENDBRANCH  30  31
ENDBRANCH  29  30
ENDBRANCH   1  29
TORSDOF 23
ENDMDL
MODEL 2
REMARK VINA RESULT:     -10.4      4.474      6.354
REMARK SMILES CCOc1cccc(OCC)c1-c1ccc([C@@H](C)C(=O)OCCOCCOCCOC(=O)c2ccc(-c3c4nc(c(-c5c(F)c(F)c(F)c(F)c5F)c5ccc([nH]5)c(-c5c(F)c(F)c(F)c(F)c5F)c5nc(c(-c6c(F)c(F)c(F)c(F)c6F)c6ccc3[nH]6)C=C5)C=C4)cc2)cc1F
REMARK SMILES IDX 25 1 24 2 23 3 22 4 21 5 19 6 20 7 17 8 18 9 16 10 13 11
REMARK SMILES IDX 14 12 97 13 15 14 96 15 98 16 12 17 4 18 5 19 6 20 8 21 7 22
REMARK SMILES IDX 3 23 2 24 1 25 9 26 10 27 11 28 26 29 27 30 28 31 29 32
REMARK SMILES IDX 30 33 31 34 32 35 33 36 34 37 95 38 35 39 94 40 36 41 37 42
REMARK SMILES IDX 38 43 88 44 39 45 93 46 87 47 89 48 40 49 92 50 86 51 85 52
REMARK SMILES IDX 41 54 73 55 53 56 72 57 54 58 57 59 71 60 90 61 55 62 56 63
REMARK SMILES IDX 70 65 91 66 58 67 42 68 43 69 51 70 44 71 45 72 49 73 52 74
REMARK SMILES IDX 46 75 47 76 50 77 48 78 74 79 75 80 83 81 76 82 77 83 81 84
REMARK SMILES IDX 84 85 78 86 79 87 82 88 80 89 59 90 60 91 68 92 61 93 62 94
REMARK SMILES IDX 66 95 69 96 63 97 64 98 67 99 65 100
REMARK H PARENT 89 53 57 64
REMARK Flexibility Score: inf
ROOT
ATOM      1  C   UNL A   1      35.973  22.235  25.122  1.00  0.00     0.188 C 
ENDROOT
BRANCH   1   2
ATOM      2  O   UNL A   1      35.434  21.462  26.187  1.00  0.00    -0.376 OA
BRANCH   2   3
ATOM      3  C   UNL A   1      34.123  21.738  26.657  1.00  0.00     0.202 C 
BRANCH   3   4
ATOM      4  C   UNL A   1      33.382  22.933  26.045  1.00  0.00     0.261 C 
BRANCH   4   5
ATOM      5  O   UNL A   1      32.127  22.617  25.403  1.00  0.00    -0.463 OA
BRANCH   5   6
ATOM      6  C   UNL A   1      32.203  22.124  24.141  1.00  0.00     0.313 C 
ATOM      7  O   UNL A   1      32.328  20.925  23.893  1.00  0.00    -0.252 OA
BRANCH   6   8
ATOM      8  C   UNL A   1      32.188  23.145  23.005  1.00  0.00     0.126 C 
ATOM      9  C   UNL A   1      33.587  23.189  22.389  1.00  0.00     0.025 C 
BRANCH   8  10
ATOM     10  C   UNL A   1      31.652  24.568  23.162  1.00  0.00    -0.031 A 
ATOM     11  C   UNL A   1      30.938  27.318  23.622  1.00  0.00     0.025 A 
ATOM     12  C   UNL A   1      30.116  26.251  24.033  1.00  0.00     0.012 A 
ATOM     13  C   UNL A   1      32.077  26.976  22.891  1.00  0.00     0.131 A 
ATOM     14  C   UNL A   1      30.498  24.906  23.873  1.00  0.00     0.005 A 
ATOM     15  C   UNL A   1      32.421  25.637  22.652  1.00  0.00     0.044 A 
ATOM     16  F   UNL A   1      32.895  27.930  22.421  1.00  0.00    -0.206 F 
BRANCH  11  17
ATOM     17  C   UNL A   1      30.597  28.717  23.979  1.00  0.00     0.069 A 
ATOM     18  C   UNL A   1      31.351  29.386  24.984  1.00  0.00     0.130 A 
ATOM     19  C   UNL A   1      31.150  30.732  25.317  1.00  0.00     0.047 A 
ATOM     20  C   UNL A   1      30.191  31.469  24.650  1.00  0.00     0.008 A 
ATOM     21  C   UNL A   1      29.568  29.473  23.366  1.00  0.00     0.130 A 
ATOM     22  C   UNL A   1      29.397  30.834  23.704  1.00  0.00     0.047 A 
BRANCH  18  23
ATOM     23  O   UNL A   1      32.242  28.676  25.756  1.00  0.00    -0.493 OA
BRANCH  23  24
ATOM     24  C   UNL A   1      32.153  29.007  27.142  1.00  0.00     0.226 C 
ATOM     25  C   UNL A   1      31.351  27.922  27.807  1.00  0.00     0.049 C 
ENDBRANCH  23  24
ENDBRANCH  18  23
BRANCH  21  26
ATOM     26  O   UNL A   1      28.574  29.101  22.500  1.00  0.00    -0.493 OA
BRANCH  26  27
ATOM     27  C   UNL A   1      27.191  29.188  22.794  1.00  0.00     0.226 C 
ATOM     28  C   UNL A   1      26.766  28.040  23.695  1.00  0.00     0.049 C 
ENDBRANCH  26  27
ENDBRANCH  21  26
ENDBRANCH  11  17
ENDBRANCH   8  10
ENDBRANCH   6   8
ENDBRANCH   5   6
ENDBRANCH   4   5
ENDBRANCH   3   4
ENDBRANCH   2   3
ENDBRANCH   1   2
BRANCH   1  29
ATOM     29  C   UNL A   1      37.312  21.827  24.492  1.00  0.00     0.188 C 
BRANCH  29  30
ATOM     30  O   UNL A   1      37.871  20.625  24.992  1.00  0.00    -0.376 OA
BRANCH  30  31
ATOM     31  C   UNL A   1      39.118  20.742  25.659  1.00  0.00     0.202 C 
BRANCH  31  32
ATOM     32  C   UNL A   1      39.733  19.410  26.095  1.00  0.00     0.261 C 
BRANCH  32  33
ATOM     33  O   UNL A   1      40.996  19.162  25.447  1.00  0.00    -0.460 OA
BRANCH  33  34
ATOM     34  C   UNL A   1      42.109  19.098  26.196  1.00  0.00     0.338 C 
ATOM     35  O   UNL A   1      42.659  18.097  26.644  1.00  0.00    -0.246 OA
BRANCH  34  36
ATOM     36  C   UNL A   1      42.594  20.472  26.412  1.00  0.00     0.060 A 
ATOM     37  C   UNL A   1      42.559  21.065  27.682  1.00  0.00     0.016 A 
ATOM     38  C   UNL A   1      43.045  21.197  25.312  1.00  0.00     0.016 A 
ATOM     39  C   UNL A   1      42.960  22.391  27.857  1.00  0.00     0.010 A 
ATOM     40  C   UNL A   1      43.445  22.522  25.484  1.00  0.00     0.010 A 
ATOM     41  C   UNL A   1      43.381  23.133  26.751  1.00  0.00    -0.014 A 
BRANCH  41  42
ATOM     42  C   UNL A   1      43.597  24.594  26.844  1.00  0.00     0.031 A 
ATOM     43  C   UNL A   1      44.985  25.116  26.616  1.00  0.00     0.074 A 
ATOM     44  C   UNL A   1      42.602  25.425  27.192  1.00  0.00     0.049 A 
ATOM     45  N   UNL A   1      45.495  26.282  26.912  1.00  0.00    -0.248 NA
ATOM     46  C   UNL A   1      45.930  24.185  25.979  1.00  0.00     0.031 C 
ATOM     47  C   UNL A   1      41.202  25.046  27.368  1.00  0.00     0.029 A 
ATOM     48  N   UNL A   1      42.634  26.763  27.501  1.00  0.00    -0.354 N 
ATOM     49  C   UNL A   1      46.826  26.215  26.524  1.00  0.00     0.074 A 
ATOM     50  C   UNL A   1      47.049  24.893  25.980  1.00  0.00     0.031 C 
ATOM     51  C   UNL A   1      40.515  26.116  27.804  1.00  0.00     0.029 A 
ATOM     52  C   UNL A   1      41.439  27.235  27.987  1.00  0.00     0.049 A 
ATOM     53  H   UNL A   1      43.432  27.327  27.386  1.00  0.00     0.167 HD
ATOM     54  C   UNL A   1      47.776  27.175  26.621  1.00  0.00     0.037 A 
ATOM     55  C   UNL A   1      41.147  28.414  28.569  1.00  0.00     0.037 A 
ATOM     56  C   UNL A   1      47.542  28.484  27.167  1.00  0.00     0.049 A 
ATOM     57  C   UNL A   1      42.239  29.441  28.741  1.00  0.00     0.074 A 
ATOM     58  C   UNL A   1      48.437  29.525  27.335  1.00  0.00     0.029 A 
ATOM     59  N   UNL A   1      46.314  28.932  27.633  1.00  0.00    -0.354 N 
ATOM     60  N   UNL A   1      43.505  29.369  28.408  1.00  0.00    -0.248 NA
ATOM     61  C   UNL A   1      41.861  30.712  29.376  1.00  0.00     0.031 C 
ATOM     62  C   UNL A   1      47.758  30.591  27.935  1.00  0.00     0.029 A 
ATOM     63  C   UNL A   1      46.430  30.231  28.095  1.00  0.00     0.049 A 
ATOM     64  H   UNL A   1      45.483  28.403  27.634  1.00  0.00     0.167 HD
ATOM     65  C   UNL A   1      44.065  30.590  28.762  1.00  0.00     0.074 A 
ATOM     66  C   UNL A   1      42.999  31.388  29.328  1.00  0.00     0.031 C 
ATOM     67  C   UNL A   1      45.346  31.014  28.631  1.00  0.00     0.037 A 
BRANCH  54  68
ATOM     68  C   UNL A   1      49.158  26.831  26.155  1.00  0.00     0.064 A 
ATOM     69  C   UNL A   1      49.571  27.073  24.837  1.00  0.00     0.173 A 
ATOM     70  C   UNL A   1      50.092  26.278  27.045  1.00  0.00     0.173 A 
ATOM     71  F   UNL A   1      48.710  27.581  23.942  1.00  0.00    -0.203 F 
ATOM     72  C   UNL A   1      50.863  26.761  24.423  1.00  0.00     0.198 A 
ATOM     73  C   UNL A   1      51.390  25.993  26.636  1.00  0.00     0.198 A 
ATOM     74  F   UNL A   1      49.746  26.026  28.317  1.00  0.00    -0.203 F 
ATOM     75  F   UNL A   1      51.225  26.962  23.148  1.00  0.00    -0.200 F 
ATOM     76  C   UNL A   1      51.774  26.229  25.325  1.00  0.00     0.200 A 
ATOM     77  F   UNL A   1      52.272  25.487  27.510  1.00  0.00    -0.200 F 
ATOM     78  F   UNL A   1      53.020  25.936  24.926  1.00  0.00    -0.200 F 
ENDBRANCH  54  68
BRANCH  55  79
ATOM     79  C   UNL A   1      39.776  28.675  29.084  1.00  0.00     0.064 A 
ATOM     80  C   UNL A   1      38.791  29.237  28.262  1.00  0.00     0.173 A 
ATOM     81  C   UNL A   1      39.434  28.400  30.417  1.00  0.00     0.173 A 
ATOM     82  F   UNL A   1      39.078  29.545  26.989  1.00  0.00    -0.203 F 
ATOM     83  C   UNL A   1      37.524  29.539  28.759  1.00  0.00     0.198 A 
ATOM     84  C   UNL A   1      38.157  28.674  30.904  1.00  0.00     0.198 A 
ATOM     85  F   UNL A   1      40.341  27.866  31.247  1.00  0.00    -0.203 F 
ATOM     86  F   UNL A   1      36.620  30.130  27.966  1.00  0.00    -0.200 F 
ATOM     87  C   UNL A   1      37.207  29.252  30.077  1.00  0.00     0.200 A 
ATOM     88  F   UNL A   1      37.853  28.387  32.177  1.00  0.00    -0.200 F 
ATOM     89  F   UNL A   1      35.990  29.545  30.555  1.00  0.00    -0.200 F 
ENDBRANCH  55  79
BRANCH  67  90
ATOM     90  C   UNL A   1      45.654  32.421  29.051  1.00  0.00     0.064 A 
ATOM     91  C   UNL A   1      46.155  32.719  30.326  1.00  0.00     0.173 A 
ATOM     92  C   UNL A   1      45.496  33.479  28.142  1.00  0.00     0.173 A 
ATOM     93  F   UNL A   1      46.311  31.745  31.235  1.00  0.00    -0.203 F 
ATOM     94  C   UNL A   1      46.464  34.029  30.683  1.00  0.00     0.198 A 
ATOM     95  C   UNL A   1      45.833  34.782  28.493  1.00  0.00     0.198 A 
ATOM     96  F   UNL A   1      45.028  33.243  26.907  1.00  0.00    -0.203 F 
ATOM     97  F   UNL A   1      46.902  34.298  31.921  1.00  0.00    -0.200 F 
ATOM     98  C   UNL A   1      46.311  35.058  29.764  1.00  0.00     0.200 A 
ATOM     99  F   UNL A   1      45.698  35.771  27.599  1.00  0.00    -0.200 F 
ATOM    100  F   UNL A   1      46.620  36.316  30.107  1.00  0.00    -0.200 F 
ENDBRANCH  67  90
ENDBRANCH  41  42
ENDBRANCH  34  36
ENDBRANCH  33  34
ENDBRANCH  32  33
ENDBRANCH  31  32
ENDBRANCH  30  31
ENDBRANCH  29  30
ENDBRANCH   1  29
TORSDOF 23
ENDMDL
MODEL 3
REMARK VINA RESULT:     -10.3      4.720      8.814
REMARK SMILES CCOc1cccc(OCC)c1-c1ccc([C@@H](C)C(=O)OCCOCCOCCOC(=O)c2ccc(-c3c4nc(c(-c5c(F)c(F)c(F)c(F)c5F)c5ccc([nH]5)c(-c5c(F)c(F)c(F)c(F)c5F)c5nc(c(-c6c(F)c(F)c(F)c(F)c6F)c6ccc3[nH]6)C=C5)C=C4)cc2)cc1F
REMARK SMILES IDX 25 1 24 2 23 3 22 4 21 5 19 6 20 7 17 8 18 9 16 10 13 11
REMARK SMILES IDX 14 12 97 13 15 14 96 15 98 16 12 17 4 18 5 19 6 20 8 21 7 22
REMARK SMILES IDX 3 23 2 24 1 25 9 26 10 27 11 28 26 29 27 30 28 31 29 32
REMARK SMILES IDX 30 33 31 34 32 35 33 36 34 37 95 38 35 39 94 40 36 41 37 42
REMARK SMILES IDX 38 43 88 44 39 45 93 46 87 47 89 48 40 49 92 50 86 51 85 52
REMARK SMILES IDX 41 54 73 55 53 56 72 57 54 58 57 59 71 60 90 61 55 62 56 63
REMARK SMILES IDX 70 65 91 66 58 67 42 68 43 69 51 70 44 71 45 72 49 73 52 74
REMARK SMILES IDX 46 75 47 76 50 77 48 78 74 79 75 80 83 81 76 82 77 83 81 84
REMARK SMILES IDX 84 85 78 86 79 87 82 88 80 89 59 90 60 91 68 92 61 93 62 94
REMARK SMILES IDX 66 95 69 96 63 97 64 98 67 99 65 100
REMARK H PARENT 89 53 57 64
REMARK Flexibility Score: inf
ROOT
ATOM      1  C   UNL A   1      35.539  21.260  25.628  1.00  0.00     0.188 C 
ENDROOT
BRANCH   1   2
ATOM      2  O   UNL A   1      34.900  20.450  24.649  1.00  0.00    -0.376 OA
BRANCH   2   3
ATOM      3  C   UNL A   1      33.717  19.742  24.991  1.00  0.00     0.202 C 
BRANCH   3   4
ATOM      4  C   UNL A   1      32.384  20.284  24.464  1.00  0.00     0.261 C 
BRANCH   4   5
ATOM      5  O   UNL A   1      32.394  21.676  24.076  1.00  0.00    -0.463 OA
BRANCH   5   6
ATOM      6  C   UNL A   1      32.257  21.933  22.751  1.00  0.00     0.313 C 
ATOM      7  O   UNL A   1      31.738  21.143  21.963  1.00  0.00    -0.252 OA
BRANCH   6   8
ATOM      8  C   UNL A   1      32.840  23.250  22.245  1.00  0.00     0.126 C 
ATOM      9  C   UNL A   1      34.332  23.270  22.582  1.00  0.00     0.025 C 
BRANCH   8  10
ATOM     10  C   UNL A   1      32.226  24.615  22.557  1.00  0.00    -0.031 A 
ATOM     11  C   UNL A   1      31.355  27.247  23.329  1.00  0.00     0.025 A 
ATOM     12  C   UNL A   1      30.574  26.100  23.565  1.00  0.00     0.012 A 
ATOM     13  C   UNL A   1      32.537  27.055  22.611  1.00  0.00     0.131 A 
ATOM     14  C   UNL A   1      31.031  24.806  23.254  1.00  0.00     0.005 A 
ATOM     15  C   UNL A   1      32.958  25.775  22.220  1.00  0.00     0.044 A 
ATOM     16  F   UNL A   1      33.322  28.098  22.302  1.00  0.00    -0.206 F 
BRANCH  11  17
ATOM     17  C   UNL A   1      30.929  28.571  23.845  1.00  0.00     0.069 A 
ATOM     18  C   UNL A   1      31.515  29.078  25.039  1.00  0.00     0.130 A 
ATOM     19  C   UNL A   1      31.233  30.354  25.544  1.00  0.00     0.047 A 
ATOM     20  C   UNL A   1      30.359  31.183  24.867  1.00  0.00     0.008 A 
ATOM     21  C   UNL A   1      29.979  29.410  23.213  1.00  0.00     0.130 A 
ATOM     22  C   UNL A   1      29.725  30.701  23.729  1.00  0.00     0.047 A 
BRANCH  18  23
ATOM     23  O   UNL A   1      32.305  28.259  25.813  1.00  0.00    -0.493 OA
BRANCH  23  24
ATOM     24  C   UNL A   1      32.599  28.827  27.090  1.00  0.00     0.226 C 
ATOM     25  C   UNL A   1      34.097  28.899  27.208  1.00  0.00     0.049 C 
ENDBRANCH  23  24
ENDBRANCH  18  23
BRANCH  21  26
ATOM     26  O   UNL A   1      29.129  29.175  22.165  1.00  0.00    -0.493 OA
BRANCH  26  27
ATOM     27  C   UNL A   1      27.900  29.853  21.971  1.00  0.00     0.226 C 
ATOM     28  C   UNL A   1      28.049  30.928  20.907  1.00  0.00     0.049 C 
ENDBRANCH  26  27
ENDBRANCH  21  26
ENDBRANCH  11  17
ENDBRANCH   8  10
ENDBRANCH   6   8
ENDBRANCH   5   6
ENDBRANCH   4   5
ENDBRANCH   3   4
ENDBRANCH   2   3
ENDBRANCH   1   2
BRANCH   1  29
ATOM     29  C   UNL A   1      36.450  22.412  25.181  1.00  0.00     0.188 C 
BRANCH  29  30
ATOM     30  O   UNL A   1      37.769  22.033  24.830  1.00  0.00    -0.376 OA
BRANCH  30  31
ATOM     31  C   UNL A   1      38.595  21.578  25.890  1.00  0.00     0.202 C 
BRANCH  31  32
ATOM     32  C   UNL A   1      39.268  20.226  25.637  1.00  0.00     0.261 C 
BRANCH  32  33
ATOM     33  O   UNL A   1      40.384  20.006  26.522  1.00  0.00    -0.460 OA
BRANCH  33  34
ATOM     34  C   UNL A   1      41.620  19.933  26.003  1.00  0.00     0.338 C 
ATOM     35  O   UNL A   1      42.077  19.064  25.266  1.00  0.00    -0.246 OA
BRANCH  34  36
ATOM     36  C   UNL A   1      42.381  21.103  26.471  1.00  0.00     0.060 A 
ATOM     37  C   UNL A   1      42.604  21.328  27.837  1.00  0.00     0.016 A 
ATOM     38  C   UNL A   1      42.838  22.019  25.527  1.00  0.00     0.016 A 
ATOM     39  C   UNL A   1      43.269  22.477  28.267  1.00  0.00     0.010 A 
ATOM     40  C   UNL A   1      43.502  23.168  25.955  1.00  0.00     0.010 A 
ATOM     41  C   UNL A   1      43.699  23.415  27.327  1.00  0.00    -0.014 A 
BRANCH  41  42
ATOM     42  C   UNL A   1      44.201  24.744  27.742  1.00  0.00     0.031 A 
ATOM     43  C   UNL A   1      43.196  25.788  28.128  1.00  0.00     0.074 A 
ATOM     44  C   UNL A   1      45.512  25.035  27.709  1.00  0.00     0.049 A 
ATOM     45  N   UNL A   1      43.343  27.080  28.249  1.00  0.00    -0.248 NA
ATOM     46  C   UNL A   1      41.833  25.305  28.399  1.00  0.00     0.031 C 
ATOM     47  C   UNL A   1      46.585  24.086  27.421  1.00  0.00     0.029 A 
ATOM     48  N   UNL A   1      46.156  26.235  27.879  1.00  0.00    -0.354 N 
ATOM     49  C   UNL A   1      42.087  27.569  28.581  1.00  0.00     0.074 A 
ATOM     50  C   UNL A   1      41.187  26.437  28.635  1.00  0.00     0.031 C 
ATOM     51  C   UNL A   1      47.753  24.750  27.385  1.00  0.00     0.029 A 
ATOM     52  C   UNL A   1      47.498  26.175  27.593  1.00  0.00     0.049 A 
ATOM     53  H   UNL A   1      45.702  27.056  28.177  1.00  0.00     0.167 HD
ATOM     54  C   UNL A   1      41.721  28.850  28.815  1.00  0.00     0.037 A 
ATOM     55  C   UNL A   1      48.399  27.168  27.456  1.00  0.00     0.037 A 
ATOM     56  C   UNL A   1      42.625  29.967  28.756  1.00  0.00     0.049 A 
ATOM     57  C   UNL A   1      47.953  28.597  27.642  1.00  0.00     0.074 A 
ATOM     58  C   UNL A   1      42.356  31.310  28.951  1.00  0.00     0.029 A 
ATOM     59  N   UNL A   1      43.981  29.864  28.480  1.00  0.00    -0.354 N 
ATOM     60  N   UNL A   1      46.761  29.064  27.922  1.00  0.00    -0.248 NA
ATOM     61  C   UNL A   1      48.981  29.637  27.487  1.00  0.00     0.031 C 
ATOM     62  C   UNL A   1      43.544  32.023  28.760  1.00  0.00     0.029 A 
ATOM     63  C   UNL A   1      44.561  31.121  28.494  1.00  0.00     0.049 A 
ATOM     64  H   UNL A   1      44.459  29.023  28.302  1.00  0.00     0.167 HD
ATOM     65  C   UNL A   1      46.900  30.444  28.007  1.00  0.00     0.074 A 
ATOM     66  C   UNL A   1      48.295  30.738  27.758  1.00  0.00     0.031 C 
ATOM     67  C   UNL A   1      45.959  31.384  28.268  1.00  0.00     0.037 A 
BRANCH  54  68
ATOM     68  C   UNL A   1      40.278  29.114  29.125  1.00  0.00     0.064 A 
ATOM     69  C   UNL A   1      39.807  29.164  30.445  1.00  0.00     0.173 A 
ATOM     70  C   UNL A   1      39.360  29.348  28.090  1.00  0.00     0.173 A 
ATOM     71  F   UNL A   1      40.641  28.927  31.469  1.00  0.00    -0.203 F 
ATOM     72  C   UNL A   1      38.467  29.424  30.717  1.00  0.00     0.198 A 
ATOM     73  C   UNL A   1      38.027  29.634  28.366  1.00  0.00     0.198 A 
ATOM     74  F   UNL A   1      39.760  29.309  26.810  1.00  0.00    -0.203 F 
ATOM     75  F   UNL A   1      38.029  29.427  31.984  1.00  0.00    -0.200 F 
ATOM     76  C   UNL A   1      37.580  29.666  29.678  1.00  0.00     0.200 A 
ATOM     77  F   UNL A   1      37.173  29.877  27.362  1.00  0.00    -0.200 F 
ATOM     78  F   UNL A   1      36.291  29.924  29.943  1.00  0.00    -0.200 F 
ENDBRANCH  54  68
BRANCH  55  79
ATOM     79  C   UNL A   1      49.802  26.856  27.072  1.00  0.00     0.064 A 
ATOM     80  C   UNL A   1      50.789  26.652  28.044  1.00  0.00     0.173 A 
ATOM     81  C   UNL A   1      50.190  26.792  25.725  1.00  0.00     0.173 A 
ATOM     82  F   UNL A   1      50.473  26.732  29.345  1.00  0.00    -0.203 F 
ATOM     83  C   UNL A   1      52.116  26.421  27.687  1.00  0.00     0.198 A 
ATOM     84  C   UNL A   1      51.512  26.529  25.368  1.00  0.00     0.198 A 
ATOM     85  F   UNL A   1      49.285  26.984  24.754  1.00  0.00    -0.203 F 
ATOM     86  F   UNL A   1      53.050  26.287  28.638  1.00  0.00    -0.200 F 
ATOM     87  C   UNL A   1      52.475  26.355  26.349  1.00  0.00     0.200 A 
ATOM     88  F   UNL A   1      51.852  26.458  24.074  1.00  0.00    -0.200 F 
ATOM     89  F   UNL A   1      53.751  26.135  26.006  1.00  0.00    -0.200 F 
ENDBRANCH  55  79
BRANCH  67  90
ATOM     90  C   UNL A   1      46.415  32.811  28.357  1.00  0.00     0.064 A 
ATOM     91  C   UNL A   1      46.344  33.680  27.259  1.00  0.00     0.173 A 
ATOM     92  C   UNL A   1      46.877  33.328  29.577  1.00  0.00     0.173 A 
ATOM     93  F   UNL A   1      45.922  33.230  26.068  1.00  0.00    -0.203 F 
ATOM     94  C   UNL A   1      46.743  35.009  27.374  1.00  0.00     0.198 A 
ATOM     95  C   UNL A   1      47.247  34.664  29.695  1.00  0.00     0.198 A 
ATOM     96  F   UNL A   1      46.955  32.539  30.659  1.00  0.00    -0.203 F 
ATOM     97  F   UNL A   1      46.707  35.812  26.301  1.00  0.00    -0.200 F 
ATOM     98  C   UNL A   1      47.186  35.502  28.592  1.00  0.00     0.200 A 
ATOM     99  F   UNL A   1      47.661  35.142  30.877  1.00  0.00    -0.200 F 
ATOM    100  F   UNL A   1      47.558  36.785  28.703  1.00  0.00    -0.200 F 
ENDBRANCH  67  90
ENDBRANCH  41  42
ENDBRANCH  34  36
ENDBRANCH  33  34
ENDBRANCH  32  33
ENDBRANCH  31  32
ENDBRANCH  30  31
ENDBRANCH  29  30
ENDBRANCH   1  29
TORSDOF 23
ENDMDL
