MODEL 1
REMARK VINA RESULT:     -12.6      0.000      0.000
REMARK SMILES O=C(OCCOCCOCCOC(=O)c1cccnc1C(=O)Nc1ccc(Cl)cn1)c1ccc(-c2c3nc(c(-c4c(F)c(F)c(F)c(F)c4F)c4ccc([nH]4)c(-c4c(F)c(F)c(F)c(F)c4F)c4nc(c(-c5c(F)c(F)c(F)c(F)c5F)c5ccc2[nH]5)C=C4)C=C3)cc1
REMARK SMILES IDX 7 1 6 2 5 3 4 4 3 5 2 6 1 7 31 8 32 9 93 10 33 11 92 12
REMARK SMILES IDX 34 13 35 14 36 15 86 16 37 17 91 18 85 19 87 20 38 21 90 22
REMARK SMILES IDX 84 23 83 24 39 26 71 27 51 28 70 29 52 30 55 31 69 32 88 33
REMARK SMILES IDX 53 34 54 35 68 37 89 38 56 39 40 40 41 41 49 42 42 43 43 44
REMARK SMILES IDX 47 45 50 46 44 47 45 48 48 49 46 50 72 51 73 52 81 53 74 54
REMARK SMILES IDX 75 55 79 56 82 57 76 58 77 59 80 60 78 61 57 62 58 63 66 64
REMARK SMILES IDX 59 65 60 66 64 67 67 68 61 69 62 70 65 71 63 72 8 73 9 74
REMARK SMILES IDX 10 75 11 76 12 77 13 78 14 79 15 80 16 81 20 82 17 83 19 84
REMARK SMILES IDX 18 85 21 86 22 87 23 88 24 90 25 91 30 92 26 93 29 94 27 95
REMARK SMILES IDX 28 96
REMARK H PARENT 87 25 55 36 23 89
REMARK Flexibility Score: inf
ROOT
ATOM      1  C   UNL A   1      41.391  20.690  26.118  1.00  0.00     0.188 C 
ENDROOT
BRANCH   1   2
ATOM      2  O   UNL A   1      42.716  20.564  25.618  1.00  0.00    -0.376 OA
BRANCH   2   3
ATOM      3  C   UNL A   1      43.607  21.615  25.947  1.00  0.00     0.202 C 
BRANCH   3   4
ATOM      4  C   UNL A   1      44.134  22.462  24.788  1.00  0.00     0.261 C 
BRANCH   4   5
ATOM      5  O   UNL A   1      43.713  23.835  24.601  1.00  0.00    -0.460 OA
BRANCH   5   6
ATOM      6  C   UNL A   1      44.105  25.052  25.016  1.00  0.00     0.338 C 
ATOM      7  O   UNL A   1      45.233  25.443  24.719  1.00  0.00    -0.246 OA
BRANCH   6   8
ATOM      8  C   UNL A   1      43.244  25.971  25.801  1.00  0.00     0.060 A 
ATOM      9  C   UNL A   1      43.670  27.220  26.247  1.00  0.00     0.016 A 
ATOM     10  C   UNL A   1      41.983  25.491  26.213  1.00  0.00     0.016 A 
ATOM     11  C   UNL A   1      42.844  28.000  27.050  1.00  0.00     0.010 A 
ATOM     12  C   UNL A   1      41.185  26.232  27.088  1.00  0.00     0.010 A 
ATOM     13  C   UNL A   1      41.639  27.475  27.534  1.00  0.00    -0.014 A 
BRANCH  13  14
ATOM     14  C   UNL A   1      41.092  28.098  28.758  1.00  0.00     0.031 A 
ATOM     15  C   UNL A   1      41.874  27.894  30.026  1.00  0.00     0.074 A 
ATOM     16  C   UNL A   1      40.046  28.936  28.713  1.00  0.00     0.049 A 
ATOM     17  N   UNL A   1      41.748  28.488  31.184  1.00  0.00    -0.248 NA
ATOM     18  C   UNL A   1      42.989  26.932  29.960  1.00  0.00     0.031 C 
ATOM     19  C   UNL A   1      39.284  29.271  27.515  1.00  0.00     0.029 A 
ATOM     20  N   UNL A   1      39.469  29.686  29.705  1.00  0.00    -0.354 N 
ATOM     21  C   UNL A   1      42.799  28.013  31.957  1.00  0.00     0.074 A 
ATOM     22  C   UNL A   1      43.535  27.063  31.156  1.00  0.00     0.031 C 
ATOM     23  C   UNL A   1      38.339  30.170  27.842  1.00  0.00     0.029 A 
ATOM     24  C   UNL A   1      38.404  30.438  29.275  1.00  0.00     0.049 A 
ATOM     25  H   UNL A   1      39.787  29.686  30.636  1.00  0.00     0.167 HD
ATOM     26  C   UNL A   1      43.122  28.345  33.227  1.00  0.00     0.037 A 
ATOM     27  C   UNL A   1      37.572  31.233  29.974  1.00  0.00     0.037 A 
ATOM     28  C   UNL A   1      42.328  29.217  34.044  1.00  0.00     0.049 A 
ATOM     29  C   UNL A   1      37.844  31.442  31.442  1.00  0.00     0.074 A 
ATOM     30  C   UNL A   1      42.504  29.561  35.370  1.00  0.00     0.029 A 
ATOM     31  N   UNL A   1      41.176  29.859  33.608  1.00  0.00    -0.354 N 
ATOM     32  N   UNL A   1      38.846  31.004  32.167  1.00  0.00    -0.248 NA
ATOM     33  C   UNL A   1      36.878  32.261  32.187  1.00  0.00     0.031 C 
ATOM     34  C   UNL A   1      41.425  30.366  35.754  1.00  0.00     0.029 A 
ATOM     35  C   UNL A   1      40.610  30.570  34.651  1.00  0.00     0.049 A 
ATOM     36  H   UNL A   1      40.816  29.814  32.694  1.00  0.00     0.167 HD
ATOM     37  C   UNL A   1      38.649  31.516  33.442  1.00  0.00     0.074 A 
ATOM     38  C   UNL A   1      37.436  32.307  33.388  1.00  0.00     0.031 C 
ATOM     39  C   UNL A   1      39.402  31.351  34.559  1.00  0.00     0.037 A 
BRANCH  26  40
ATOM     40  C   UNL A   1      44.343  27.698  33.805  1.00  0.00     0.064 A 
ATOM     41  C   UNL A   1      45.607  28.300  33.708  1.00  0.00     0.173 A 
ATOM     42  C   UNL A   1      44.255  26.447  34.431  1.00  0.00     0.173 A 
ATOM     43  F   UNL A   1      45.747  29.483  33.090  1.00  0.00    -0.203 F 
ATOM     44  C   UNL A   1      46.744  27.659  34.196  1.00  0.00     0.198 A 
ATOM     45  C   UNL A   1      45.390  25.820  34.937  1.00  0.00     0.198 A 
ATOM     46  F   UNL A   1      43.071  25.826  34.536  1.00  0.00    -0.203 F 
ATOM     47  F   UNL A   1      47.949  28.227  34.046  1.00  0.00    -0.200 F 
ATOM     48  C   UNL A   1      46.633  26.421  34.813  1.00  0.00     0.200 A 
ATOM     49  F   UNL A   1      45.282  24.624  35.532  1.00  0.00    -0.200 F 
ATOM     50  F   UNL A   1      47.728  25.801  35.275  1.00  0.00    -0.200 F 
ENDBRANCH  26  40
BRANCH  27  51
ATOM     51  C   UNL A   1      36.394  31.853  29.311  1.00  0.00     0.064 A 
ATOM     52  C   UNL A   1      35.321  31.085  28.840  1.00  0.00     0.173 A 
ATOM     53  C   UNL A   1      36.333  33.241  29.109  1.00  0.00     0.173 A 
ATOM     54  F   UNL A   1      35.334  29.752  28.993  1.00  0.00    -0.203 F 
ATOM     55  C   UNL A   1      34.246  31.676  28.177  1.00  0.00     0.198 A 
ATOM     56  C   UNL A   1      35.245  33.834  28.471  1.00  0.00     0.198 A 
ATOM     57  F   UNL A   1      37.324  34.031  29.550  1.00  0.00    -0.203 F 
ATOM     58  F   UNL A   1      33.253  30.912  27.700  1.00  0.00    -0.200 F 
ATOM     59  C   UNL A   1      34.207  33.050  27.996  1.00  0.00     0.200 A 
ATOM     60  F   UNL A   1      35.204  35.166  28.327  1.00  0.00    -0.200 F 
ATOM     61  F   UNL A   1      33.171  33.619  27.365  1.00  0.00    -0.200 F 
ENDBRANCH  27  51
BRANCH  39  62
ATOM     62  C   UNL A   1      38.952  32.064  35.799  1.00  0.00     0.064 A 
ATOM     63  C   UNL A   1      38.215  31.412  36.796  1.00  0.00     0.173 A 
ATOM     64  C   UNL A   1      39.312  33.403  36.012  1.00  0.00     0.173 A 
ATOM     65  F   UNL A   1      37.835  30.135  36.628  1.00  0.00    -0.203 F 
ATOM     66  C   UNL A   1      37.835  32.081  37.955  1.00  0.00     0.198 A 
ATOM     67  C   UNL A   1      38.956  34.060  37.185  1.00  0.00     0.198 A 
ATOM     68  F   UNL A   1      40.024  34.068  35.090  1.00  0.00    -0.203 F 
ATOM     69  F   UNL A   1      37.092  31.452  38.876  1.00  0.00    -0.200 F 
ATOM     70  C   UNL A   1      38.212  33.401  38.152  1.00  0.00     0.200 A 
ATOM     71  F   UNL A   1      39.335  35.331  37.381  1.00  0.00    -0.200 F 
ATOM     72  F   UNL A   1      37.853  34.041  39.274  1.00  0.00    -0.200 F 
ENDBRANCH  39  62
ENDBRANCH  13  14
ENDBRANCH   6   8
ENDBRANCH   5   6
ENDBRANCH   4   5
ENDBRANCH   3   4
ENDBRANCH   2   3
ENDBRANCH   1   2
BRANCH   1  73
ATOM     73  C   UNL A   1      40.923  22.119  26.421  1.00  0.00     0.188 C 
BRANCH  73  74
ATOM     74  O   UNL A   1      39.533  22.228  26.718  1.00  0.00    -0.376 OA
BRANCH  74  75
ATOM     75  C   UNL A   1      39.098  23.543  27.100  1.00  0.00     0.202 C 
BRANCH  75  76
ATOM     76  C   UNL A   1      37.622  23.885  26.472  1.00  0.00     0.261 C 
BRANCH  76  77
ATOM     77  O   UNL A   1      36.816  23.164  24.763  1.00  0.00    -0.460 OA
BRANCH  77  78
ATOM     78  C   UNL A   1      36.071  22.764  23.642  1.00  0.00     0.340 C 
ATOM     79  O   UNL A   1      36.449  23.069  22.510  1.00  0.00    -0.246 OA
BRANCH  78  80
ATOM     80  C   UNL A   1      34.724  22.122  23.754  1.00  0.00     0.091 A 
ATOM     81  C   UNL A   1      34.668  21.087  24.709  1.00  0.00     0.020 A 
ATOM     82  C   UNL A   1      33.536  22.419  23.072  1.00  0.00     0.143 A 
ATOM     83  C   UNL A   1      33.488  20.387  24.937  1.00  0.00     0.021 A 
ATOM     84  N   UNL A   1      32.392  21.687  23.254  1.00  0.00    -0.250 NA
ATOM     85  C   UNL A   1      32.386  20.707  24.175  1.00  0.00     0.112 A 
BRANCH  82  86
ATOM     86  C   UNL A   1      33.289  23.576  22.134  1.00  0.00     0.276 C 
ATOM     87  O   UNL A   1      33.485  23.447  20.926  1.00  0.00    -0.267 OA
ATOM     88  N   UNL A   1      32.784  24.765  22.574  1.00  0.00    -0.305 N 
ATOM     89  H   UNL A   1      32.539  25.438  21.898  1.00  0.00     0.171 HD
BRANCH  88  90
ATOM     90  C   UNL A   1      32.594  25.086  23.898  1.00  0.00     0.132 A 
ATOM     91  C   UNL A   1      30.931  25.038  24.599  1.00  0.00     0.049 A 
ATOM     92  N   UNL A   1      33.833  26.176  24.522  1.00  0.00    -0.238 NA
ATOM     93  C   UNL A   1      30.555  26.145  25.966  1.00  0.00     0.026 A 
ATOM     94  C   UNL A   1      33.430  27.243  25.877  1.00  0.00     0.134 A 
ATOM     95  C   UNL A   1      31.801  27.279  26.584  1.00  0.00     0.059 A 
ATOM     96  Cl  UNL A   1      31.431  28.336  27.880  1.00  0.00    -0.083 Cl
ENDBRANCH  88  90
ENDBRANCH  82  86
ENDBRANCH  78  80
ENDBRANCH  77  78
ENDBRANCH  76  77
ENDBRANCH  75  76
ENDBRANCH  74  75
ENDBRANCH  73  74
ENDBRANCH   1  73
TORSDOF 19
ENDMDL
MODEL 2
REMARK VINA RESULT:     -12.5      1.445      2.577
REMARK SMILES O=C(OCCOCCOCCOC(=O)c1cccnc1C(=O)Nc1ccc(Cl)cn1)c1ccc(-c2c3nc(c(-c4c(F)c(F)c(F)c(F)c4F)c4ccc([nH]4)c(-c4c(F)c(F)c(F)c(F)c4F)c4nc(c(-c5c(F)c(F)c(F)c(F)c5F)c5ccc2[nH]5)C=C4)C=C3)cc1
REMARK SMILES IDX 7 1 6 2 5 3 4 4 3 5 2 6 1 7 31 8 32 9 93 10 33 11 92 12
REMARK SMILES IDX 34 13 35 14 36 15 86 16 37 17 91 18 85 19 87 20 38 21 90 22
REMARK SMILES IDX 84 23 83 24 39 26 71 27 51 28 70 29 52 30 55 31 69 32 88 33
REMARK SMILES IDX 53 34 54 35 68 37 89 38 56 39 40 40 41 41 49 42 42 43 43 44
REMARK SMILES IDX 47 45 50 46 44 47 45 48 48 49 46 50 72 51 73 52 81 53 74 54
REMARK SMILES IDX 75 55 79 56 82 57 76 58 77 59 80 60 78 61 57 62 58 63 66 64
REMARK SMILES IDX 59 65 60 66 64 67 67 68 61 69 62 70 65 71 63 72 8 73 9 74
REMARK SMILES IDX 10 75 11 76 12 77 13 78 14 79 15 80 16 81 20 82 17 83 19 84
REMARK SMILES IDX 18 85 21 86 22 87 23 88 24 90 25 91 30 92 26 93 29 94 27 95
REMARK SMILES IDX 28 96
REMARK H PARENT 87 25 55 36 23 89
REMARK Flexibility Score: inf
ROOT
ATOM      1  C   UNL A   1      41.198  20.760  26.500  1.00  0.00     0.188 C 
ENDROOT
BRANCH   1   2
ATOM      2  O   UNL A   1      42.090  21.132  25.458  1.00  0.00    -0.376 OA
BRANCH   2   3
ATOM      3  C   UNL A   1      43.441  21.331  25.838  1.00  0.00     0.202 C 
BRANCH   3   4
ATOM      4  C   UNL A   1      44.296  22.205  24.921  1.00  0.00     0.261 C 
BRANCH   4   5
ATOM      5  O   UNL A   1      43.901  23.555  24.576  1.00  0.00    -0.460 OA
BRANCH   5   6
ATOM      6  C   UNL A   1      44.226  24.804  24.951  1.00  0.00     0.338 C 
ATOM      7  O   UNL A   1      45.326  25.251  24.630  1.00  0.00    -0.246 OA
BRANCH   6   8
ATOM      8  C   UNL A   1      43.321  25.693  25.721  1.00  0.00     0.060 A 
ATOM      9  C   UNL A   1      43.642  27.010  26.045  1.00  0.00     0.016 A 
ATOM     10  C   UNL A   1      42.143  25.126  26.249  1.00  0.00     0.016 A 
ATOM     11  C   UNL A   1      42.788  27.767  26.842  1.00  0.00     0.010 A 
ATOM     12  C   UNL A   1      41.325  25.852  27.118  1.00  0.00     0.010 A 
ATOM     13  C   UNL A   1      41.673  27.166  27.441  1.00  0.00    -0.014 A 
BRANCH  13  14
ATOM     14  C   UNL A   1      41.137  27.827  28.649  1.00  0.00     0.031 A 
ATOM     15  C   UNL A   1      41.922  27.652  29.919  1.00  0.00     0.074 A 
ATOM     16  C   UNL A   1      40.099  28.674  28.584  1.00  0.00     0.049 A 
ATOM     17  N   UNL A   1      41.806  28.279  31.060  1.00  0.00    -0.248 NA
ATOM     18  C   UNL A   1      43.027  26.678  29.876  1.00  0.00     0.031 C 
ATOM     19  C   UNL A   1      39.335  28.983  27.380  1.00  0.00     0.029 A 
ATOM     20  N   UNL A   1      39.532  29.456  29.557  1.00  0.00    -0.354 N 
ATOM     21  C   UNL A   1      42.854  27.816  31.843  1.00  0.00     0.074 A 
ATOM     22  C   UNL A   1      43.579  26.837  31.066  1.00  0.00     0.031 C 
ATOM     23  C   UNL A   1      38.399  29.899  27.685  1.00  0.00     0.029 A 
ATOM     24  C   UNL A   1      38.473  30.206  29.110  1.00  0.00     0.049 A 
ATOM     25  H   UNL A   1      39.854  29.479  30.487  1.00  0.00     0.167 HD
ATOM     26  C   UNL A   1      43.186  28.180  33.102  1.00  0.00     0.037 A 
ATOM     27  C   UNL A   1      37.651  31.028  29.789  1.00  0.00     0.037 A 
ATOM     28  C   UNL A   1      42.403  29.082  33.897  1.00  0.00     0.049 A 
ATOM     29  C   UNL A   1      37.930  31.275  31.250  1.00  0.00     0.074 A 
ATOM     30  C   UNL A   1      42.587  29.461  35.213  1.00  0.00     0.029 A 
ATOM     31  N   UNL A   1      41.255  29.722  33.448  1.00  0.00    -0.354 N 
ATOM     32  N   UNL A   1      38.931  30.848  31.983  1.00  0.00    -0.248 NA
ATOM     33  C   UNL A   1      36.975  32.124  31.975  1.00  0.00     0.031 C 
ATOM     34  C   UNL A   1      41.517  30.286  35.578  1.00  0.00     0.029 A 
ATOM     35  C   UNL A   1      40.699  30.467  34.472  1.00  0.00     0.049 A 
ATOM     36  H   UNL A   1      40.892  29.655  32.536  1.00  0.00     0.167 HD
ATOM     37  C   UNL A   1      38.743  31.397  33.245  1.00  0.00     0.074 A 
ATOM     38  C   UNL A   1      37.538  32.198  33.173  1.00  0.00     0.031 C 
ATOM     39  C   UNL A   1      39.499  31.256  34.363  1.00  0.00     0.037 A 
BRANCH  26  40
ATOM     40  C   UNL A   1      44.403  27.538  33.694  1.00  0.00     0.064 A 
ATOM     41  C   UNL A   1      44.328  26.315  34.378  1.00  0.00     0.173 A 
ATOM     42  C   UNL A   1      45.651  28.170  33.609  1.00  0.00     0.173 A 
ATOM     43  F   UNL A   1      43.149  25.687  34.513  1.00  0.00    -0.203 F 
ATOM     44  C   UNL A   1      45.457  25.759  34.976  1.00  0.00     0.198 A 
ATOM     45  C   UNL A   1      46.781  27.600  34.189  1.00  0.00     0.198 A 
ATOM     46  F   UNL A   1      45.770  29.347  32.978  1.00  0.00    -0.203 F 
ATOM     47  F   UNL A   1      45.353  24.617  35.669  1.00  0.00    -0.200 F 
ATOM     48  C   UNL A   1      46.682  26.401  34.878  1.00  0.00     0.200 A 
ATOM     49  F   UNL A   1      47.965  28.222  34.094  1.00  0.00    -0.200 F 
ATOM     50  F   UNL A   1      47.767  25.871  35.460  1.00  0.00    -0.200 F 
ENDBRANCH  26  40
BRANCH  27  51
ATOM     51  C   UNL A   1      36.475  31.641  29.113  1.00  0.00     0.064 A 
ATOM     52  C   UNL A   1      36.412  33.013  28.840  1.00  0.00     0.173 A 
ATOM     53  C   UNL A   1      35.369  30.857  28.751  1.00  0.00     0.173 A 
ATOM     54  F   UNL A   1      37.435  33.811  29.179  1.00  0.00    -0.203 F 
ATOM     55  C   UNL A   1      35.283  33.580  28.250  1.00  0.00     0.198 A 
ATOM     56  C   UNL A   1      34.252  31.420  28.136  1.00  0.00     0.198 A 
ATOM     57  F   UNL A   1      35.376  29.534  28.974  1.00  0.00    -0.203 F 
ATOM     58  F   UNL A   1      35.232  34.903  28.037  1.00  0.00    -0.200 F 
ATOM     59  C   UNL A   1      34.205  32.783  27.895  1.00  0.00     0.200 A 
ATOM     60  F   UNL A   1      33.229  30.636  27.770  1.00  0.00    -0.200 F 
ATOM     61  F   UNL A   1      33.123  33.326  27.321  1.00  0.00    -0.200 F 
ENDBRANCH  27  51
BRANCH  39  62
ATOM     62  C   UNL A   1      39.060  32.008  35.584  1.00  0.00     0.064 A 
ATOM     63  C   UNL A   1      39.378  33.360  35.769  1.00  0.00     0.173 A 
ATOM     64  C   UNL A   1      38.267  31.377  36.554  1.00  0.00     0.173 A 
ATOM     65  F   UNL A   1      40.147  34.001  34.875  1.00  0.00    -0.203 F 
ATOM     66  C   UNL A   1      38.934  34.050  36.893  1.00  0.00     0.198 A 
ATOM     67  C   UNL A   1      37.800  32.077  37.661  1.00  0.00     0.198 A 
ATOM     68  F   UNL A   1      37.930  30.085  36.417  1.00  0.00    -0.203 F 
ATOM     69  F   UNL A   1      39.287  35.330  37.073  1.00  0.00    -0.200 F 
ATOM     70  C   UNL A   1      38.140  33.410  37.833  1.00  0.00     0.200 A 
ATOM     71  F   UNL A   1      37.020  31.462  38.561  1.00  0.00    -0.200 F 
ATOM     72  F   UNL A   1      37.705  34.079  38.910  1.00  0.00    -0.200 F 
ENDBRANCH  39  62
ENDBRANCH  13  14
ENDBRANCH   6   8
ENDBRANCH   5   6
ENDBRANCH   4   5
ENDBRANCH   3   4
ENDBRANCH   2   3
ENDBRANCH   1   2
BRANCH   1  73
ATOM     73  C   UNL A   1      40.307  21.881  27.051  1.00  0.00     0.188 C 
BRANCH  73  74
ATOM     74  O   UNL A   1      39.260  22.282  26.170  1.00  0.00    -0.376 OA
BRANCH  74  75
ATOM     75  C   UNL A   1      38.625  23.525  26.513  1.00  0.00     0.202 C 
BRANCH  75  76
ATOM     76  C   UNL A   1      37.231  23.729  25.674  1.00  0.00     0.261 C 
BRANCH  76  77
ATOM     77  O   UNL A   1      35.356  23.276  26.277  1.00  0.00    -0.460 OA
BRANCH  77  78
ATOM     78  C   UNL A   1      33.996  22.990  26.484  1.00  0.00     0.340 C 
ATOM     79  O   UNL A   1      33.613  22.581  27.581  1.00  0.00    -0.246 OA
BRANCH  78  80
ATOM     80  C   UNL A   1      32.992  22.991  25.375  1.00  0.00     0.091 A 
ATOM     81  C   UNL A   1      33.467  22.413  24.181  1.00  0.00     0.020 A 
ATOM     82  C   UNL A   1      31.670  23.456  25.370  1.00  0.00     0.143 A 
ATOM     83  C   UNL A   1      32.659  22.335  23.052  1.00  0.00     0.021 A 
ATOM     84  N   UNL A   1      30.897  23.435  24.239  1.00  0.00    -0.250 NA
ATOM     85  C   UNL A   1      31.393  22.874  23.121  1.00  0.00     0.112 A 
BRANCH  82  86
ATOM     86  C   UNL A   1      30.877  23.958  26.552  1.00  0.00     0.276 C 
ATOM     87  O   UNL A   1      30.328  23.161  27.314  1.00  0.00    -0.267 OA
ATOM     88  N   UNL A   1      30.795  25.286  26.853  1.00  0.00    -0.305 N 
ATOM     89  H   UNL A   1      30.359  25.540  27.700  1.00  0.00     0.171 HD
BRANCH  88  90
ATOM     90  C   UNL A   1      31.282  26.295  26.055  1.00  0.00     0.132 A 
ATOM     91  C   UNL A   1      30.398  26.747  24.547  1.00  0.00     0.049 A 
ATOM     92  N   UNL A   1      33.027  26.503  26.205  1.00  0.00    -0.238 NA
ATOM     93  C   UNL A   1      31.348  27.420  23.177  1.00  0.00     0.026 A 
ATOM     94  C   UNL A   1      33.928  27.181  24.839  1.00  0.00     0.134 A 
ATOM     95  C   UNL A   1      33.128  27.605  23.311  1.00  0.00     0.059 A 
ATOM     96  Cl  UNL A   1      34.026  28.239  21.997  1.00  0.00    -0.083 Cl
ENDBRANCH  88  90
ENDBRANCH  82  86
ENDBRANCH  78  80
ENDBRANCH  77  78
ENDBRANCH  76  77
ENDBRANCH  75  76
ENDBRANCH  74  75
ENDBRANCH  73  74
ENDBRANCH   1  73
TORSDOF 19
ENDMDL
MODEL 3
REMARK VINA RESULT:     -11.9      4.620      9.191
REMARK SMILES O=C(OCCOCCOCCOC(=O)c1cccnc1C(=O)Nc1ccc(Cl)cn1)c1ccc(-c2c3nc(c(-c4c(F)c(F)c(F)c(F)c4F)c4ccc([nH]4)c(-c4c(F)c(F)c(F)c(F)c4F)c4nc(c(-c5c(F)c(F)c(F)c(F)c5F)c5ccc2[nH]5)C=C4)C=C3)cc1
REMARK SMILES IDX 7 1 6 2 5 3 4 4 3 5 2 6 1 7 31 8 32 9 93 10 33 11 92 12
REMARK SMILES IDX 34 13 35 14 36 15 86 16 37 17 91 18 85 19 87 20 38 21 90 22
REMARK SMILES IDX 84 23 83 24 39 26 71 27 51 28 70 29 52 30 55 31 69 32 88 33
REMARK SMILES IDX 53 34 54 35 68 37 89 38 56 39 40 40 41 41 49 42 42 43 43 44
REMARK SMILES IDX 47 45 50 46 44 47 45 48 48 49 46 50 72 51 73 52 81 53 74 54
REMARK SMILES IDX 75 55 79 56 82 57 76 58 77 59 80 60 78 61 57 62 58 63 66 64
REMARK SMILES IDX 59 65 60 66 64 67 67 68 61 69 62 70 65 71 63 72 8 73 9 74
REMARK SMILES IDX 10 75 11 76 12 77 13 78 14 79 15 80 16 81 20 82 17 83 19 84
REMARK SMILES IDX 18 85 21 86 22 87 23 88 24 90 25 91 30 92 26 93 29 94 27 95
REMARK SMILES IDX 28 96
REMARK H PARENT 87 25 55 36 23 89
REMARK Flexibility Score: inf
ROOT
ATOM      1  C   UNL A   1      34.299  21.742  25.312  1.00  0.00     0.188 C 
ENDROOT
BRANCH   1   2
ATOM      2  O   UNL A   1      34.684  20.455  24.846  1.00  0.00    -0.376 OA
BRANCH   2   3
ATOM      3  C   UNL A   1      36.055  20.127  24.989  1.00  0.00     0.202 C 
BRANCH   3   4
ATOM      4  C   UNL A   1      37.002  21.264  25.373  1.00  0.00     0.261 C 
BRANCH   4   5
ATOM      5  O   UNL A   1      38.439  21.091  25.359  1.00  0.00    -0.460 OA
BRANCH   5   6
ATOM      6  C   UNL A   1      39.471  21.340  26.185  1.00  0.00     0.338 C 
ATOM      7  O   UNL A   1      40.209  20.409  26.507  1.00  0.00    -0.246 OA
BRANCH   6   8
ATOM      8  C   UNL A   1      39.788  22.686  26.722  1.00  0.00     0.060 A 
ATOM      9  C   UNL A   1      39.268  23.862  26.185  1.00  0.00     0.016 A 
ATOM     10  C   UNL A   1      40.758  22.770  27.742  1.00  0.00     0.016 A 
ATOM     11  C   UNL A   1      39.669  25.099  26.680  1.00  0.00     0.010 A 
ATOM     12  C   UNL A   1      41.227  24.009  28.185  1.00  0.00     0.010 A 
ATOM     13  C   UNL A   1      40.703  25.175  27.622  1.00  0.00    -0.014 A 
BRANCH  13  14
ATOM     14  C   UNL A   1      41.429  26.460  27.703  1.00  0.00     0.031 A 
ATOM     15  C   UNL A   1      40.740  27.579  28.432  1.00  0.00     0.074 A 
ATOM     16  C   UNL A   1      42.701  26.575  27.296  1.00  0.00     0.049 A 
ATOM     17  N   UNL A   1      41.217  28.728  28.833  1.00  0.00    -0.248 NA
ATOM     18  C   UNL A   1      39.335  27.346  28.811  1.00  0.00     0.031 C 
ATOM     19  C   UNL A   1      43.485  25.518  26.667  1.00  0.00     0.029 A 
ATOM     20  N   UNL A   1      43.568  27.634  27.385  1.00  0.00    -0.354 N 
ATOM     21  C   UNL A   1      40.192  29.321  29.557  1.00  0.00     0.074 A 
ATOM     22  C   UNL A   1      39.058  28.428  29.518  1.00  0.00     0.031 C 
ATOM     23  C   UNL A   1      44.726  25.981  26.432  1.00  0.00     0.029 A 
ATOM     24  C   UNL A   1      44.807  27.376  26.855  1.00  0.00     0.049 A 
ATOM     25  H   UNL A   1      43.325  28.497  27.792  1.00  0.00     0.167 HD
ATOM     26  C   UNL A   1      40.199  30.509  30.201  1.00  0.00     0.037 A 
ATOM     27  C   UNL A   1      45.872  28.188  26.715  1.00  0.00     0.037 A 
ATOM     28  C   UNL A   1      41.298  31.430  30.153  1.00  0.00     0.049 A 
ATOM     29  C   UNL A   1      45.789  29.583  27.281  1.00  0.00     0.074 A 
ATOM     30  C   UNL A   1      41.391  32.699  30.692  1.00  0.00     0.029 A 
ATOM     31  N   UNL A   1      42.493  31.183  29.490  1.00  0.00    -0.354 N 
ATOM     32  N   UNL A   1      44.824  30.136  27.977  1.00  0.00    -0.248 NA
ATOM     33  C   UNL A   1      46.942  30.463  27.051  1.00  0.00     0.031 C 
ATOM     34  C   UNL A   1      42.621  33.243  30.305  1.00  0.00     0.029 A 
ATOM     35  C   UNL A   1      43.317  32.291  29.575  1.00  0.00     0.049 A 
ATOM     36  H   UNL A   1      42.720  30.345  29.027  1.00  0.00     0.167 HD
ATOM     37  C   UNL A   1      45.263  31.414  28.293  1.00  0.00     0.074 A 
ATOM     38  C   UNL A   1      46.587  31.550  27.721  1.00  0.00     0.031 C 
ATOM     39  C   UNL A   1      44.633  32.389  28.995  1.00  0.00     0.037 A 
BRANCH  26  40
ATOM     40  C   UNL A   1      38.952  30.885  30.941  1.00  0.00     0.064 A 
ATOM     41  C   UNL A   1      37.914  31.595  30.316  1.00  0.00     0.173 A 
ATOM     42  C   UNL A   1      38.808  30.565  32.298  1.00  0.00     0.173 A 
ATOM     43  F   UNL A   1      38.020  31.952  29.027  1.00  0.00    -0.203 F 
ATOM     44  C   UNL A   1      36.786  31.991  31.032  1.00  0.00     0.198 A 
ATOM     45  C   UNL A   1      37.669  30.943  33.004  1.00  0.00     0.198 A 
ATOM     46  F   UNL A   1      39.777  29.900  32.942  1.00  0.00    -0.203 F 
ATOM     47  F   UNL A   1      35.832  32.713  30.430  1.00  0.00    -0.200 F 
ATOM     48  C   UNL A   1      36.664  31.662  32.374  1.00  0.00     0.200 A 
ATOM     49  F   UNL A   1      37.552  30.625  34.301  1.00  0.00    -0.200 F 
ATOM     50  F   UNL A   1      35.583  32.050  33.065  1.00  0.00    -0.200 F 
ENDBRANCH  26  40
BRANCH  27  51
ATOM     51  C   UNL A   1      47.080  27.722  25.982  1.00  0.00     0.064 A 
ATOM     52  C   UNL A   1      47.150  27.743  24.583  1.00  0.00     0.173 A 
ATOM     53  C   UNL A   1      48.189  27.215  26.678  1.00  0.00     0.173 A 
ATOM     54  F   UNL A   1      46.113  28.202  23.868  1.00  0.00    -0.203 F 
ATOM     55  C   UNL A   1      48.270  27.257  23.910  1.00  0.00     0.198 A 
ATOM     56  C   UNL A   1      49.319  26.756  26.005  1.00  0.00     0.198 A 
ATOM     57  F   UNL A   1      48.186  27.183  28.020  1.00  0.00    -0.203 F 
ATOM     58  F   UNL A   1      48.293  27.250  22.569  1.00  0.00    -0.200 F 
ATOM     59  C   UNL A   1      49.355  26.767  24.621  1.00  0.00     0.200 A 
ATOM     60  F   UNL A   1      50.374  26.313  26.703  1.00  0.00    -0.200 F 
ATOM     61  F   UNL A   1      50.435  26.308  23.974  1.00  0.00    -0.200 F 
ENDBRANCH  27  51
BRANCH  39  62
ATOM     62  C   UNL A   1      45.381  33.671  29.208  1.00  0.00     0.064 A 
ATOM     63  C   UNL A   1      46.216  33.860  30.318  1.00  0.00     0.173 A 
ATOM     64  C   UNL A   1      45.299  34.702  28.260  1.00  0.00     0.173 A 
ATOM     65  F   UNL A   1      46.314  32.907  31.258  1.00  0.00    -0.203 F 
ATOM     66  C   UNL A   1      46.927  35.044  30.481  1.00  0.00     0.198 A 
ATOM     67  C   UNL A   1      46.034  35.872  28.411  1.00  0.00     0.198 A 
ATOM     68  F   UNL A   1      44.518  34.565  27.178  1.00  0.00    -0.203 F 
ATOM     69  F   UNL A   1      47.686  35.222  31.572  1.00  0.00    -0.200 F 
ATOM     70  C   UNL A   1      46.842  36.045  29.525  1.00  0.00     0.200 A 
ATOM     71  F   UNL A   1      45.963  36.832  27.479  1.00  0.00    -0.200 F 
ATOM     72  F   UNL A   1      47.536  37.181  29.680  1.00  0.00    -0.200 F 
ENDBRANCH  39  62
ENDBRANCH  13  14
ENDBRANCH   6   8
ENDBRANCH   5   6
ENDBRANCH   4   5
ENDBRANCH   3   4
ENDBRANCH   2   3
ENDBRANCH   1   2
BRANCH   1  73
ATOM     73  C   UNL A   1      33.433  21.764  26.578  1.00  0.00     0.188 C 
BRANCH  73  74
ATOM     74  O   UNL A   1      32.529  22.864  26.649  1.00  0.00    -0.376 OA
BRANCH  74  75
ATOM     75  C   UNL A   1      32.505  23.701  25.480  1.00  0.00     0.202 C 
BRANCH  75  76
ATOM     76  C   UNL A   1      33.373  25.072  25.715  1.00  0.00     0.261 C 
BRANCH  76  77
ATOM     77  O   UNL A   1      32.742  26.798  26.558  1.00  0.00    -0.460 OA
BRANCH  77  78
ATOM     78  C   UNL A   1      32.412  27.929  27.323  1.00  0.00     0.340 C 
ATOM     79  O   UNL A   1      31.317  27.996  27.883  1.00  0.00    -0.246 OA
BRANCH  78  80
ATOM     80  C   UNL A   1      33.266  29.158  27.358  1.00  0.00     0.091 A 
ATOM     81  C   UNL A   1      34.557  28.935  27.877  1.00  0.00     0.020 A 
ATOM     82  C   UNL A   1      32.970  30.459  26.932  1.00  0.00     0.143 A 
ATOM     83  C   UNL A   1      35.476  29.974  27.979  1.00  0.00     0.021 A 
ATOM     84  N   UNL A   1      33.855  31.494  27.091  1.00  0.00    -0.250 NA
ATOM     85  C   UNL A   1      35.076  31.235  27.593  1.00  0.00     0.112 A 
BRANCH  82  86
ATOM     86  C   UNL A   1      31.736  30.919  26.194  1.00  0.00     0.276 C 
ATOM     87  O   UNL A   1      31.112  31.906  26.584  1.00  0.00    -0.267 OA
ATOM     88  N   UNL A   1      31.311  30.308  25.050  1.00  0.00    -0.305 N 
ATOM     89  H   UNL A   1      30.569  30.724  24.555  1.00  0.00     0.171 HD
BRANCH  88  90
ATOM     90  C   UNL A   1      31.852  29.150  24.541  1.00  0.00     0.132 A 
ATOM     91  C   UNL A   1      33.386  29.223  23.592  1.00  0.00     0.049 A 
ATOM     92  N   UNL A   1      30.642  27.898  24.256  1.00  0.00    -0.238 NA
ATOM     93  C   UNL A   1      33.659  27.975  22.325  1.00  0.00     0.026 A 
ATOM     94  C   UNL A   1      30.951  26.679  23.008  1.00  0.00     0.134 A 
ATOM     95  C   UNL A   1      32.418  26.718  22.007  1.00  0.00     0.059 A 
ATOM     96  Cl  UNL A   1      32.682  25.540  20.792  1.00  0.00    -0.083 Cl
ENDBRANCH  88  90
ENDBRANCH  82  86
ENDBRANCH  78  80
ENDBRANCH  77  78
ENDBRANCH  76  77
ENDBRANCH  75  76
ENDBRANCH  74  75
ENDBRANCH  73  74
ENDBRANCH   1  73
TORSDOF 19
ENDMDL
