MODEL 1
REMARK VINA RESULT:     -10.8      0.000      0.000
REMARK SMILES Cc1nsc(N(C)C(=O)c2ccc(=O)n(C)n2)c1C(=O)OCCOCCOCCOC(=O)c1ccc(-c2c3nc(c(-c4c(F)c(F)c(F)c(F)c4F)c4ccc([nH]4)c(-c4c(F)c(F)c(F)c(F)c4F)c4nc(c(-c5c(F)c(F)c(F)c(F)c5F)c5ccc2[nH]5)C=C4)C=C3)cc1
REMARK SMILES IDX 25 1 24 2 23 3 22 4 21 5 19 6 20 7 18 8 1 9 2 10 3 11 4 12
REMARK SMILES IDX 5 13 6 14 7 15 8 16 9 17 10 18 11 19 17 20 12 21 15 22 13 23
REMARK SMILES IDX 16 24 14 25 26 26 27 27 28 28 29 29 30 30 31 31 32 32 33 33
REMARK SMILES IDX 34 34 95 35 35 36 94 37 36 38 37 39 38 40 88 41 39 42 93 43
REMARK SMILES IDX 87 44 89 45 40 46 92 47 86 48 85 49 41 51 73 52 53 53 72 54
REMARK SMILES IDX 54 55 57 56 71 57 90 58 55 59 56 60 70 62 91 63 58 64 42 65
REMARK SMILES IDX 43 66 51 67 44 68 45 69 49 70 52 71 46 72 47 73 50 74 48 75
REMARK SMILES IDX 74 76 75 77 83 78 76 79 77 80 81 81 84 82 78 83 79 84 82 85
REMARK SMILES IDX 80 86 59 87 60 88 68 89 61 90 62 91 66 92 69 93 63 94 64 95
REMARK SMILES IDX 67 96 65 97
REMARK H PARENT 89 50 57 61
REMARK Flexibility Score: inf
ROOT
ATOM      1  C   UNL A   1      37.713  22.281  25.348  1.00  0.00     0.188 C 
ENDROOT
BRANCH   1   2
ATOM      2  O   UNL A   1      36.423  22.073  25.900  1.00  0.00    -0.376 OA
BRANCH   2   3
ATOM      3  C   UNL A   1      35.441  23.063  25.583  1.00  0.00     0.202 C 
BRANCH   3   4
ATOM      4  C   UNL A   1      35.342  23.421  24.094  1.00  0.00     0.261 C 
BRANCH   4   5
ATOM      5  O   UNL A   1      34.310  24.392  23.881  1.00  0.00    -0.460 OA
BRANCH   5   6
ATOM      6  C   UNL A   1      33.090  24.000  23.430  1.00  0.00     0.343 C 
ATOM      7  O   UNL A   1      32.863  23.483  22.353  1.00  0.00    -0.246 OA
BRANCH   6   8
ATOM      8  C   UNL A   1      32.075  24.351  24.416  1.00  0.00     0.117 A 
ATOM      9  C   UNL A   1      31.881  21.899  25.374  1.00  0.00     0.069 C 
ATOM     10  C   UNL A   1      31.545  23.356  25.337  1.00  0.00     0.068 A 
ATOM     11  N   UNL A   1      30.646  23.789  26.213  1.00  0.00    -0.195 NA
ATOM     12  S   UNL A   1      30.360  25.373  25.940  1.00  0.00    -0.017 S 
ATOM     13  C   UNL A   1      31.376  25.561  24.553  1.00  0.00     0.133 A 
BRANCH  13  14
ATOM     14  N   UNL A   1      31.261  26.793  23.840  1.00  0.00    -0.299 N 
ATOM     15  C   UNL A   1      30.045  27.211  23.126  1.00  0.00     0.154 C 
BRANCH  14  16
ATOM     16  C   UNL A   1      32.389  27.625  23.712  1.00  0.00     0.279 C 
ATOM     17  O   UNL A   1      33.121  27.754  22.742  1.00  0.00    -0.267 OA
BRANCH  16  18
ATOM     18  C   UNL A   1      32.687  28.598  24.842  1.00  0.00     0.149 A 
ATOM     19  C   UNL A   1      33.850  28.253  25.686  1.00  0.00     0.042 A 
ATOM     20  N   UNL A   1      31.915  29.623  25.016  1.00  0.00    -0.165 NA
ATOM     21  C   UNL A   1      34.120  29.079  26.697  1.00  0.00     0.076 A 
ATOM     22  N   UNL A   1      32.220  30.463  26.069  1.00  0.00    -0.232 N 
ATOM     23  C   UNL A   1      33.281  30.273  26.946  1.00  0.00     0.266 A 
ATOM     24  C   UNL A   1      31.321  31.578  26.286  1.00  0.00     0.178 C 
ATOM     25  O   UNL A   1      33.561  31.009  27.889  1.00  0.00    -0.268 OA
ENDBRANCH  16  18
ENDBRANCH  14  16
ENDBRANCH  13  14
ENDBRANCH   6   8
ENDBRANCH   5   6
ENDBRANCH   4   5
ENDBRANCH   3   4
ENDBRANCH   2   3
ENDBRANCH   1   2
BRANCH   1  26
ATOM     26  C   UNL A   1      38.859  22.550  26.348  1.00  0.00     0.188 C 
BRANCH  26  27
ATOM     27  O   UNL A   1      40.160  21.998  26.196  1.00  0.00    -0.376 OA
BRANCH  27  28
ATOM     28  C   UNL A   1      40.789  21.273  27.240  1.00  0.00     0.202 C 
BRANCH  28  29
ATOM     29  C   UNL A   1      41.999  20.407  26.901  1.00  0.00     0.261 C 
BRANCH  29  30
ATOM     30  O   UNL A   1      42.405  20.536  25.544  1.00  0.00    -0.460 OA
BRANCH  30  31
ATOM     31  C   UNL A   1      43.740  20.499  25.376  1.00  0.00     0.338 C 
ATOM     32  O   UNL A   1      44.473  19.525  25.418  1.00  0.00    -0.246 OA
BRANCH  31  33
ATOM     33  C   UNL A   1      44.247  21.856  25.145  1.00  0.00     0.060 A 
ATOM     34  C   UNL A   1      45.406  22.208  25.844  1.00  0.00     0.016 A 
ATOM     35  C   UNL A   1      43.403  22.806  24.558  1.00  0.00     0.016 A 
ATOM     36  C   UNL A   1      45.539  23.515  26.244  1.00  0.00     0.010 A 
ATOM     37  C   UNL A   1      43.522  24.109  24.979  1.00  0.00     0.010 A 
ATOM     38  C   UNL A   1      44.506  24.400  25.925  1.00  0.00    -0.014 A 
BRANCH  38  39
ATOM     39  C   UNL A   1      44.308  25.507  26.838  1.00  0.00     0.031 A 
ATOM     40  C   UNL A   1      45.323  26.571  26.838  1.00  0.00     0.074 A 
ATOM     41  C   UNL A   1      43.180  25.576  27.574  1.00  0.00     0.049 A 
ATOM     42  N   UNL A   1      46.067  26.962  27.819  1.00  0.00    -0.248 NA
ATOM     43  C   UNL A   1      45.579  27.249  25.562  1.00  0.00     0.031 C 
ATOM     44  C   UNL A   1      41.953  24.782  27.435  1.00  0.00     0.029 A 
ATOM     45  N   UNL A   1      42.864  26.470  28.545  1.00  0.00    -0.354 N 
ATOM     46  C   UNL A   1      46.804  28.028  27.323  1.00  0.00     0.074 A 
ATOM     47  C   UNL A   1      46.555  28.088  25.904  1.00  0.00     0.031 C 
ATOM     48  C   UNL A   1      40.963  25.377  28.139  1.00  0.00     0.029 A 
ATOM     49  C   UNL A   1      41.517  26.510  28.862  1.00  0.00     0.049 A 
ATOM     50  H   UNL A   1      43.534  27.040  28.986  1.00  0.00     0.167 HD
ATOM     51  C   UNL A   1      47.443  28.913  28.132  1.00  0.00     0.037 A 
ATOM     52  C   UNL A   1      40.905  27.483  29.575  1.00  0.00     0.037 A 
ATOM     53  C   UNL A   1      47.601  28.426  29.472  1.00  0.00     0.049 A 
ATOM     54  C   UNL A   1      41.952  28.213  30.338  1.00  0.00     0.074 A 
ATOM     55  C   UNL A   1      48.270  27.357  30.035  1.00  0.00     0.029 A 
ATOM     56  N   UNL A   1      46.738  28.872  30.442  1.00  0.00    -0.354 N 
ATOM     57  N   UNL A   1      42.628  27.710  31.334  1.00  0.00    -0.248 NA
ATOM     58  C   UNL A   1      42.546  29.388  29.716  1.00  0.00     0.031 C 
ATOM     59  C   UNL A   1      47.451  26.927  31.119  1.00  0.00     0.029 A 
ATOM     60  C   UNL A   1      46.339  27.770  31.157  1.00  0.00     0.049 A 
ATOM     61  H   UNL A   1      46.459  29.803  30.595  1.00  0.00     0.167 HD
ATOM     62  C   UNL A   1      43.902  28.247  31.209  1.00  0.00     0.074 A 
ATOM     63  C   UNL A   1      43.763  29.345  30.260  1.00  0.00     0.031 C 
ATOM     64  C   UNL A   1      45.001  27.579  31.669  1.00  0.00     0.037 A 
BRANCH  51  65
ATOM     65  C   UNL A   1      47.712  30.330  27.731  1.00  0.00     0.064 A 
ATOM     66  C   UNL A   1      46.650  31.212  27.479  1.00  0.00     0.173 A 
ATOM     67  C   UNL A   1      49.000  30.788  27.378  1.00  0.00     0.173 A 
ATOM     68  F   UNL A   1      45.385  30.844  27.725  1.00  0.00    -0.203 F 
ATOM     69  C   UNL A   1      46.867  32.472  26.916  1.00  0.00     0.198 A 
ATOM     70  C   UNL A   1      49.220  32.065  26.875  1.00  0.00     0.198 A 
ATOM     71  F   UNL A   1      50.068  29.979  27.429  1.00  0.00    -0.203 F 
ATOM     72  F   UNL A   1      45.823  33.255  26.614  1.00  0.00    -0.200 F 
ATOM     73  C   UNL A   1      48.152  32.902  26.627  1.00  0.00     0.200 A 
ATOM     74  F   UNL A   1      50.469  32.453  26.579  1.00  0.00    -0.200 F 
ATOM     75  F   UNL A   1      48.357  34.101  26.066  1.00  0.00    -0.200 F 
ENDBRANCH  51  65
BRANCH  52  76
ATOM     76  C   UNL A   1      39.551  28.041  29.343  1.00  0.00     0.064 A 
ATOM     77  C   UNL A   1      38.642  28.185  30.402  1.00  0.00     0.173 A 
ATOM     78  C   UNL A   1      39.218  28.691  28.137  1.00  0.00     0.173 A 
ATOM     79  F   UNL A   1      38.909  27.641  31.598  1.00  0.00    -0.203 F 
ATOM     80  C   UNL A   1      37.479  28.951  30.269  1.00  0.00     0.198 A 
ATOM     81  C   UNL A   1      38.050  29.442  28.001  1.00  0.00     0.198 A 
ATOM     82  F   UNL A   1      40.061  28.695  27.096  1.00  0.00    -0.203 F 
ATOM     83  F   UNL A   1      36.668  29.122  31.322  1.00  0.00    -0.200 F 
ATOM     84  C   UNL A   1      37.189  29.585  29.071  1.00  0.00     0.200 A 
ATOM     85  F   UNL A   1      37.801  30.078  26.848  1.00  0.00    -0.200 F 
ATOM     86  F   UNL A   1      36.105  30.364  28.961  1.00  0.00    -0.200 F 
ENDBRANCH  52  76
BRANCH  64  87
ATOM     87  C   UNL A   1      44.771  26.378  32.542  1.00  0.00     0.064 A 
ATOM     88  C   UNL A   1      44.638  26.453  33.940  1.00  0.00     0.173 A 
ATOM     89  C   UNL A   1      44.528  25.136  31.939  1.00  0.00     0.173 A 
ATOM     90  F   UNL A   1      44.741  27.625  34.578  1.00  0.00    -0.203 F 
ATOM     91  C   UNL A   1      44.333  25.326  34.701  1.00  0.00     0.198 A 
ATOM     92  C   UNL A   1      44.184  24.019  32.697  1.00  0.00     0.198 A 
ATOM     93  F   UNL A   1      44.573  25.018  30.603  1.00  0.00    -0.203 F 
ATOM     94  F   UNL A   1      44.225  25.424  36.034  1.00  0.00    -0.200 F 
ATOM     95  C   UNL A   1      44.099  24.111  34.078  1.00  0.00     0.200 A 
ATOM     96  F   UNL A   1      43.906  22.859  32.088  1.00  0.00    -0.200 F 
ATOM     97  F   UNL A   1      43.761  23.037  34.805  1.00  0.00    -0.200 F 
ENDBRANCH  64  87
ENDBRANCH  38  39
ENDBRANCH  31  33
ENDBRANCH  30  31
ENDBRANCH  29  30
ENDBRANCH  28  29
ENDBRANCH  27  28
ENDBRANCH  26  27
ENDBRANCH   1  26
TORSDOF 20
ENDMDL
MODEL 2
REMARK VINA RESULT:     -10.6      1.697      3.988
REMARK SMILES Cc1nsc(N(C)C(=O)c2ccc(=O)n(C)n2)c1C(=O)OCCOCCOCCOC(=O)c1ccc(-c2c3nc(c(-c4c(F)c(F)c(F)c(F)c4F)c4ccc([nH]4)c(-c4c(F)c(F)c(F)c(F)c4F)c4nc(c(-c5c(F)c(F)c(F)c(F)c5F)c5ccc2[nH]5)C=C4)C=C3)cc1
REMARK SMILES IDX 25 1 24 2 23 3 22 4 21 5 19 6 20 7 18 8 1 9 2 10 3 11 4 12
REMARK SMILES IDX 5 13 6 14 7 15 8 16 9 17 10 18 11 19 17 20 12 21 15 22 13 23
REMARK SMILES IDX 16 24 14 25 26 26 27 27 28 28 29 29 30 30 31 31 32 32 33 33
REMARK SMILES IDX 34 34 95 35 35 36 94 37 36 38 37 39 38 40 88 41 39 42 93 43
REMARK SMILES IDX 87 44 89 45 40 46 92 47 86 48 85 49 41 51 73 52 53 53 72 54
REMARK SMILES IDX 54 55 57 56 71 57 90 58 55 59 56 60 70 62 91 63 58 64 42 65
REMARK SMILES IDX 43 66 51 67 44 68 45 69 49 70 52 71 46 72 47 73 50 74 48 75
REMARK SMILES IDX 74 76 75 77 83 78 76 79 77 80 81 81 84 82 78 83 79 84 82 85
REMARK SMILES IDX 80 86 59 87 60 88 68 89 61 90 62 91 66 92 69 93 63 94 64 95
REMARK SMILES IDX 67 96 65 97
REMARK H PARENT 89 50 57 61
REMARK Flexibility Score: inf
ROOT
ATOM      1  C   UNL A   1      38.415  21.504  25.703  1.00  0.00     0.188 C 
ENDROOT
BRANCH   1   2
ATOM      2  O   UNL A   1      37.903  22.257  24.615  1.00  0.00    -0.376 OA
BRANCH   2   3
ATOM      3  C   UNL A   1      36.752  23.057  24.896  1.00  0.00     0.202 C 
BRANCH   3   4
ATOM      4  C   UNL A   1      35.547  22.800  23.982  1.00  0.00     0.261 C 
BRANCH   4   5
ATOM      5  O   UNL A   1      34.954  24.040  23.578  1.00  0.00    -0.460 OA
BRANCH   5   6
ATOM      6  C   UNL A   1      34.235  24.774  24.467  1.00  0.00     0.343 C 
ATOM      7  O   UNL A   1      34.663  25.262  25.495  1.00  0.00    -0.246 OA
BRANCH   6   8
ATOM      8  C   UNL A   1      32.846  24.837  24.030  1.00  0.00     0.117 A 
ATOM      9  C   UNL A   1      33.194  27.031  22.604  1.00  0.00     0.069 C 
ATOM     10  C   UNL A   1      32.387  25.888  23.132  1.00  0.00     0.068 A 
ATOM     11  N   UNL A   1      31.110  25.835  22.774  1.00  0.00    -0.195 NA
ATOM     12  S   UNL A   1      30.398  24.575  23.530  1.00  0.00    -0.017 S 
ATOM     13  C   UNL A   1      31.760  24.063  24.466  1.00  0.00     0.133 A 
BRANCH  13  14
ATOM     14  N   UNL A   1      31.510  23.074  25.466  1.00  0.00    -0.299 N 
ATOM     15  C   UNL A   1      30.355  23.109  26.377  1.00  0.00     0.154 C 
BRANCH  14  16
ATOM     16  C   UNL A   1      32.457  22.056  25.683  1.00  0.00     0.279 C 
ATOM     17  O   UNL A   1      33.259  21.958  26.600  1.00  0.00    -0.267 OA
BRANCH  16  18
ATOM     18  C   UNL A   1      32.419  20.843  24.767  1.00  0.00     0.149 A 
ATOM     19  C   UNL A   1      32.283  21.140  23.325  1.00  0.00     0.042 A 
ATOM     20  N   UNL A   1      32.476  19.656  25.283  1.00  0.00    -0.165 NA
ATOM     21  C   UNL A   1      32.226  20.092  22.503  1.00  0.00     0.076 A 
ATOM     22  N   UNL A   1      32.417  18.590  24.407  1.00  0.00    -0.232 N 
ATOM     23  C   UNL A   1      32.293  18.711  23.028  1.00  0.00     0.266 A 
ATOM     24  C   UNL A   1      32.430  17.268  24.999  1.00  0.00     0.178 C 
ATOM     25  O   UNL A   1      32.235  17.772  22.238  1.00  0.00    -0.268 OA
ENDBRANCH  16  18
ENDBRANCH  14  16
ENDBRANCH  13  14
ENDBRANCH   6   8
ENDBRANCH   5   6
ENDBRANCH   4   5
ENDBRANCH   3   4
ENDBRANCH   2   3
ENDBRANCH   1   2
BRANCH   1  26
ATOM     26  C   UNL A   1      39.411  22.226  26.637  1.00  0.00     0.188 C 
BRANCH  26  27
ATOM     27  O   UNL A   1      40.795  21.909  26.681  1.00  0.00    -0.376 OA
BRANCH  27  28
ATOM     28  C   UNL A   1      41.267  20.709  27.272  1.00  0.00     0.202 C 
BRANCH  28  29
ATOM     29  C   UNL A   1      42.292  19.875  26.510  1.00  0.00     0.261 C 
BRANCH  29  30
ATOM     30  O   UNL A   1      42.796  20.539  25.357  1.00  0.00    -0.460 OA
BRANCH  30  31
ATOM     31  C   UNL A   1      44.140  20.596  25.314  1.00  0.00     0.338 C 
ATOM     32  O   UNL A   1      44.934  19.689  25.498  1.00  0.00    -0.246 OA
BRANCH  31  33
ATOM     33  C   UNL A   1      44.567  21.969  25.024  1.00  0.00     0.060 A 
ATOM     34  C   UNL A   1      45.734  22.399  25.663  1.00  0.00     0.016 A 
ATOM     35  C   UNL A   1      43.653  22.858  24.447  1.00  0.00     0.016 A 
ATOM     36  C   UNL A   1      45.817  23.723  26.020  1.00  0.00     0.010 A 
ATOM     37  C   UNL A   1      43.723  24.177  24.825  1.00  0.00     0.010 A 
ATOM     38  C   UNL A   1      44.729  24.545  25.720  1.00  0.00    -0.014 A 
BRANCH  38  39
ATOM     39  C   UNL A   1      44.512  25.668  26.610  1.00  0.00     0.031 A 
ATOM     40  C   UNL A   1      45.458  26.791  26.521  1.00  0.00     0.074 A 
ATOM     41  C   UNL A   1      43.424  25.693  27.406  1.00  0.00     0.049 A 
ATOM     42  N   UNL A   1      46.228  27.258  27.447  1.00  0.00    -0.248 NA
ATOM     43  C   UNL A   1      45.602  27.440  25.213  1.00  0.00     0.031 C 
ATOM     44  C   UNL A   1      42.242  24.822  27.360  1.00  0.00     0.029 A 
ATOM     45  N   UNL A   1      43.105  26.598  28.366  1.00  0.00    -0.354 N 
ATOM     46  C   UNL A   1      46.870  28.349  26.879  1.00  0.00     0.074 A 
ATOM     47  C   UNL A   1      46.541  28.347  25.475  1.00  0.00     0.031 C 
ATOM     48  C   UNL A   1      41.257  25.380  28.100  1.00  0.00     0.029 A 
ATOM     49  C   UNL A   1      41.778  26.567  28.756  1.00  0.00     0.049 A 
ATOM     50  H   UNL A   1      43.762  27.222  28.752  1.00  0.00     0.167 HD
ATOM     51  C   UNL A   1      47.496  29.297  27.624  1.00  0.00     0.037 A 
ATOM     52  C   UNL A   1      41.146  27.525  29.474  1.00  0.00     0.037 A 
ATOM     53  C   UNL A   1      47.756  28.866  28.967  1.00  0.00     0.049 A 
ATOM     54  C   UNL A   1      42.186  28.341  30.154  1.00  0.00     0.074 A 
ATOM     55  C   UNL A   1      48.519  27.858  29.523  1.00  0.00     0.029 A 
ATOM     56  N   UNL A   1      46.921  29.291  29.970  1.00  0.00    -0.354 N 
ATOM     57  N   UNL A   1      42.945  27.914  31.125  1.00  0.00    -0.248 NA
ATOM     58  C   UNL A   1      42.671  29.529  29.465  1.00  0.00     0.031 C 
ATOM     59  C   UNL A   1      47.788  27.416  30.664  1.00  0.00     0.029 A 
ATOM     60  C   UNL A   1      46.630  28.191  30.739  1.00  0.00     0.049 A 
ATOM     61  H   UNL A   1      46.593  30.208  30.111  1.00  0.00     0.167 HD
ATOM     62  C   UNL A   1      44.175  28.521  30.914  1.00  0.00     0.074 A 
ATOM     63  C   UNL A   1      43.917  29.578  29.942  1.00  0.00     0.031 C 
ATOM     64  C   UNL A   1      45.336  27.937  31.330  1.00  0.00     0.037 A 
BRANCH  51  65
ATOM     65  C   UNL A   1      47.654  30.713  27.167  1.00  0.00     0.064 A 
ATOM     66  C   UNL A   1      48.927  31.298  27.082  1.00  0.00     0.173 A 
ATOM     67  C   UNL A   1      46.556  31.587  27.011  1.00  0.00     0.173 A 
ATOM     68  F   UNL A   1      50.029  30.560  27.276  1.00  0.00    -0.203 F 
ATOM     69  C   UNL A   1      49.087  32.666  26.851  1.00  0.00     0.198 A 
ATOM     70  C   UNL A   1      46.718  32.937  26.720  1.00  0.00     0.198 A 
ATOM     71  F   UNL A   1      45.297  31.174  27.223  1.00  0.00    -0.203 F 
ATOM     72  F   UNL A   1      50.314  33.203  26.859  1.00  0.00    -0.200 F 
ATOM     73  C   UNL A   1      47.984  33.482  26.658  1.00  0.00     0.200 A 
ATOM     74  F   UNL A   1      45.637  33.714  26.560  1.00  0.00    -0.200 F 
ATOM     75  F   UNL A   1      48.138  34.797  26.459  1.00  0.00    -0.200 F 
ENDBRANCH  51  65
BRANCH  52  76
ATOM     76  C   UNL A   1      39.750  27.993  29.301  1.00  0.00     0.064 A 
ATOM     77  C   UNL A   1      38.878  28.073  30.399  1.00  0.00     0.173 A 
ATOM     78  C   UNL A   1      39.324  28.623  28.115  1.00  0.00     0.173 A 
ATOM     79  F   UNL A   1      39.231  27.543  31.579  1.00  0.00    -0.203 F 
ATOM     80  C   UNL A   1      37.663  28.760  30.318  1.00  0.00     0.198 A 
ATOM     81  C   UNL A   1      38.105  29.296  28.032  1.00  0.00     0.198 A 
ATOM     82  F   UNL A   1      40.121  28.687  27.039  1.00  0.00    -0.203 F 
ATOM     83  F   UNL A   1      36.887  28.873  31.404  1.00  0.00    -0.200 F 
ATOM     84  C   UNL A   1      37.281  29.377  29.137  1.00  0.00     0.200 A 
ATOM     85  F   UNL A   1      37.766  29.917  26.893  1.00  0.00    -0.200 F 
ATOM     86  F   UNL A   1      36.144  30.083  29.077  1.00  0.00    -0.200 F 
ENDBRANCH  52  76
BRANCH  64  87
ATOM     87  C   UNL A   1      45.229  26.753  32.251  1.00  0.00     0.064 A 
ATOM     88  C   UNL A   1      44.954  25.449  31.804  1.00  0.00     0.173 A 
ATOM     89  C   UNL A   1      45.560  26.914  33.603  1.00  0.00     0.173 A 
ATOM     90  F   UNL A   1      44.743  25.198  30.506  1.00  0.00    -0.203 F 
ATOM     91  C   UNL A   1      44.956  24.366  32.681  1.00  0.00     0.198 A 
ATOM     92  C   UNL A   1      45.599  25.824  34.471  1.00  0.00     0.198 A 
ATOM     93  F   UNL A   1      45.897  28.124  34.074  1.00  0.00    -0.203 F 
ATOM     94  F   UNL A   1      44.678  23.135  32.230  1.00  0.00    -0.200 F 
ATOM     95  C   UNL A   1      45.285  24.555  34.013  1.00  0.00     0.200 A 
ATOM     96  F   UNL A   1      45.971  26.001  35.747  1.00  0.00    -0.200 F 
ATOM     97  F   UNL A   1      45.331  23.507  34.849  1.00  0.00    -0.200 F 
ENDBRANCH  64  87
ENDBRANCH  38  39
ENDBRANCH  31  33
ENDBRANCH  30  31
ENDBRANCH  29  30
ENDBRANCH  28  29
ENDBRANCH  27  28
ENDBRANCH  26  27
ENDBRANCH   1  26
TORSDOF 20
ENDMDL
MODEL 3
REMARK VINA RESULT:     -10.6      1.410      2.416
REMARK SMILES Cc1nsc(N(C)C(=O)c2ccc(=O)n(C)n2)c1C(=O)OCCOCCOCCOC(=O)c1ccc(-c2c3nc(c(-c4c(F)c(F)c(F)c(F)c4F)c4ccc([nH]4)c(-c4c(F)c(F)c(F)c(F)c4F)c4nc(c(-c5c(F)c(F)c(F)c(F)c5F)c5ccc2[nH]5)C=C4)C=C3)cc1
REMARK SMILES IDX 25 1 24 2 23 3 22 4 21 5 19 6 20 7 18 8 1 9 2 10 3 11 4 12
REMARK SMILES IDX 5 13 6 14 7 15 8 16 9 17 10 18 11 19 17 20 12 21 15 22 13 23
REMARK SMILES IDX 16 24 14 25 26 26 27 27 28 28 29 29 30 30 31 31 32 32 33 33
REMARK SMILES IDX 34 34 95 35 35 36 94 37 36 38 37 39 38 40 88 41 39 42 93 43
REMARK SMILES IDX 87 44 89 45 40 46 92 47 86 48 85 49 41 51 73 52 53 53 72 54
REMARK SMILES IDX 54 55 57 56 71 57 90 58 55 59 56 60 70 62 91 63 58 64 42 65
REMARK SMILES IDX 43 66 51 67 44 68 45 69 49 70 52 71 46 72 47 73 50 74 48 75
REMARK SMILES IDX 74 76 75 77 83 78 76 79 77 80 81 81 84 82 78 83 79 84 82 85
REMARK SMILES IDX 80 86 59 87 60 88 68 89 61 90 62 91 66 92 69 93 63 94 64 95
REMARK SMILES IDX 67 96 65 97
REMARK H PARENT 89 50 57 61
REMARK Flexibility Score: inf
ROOT
ATOM      1  C   UNL A   1      38.399  21.514  25.425  1.00  0.00     0.188 C 
ENDROOT
BRANCH   1   2
ATOM      2  O   UNL A   1      37.114  22.115  25.438  1.00  0.00    -0.376 OA
BRANCH   2   3
ATOM      3  C   UNL A   1      37.077  23.501  25.785  1.00  0.00     0.202 C 
BRANCH   3   4
ATOM      4  C   UNL A   1      36.114  24.351  24.946  1.00  0.00     0.261 C 
BRANCH   4   5
ATOM      5  O   UNL A   1      34.816  24.382  25.554  1.00  0.00    -0.460 OA
BRANCH   5   6
ATOM      6  C   UNL A   1      33.819  23.596  25.071  1.00  0.00     0.343 C 
ATOM      7  O   UNL A   1      33.953  22.691  24.270  1.00  0.00    -0.246 OA
BRANCH   6   8
ATOM      8  C   UNL A   1      32.544  24.044  25.617  1.00  0.00     0.117 A 
ATOM      9  C   UNL A   1      32.487  22.203  27.507  1.00  0.00     0.069 C 
ATOM     10  C   UNL A   1      31.953  23.395  26.778  1.00  0.00     0.068 A 
ATOM     11  N   UNL A   1      30.804  23.900  27.210  1.00  0.00    -0.195 NA
ATOM     12  S   UNL A   1      30.359  25.124  26.225  1.00  0.00    -0.017 S 
ATOM     13  C   UNL A   1      31.657  24.995  25.089  1.00  0.00     0.133 A 
BRANCH  13  14
ATOM     14  N   UNL A   1      31.542  25.777  23.899  1.00  0.00    -0.299 N 
ATOM     15  C   UNL A   1      31.419  25.199  22.552  1.00  0.00     0.154 C 
BRANCH  14  16
ATOM     16  C   UNL A   1      31.652  27.178  23.980  1.00  0.00     0.279 C 
ATOM     17  O   UNL A   1      32.581  27.835  24.428  1.00  0.00    -0.267 OA
BRANCH  16  18
ATOM     18  C   UNL A   1      30.570  28.015  23.317  1.00  0.00     0.149 A 
ATOM     19  C   UNL A   1      31.053  29.056  22.385  1.00  0.00     0.042 A 
ATOM     20  N   UNL A   1      29.328  27.800  23.617  1.00  0.00    -0.165 NA
ATOM     21  C   UNL A   1      30.124  29.818  21.807  1.00  0.00     0.076 A 
ATOM     22  N   UNL A   1      28.388  28.601  23.001  1.00  0.00    -0.232 N 
ATOM     23  C   UNL A   1      28.688  29.618  22.101  1.00  0.00     0.266 A 
ATOM     24  C   UNL A   1      27.007  28.386  23.383  1.00  0.00     0.178 C 
ATOM     25  O   UNL A   1      27.863  30.341  21.550  1.00  0.00    -0.268 OA
ENDBRANCH  16  18
ENDBRANCH  14  16
ENDBRANCH  13  14
ENDBRANCH   6   8
ENDBRANCH   5   6
ENDBRANCH   4   5
ENDBRANCH   3   4
ENDBRANCH   2   3
ENDBRANCH   1   2
BRANCH   1  26
ATOM     26  C   UNL A   1      39.436  22.076  26.422  1.00  0.00     0.188 C 
BRANCH  26  27
ATOM     27  O   UNL A   1      40.279  21.245  27.209  1.00  0.00    -0.376 OA
BRANCH  27  28
ATOM     28  C   UNL A   1      40.576  19.911  26.830  1.00  0.00     0.202 C 
BRANCH  28  29
ATOM     29  C   UNL A   1      42.032  19.533  26.573  1.00  0.00     0.261 C 
BRANCH  29  30
ATOM     30  O   UNL A   1      42.883  20.665  26.457  1.00  0.00    -0.460 OA
BRANCH  30  31
ATOM     31  C   UNL A   1      43.697  20.620  25.385  1.00  0.00     0.338 C 
ATOM     32  O   UNL A   1      43.914  19.670  24.651  1.00  0.00    -0.246 OA
BRANCH  31  33
ATOM     33  C   UNL A   1      44.351  21.920  25.205  1.00  0.00     0.060 A 
ATOM     34  C   UNL A   1      45.423  22.194  26.060  1.00  0.00     0.016 A 
ATOM     35  C   UNL A   1      43.690  22.919  24.481  1.00  0.00     0.016 A 
ATOM     36  C   UNL A   1      45.613  23.497  26.450  1.00  0.00     0.010 A 
ATOM     37  C   UNL A   1      43.863  24.220  24.889  1.00  0.00     0.010 A 
ATOM     38  C   UNL A   1      44.721  24.457  25.964  1.00  0.00    -0.014 A 
BRANCH  38  39
ATOM     39  C   UNL A   1      44.492  25.606  26.816  1.00  0.00     0.031 A 
ATOM     40  C   UNL A   1      45.439  26.725  26.707  1.00  0.00     0.074 A 
ATOM     41  C   UNL A   1      43.392  25.655  27.594  1.00  0.00     0.049 A 
ATOM     42  N   UNL A   1      46.196  27.220  27.630  1.00  0.00    -0.248 NA
ATOM     43  C   UNL A   1      45.603  27.335  25.383  1.00  0.00     0.031 C 
ATOM     44  C   UNL A   1      42.210  24.783  27.557  1.00  0.00     0.029 A 
ATOM     45  N   UNL A   1      43.059  26.589  28.521  1.00  0.00    -0.354 N 
ATOM     46  C   UNL A   1      46.847  28.293  27.039  1.00  0.00     0.074 A 
ATOM     47  C   UNL A   1      46.539  28.249  25.631  1.00  0.00     0.031 C 
ATOM     48  C   UNL A   1      41.214  25.364  28.265  1.00  0.00     0.029 A 
ATOM     49  C   UNL A   1      41.726  26.570  28.893  1.00  0.00     0.049 A 
ATOM     50  H   UNL A   1      43.711  27.224  28.898  1.00  0.00     0.167 HD
ATOM     51  C   UNL A   1      47.463  29.263  27.764  1.00  0.00     0.037 A 
ATOM     52  C   UNL A   1      41.084  27.549  29.571  1.00  0.00     0.037 A 
ATOM     53  C   UNL A   1      47.702  28.873  29.123  1.00  0.00     0.049 A 
ATOM     54  C   UNL A   1      42.115  28.385  30.242  1.00  0.00     0.074 A 
ATOM     55  C   UNL A   1      48.456  27.882  29.721  1.00  0.00     0.029 A 
ATOM     56  N   UNL A   1      46.852  29.328  30.100  1.00  0.00    -0.354 N 
ATOM     57  N   UNL A   1      42.858  27.987  31.237  1.00  0.00    -0.248 NA
ATOM     58  C   UNL A   1      42.611  29.552  29.525  1.00  0.00     0.031 C 
ATOM     59  C   UNL A   1      47.708  27.475  30.864  1.00  0.00     0.029 A 
ATOM     60  C   UNL A   1      46.549  28.252  30.898  1.00  0.00     0.049 A 
ATOM     61  H   UNL A   1      46.523  30.249  30.209  1.00  0.00     0.167 HD
ATOM     62  C   UNL A   1      44.092  28.588  31.026  1.00  0.00     0.074 A 
ATOM     63  C   UNL A   1      43.849  29.614  30.019  1.00  0.00     0.031 C 
ATOM     64  C   UNL A   1      45.247  28.016  31.477  1.00  0.00     0.037 A 
BRANCH  51  65
ATOM     65  C   UNL A   1      47.628  30.665  27.267  1.00  0.00     0.064 A 
ATOM     66  C   UNL A   1      48.906  31.230  27.140  1.00  0.00     0.173 A 
ATOM     67  C   UNL A   1      46.538  31.549  27.111  1.00  0.00     0.173 A 
ATOM     68  F   UNL A   1      50.003  30.484  27.330  1.00  0.00    -0.203 F 
ATOM     69  C   UNL A   1      49.078  32.590  26.869  1.00  0.00     0.198 A 
ATOM     70  C   UNL A   1      46.711  32.889  26.782  1.00  0.00     0.198 A 
ATOM     71  F   UNL A   1      45.279  31.158  27.362  1.00  0.00    -0.203 F 
ATOM     72  F   UNL A   1      50.312  33.111  26.837  1.00  0.00    -0.200 F 
ATOM     73  C   UNL A   1      47.982  33.415  26.679  1.00  0.00     0.200 A 
ATOM     74  F   UNL A   1      45.636  33.675  26.625  1.00  0.00    -0.200 F 
ATOM     75  F   UNL A   1      48.148  34.722  26.443  1.00  0.00    -0.200 F 
ENDBRANCH  51  65
BRANCH  52  76
ATOM     76  C   UNL A   1      39.692  28.012  29.364  1.00  0.00     0.064 A 
ATOM     77  C   UNL A   1      38.800  28.114  30.444  1.00  0.00     0.173 A 
ATOM     78  C   UNL A   1      39.286  28.617  28.157  1.00  0.00     0.173 A 
ATOM     79  F   UNL A   1      39.131  27.610  31.641  1.00  0.00    -0.203 F 
ATOM     80  C   UNL A   1      37.586  28.799  30.327  1.00  0.00     0.198 A 
ATOM     81  C   UNL A   1      38.068  29.286  28.038  1.00  0.00     0.198 A 
ATOM     82  F   UNL A   1      40.102  28.658  27.094  1.00  0.00    -0.203 F 
ATOM     83  F   UNL A   1      36.790  28.933  31.396  1.00  0.00    -0.200 F 
ATOM     84  C   UNL A   1      37.225  29.389  29.126  1.00  0.00     0.200 A 
ATOM     85  F   UNL A   1      37.750  29.883  26.881  1.00  0.00    -0.200 F 
ATOM     86  F   UNL A   1      36.089  30.093  29.031  1.00  0.00    -0.200 F 
ENDBRANCH  52  76
BRANCH  64  87
ATOM     87  C   UNL A   1      45.125  26.861  32.432  1.00  0.00     0.064 A 
ATOM     88  C   UNL A   1      44.930  25.532  32.016  1.00  0.00     0.173 A 
ATOM     89  C   UNL A   1      45.361  27.080  33.796  1.00  0.00     0.173 A 
ATOM     90  F   UNL A   1      44.814  25.229  30.717  1.00  0.00    -0.203 F 
ATOM     91  C   UNL A   1      44.916  24.481  32.930  1.00  0.00     0.198 A 
ATOM     92  C   UNL A   1      45.385  26.023  34.703  1.00  0.00     0.198 A 
ATOM     93  F   UNL A   1      45.620  28.319  34.243  1.00  0.00    -0.203 F 
ATOM     94  F   UNL A   1      44.715  23.225  32.507  1.00  0.00    -0.200 F 
ATOM     95  C   UNL A   1      45.150  24.727  34.273  1.00  0.00     0.200 A 
ATOM     96  F   UNL A   1      45.665  26.258  35.993  1.00  0.00    -0.200 F 
ATOM     97  F   UNL A   1      45.181  23.711  35.147  1.00  0.00    -0.200 F 
ENDBRANCH  64  87
ENDBRANCH  38  39
ENDBRANCH  31  33
ENDBRANCH  30  31
ENDBRANCH  29  30
ENDBRANCH  28  29
ENDBRANCH  27  28
ENDBRANCH  26  27
ENDBRANCH   1  26
TORSDOF 20
ENDMDL
