MODEL 1
REMARK VINA RESULT:     -11.6      0.000      0.000
REMARK SMILES O=C(OCCOCCOCCOC(=O)[C@]12CCC[NH2+][C@@H]1CCN(C(=O)Cc1c(F)cccc1Cl)C2)c1ccc(-c2c3nc(c(-c4c(F)c(F)c(F)c(F)c4F)c4ccc([nH]4)c(-c4c(F)c(F)c(F)c(F)c4F)c4nc(c(-c5c(F)c(F)c(F)c(F)c5F)c5ccc2[nH]5)C=C4)C=C3)cc1
REMARK SMILES IDX 8 1 7 2 6 3 5 4 4 5 3 6 2 7 1 8 36 9 37 10 98 11 38 12 97 13
REMARK SMILES IDX 39 14 40 15 41 16 91 17 42 18 96 19 90 20 92 21 43 22 95 23
REMARK SMILES IDX 89 24 88 25 44 27 76 28 56 29 75 30 57 31 60 32 74 33 93 34
REMARK SMILES IDX 58 35 59 36 73 38 94 39 61 40 45 41 46 42 54 43 47 44 48 45
REMARK SMILES IDX 52 46 55 47 49 48 50 49 53 50 51 51 77 52 78 53 86 54 79 55
REMARK SMILES IDX 80 56 84 57 87 58 81 59 82 60 85 61 83 62 62 63 63 64 71 65
REMARK SMILES IDX 64 66 65 67 69 68 72 69 66 70 67 71 70 72 68 73 9 74 10 75
REMARK SMILES IDX 11 76 12 77 13 78 14 79 15 80 16 81 20 82 35 83 17 84 19 85
REMARK SMILES IDX 21 86 23 87 18 88 22 91 24 92 25 93 26 94 27 95 28 96 33 97
REMARK SMILES IDX 29 98 30 99 32 100 34 101 31 102
REMARK H PARENT 92 26 60 37 19 89 19 90
REMARK Flexibility Score: inf
ROOT
ATOM      1  C   UNL A   1      39.602  22.471  26.795  1.00  0.00     0.188 C 
ENDROOT
BRANCH   1   2
ATOM      2  C   UNL A   1      40.405  21.243  26.385  1.00  0.00     0.188 C 
BRANCH   2   3
ATOM      3  O   UNL A   1      41.506  21.518  25.517  1.00  0.00    -0.376 OA
BRANCH   3   4
ATOM      4  C   UNL A   1      42.758  20.981  25.930  1.00  0.00     0.202 C 
BRANCH   4   5
ATOM      5  C   UNL A   1      43.952  21.848  25.522  1.00  0.00     0.261 C 
BRANCH   5   6
ATOM      6  O   UNL A   1      43.557  23.077  24.894  1.00  0.00    -0.460 OA
BRANCH   6   7
ATOM      7  C   UNL A   1      43.982  24.339  25.137  1.00  0.00     0.338 C 
ATOM      8  O   UNL A   1      44.942  24.751  24.477  1.00  0.00    -0.246 OA
BRANCH   7   9
ATOM      9  C   UNL A   1      43.396  25.284  26.149  1.00  0.00     0.060 A 
ATOM     10  C   UNL A   1      43.794  26.603  26.381  1.00  0.00     0.016 A 
ATOM     11  C   UNL A   1      42.290  24.811  26.886  1.00  0.00     0.016 A 
ATOM     12  C   UNL A   1      43.149  27.419  27.310  1.00  0.00     0.010 A 
ATOM     13  C   UNL A   1      41.625  25.625  27.813  1.00  0.00     0.010 A 
ATOM     14  C   UNL A   1      42.075  26.930  28.045  1.00  0.00    -0.014 A 
BRANCH  14  15
ATOM     15  C   UNL A   1      41.591  27.721  29.195  1.00  0.00     0.031 A 
ATOM     16  C   UNL A   1      42.325  27.564  30.490  1.00  0.00     0.074 A 
ATOM     17  C   UNL A   1      40.617  28.639  29.063  1.00  0.00     0.049 A 
ATOM     18  N   UNL A   1      42.139  28.185  31.624  1.00  0.00    -0.248 NA
ATOM     19  C   UNL A   1      43.465  26.631  30.494  1.00  0.00     0.031 C 
ATOM     20  C   UNL A   1      39.985  29.022  27.807  1.00  0.00     0.029 A 
ATOM     21  N   UNL A   1      39.983  29.422  29.992  1.00  0.00    -0.354 N 
ATOM     22  C   UNL A   1      43.156  27.747  32.456  1.00  0.00     0.074 A 
ATOM     23  C   UNL A   1      43.930  26.772  31.724  1.00  0.00     0.031 C 
ATOM     24  C   UNL A   1      38.978  29.875  28.044  1.00  0.00     0.029 A 
ATOM     25  C   UNL A   1      38.928  30.137  29.474  1.00  0.00     0.049 A 
ATOM     26  H   UNL A   1      40.255  29.468  30.937  1.00  0.00     0.167 HD
ATOM     27  C   UNL A   1      43.428  28.151  33.716  1.00  0.00     0.037 A 
ATOM     28  C   UNL A   1      38.030  30.928  30.087  1.00  0.00     0.037 A 
ATOM     29  C   UNL A   1      42.626  29.103  34.432  1.00  0.00     0.049 A 
ATOM     30  C   UNL A   1      38.249  31.224  31.543  1.00  0.00     0.074 A 
ATOM     31  C   UNL A   1      42.775  29.555  35.729  1.00  0.00     0.029 A 
ATOM     32  N   UNL A   1      41.505  29.736  33.907  1.00  0.00    -0.354 N 
ATOM     33  N   UNL A   1      39.216  30.811  32.328  1.00  0.00    -0.248 NA
ATOM     34  C   UNL A   1      37.293  32.128  32.190  1.00  0.00     0.031 C 
ATOM     35  C   UNL A   1      41.706  30.411  36.012  1.00  0.00     0.029 A 
ATOM     36  C   UNL A   1      40.928  30.546  34.870  1.00  0.00     0.049 A 
ATOM     37  H   UNL A   1      41.171  29.626  32.987  1.00  0.00     0.167 HD
ATOM     38  C   UNL A   1      39.016  31.441  33.545  1.00  0.00     0.074 A 
ATOM     39  C   UNL A   1      37.835  32.269  33.392  1.00  0.00     0.031 C 
ATOM     40  C   UNL A   1      39.749  31.355  34.683  1.00  0.00     0.037 A 
BRANCH  27  41
ATOM     41  C   UNL A   1      44.601  27.517  34.399  1.00  0.00     0.064 A 
ATOM     42  C   UNL A   1      44.490  26.300  35.088  1.00  0.00     0.173 A 
ATOM     43  C   UNL A   1      45.854  28.146  34.371  1.00  0.00     0.173 A 
ATOM     44  F   UNL A   1      43.305  25.675  35.172  1.00  0.00    -0.203 F 
ATOM     45  C   UNL A   1      45.589  25.743  35.738  1.00  0.00     0.198 A 
ATOM     46  C   UNL A   1      46.955  27.575  35.000  1.00  0.00     0.198 A 
ATOM     47  F   UNL A   1      46.006  29.319  33.738  1.00  0.00    -0.203 F 
ATOM     48  F   UNL A   1      45.451  24.605  36.432  1.00  0.00    -0.200 F 
ATOM     49  C   UNL A   1      46.822  26.378  35.687  1.00  0.00     0.200 A 
ATOM     50  F   UNL A   1      48.145  28.188  34.948  1.00  0.00    -0.200 F 
ATOM     51  F   UNL A   1      47.879  25.841  36.312  1.00  0.00    -0.200 F 
ENDBRANCH  27  41
BRANCH  28  52
ATOM     52  C   UNL A   1      36.881  31.493  29.330  1.00  0.00     0.064 A 
ATOM     53  C   UNL A   1      36.824  32.849  28.980  1.00  0.00     0.173 A 
ATOM     54  C   UNL A   1      35.788  30.685  28.972  1.00  0.00     0.173 A 
ATOM     55  F   UNL A   1      37.831  33.668  29.315  1.00  0.00    -0.203 F 
ATOM     56  C   UNL A   1      35.703  33.383  28.343  1.00  0.00     0.198 A 
ATOM     57  C   UNL A   1      34.680  31.215  28.313  1.00  0.00     0.198 A 
ATOM     58  F   UNL A   1      35.786  29.381  29.288  1.00  0.00    -0.203 F 
ATOM     59  F   UNL A   1      35.642  34.699  28.098  1.00  0.00    -0.200 F 
ATOM     60  C   UNL A   1      34.632  32.567  28.011  1.00  0.00     0.200 A 
ATOM     61  F   UNL A   1      33.642  30.423  28.006  1.00  0.00    -0.200 F 
ATOM     62  F   UNL A   1      33.539  33.089  27.439  1.00  0.00    -0.200 F 
ENDBRANCH  28  52
BRANCH  40  63
ATOM     63  C   UNL A   1      39.302  32.195  35.840  1.00  0.00     0.064 A 
ATOM     64  C   UNL A   1      38.397  31.708  36.795  1.00  0.00     0.173 A 
ATOM     65  C   UNL A   1      39.825  33.485  36.020  1.00  0.00     0.173 A 
ATOM     66  F   UNL A   1      37.861  30.486  36.656  1.00  0.00    -0.203 F 
ATOM     67  C   UNL A   1      38.011  32.495  37.874  1.00  0.00     0.198 A 
ATOM     68  C   UNL A   1      39.465  34.253  37.122  1.00  0.00     0.198 A 
ATOM     69  F   UNL A   1      40.701  33.990  35.139  1.00  0.00    -0.203 F 
ATOM     70  F   UNL A   1      37.105  32.031  38.746  1.00  0.00    -0.200 F 
ATOM     71  C   UNL A   1      38.551  33.761  38.042  1.00  0.00     0.200 A 
ATOM     72  F   UNL A   1      40.003  35.468  37.293  1.00  0.00    -0.200 F 
ATOM     73  F   UNL A   1      38.188  34.512  39.092  1.00  0.00    -0.200 F 
ENDBRANCH  40  63
ENDBRANCH  14  15
ENDBRANCH   7   9
ENDBRANCH   6   7
ENDBRANCH   5   6
ENDBRANCH   4   5
ENDBRANCH   3   4
ENDBRANCH   2   3
ENDBRANCH   1   2
BRANCH   1  74
ATOM     74  O   UNL A   1      38.651  22.867  25.810  1.00  0.00    -0.376 OA
BRANCH  74  75
ATOM     75  C   UNL A   1      37.909  21.811  25.210  1.00  0.00     0.202 C 
BRANCH  75  76
ATOM     76  C   UNL A   1      36.501  21.569  25.813  1.00  0.00     0.261 C 
BRANCH  76  77
ATOM     77  O   UNL A   1      35.592  20.669  25.121  1.00  0.00    -0.463 OA
BRANCH  77  78
ATOM     78  C   UNL A   1      34.572  21.338  24.518  1.00  0.00     0.320 C 
ATOM     79  O   UNL A   1      34.794  22.160  23.630  1.00  0.00    -0.251 OA
BRANCH  78  80
ATOM     80  C   UNL A   1      33.147  21.102  25.073  1.00  0.00     0.137 C 
ATOM     81  C   UNL A   1      32.928  19.839  25.932  1.00  0.00     0.033 C 
ATOM     82  C   UNL A   1      32.165  20.945  23.889  1.00  0.00     0.203 C 
ATOM     83  C   UNL A   1      32.778  22.334  25.937  1.00  0.00     0.144 C 
ATOM     84  C   UNL A   1      32.977  18.517  25.185  1.00  0.00     0.063 C 
ATOM     85  N   UNL A   1      32.531  19.799  23.041  1.00  0.00    -0.343 N 
ATOM     86  C   UNL A   1      31.986  22.244  23.104  1.00  0.00     0.088 C 
ATOM     87  N   UNL A   1      32.251  23.512  25.240  1.00  0.00    -0.341 N 
ATOM     88  C   UNL A   1      32.392  18.540  23.774  1.00  0.00     0.260 C 
ATOM     89  H   UNL A   1      31.919  19.780  22.225  1.00  0.00     0.346 HD
ATOM     90  H   UNL A   1      33.504  19.904  22.755  1.00  0.00     0.346 HD
ATOM     91  C   UNL A   1      31.423  23.290  24.053  1.00  0.00     0.125 C 
BRANCH  87  92
ATOM     92  C   UNL A   1      32.135  24.679  26.006  1.00  0.00     0.227 C 
ATOM     93  O   UNL A   1      31.305  24.765  26.919  1.00  0.00    -0.275 OA
BRANCH  92  94
ATOM     94  C   UNL A   1      33.146  25.808  25.780  1.00  0.00     0.140 C 
BRANCH  94  95
ATOM     95  C   UNL A   1      32.403  27.058  25.368  1.00  0.00     0.016 A 
ATOM     96  C   UNL A   1      32.095  27.998  26.361  1.00  0.00     0.128 A 
ATOM     97  C   UNL A   1      32.141  27.411  24.037  1.00  0.00     0.047 A 
ATOM     98  F   UNL A   1      32.285  27.687  27.652  1.00  0.00    -0.207 F 
ATOM     99  C   UNL A   1      31.611  29.264  26.051  1.00  0.00     0.039 A 
ATOM    100  C   UNL A   1      31.685  28.695  23.716  1.00  0.00     0.021 A 
ATOM    101  Cl  UNL A   1      32.307  26.303  22.727  1.00  0.00    -0.084 Cl
ATOM    102  C   UNL A   1      31.434  29.626  24.721  1.00  0.00     0.005 A 
ENDBRANCH  94  95
ENDBRANCH  92  94
ENDBRANCH  87  92
ENDBRANCH  78  80
ENDBRANCH  77  78
ENDBRANCH  76  77
ENDBRANCH  75  76
ENDBRANCH  74  75
ENDBRANCH   1  74
TORSDOF 20
ENDMDL
MODEL 2
REMARK VINA RESULT:     -11.6      4.868      7.314
REMARK SMILES O=C(OCCOCCOCCOC(=O)[C@]12CCC[NH2+][C@@H]1CCN(C(=O)Cc1c(F)cccc1Cl)C2)c1ccc(-c2c3nc(c(-c4c(F)c(F)c(F)c(F)c4F)c4ccc([nH]4)c(-c4c(F)c(F)c(F)c(F)c4F)c4nc(c(-c5c(F)c(F)c(F)c(F)c5F)c5ccc2[nH]5)C=C4)C=C3)cc1
REMARK SMILES IDX 8 1 7 2 6 3 5 4 4 5 3 6 2 7 1 8 36 9 37 10 98 11 38 12 97 13
REMARK SMILES IDX 39 14 40 15 41 16 91 17 42 18 96 19 90 20 92 21 43 22 95 23
REMARK SMILES IDX 89 24 88 25 44 27 76 28 56 29 75 30 57 31 60 32 74 33 93 34
REMARK SMILES IDX 58 35 59 36 73 38 94 39 61 40 45 41 46 42 54 43 47 44 48 45
REMARK SMILES IDX 52 46 55 47 49 48 50 49 53 50 51 51 77 52 78 53 86 54 79 55
REMARK SMILES IDX 80 56 84 57 87 58 81 59 82 60 85 61 83 62 62 63 63 64 71 65
REMARK SMILES IDX 64 66 65 67 69 68 72 69 66 70 67 71 70 72 68 73 9 74 10 75
REMARK SMILES IDX 11 76 12 77 13 78 14 79 15 80 16 81 20 82 35 83 17 84 19 85
REMARK SMILES IDX 21 86 23 87 18 88 22 91 24 92 25 93 26 94 27 95 28 96 33 97
REMARK SMILES IDX 29 98 30 99 32 100 34 101 31 102
REMARK H PARENT 92 26 60 37 19 89 19 90
REMARK Flexibility Score: inf
ROOT
ATOM      1  C   UNL A   1      40.941  21.798  26.292  1.00  0.00     0.188 C 
ENDROOT
BRANCH   1   2
ATOM      2  C   UNL A   1      41.381  21.082  27.563  1.00  0.00     0.188 C 
BRANCH   2   3
ATOM      3  O   UNL A   1      41.490  19.663  27.436  1.00  0.00    -0.376 OA
BRANCH   3   4
ATOM      4  C   UNL A   1      41.735  19.185  26.118  1.00  0.00     0.202 C 
BRANCH   4   5
ATOM      5  C   UNL A   1      42.991  18.314  26.016  1.00  0.00     0.261 C 
BRANCH   5   6
ATOM      6  O   UNL A   1      43.665  18.458  24.757  1.00  0.00    -0.460 OA
BRANCH   6   7
ATOM      7  C   UNL A   1      44.551  19.403  24.363  1.00  0.00     0.338 C 
ATOM      8  O   UNL A   1      45.448  19.051  23.589  1.00  0.00    -0.246 OA
BRANCH   7   9
ATOM      9  C   UNL A   1      44.546  20.844  24.791  1.00  0.00     0.060 A 
ATOM     10  C   UNL A   1      44.230  21.946  23.992  1.00  0.00     0.016 A 
ATOM     11  C   UNL A   1      44.822  21.099  26.150  1.00  0.00     0.016 A 
ATOM     12  C   UNL A   1      44.202  23.244  24.498  1.00  0.00     0.010 A 
ATOM     13  C   UNL A   1      44.786  22.398  26.674  1.00  0.00     0.010 A 
ATOM     14  C   UNL A   1      44.499  23.481  25.835  1.00  0.00    -0.014 A 
BRANCH  14  15
ATOM     15  C   UNL A   1      44.721  24.875  26.271  1.00  0.00     0.031 A 
ATOM     16  C   UNL A   1      46.113  25.415  26.159  1.00  0.00     0.074 A 
ATOM     17  C   UNL A   1      43.701  25.674  26.634  1.00  0.00     0.049 A 
ATOM     18  N   UNL A   1      46.556  26.616  26.416  1.00  0.00    -0.248 NA
ATOM     19  C   UNL A   1      47.134  24.497  25.623  1.00  0.00     0.031 C 
ATOM     20  C   UNL A   1      42.289  25.317  26.573  1.00  0.00     0.029 A 
ATOM     21  N   UNL A   1      43.687  26.954  27.125  1.00  0.00    -0.354 N 
ATOM     22  C   UNL A   1      47.888  26.607  26.039  1.00  0.00     0.074 A 
ATOM     23  C   UNL A   1      48.204  25.274  25.581  1.00  0.00     0.031 C 
ATOM     24  C   UNL A   1      41.548  26.295  27.114  1.00  0.00     0.029 A 
ATOM     25  C   UNL A   1      42.437  27.375  27.515  1.00  0.00     0.049 A 
ATOM     26  H   UNL A   1      44.492  27.516  27.191  1.00  0.00     0.167 HD
ATOM     27  C   UNL A   1      48.760  27.639  26.052  1.00  0.00     0.037 A 
ATOM     28  C   UNL A   1      42.053  28.513  28.118  1.00  0.00     0.037 A 
ATOM     29  C   UNL A   1      48.428  28.949  26.538  1.00  0.00     0.049 A 
ATOM     30  C   UNL A   1      43.087  29.589  28.288  1.00  0.00     0.074 A 
ATOM     31  C   UNL A   1      49.240  30.061  26.644  1.00  0.00     0.029 A 
ATOM     32  N   UNL A   1      47.175  29.313  27.017  1.00  0.00    -0.354 N 
ATOM     33  N   UNL A   1      44.348  29.580  27.925  1.00  0.00    -0.248 NA
ATOM     34  C   UNL A   1      42.645  30.846  28.900  1.00  0.00     0.031 C 
ATOM     35  C   UNL A   1      48.498  31.079  27.251  1.00  0.00     0.029 A 
ATOM     36  C   UNL A   1      47.204  30.624  27.461  1.00  0.00     0.049 A 
ATOM     37  H   UNL A   1      46.384  28.727  27.038  1.00  0.00     0.167 HD
ATOM     38  C   UNL A   1      44.839  30.841  28.218  1.00  0.00     0.074 A 
ATOM     39  C   UNL A   1      43.736  31.592  28.785  1.00  0.00     0.031 C 
ATOM     40  C   UNL A   1      46.085  31.339  28.023  1.00  0.00     0.037 A 
BRANCH  27  41
ATOM     41  C   UNL A   1      50.155  27.361  25.581  1.00  0.00     0.064 A 
ATOM     42  C   UNL A   1      51.182  27.007  26.470  1.00  0.00     0.173 A 
ATOM     43  C   UNL A   1      50.470  27.463  24.219  1.00  0.00     0.173 A 
ATOM     44  F   UNL A   1      50.939  26.929  27.788  1.00  0.00    -0.203 F 
ATOM     45  C   UNL A   1      52.477  26.780  26.012  1.00  0.00     0.198 A 
ATOM     46  C   UNL A   1      51.759  27.210  23.762  1.00  0.00     0.198 A 
ATOM     47  F   UNL A   1      49.526  27.813  23.333  1.00  0.00    -0.203 F 
ATOM     48  F   UNL A   1      53.454  26.491  26.883  1.00  0.00    -0.200 F 
ATOM     49  C   UNL A   1      52.763  26.874  24.658  1.00  0.00     0.200 A 
ATOM     50  F   UNL A   1      52.032  27.300  22.453  1.00  0.00    -0.200 F 
ATOM     51  F   UNL A   1      54.009  26.655  24.218  1.00  0.00    -0.200 F 
ENDBRANCH  27  41
BRANCH  28  52
ATOM     52  C   UNL A   1      40.648  28.689  28.574  1.00  0.00     0.064 A 
ATOM     53  C   UNL A   1      40.250  28.368  29.879  1.00  0.00     0.173 A 
ATOM     54  C   UNL A   1      39.657  29.151  27.690  1.00  0.00     0.173 A 
ATOM     55  F   UNL A   1      41.152  27.903  30.756  1.00  0.00    -0.203 F 
ATOM     56  C   UNL A   1      38.914  28.458  30.269  1.00  0.00     0.198 A 
ATOM     57  C   UNL A   1      38.326  29.266  28.089  1.00  0.00     0.198 A 
ATOM     58  F   UNL A   1      39.980  29.466  26.427  1.00  0.00    -0.203 F 
ATOM     59  F   UNL A   1      38.552  28.063  31.497  1.00  0.00    -0.200 F 
ATOM     60  C   UNL A   1      37.953  28.906  29.375  1.00  0.00     0.200 A 
ATOM     61  F   UNL A   1      37.400  29.687  27.216  1.00  0.00    -0.200 F 
ATOM     62  F   UNL A   1      36.664  28.952  29.738  1.00  0.00    -0.200 F 
ENDBRANCH  28  52
BRANCH  40  63
ATOM     63  C   UNL A   1      46.309  32.770  28.409  1.00  0.00     0.064 A 
ATOM     64  C   UNL A   1      46.090  33.817  27.502  1.00  0.00     0.173 A 
ATOM     65  C   UNL A   1      46.699  33.097  29.717  1.00  0.00     0.173 A 
ATOM     66  F   UNL A   1      45.730  33.552  26.238  1.00  0.00    -0.203 F 
ATOM     67  C   UNL A   1      46.282  35.140  27.885  1.00  0.00     0.198 A 
ATOM     68  C   UNL A   1      46.852  34.423  30.105  1.00  0.00     0.198 A 
ATOM     69  F   UNL A   1      46.910  32.130  30.622  1.00  0.00    -0.203 F 
ATOM     70  F   UNL A   1      46.119  36.123  26.989  1.00  0.00    -0.200 F 
ATOM     71  C   UNL A   1      46.653  35.442  29.186  1.00  0.00     0.200 A 
ATOM     72  F   UNL A   1      47.190  34.714  31.368  1.00  0.00    -0.200 F 
ATOM     73  F   UNL A   1      46.822  36.720  29.557  1.00  0.00    -0.200 F 
ENDBRANCH  40  63
ENDBRANCH  14  15
ENDBRANCH   7   9
ENDBRANCH   6   7
ENDBRANCH   5   6
ENDBRANCH   4   5
ENDBRANCH   3   4
ENDBRANCH   2   3
ENDBRANCH   1   2
BRANCH   1  74
ATOM     74  O   UNL A   1      39.634  22.358  26.394  1.00  0.00    -0.376 OA
BRANCH  74  75
ATOM     75  C   UNL A   1      38.597  21.623  25.753  1.00  0.00     0.202 C 
BRANCH  75  76
ATOM     76  C   UNL A   1      37.566  22.481  24.975  1.00  0.00     0.261 C 
BRANCH  76  77
ATOM     77  O   UNL A   1      36.290  21.881  24.617  1.00  0.00    -0.463 OA
BRANCH  77  78
ATOM     78  C   UNL A   1      35.486  22.753  23.949  1.00  0.00     0.320 C 
ATOM     79  O   UNL A   1      35.796  23.170  22.834  1.00  0.00    -0.251 OA
BRANCH  78  80
ATOM     80  C   UNL A   1      34.236  23.274  24.697  1.00  0.00     0.137 C 
ATOM     81  C   UNL A   1      34.378  23.525  26.214  1.00  0.00     0.033 C 
ATOM     82  C   UNL A   1      33.104  22.228  24.578  1.00  0.00     0.203 C 
ATOM     83  C   UNL A   1      33.824  24.612  24.031  1.00  0.00     0.144 C 
ATOM     84  C   UNL A   1      34.514  22.282  27.077  1.00  0.00     0.063 C 
ATOM     85  N   UNL A   1      33.502  20.943  25.175  1.00  0.00    -0.343 N 
ATOM     86  C   UNL A   1      32.583  22.094  23.148  1.00  0.00     0.088 C 
ATOM     87  N   UNL A   1      33.000  24.534  22.821  1.00  0.00    -0.341 N 
ATOM     88  C   UNL A   1      33.699  21.075  26.619  1.00  0.00     0.260 C 
ATOM     89  H   UNL A   1      32.771  20.253  24.999  1.00  0.00     0.346 HD
ATOM     90  H   UNL A   1      34.381  20.646  24.752  1.00  0.00     0.346 HD
ATOM     91  C   UNL A   1      32.028  23.444  22.724  1.00  0.00     0.125 C 
BRANCH  87  92
ATOM     92  C   UNL A   1      32.828  25.734  22.117  1.00  0.00     0.227 C 
ATOM     93  O   UNL A   1      33.651  26.102  21.270  1.00  0.00    -0.275 OA
BRANCH  92  94
ATOM     94  C   UNL A   1      31.532  26.526  22.323  1.00  0.00     0.140 C 
BRANCH  94  95
ATOM     95  C   UNL A   1      31.478  27.020  23.750  1.00  0.00     0.016 A 
ATOM     96  C   UNL A   1      30.616  26.364  24.640  1.00  0.00     0.128 A 
ATOM     97  C   UNL A   1      32.345  27.985  24.279  1.00  0.00     0.047 A 
ATOM     98  F   UNL A   1      29.737  25.465  24.173  1.00  0.00    -0.207 F 
ATOM     99  C   UNL A   1      30.654  26.601  26.009  1.00  0.00     0.039 A 
ATOM    100  C   UNL A   1      32.411  28.205  25.659  1.00  0.00     0.021 A 
ATOM    101  Cl  UNL A   1      33.338  28.991  23.291  1.00  0.00    -0.084 Cl
ATOM    102  C   UNL A   1      31.577  27.503  26.526  1.00  0.00     0.005 A 
ENDBRANCH  94  95
ENDBRANCH  92  94
ENDBRANCH  87  92
ENDBRANCH  78  80
ENDBRANCH  77  78
ENDBRANCH  76  77
ENDBRANCH  75  76
ENDBRANCH  74  75
ENDBRANCH   1  74
TORSDOF 20
ENDMDL
MODEL 3
REMARK VINA RESULT:     -11.3      1.021      7.100
REMARK SMILES O=C(OCCOCCOCCOC(=O)[C@]12CCC[NH2+][C@@H]1CCN(C(=O)Cc1c(F)cccc1Cl)C2)c1ccc(-c2c3nc(c(-c4c(F)c(F)c(F)c(F)c4F)c4ccc([nH]4)c(-c4c(F)c(F)c(F)c(F)c4F)c4nc(c(-c5c(F)c(F)c(F)c(F)c5F)c5ccc2[nH]5)C=C4)C=C3)cc1
REMARK SMILES IDX 8 1 7 2 6 3 5 4 4 5 3 6 2 7 1 8 36 9 37 10 98 11 38 12 97 13
REMARK SMILES IDX 39 14 40 15 41 16 91 17 42 18 96 19 90 20 92 21 43 22 95 23
REMARK SMILES IDX 89 24 88 25 44 27 76 28 56 29 75 30 57 31 60 32 74 33 93 34
REMARK SMILES IDX 58 35 59 36 73 38 94 39 61 40 45 41 46 42 54 43 47 44 48 45
REMARK SMILES IDX 52 46 55 47 49 48 50 49 53 50 51 51 77 52 78 53 86 54 79 55
REMARK SMILES IDX 80 56 84 57 87 58 81 59 82 60 85 61 83 62 62 63 63 64 71 65
REMARK SMILES IDX 64 66 65 67 69 68 72 69 66 70 67 71 70 72 68 73 9 74 10 75
REMARK SMILES IDX 11 76 12 77 13 78 14 79 15 80 16 81 20 82 35 83 17 84 19 85
REMARK SMILES IDX 21 86 23 87 18 88 22 91 24 92 25 93 26 94 27 95 28 96 33 97
REMARK SMILES IDX 29 98 30 99 32 100 34 101 31 102
REMARK H PARENT 92 26 60 37 19 89 19 90
REMARK Flexibility Score: inf
ROOT
ATOM      1  C   UNL A   1      38.856  22.006  26.000  1.00  0.00     0.188 C 
ENDROOT
BRANCH   1   2
ATOM      2  C   UNL A   1      40.185  21.734  26.693  1.00  0.00     0.188 C 
BRANCH   2   3
ATOM      3  O   UNL A   1      41.220  21.266  25.826  1.00  0.00    -0.376 OA
BRANCH   3   4
ATOM      4  C   UNL A   1      42.547  21.453  26.304  1.00  0.00     0.202 C 
BRANCH   4   5
ATOM      5  C   UNL A   1      43.502  22.000  25.238  1.00  0.00     0.261 C 
BRANCH   5   6
ATOM      6  O   UNL A   1      43.185  23.343  24.844  1.00  0.00    -0.460 OA
BRANCH   6   7
ATOM      7  C   UNL A   1      43.775  24.505  25.211  1.00  0.00     0.338 C 
ATOM      8  O   UNL A   1      44.816  24.822  24.627  1.00  0.00    -0.246 OA
BRANCH   7   9
ATOM      9  C   UNL A   1      43.279  25.444  26.276  1.00  0.00     0.060 A 
ATOM     10  C   UNL A   1      43.745  26.738  26.524  1.00  0.00     0.016 A 
ATOM     11  C   UNL A   1      42.192  24.996  27.055  1.00  0.00     0.016 A 
ATOM     12  C   UNL A   1      43.181  27.552  27.505  1.00  0.00     0.010 A 
ATOM     13  C   UNL A   1      41.609  25.810  28.036  1.00  0.00     0.010 A 
ATOM     14  C   UNL A   1      42.124  27.088  28.279  1.00  0.00    -0.014 A 
BRANCH  14  15
ATOM     15  C   UNL A   1      41.732  27.864  29.473  1.00  0.00     0.031 A 
ATOM     16  C   UNL A   1      40.519  28.732  29.358  1.00  0.00     0.074 A 
ATOM     17  C   UNL A   1      42.357  27.709  30.655  1.00  0.00     0.049 A 
ATOM     18  N   UNL A   1      39.936  29.462  30.270  1.00  0.00    -0.248 NA
ATOM     19  C   UNL A   1      39.827  28.729  28.056  1.00  0.00     0.031 C 
ATOM     20  C   UNL A   1      43.407  26.737  30.931  1.00  0.00     0.029 A 
ATOM     21  N   UNL A   1      42.202  28.362  31.850  1.00  0.00    -0.354 N 
ATOM     22  C   UNL A   1      38.797  29.969  29.667  1.00  0.00     0.074 A 
ATOM     23  C   UNL A   1      38.788  29.511  28.297  1.00  0.00     0.031 C 
ATOM     24  C   UNL A   1      43.889  26.925  32.168  1.00  0.00     0.029 A 
ATOM     25  C   UNL A   1      43.140  28.005  32.791  1.00  0.00     0.049 A 
ATOM     26  H   UNL A   1      41.491  29.020  32.019  1.00  0.00     0.167 HD
ATOM     27  C   UNL A   1      37.831  30.731  30.226  1.00  0.00     0.037 A 
ATOM     28  C   UNL A   1      43.360  28.490  34.025  1.00  0.00     0.037 A 
ATOM     29  C   UNL A   1      37.878  31.195  31.584  1.00  0.00     0.049 A 
ATOM     30  C   UNL A   1      42.368  29.480  34.567  1.00  0.00     0.074 A 
ATOM     31  C   UNL A   1      36.982  32.010  32.249  1.00  0.00     0.029 A 
ATOM     32  N   UNL A   1      38.895  30.893  32.482  1.00  0.00    -0.354 N 
ATOM     33  N   UNL A   1      41.287  29.955  33.994  1.00  0.00    -0.248 NA
ATOM     34  C   UNL A   1      42.589  29.964  35.933  1.00  0.00     0.031 C 
ATOM     35  C   UNL A   1      37.491  32.257  33.527  1.00  0.00     0.029 A 
ATOM     36  C   UNL A   1      38.670  31.542  33.684  1.00  0.00     0.049 A 
ATOM     37  H   UNL A   1      39.662  30.305  32.292  1.00  0.00     0.167 HD
ATOM     38  C   UNL A   1      40.672  30.754  34.944  1.00  0.00     0.074 A 
ATOM     39  C   UNL A   1      41.500  30.695  36.132  1.00  0.00     0.031 C 
ATOM     40  C   UNL A   1      39.519  31.462  34.847  1.00  0.00     0.037 A 
BRANCH  27  41
ATOM     41  C   UNL A   1      36.691  31.143  29.347  1.00  0.00     0.064 A 
ATOM     42  C   UNL A   1      35.697  30.236  28.947  1.00  0.00     0.173 A 
ATOM     43  C   UNL A   1      36.599  32.464  28.888  1.00  0.00     0.173 A 
ATOM     44  F   UNL A   1      35.758  28.952  29.332  1.00  0.00    -0.203 F 
ATOM     45  C   UNL A   1      34.660  30.637  28.107  1.00  0.00     0.198 A 
ATOM     46  C   UNL A   1      35.549  32.867  28.070  1.00  0.00     0.198 A 
ATOM     47  F   UNL A   1      37.534  33.364  29.230  1.00  0.00    -0.203 F 
ATOM     48  F   UNL A   1      33.749  29.744  27.697  1.00  0.00    -0.200 F 
ATOM     49  C   UNL A   1      34.584  31.953  27.675  1.00  0.00     0.200 A 
ATOM     50  F   UNL A   1      35.476  34.139  27.655  1.00  0.00    -0.200 F 
ATOM     51  F   UNL A   1      33.586  32.337  26.867  1.00  0.00    -0.200 F 
ENDBRANCH  27  41
BRANCH  28  52
ATOM     52  C   UNL A   1      44.536  28.038  34.816  1.00  0.00     0.064 A 
ATOM     53  C   UNL A   1      45.774  28.691  34.738  1.00  0.00     0.173 A 
ATOM     54  C   UNL A   1      44.452  26.907  35.646  1.00  0.00     0.173 A 
ATOM     55  F   UNL A   1      45.914  29.764  33.945  1.00  0.00    -0.203 F 
ATOM     56  C   UNL A   1      46.890  28.207  35.421  1.00  0.00     0.198 A 
ATOM     57  C   UNL A   1      45.562  26.439  36.348  1.00  0.00     0.198 A 
ATOM     58  F   UNL A   1      43.294  26.238  35.753  1.00  0.00    -0.203 F 
ATOM     59  F   UNL A   1      48.079  28.803  35.258  1.00  0.00    -0.200 F 
ATOM     60  C   UNL A   1      46.784  27.081  36.224  1.00  0.00     0.200 A 
ATOM     61  F   UNL A   1      45.457  25.342  37.113  1.00  0.00    -0.200 F 
ATOM     62  F   UNL A   1      47.866  26.592  36.845  1.00  0.00    -0.200 F 
ENDBRANCH  28  52
BRANCH  40  63
ATOM     63  C   UNL A   1      39.081  32.210  36.070  1.00  0.00     0.064 A 
ATOM     64  C   UNL A   1      39.484  33.531  36.306  1.00  0.00     0.173 A 
ATOM     65  C   UNL A   1      38.206  31.609  36.989  1.00  0.00     0.173 A 
ATOM     66  F   UNL A   1      40.330  34.141  35.461  1.00  0.00    -0.203 F 
ATOM     67  C   UNL A   1      39.049  34.216  37.435  1.00  0.00     0.198 A 
ATOM     68  C   UNL A   1      37.744  32.312  38.096  1.00  0.00     0.198 A 
ATOM     69  F   UNL A   1      37.785  30.350  36.800  1.00  0.00    -0.203 F 
ATOM     70  F   UNL A   1      39.489  35.461  37.670  1.00  0.00    -0.200 F 
ATOM     71  C   UNL A   1      38.174  33.610  38.323  1.00  0.00     0.200 A 
ATOM     72  F   UNL A   1      36.882  31.732  38.942  1.00  0.00    -0.200 F 
ATOM     73  F   UNL A   1      37.744  34.279  39.403  1.00  0.00    -0.200 F 
ENDBRANCH  40  63
ENDBRANCH  14  15
ENDBRANCH   7   9
ENDBRANCH   6   7
ENDBRANCH   5   6
ENDBRANCH   4   5
ENDBRANCH   3   4
ENDBRANCH   2   3
ENDBRANCH   1   2
BRANCH   1  74
ATOM     74  O   UNL A   1      38.383  23.335  26.208  1.00  0.00    -0.376 OA
BRANCH  74  75
ATOM     75  C   UNL A   1      37.229  23.702  25.460  1.00  0.00     0.202 C 
BRANCH  75  76
ATOM     76  C   UNL A   1      35.967  22.841  25.729  1.00  0.00     0.261 C 
BRANCH  76  77
ATOM     77  O   UNL A   1      34.693  23.514  25.924  1.00  0.00    -0.463 OA
BRANCH  77  78
ATOM     78  C   UNL A   1      33.888  23.408  24.832  1.00  0.00     0.320 C 
ATOM     79  O   UNL A   1      34.252  23.831  23.736  1.00  0.00    -0.251 OA
BRANCH  78  80
ATOM     80  C   UNL A   1      32.466  22.839  25.056  1.00  0.00     0.137 C 
ATOM     81  C   UNL A   1      32.360  21.466  25.751  1.00  0.00     0.033 C 
ATOM     82  C   UNL A   1      31.783  22.637  23.684  1.00  0.00     0.203 C 
ATOM     83  C   UNL A   1      31.688  23.868  25.915  1.00  0.00     0.144 C 
ATOM     84  C   UNL A   1      32.829  20.275  24.932  1.00  0.00     0.063 C 
ATOM     85  N   UNL A   1      32.538  21.690  22.847  1.00  0.00    -0.343 N 
ATOM     86  C   UNL A   1      31.486  23.961  22.980  1.00  0.00     0.088 C 
ATOM     87  N   UNL A   1      31.066  24.996  25.214  1.00  0.00    -0.341 N 
ATOM     88  C   UNL A   1      32.531  20.351  23.436  1.00  0.00     0.260 C 
ATOM     89  H   UNL A   1      32.110  21.650  21.922  1.00  0.00     0.346 HD
ATOM     90  H   UNL A   1      33.503  22.013  22.781  1.00  0.00     0.346 HD
ATOM     91  C   UNL A   1      30.545  24.761  23.866  1.00  0.00     0.125 C 
BRANCH  87  92
ATOM     92  C   UNL A   1      30.563  26.021  26.025  1.00  0.00     0.227 C 
ATOM     93  O   UNL A   1      29.465  25.912  26.587  1.00  0.00    -0.275 OA
BRANCH  92  94
ATOM     94  C   UNL A   1      31.453  27.235  26.313  1.00  0.00     0.140 C 
BRANCH  94  95
ATOM     95  C   UNL A   1      32.157  27.642  25.038  1.00  0.00     0.016 A 
ATOM     96  C   UNL A   1      33.465  27.184  24.834  1.00  0.00     0.128 A 
ATOM     97  C   UNL A   1      31.532  28.316  23.980  1.00  0.00     0.047 A 
ATOM     98  F   UNL A   1      34.120  26.575  25.834  1.00  0.00    -0.207 F 
ATOM     99  C   UNL A   1      34.110  27.324  23.610  1.00  0.00     0.039 A 
ATOM    100  C   UNL A   1      32.163  28.430  22.736  1.00  0.00     0.021 A 
ATOM    101  Cl  UNL A   1      29.995  29.082  24.137  1.00  0.00    -0.084 Cl
ATOM    102  C   UNL A   1      33.446  27.921  22.546  1.00  0.00     0.005 A 
ENDBRANCH  94  95
ENDBRANCH  92  94
ENDBRANCH  87  92
ENDBRANCH  78  80
ENDBRANCH  77  78
ENDBRANCH  76  77
ENDBRANCH  75  76
ENDBRANCH  74  75
ENDBRANCH   1  74
TORSDOF 20
ENDMDL
