MODEL 1
REMARK VINA RESULT:     -10.4      0.000      0.000
REMARK SMILES Cc1ccc(CNC(=O)NC[C@@H](CC(C)C)C(=O)OCCOCCOCCOC(=O)c2ccc(-c3c4nc(c(-c5c(F)c(F)c(F)c(F)c5F)c5ccc([nH]5)c(-c5c(F)c(F)c(F)c(F)c5F)c5nc(c(-c6c(F)c(F)c(F)c(F)c6F)c6ccc3[nH]6)C=C5)C=C4)cc2)s1
REMARK SMILES IDX 23 1 22 2 21 3 20 4 19 5 17 6 18 7 12 8 11 9 10 10 7 11 8 12
REMARK SMILES IDX 9 14 6 16 5 17 1 18 2 19 3 20 94 21 4 22 13 23 14 24 15 25
REMARK SMILES IDX 16 26 24 27 25 28 26 29 27 30 28 31 29 32 30 33 31 34 32 35
REMARK SMILES IDX 93 36 33 37 92 38 34 39 35 40 36 41 86 42 37 43 91 44 85 45
REMARK SMILES IDX 87 46 38 47 90 48 84 49 83 50 39 52 71 53 51 54 70 55 52 56
REMARK SMILES IDX 55 57 69 58 88 59 53 60 54 61 68 63 89 64 56 65 40 66 41 67
REMARK SMILES IDX 49 68 42 69 43 70 47 71 50 72 44 73 45 74 48 75 46 76 72 77
REMARK SMILES IDX 73 78 81 79 74 80 75 81 79 82 82 83 76 84 77 85 80 86 78 87
REMARK SMILES IDX 57 88 58 89 66 90 59 91 60 92 64 93 67 94 61 95 62 96 65 97
REMARK SMILES IDX 63 98
REMARK H PARENT 7 13 10 15 87 51 55 62
REMARK Flexibility Score: inf
ROOT
ATOM      1  C   UNL A   1      32.623  22.118  23.350  1.00  0.00     0.188 C 
ENDROOT
BRANCH   1   2
ATOM      2  O   UNL A   1      33.307  23.101  22.590  1.00  0.00    -0.376 OA
BRANCH   2   3
ATOM      3  C   UNL A   1      32.730  24.403  22.565  1.00  0.00     0.202 C 
BRANCH   3   4
ATOM      4  C   UNL A   1      33.607  25.568  23.043  1.00  0.00     0.261 C 
BRANCH   4   5
ATOM      5  O   UNL A   1      34.205  25.423  24.357  1.00  0.00    -0.463 OA
BRANCH   5   6
ATOM      6  C   UNL A   1      33.356  25.642  25.395  1.00  0.00     0.310 C 
ATOM      7  O   UNL A   1      32.941  24.758  26.141  1.00  0.00    -0.252 OA
BRANCH   6   8
ATOM      8  C   UNL A   1      32.860  27.070  25.544  1.00  0.00     0.119 C 
BRANCH   8   9
ATOM      9  C   UNL A   1      31.488  27.321  26.194  1.00  0.00     0.133 C 
BRANCH   9  10
ATOM     10  N   UNL A   1      30.428  26.667  25.400  1.00  0.00    -0.337 N 
ATOM     11  N   UNL A   1      29.871  27.866  23.430  1.00  0.00    -0.333 N 
ATOM     12  C   UNL A   1      29.791  26.816  24.239  1.00  0.00     0.315 C 
ATOM     13  H   UNL A   1      29.519  27.692  22.527  1.00  0.00     0.165 HD
ATOM     14  O   UNL A   1      29.054  25.889  23.891  1.00  0.00    -0.249 OA
ATOM     15  H   UNL A   1      30.088  25.875  25.876  1.00  0.00     0.165 HD
BRANCH  11  16
ATOM     16  C   UNL A   1      30.363  29.199  23.601  1.00  0.00     0.164 C 
BRANCH  16  17
ATOM     17  C   UNL A   1      29.376  30.214  23.127  1.00  0.00     0.024 A 
ATOM     18  C   UNL A   1      27.784  32.702  20.556  1.00  0.00     0.056 C 
ATOM     19  C   UNL A   1      28.227  31.880  21.715  1.00  0.00     0.002 A 
ATOM     20  C   UNL A   1      28.032  32.116  23.059  1.00  0.00     0.015 A 
ATOM     21  S   UNL A   1      29.124  30.450  21.450  1.00  0.00    -0.144 S 
ATOM     22  C   UNL A   1      28.670  31.138  23.876  1.00  0.00     0.017 A 
ENDBRANCH  16  17
ENDBRANCH  11  16
ENDBRANCH   9  10
ENDBRANCH   8   9
BRANCH   8  23
ATOM     23  C   UNL A   1      34.032  27.929  26.068  1.00  0.00     0.020 C 
BRANCH  23  24
ATOM     24  C   UNL A   1      33.730  29.127  26.990  1.00  0.00    -0.017 C 
ATOM     25  C   UNL A   1      34.948  29.716  27.697  1.00  0.00     0.007 C 
ATOM     26  C   UNL A   1      33.073  30.227  26.147  1.00  0.00     0.007 C 
ENDBRANCH  23  24
ENDBRANCH   8  23
ENDBRANCH   6   8
ENDBRANCH   5   6
ENDBRANCH   4   5
ENDBRANCH   3   4
ENDBRANCH   2   3
ENDBRANCH   1   2
BRANCH   1  27
ATOM     27  C   UNL A   1      33.356  21.553  24.567  1.00  0.00     0.188 C 
BRANCH  27  28
ATOM     28  O   UNL A   1      34.621  22.125  24.870  1.00  0.00    -0.376 OA
BRANCH  28  29
ATOM     29  C   UNL A   1      35.748  21.413  24.340  1.00  0.00     0.202 C 
BRANCH  29  30
ATOM     30  C   UNL A   1      36.829  21.034  25.379  1.00  0.00     0.261 C 
BRANCH  30  31
ATOM     31  O   UNL A   1      38.113  21.665  25.160  1.00  0.00    -0.460 OA
BRANCH  31  32
ATOM     32  C   UNL A   1      39.068  21.334  26.061  1.00  0.00     0.338 C 
ATOM     33  O   UNL A   1      39.561  20.242  26.204  1.00  0.00    -0.246 OA
BRANCH  32  34
ATOM     34  C   UNL A   1      39.640  22.560  26.668  1.00  0.00     0.060 A 
ATOM     35  C   UNL A   1      39.105  23.788  26.258  1.00  0.00     0.016 A 
ATOM     36  C   UNL A   1      40.682  22.532  27.589  1.00  0.00     0.016 A 
ATOM     37  C   UNL A   1      39.641  24.992  26.701  1.00  0.00     0.010 A 
ATOM     38  C   UNL A   1      41.231  23.743  28.033  1.00  0.00     0.010 A 
ATOM     39  C   UNL A   1      40.741  24.977  27.560  1.00  0.00    -0.014 A 
BRANCH  39  40
ATOM     40  C   UNL A   1      41.497  26.232  27.795  1.00  0.00     0.031 A 
ATOM     41  C   UNL A   1      40.830  27.328  28.578  1.00  0.00     0.074 A 
ATOM     42  C   UNL A   1      42.770  26.380  27.390  1.00  0.00     0.049 A 
ATOM     43  N   UNL A   1      41.230  28.551  28.811  1.00  0.00    -0.248 NA
ATOM     44  C   UNL A   1      39.534  26.991  29.188  1.00  0.00     0.031 C 
ATOM     45  C   UNL A   1      43.575  25.359  26.725  1.00  0.00     0.029 A 
ATOM     46  N   UNL A   1      43.610  27.463  27.485  1.00  0.00    -0.354 N 
ATOM     47  C   UNL A   1      40.223  29.138  29.566  1.00  0.00     0.074 A 
ATOM     48  C   UNL A   1      39.189  28.142  29.745  1.00  0.00     0.031 C 
ATOM     49  C   UNL A   1      44.793  25.866  26.465  1.00  0.00     0.029 A 
ATOM     50  C   UNL A   1      44.833  27.263  26.896  1.00  0.00     0.049 A 
ATOM     51  H   UNL A   1      43.358  28.303  27.933  1.00  0.00     0.167 HD
ATOM     52  C   UNL A   1      40.164  30.396  30.063  1.00  0.00     0.037 A 
ATOM     53  C   UNL A   1      45.853  28.122  26.696  1.00  0.00     0.037 A 
ATOM     54  C   UNL A   1      41.198  31.382  29.898  1.00  0.00     0.049 A 
ATOM     55  C   UNL A   1      45.724  29.548  27.169  1.00  0.00     0.074 A 
ATOM     56  C   UNL A   1      41.222  32.693  30.340  1.00  0.00     0.029 A 
ATOM     57  N   UNL A   1      42.399  31.160  29.240  1.00  0.00    -0.354 N 
ATOM     58  N   UNL A   1      44.745  30.119  27.828  1.00  0.00    -0.248 NA
ATOM     59  C   UNL A   1      46.840  30.452  26.856  1.00  0.00     0.031 C 
ATOM     60  C   UNL A   1      42.420  33.277  29.913  1.00  0.00     0.029 A 
ATOM     61  C   UNL A   1      43.164  32.315  29.250  1.00  0.00     0.049 A 
ATOM     62  H   UNL A   1      42.667  30.308  28.828  1.00  0.00     0.167 HD
ATOM     63  C   UNL A   1      45.139  31.436  28.035  1.00  0.00     0.074 A 
ATOM     64  C   UNL A   1      46.449  31.578  27.438  1.00  0.00     0.031 C 
ATOM     65  C   UNL A   1      44.474  32.436  28.664  1.00  0.00     0.037 A 
BRANCH  52  66
ATOM     66  C   UNL A   1      38.911  30.786  30.789  1.00  0.00     0.064 A 
ATOM     67  C   UNL A   1      37.779  31.262  30.112  1.00  0.00     0.173 A 
ATOM     68  C   UNL A   1      38.849  30.686  32.187  1.00  0.00     0.173 A 
ATOM     69  F   UNL A   1      37.798  31.400  28.779  1.00  0.00    -0.203 F 
ATOM     70  C   UNL A   1      36.640  31.652  30.813  1.00  0.00     0.198 A 
ATOM     71  C   UNL A   1      37.698  31.049  32.881  1.00  0.00     0.198 A 
ATOM     72  F   UNL A   1      39.906  30.239  32.881  1.00  0.00    -0.203 F 
ATOM     73  F   UNL A   1      35.590  32.159  30.151  1.00  0.00    -0.200 F 
ATOM     74  C   UNL A   1      36.598  31.540  32.195  1.00  0.00     0.200 A 
ATOM     75  F   UNL A   1      37.658  30.934  34.216  1.00  0.00    -0.200 F 
ATOM     76  F   UNL A   1      35.502  31.919  32.866  1.00  0.00    -0.200 F 
ENDBRANCH  52  66
BRANCH  53  77
ATOM     77  C   UNL A   1      47.077  27.672  25.984  1.00  0.00     0.064 A 
ATOM     78  C   UNL A   1      47.174  27.757  24.588  1.00  0.00     0.173 A 
ATOM     79  C   UNL A   1      48.163  27.121  26.680  1.00  0.00     0.173 A 
ATOM     80  F   UNL A   1      46.148  28.245  23.876  1.00  0.00    -0.203 F 
ATOM     81  C   UNL A   1      48.305  27.297  23.916  1.00  0.00     0.198 A 
ATOM     82  C   UNL A   1      49.305  26.686  26.010  1.00  0.00     0.198 A 
ATOM     83  F   UNL A   1      48.116  27.006  28.016  1.00  0.00    -0.203 F 
ATOM     84  F   UNL A   1      48.352  27.346  22.578  1.00  0.00    -0.200 F 
ATOM     85  C   UNL A   1      49.371  26.767  24.627  1.00  0.00     0.200 A 
ATOM     86  F   UNL A   1      50.334  26.181  26.702  1.00  0.00    -0.200 F 
ATOM     87  F   UNL A   1      50.458  26.325  23.980  1.00  0.00    -0.200 F 
ENDBRANCH  53  77
BRANCH  65  88
ATOM     88  C   UNL A   1      45.172  33.761  28.785  1.00  0.00     0.064 A 
ATOM     89  C   UNL A   1      46.028  34.049  29.858  1.00  0.00     0.173 A 
ATOM     90  C   UNL A   1      45.012  34.738  27.791  1.00  0.00     0.173 A 
ATOM     91  F   UNL A   1      46.203  33.153  30.841  1.00  0.00    -0.203 F 
ATOM     92  C   UNL A   1      46.680  35.277  29.942  1.00  0.00     0.198 A 
ATOM     93  C   UNL A   1      45.687  35.953  27.865  1.00  0.00     0.198 A 
ATOM     94  F   UNL A   1      44.212  34.509  26.739  1.00  0.00    -0.203 F 
ATOM     95  F   UNL A   1      47.458  35.548  30.999  1.00  0.00    -0.200 F 
ATOM     96  C   UNL A   1      46.514  36.224  28.943  1.00  0.00     0.200 A 
ATOM     97  F   UNL A   1      45.537  36.862  26.891  1.00  0.00    -0.200 F 
ATOM     98  F   UNL A   1      47.148  37.403  29.024  1.00  0.00    -0.200 F 
ENDBRANCH  65  88
ENDBRANCH  39  40
ENDBRANCH  32  34
ENDBRANCH  31  32
ENDBRANCH  30  31
ENDBRANCH  29  30
ENDBRANCH  28  29
ENDBRANCH  27  28
ENDBRANCH   1  27
TORSDOF 23
ENDMDL
MODEL 2
REMARK VINA RESULT:     -10.0      1.764      7.397
REMARK SMILES Cc1ccc(CNC(=O)NC[C@@H](CC(C)C)C(=O)OCCOCCOCCOC(=O)c2ccc(-c3c4nc(c(-c5c(F)c(F)c(F)c(F)c5F)c5ccc([nH]5)c(-c5c(F)c(F)c(F)c(F)c5F)c5nc(c(-c6c(F)c(F)c(F)c(F)c6F)c6ccc3[nH]6)C=C5)C=C4)cc2)s1
REMARK SMILES IDX 23 1 22 2 21 3 20 4 19 5 17 6 18 7 12 8 11 9 10 10 7 11 8 12
REMARK SMILES IDX 9 14 6 16 5 17 1 18 2 19 3 20 94 21 4 22 13 23 14 24 15 25
REMARK SMILES IDX 16 26 24 27 25 28 26 29 27 30 28 31 29 32 30 33 31 34 32 35
REMARK SMILES IDX 93 36 33 37 92 38 34 39 35 40 36 41 86 42 37 43 91 44 85 45
REMARK SMILES IDX 87 46 38 47 90 48 84 49 83 50 39 52 71 53 51 54 70 55 52 56
REMARK SMILES IDX 55 57 69 58 88 59 53 60 54 61 68 63 89 64 56 65 40 66 41 67
REMARK SMILES IDX 49 68 42 69 43 70 47 71 50 72 44 73 45 74 48 75 46 76 72 77
REMARK SMILES IDX 73 78 81 79 74 80 75 81 79 82 82 83 76 84 77 85 80 86 78 87
REMARK SMILES IDX 57 88 58 89 66 90 59 91 60 92 64 93 67 94 61 95 62 96 65 97
REMARK SMILES IDX 63 98
REMARK H PARENT 7 13 10 15 87 51 55 62
REMARK Flexibility Score: inf
ROOT
ATOM      1  C   UNL A   1      35.475  21.615  24.708  1.00  0.00     0.188 C 
ENDROOT
BRANCH   1   2
ATOM      2  O   UNL A   1      34.511  22.593  24.355  1.00  0.00    -0.376 OA
BRANCH   2   3
ATOM      3  C   UNL A   1      34.952  23.949  24.347  1.00  0.00     0.202 C 
BRANCH   3   4
ATOM      4  C   UNL A   1      34.255  24.918  25.311  1.00  0.00     0.261 C 
BRANCH   4   5
ATOM      5  O   UNL A   1      33.401  24.317  26.319  1.00  0.00    -0.463 OA
BRANCH   5   6
ATOM      6  C   UNL A   1      32.204  24.938  26.492  1.00  0.00     0.310 C 
ATOM      7  O   UNL A   1      31.250  24.435  27.081  1.00  0.00    -0.252 OA
BRANCH   6   8
ATOM      8  C   UNL A   1      32.071  26.298  25.828  1.00  0.00     0.119 C 
BRANCH   8   9
ATOM      9  C   UNL A   1      31.273  26.414  24.518  1.00  0.00     0.133 C 
BRANCH   9  10
ATOM     10  N   UNL A   1      32.058  27.162  23.516  1.00  0.00    -0.337 N 
ATOM     11  N   UNL A   1      31.486  29.463  23.418  1.00  0.00    -0.333 N 
ATOM     12  C   UNL A   1      32.227  28.412  23.084  1.00  0.00     0.315 C 
ATOM     13  H   UNL A   1      31.904  30.324  23.187  1.00  0.00     0.165 HD
ATOM     14  O   UNL A   1      33.158  28.603  22.297  1.00  0.00    -0.249 OA
ATOM     15  H   UNL A   1      32.637  26.547  23.010  1.00  0.00     0.165 HD
BRANCH  11  16
ATOM     16  C   UNL A   1      30.207  29.601  24.044  1.00  0.00     0.164 C 
BRANCH  16  17
ATOM     17  C   UNL A   1      29.340  30.574  23.314  1.00  0.00     0.024 A 
ATOM     18  C   UNL A   1      27.933  32.418  20.158  1.00  0.00     0.056 C 
ATOM     19  C   UNL A   1      28.338  31.911  21.499  1.00  0.00     0.002 A 
ATOM     20  C   UNL A   1      28.273  32.557  22.715  1.00  0.00     0.015 A 
ATOM     21  S   UNL A   1      29.006  30.346  21.650  1.00  0.00    -0.144 S 
ATOM     22  C   UNL A   1      28.825  31.773  23.771  1.00  0.00     0.017 A 
ENDBRANCH  16  17
ENDBRANCH  11  16
ENDBRANCH   9  10
ENDBRANCH   8   9
BRANCH   8  23
ATOM     23  C   UNL A   1      31.738  27.332  26.926  1.00  0.00     0.020 C 
BRANCH  23  24
ATOM     24  C   UNL A   1      32.771  28.426  27.263  1.00  0.00    -0.017 C 
ATOM     25  C   UNL A   1      34.033  28.405  26.405  1.00  0.00     0.007 C 
ATOM     26  C   UNL A   1      32.092  29.793  27.102  1.00  0.00     0.007 C 
ENDBRANCH  23  24
ENDBRANCH   8  23
ENDBRANCH   6   8
ENDBRANCH   5   6
ENDBRANCH   4   5
ENDBRANCH   3   4
ENDBRANCH   2   3
ENDBRANCH   1   2
BRANCH   1  27
ATOM     27  C   UNL A   1      36.670  22.090  25.534  1.00  0.00     0.188 C 
BRANCH  27  28
ATOM     28  O   UNL A   1      37.958  21.856  24.983  1.00  0.00    -0.376 OA
BRANCH  28  29
ATOM     29  C   UNL A   1      38.535  20.586  25.316  1.00  0.00     0.202 C 
BRANCH  29  30
ATOM     30  C   UNL A   1      39.900  20.658  26.041  1.00  0.00     0.261 C 
BRANCH  30  31
ATOM     31  O   UNL A   1      40.479  19.369  26.349  1.00  0.00    -0.460 OA
BRANCH  31  32
ATOM     32  C   UNL A   1      41.820  19.294  26.175  1.00  0.00     0.338 C 
ATOM     33  O   UNL A   1      42.422  18.370  25.683  1.00  0.00    -0.246 OA
BRANCH  32  34
ATOM     34  C   UNL A   1      42.438  20.622  26.408  1.00  0.00     0.060 A 
ATOM     35  C   UNL A   1      42.435  21.107  27.722  1.00  0.00     0.016 A 
ATOM     36  C   UNL A   1      42.984  21.392  25.387  1.00  0.00     0.016 A 
ATOM     37  C   UNL A   1      42.906  22.381  28.022  1.00  0.00     0.010 A 
ATOM     38  C   UNL A   1      43.453  22.679  25.682  1.00  0.00     0.010 A 
ATOM     39  C   UNL A   1      43.379  23.195  26.992  1.00  0.00    -0.014 A 
BRANCH  39  40
ATOM     40  C   UNL A   1      43.599  24.640  27.250  1.00  0.00     0.031 A 
ATOM     41  C   UNL A   1      44.975  25.201  27.026  1.00  0.00     0.074 A 
ATOM     42  C   UNL A   1      42.594  25.458  27.608  1.00  0.00     0.049 A 
ATOM     43  N   UNL A   1      45.446  26.391  27.293  1.00  0.00    -0.248 NA
ATOM     44  C   UNL A   1      45.951  24.291  26.405  1.00  0.00     0.031 C 
ATOM     45  C   UNL A   1      41.192  25.072  27.748  1.00  0.00     0.029 A 
ATOM     46  N   UNL A   1      42.609  26.796  27.919  1.00  0.00    -0.354 N 
ATOM     47  C   UNL A   1      46.779  26.364  26.904  1.00  0.00     0.074 A 
ATOM     48  C   UNL A   1      47.045  25.038  26.390  1.00  0.00     0.031 C 
ATOM     49  C   UNL A   1      40.480  26.149  28.125  1.00  0.00     0.029 A 
ATOM     50  C   UNL A   1      41.385  27.284  28.303  1.00  0.00     0.049 A 
ATOM     51  H   UNL A   1      43.420  27.352  27.870  1.00  0.00     0.167 HD
ATOM     52  C   UNL A   1      47.699  27.354  26.971  1.00  0.00     0.037 A 
ATOM     53  C   UNL A   1      41.044  28.498  28.780  1.00  0.00     0.037 A 
ATOM     54  C   UNL A   1      47.431  28.677  27.468  1.00  0.00     0.049 A 
ATOM     55  C   UNL A   1      42.107  29.555  28.943  1.00  0.00     0.074 A 
ATOM     56  C   UNL A   1      48.302  29.743  27.603  1.00  0.00     0.029 A 
ATOM     57  N   UNL A   1      46.191  29.116  27.908  1.00  0.00    -0.354 N 
ATOM     58  N   UNL A   1      43.380  29.508  28.633  1.00  0.00    -0.248 NA
ATOM     59  C   UNL A   1      41.684  30.832  29.537  1.00  0.00     0.031 C 
ATOM     60  C   UNL A   1      47.599  30.815  28.163  1.00  0.00     0.029 A 
ATOM     61  C   UNL A   1      46.278  30.432  28.330  1.00  0.00     0.049 A 
ATOM     62  H   UNL A   1      45.371  28.572  27.918  1.00  0.00     0.167 HD
ATOM     63  C   UNL A   1      43.902  30.753  28.963  1.00  0.00     0.074 A 
ATOM     64  C   UNL A   1      42.806  31.538  29.491  1.00  0.00     0.031 C 
ATOM     65  C   UNL A   1      45.174  31.205  28.840  1.00  0.00     0.037 A 
BRANCH  52  66
ATOM     66  C   UNL A   1      49.096  27.020  26.541  1.00  0.00     0.064 A 
ATOM     67  C   UNL A   1      49.532  27.209  25.222  1.00  0.00     0.173 A 
ATOM     68  C   UNL A   1      50.010  26.495  27.468  1.00  0.00     0.173 A 
ATOM     69  F   UNL A   1      48.689  27.684  24.294  1.00  0.00    -0.203 F 
ATOM     70  C   UNL A   1      50.824  26.856  24.839  1.00  0.00     0.198 A 
ATOM     71  C   UNL A   1      51.309  26.171  27.088  1.00  0.00     0.198 A 
ATOM     72  F   UNL A   1      49.641  26.292  28.742  1.00  0.00    -0.203 F 
ATOM     73  F   UNL A   1      51.202  26.990  23.560  1.00  0.00    -0.200 F 
ATOM     74  C   UNL A   1      51.713  26.343  25.773  1.00  0.00     0.200 A 
ATOM     75  F   UNL A   1      52.168  25.681  27.993  1.00  0.00    -0.200 F 
ATOM     76  F   UNL A   1      52.954  26.001  25.401  1.00  0.00    -0.200 F 
ENDBRANCH  52  66
BRANCH  53  77
ATOM     77  C   UNL A   1      39.638  28.776  29.175  1.00  0.00     0.064 A 
ATOM     78  C   UNL A   1      38.721  29.305  28.256  1.00  0.00     0.173 A 
ATOM     79  C   UNL A   1      39.191  28.547  30.484  1.00  0.00     0.173 A 
ATOM     80  F   UNL A   1      39.111  29.573  27.001  1.00  0.00    -0.203 F 
ATOM     81  C   UNL A   1      37.414  29.606  28.636  1.00  0.00     0.198 A 
ATOM     82  C   UNL A   1      37.877  28.823  30.856  1.00  0.00     0.198 A 
ATOM     83  F   UNL A   1      40.033  28.054  31.404  1.00  0.00    -0.203 F 
ATOM     84  F   UNL A   1      36.572  30.155  27.751  1.00  0.00    -0.200 F 
ATOM     85  C   UNL A   1      36.992  29.359  29.933  1.00  0.00     0.200 A 
ATOM     86  F   UNL A   1      37.472  28.578  32.109  1.00  0.00    -0.200 F 
ATOM     87  F   UNL A   1      35.736  29.649  30.298  1.00  0.00    -0.200 F 
ENDBRANCH  53  77
BRANCH  65  88
ATOM     88  C   UNL A   1      45.443  32.629  29.234  1.00  0.00     0.064 A 
ATOM     89  C   UNL A   1      45.209  33.696  28.354  1.00  0.00     0.173 A 
ATOM     90  C   UNL A   1      45.903  32.931  30.524  1.00  0.00     0.173 A 
ATOM     91  F   UNL A   1      44.782  33.459  27.105  1.00  0.00    -0.203 F 
ATOM     92  C   UNL A   1      45.448  35.011  28.745  1.00  0.00     0.198 A 
ATOM     93  C   UNL A   1      46.115  34.249  30.920  1.00  0.00     0.198 A 
ATOM     94  F   UNL A   1      46.135  31.948  31.407  1.00  0.00    -0.203 F 
ATOM     95  F   UNL A   1      45.259  36.012  27.874  1.00  0.00    -0.200 F 
ATOM     96  C   UNL A   1      45.894  35.286  30.029  1.00  0.00     0.200 A 
ATOM     97  F   UNL A   1      46.533  34.513  32.166  1.00  0.00    -0.200 F 
ATOM     98  F   UNL A   1      46.118  36.554  30.405  1.00  0.00    -0.200 F 
ENDBRANCH  65  88
ENDBRANCH  39  40
ENDBRANCH  32  34
ENDBRANCH  31  32
ENDBRANCH  30  31
ENDBRANCH  29  30
ENDBRANCH  28  29
ENDBRANCH  27  28
ENDBRANCH   1  27
TORSDOF 23
ENDMDL
MODEL 3
REMARK VINA RESULT:      -9.9      0.536      2.005
REMARK SMILES Cc1ccc(CNC(=O)NC[C@@H](CC(C)C)C(=O)OCCOCCOCCOC(=O)c2ccc(-c3c4nc(c(-c5c(F)c(F)c(F)c(F)c5F)c5ccc([nH]5)c(-c5c(F)c(F)c(F)c(F)c5F)c5nc(c(-c6c(F)c(F)c(F)c(F)c6F)c6ccc3[nH]6)C=C5)C=C4)cc2)s1
REMARK SMILES IDX 23 1 22 2 21 3 20 4 19 5 17 6 18 7 12 8 11 9 10 10 7 11 8 12
REMARK SMILES IDX 9 14 6 16 5 17 1 18 2 19 3 20 94 21 4 22 13 23 14 24 15 25
REMARK SMILES IDX 16 26 24 27 25 28 26 29 27 30 28 31 29 32 30 33 31 34 32 35
REMARK SMILES IDX 93 36 33 37 92 38 34 39 35 40 36 41 86 42 37 43 91 44 85 45
REMARK SMILES IDX 87 46 38 47 90 48 84 49 83 50 39 52 71 53 51 54 70 55 52 56
REMARK SMILES IDX 55 57 69 58 88 59 53 60 54 61 68 63 89 64 56 65 40 66 41 67
REMARK SMILES IDX 49 68 42 69 43 70 47 71 50 72 44 73 45 74 48 75 46 76 72 77
REMARK SMILES IDX 73 78 81 79 74 80 75 81 79 82 82 83 76 84 77 85 80 86 78 87
REMARK SMILES IDX 57 88 58 89 66 90 59 91 60 92 64 93 67 94 61 95 62 96 65 97
REMARK SMILES IDX 63 98
REMARK H PARENT 7 13 10 15 87 51 55 62
REMARK Flexibility Score: inf
ROOT
ATOM      1  C   UNL A   1      32.713  23.338  23.531  1.00  0.00     0.188 C 
ENDROOT
BRANCH   1   2
ATOM      2  O   UNL A   1      33.592  23.676  22.472  1.00  0.00    -0.376 OA
BRANCH   2   3
ATOM      3  C   UNL A   1      33.557  25.027  22.019  1.00  0.00     0.202 C 
BRANCH   3   4
ATOM      4  C   UNL A   1      33.229  26.106  23.060  1.00  0.00     0.261 C 
BRANCH   4   5
ATOM      5  O   UNL A   1      34.068  26.131  24.244  1.00  0.00    -0.463 OA
BRANCH   5   6
ATOM      6  C   UNL A   1      33.435  26.523  25.380  1.00  0.00     0.310 C 
ATOM      7  O   UNL A   1      32.870  25.751  26.152  1.00  0.00    -0.252 OA
BRANCH   6   8
ATOM      8  C   UNL A   1      33.384  28.023  25.617  1.00  0.00     0.119 C 
BRANCH   8   9
ATOM      9  C   UNL A   1      32.061  28.772  25.380  1.00  0.00     0.133 C 
BRANCH   9  10
ATOM     10  N   UNL A   1      30.948  27.807  25.275  1.00  0.00    -0.337 N 
ATOM     11  N   UNL A   1      30.081  27.625  23.073  1.00  0.00    -0.333 N 
ATOM     12  C   UNL A   1      30.162  27.260  24.349  1.00  0.00     0.315 C 
ATOM     13  H   UNL A   1      29.630  26.961  22.505  1.00  0.00     0.165 HD
ATOM     14  O   UNL A   1      29.441  26.328  24.717  1.00  0.00    -0.249 OA
ATOM     15  H   UNL A   1      30.715  27.461  26.167  1.00  0.00     0.165 HD
BRANCH  11  16
ATOM     16  C   UNL A   1      30.517  28.785  22.358  1.00  0.00     0.164 C 
BRANCH  16  17
ATOM     17  C   UNL A   1      29.492  29.871  22.396  1.00  0.00     0.024 A 
ATOM     18  C   UNL A   1      27.653  33.078  21.105  1.00  0.00     0.056 C 
ATOM     19  C   UNL A   1      28.210  31.901  21.826  1.00  0.00     0.002 A 
ATOM     20  C   UNL A   1      28.160  31.618  23.173  1.00  0.00     0.015 A 
ATOM     21  S   UNL A   1      29.066  30.701  20.960  1.00  0.00    -0.144 S 
ATOM     22  C   UNL A   1      28.874  30.428  23.501  1.00  0.00     0.017 A 
ENDBRANCH  16  17
ENDBRANCH  11  16
ENDBRANCH   9  10
ENDBRANCH   8   9
BRANCH   8  23
ATOM     23  C   UNL A   1      34.109  28.320  26.948  1.00  0.00     0.020 C 
BRANCH  23  24
ATOM     24  C   UNL A   1      34.938  29.613  27.078  1.00  0.00    -0.017 C 
ATOM     25  C   UNL A   1      34.173  30.815  27.626  1.00  0.00     0.007 C 
ATOM     26  C   UNL A   1      36.130  29.328  28.001  1.00  0.00     0.007 C 
ENDBRANCH  23  24
ENDBRANCH   8  23
ENDBRANCH   6   8
ENDBRANCH   5   6
ENDBRANCH   4   5
ENDBRANCH   3   4
ENDBRANCH   2   3
ENDBRANCH   1   2
BRANCH   1  27
ATOM     27  C   UNL A   1      33.210  22.298  24.536  1.00  0.00     0.188 C 
BRANCH  27  28
ATOM     28  O   UNL A   1      34.476  22.543  25.131  1.00  0.00    -0.376 OA
BRANCH  28  29
ATOM     29  C   UNL A   1      35.545  21.727  24.632  1.00  0.00     0.202 C 
BRANCH  29  30
ATOM     30  C   UNL A   1      36.676  21.437  25.647  1.00  0.00     0.261 C 
BRANCH  30  31
ATOM     31  O   UNL A   1      38.000  21.785  25.180  1.00  0.00    -0.460 OA
BRANCH  31  32
ATOM     32  C   UNL A   1      39.004  21.454  26.026  1.00  0.00     0.338 C 
ATOM     33  O   UNL A   1      39.520  20.368  26.125  1.00  0.00    -0.246 OA
BRANCH  32  34
ATOM     34  C   UNL A   1      39.588  22.679  26.625  1.00  0.00     0.060 A 
ATOM     35  C   UNL A   1      39.144  23.910  26.126  1.00  0.00     0.016 A 
ATOM     36  C   UNL A   1      40.557  22.644  27.622  1.00  0.00     0.016 A 
ATOM     37  C   UNL A   1      39.702  25.108  26.559  1.00  0.00     0.010 A 
ATOM     38  C   UNL A   1      41.129  23.848  28.056  1.00  0.00     0.010 A 
ATOM     39  C   UNL A   1      40.735  25.081  27.498  1.00  0.00    -0.014 A 
BRANCH  39  40
ATOM     40  C   UNL A   1      41.530  26.310  27.739  1.00  0.00     0.031 A 
ATOM     41  C   UNL A   1      40.901  27.422  28.531  1.00  0.00     0.074 A 
ATOM     42  C   UNL A   1      42.807  26.421  27.330  1.00  0.00     0.049 A 
ATOM     43  N   UNL A   1      41.340  28.630  28.771  1.00  0.00    -0.248 NA
ATOM     44  C   UNL A   1      39.597  27.121  29.144  1.00  0.00     0.031 C 
ATOM     45  C   UNL A   1      43.577  25.379  26.656  1.00  0.00     0.029 A 
ATOM     46  N   UNL A   1      43.680  27.477  27.428  1.00  0.00    -0.354 N 
ATOM     47  C   UNL A   1      40.354  29.243  29.533  1.00  0.00     0.074 A 
ATOM     48  C   UNL A   1      39.291  28.279  29.710  1.00  0.00     0.031 C 
ATOM     49  C   UNL A   1      44.809  25.850  26.394  1.00  0.00     0.029 A 
ATOM     50  C   UNL A   1      44.894  27.242  26.834  1.00  0.00     0.049 A 
ATOM     51  H   UNL A   1      43.457  28.321  27.883  1.00  0.00     0.167 HD
ATOM     52  C   UNL A   1      40.337  30.499  30.038  1.00  0.00     0.037 A 
ATOM     53  C   UNL A   1      45.940  28.070  26.636  1.00  0.00     0.037 A 
ATOM     54  C   UNL A   1      41.401  31.453  29.876  1.00  0.00     0.049 A 
ATOM     55  C   UNL A   1      45.857  29.496  27.118  1.00  0.00     0.074 A 
ATOM     56  C   UNL A   1      41.466  32.760  30.327  1.00  0.00     0.029 A 
ATOM     57  N   UNL A   1      42.591  31.198  29.212  1.00  0.00    -0.354 N 
ATOM     58  N   UNL A   1      44.899  30.094  27.785  1.00  0.00    -0.248 NA
ATOM     59  C   UNL A   1      47.000  30.367  26.807  1.00  0.00     0.031 C 
ATOM     60  C   UNL A   1      42.681  33.309  29.899  1.00  0.00     0.029 A 
ATOM     61  C   UNL A   1      43.392  32.328  29.226  1.00  0.00     0.049 A 
ATOM     62  H   UNL A   1      42.832  30.340  28.793  1.00  0.00     0.167 HD
ATOM     63  C   UNL A   1      45.334  31.396  27.999  1.00  0.00     0.074 A 
ATOM     64  C   UNL A   1      46.647  31.501  27.397  1.00  0.00     0.031 C 
ATOM     65  C   UNL A   1      44.703  32.413  28.636  1.00  0.00     0.037 A 
BRANCH  52  66
ATOM     66  C   UNL A   1      39.099  30.923  30.772  1.00  0.00     0.064 A 
ATOM     67  C   UNL A   1      38.945  30.714  32.150  1.00  0.00     0.173 A 
ATOM     68  C   UNL A   1      38.050  31.544  30.078  1.00  0.00     0.173 A 
ATOM     69  F   UNL A   1      39.909  30.101  32.852  1.00  0.00    -0.203 F 
ATOM     70  C   UNL A   1      37.770  31.084  32.801  1.00  0.00     0.198 A 
ATOM     71  C   UNL A   1      36.890  31.939  30.739  1.00  0.00     0.198 A 
ATOM     72  F   UNL A   1      38.147  31.764  28.759  1.00  0.00    -0.203 F 
ATOM     73  F   UNL A   1      37.620  30.821  34.107  1.00  0.00    -0.200 F 
ATOM     74  C   UNL A   1      36.746  31.701  32.097  1.00  0.00     0.200 A 
ATOM     75  F   UNL A   1      35.905  32.540  30.057  1.00  0.00    -0.200 F 
ATOM     76  F   UNL A   1      35.617  32.053  32.725  1.00  0.00    -0.200 F 
ENDBRANCH  52  66
BRANCH  53  77
ATOM     77  C   UNL A   1      47.147  27.587  25.917  1.00  0.00     0.064 A 
ATOM     78  C   UNL A   1      48.237  27.047  26.614  1.00  0.00     0.173 A 
ATOM     79  C   UNL A   1      47.250  27.683  24.521  1.00  0.00     0.173 A 
ATOM     80  F   UNL A   1      48.200  26.966  27.952  1.00  0.00    -0.203 F 
ATOM     81  C   UNL A   1      49.386  26.632  25.944  1.00  0.00     0.198 A 
ATOM     82  C   UNL A   1      48.389  27.243  23.849  1.00  0.00     0.198 A 
ATOM     83  F   UNL A   1      46.240  28.203  23.808  1.00  0.00    -0.203 F 
ATOM     84  F   UNL A   1      50.431  26.164  26.639  1.00  0.00    -0.200 F 
ATOM     85  C   UNL A   1      49.459  26.726  24.563  1.00  0.00     0.200 A 
ATOM     86  F   UNL A   1      48.452  27.331  22.514  1.00  0.00    -0.200 F 
ATOM     87  F   UNL A   1      50.565  26.328  23.919  1.00  0.00    -0.200 F 
ENDBRANCH  53  77
BRANCH  65  88
ATOM     88  C   UNL A   1      45.442  33.713  28.763  1.00  0.00     0.064 A 
ATOM     89  C   UNL A   1      45.313  34.733  27.809  1.00  0.00     0.173 A 
ATOM     90  C   UNL A   1      46.260  33.957  29.877  1.00  0.00     0.173 A 
ATOM     91  F   UNL A   1      44.554  34.545  26.719  1.00  0.00    -0.203 F 
ATOM     92  C   UNL A   1      45.993  35.940  27.954  1.00  0.00     0.198 A 
ATOM     93  C   UNL A   1      46.916  35.175  30.033  1.00  0.00     0.198 A 
ATOM     94  F   UNL A   1      46.411  33.018  30.823  1.00  0.00    -0.203 F 
ATOM     95  F   UNL A   1      45.890  36.883  27.008  1.00  0.00    -0.200 F 
ATOM     96  C   UNL A   1      46.789  36.161  29.069  1.00  0.00     0.200 A 
ATOM     97  F   UNL A   1      47.674  35.392  31.118  1.00  0.00    -0.200 F 
ATOM     98  F   UNL A   1      47.438  37.326  29.209  1.00  0.00    -0.200 F 
ENDBRANCH  65  88
ENDBRANCH  39  40
ENDBRANCH  32  34
ENDBRANCH  31  32
ENDBRANCH  30  31
ENDBRANCH  29  30
ENDBRANCH  28  29
ENDBRANCH  27  28
ENDBRANCH   1  27
TORSDOF 23
ENDMDL
