MODEL 1
REMARK VINA RESULT:      -8.3      0.000      0.000
REMARK SMILES O=C(COc1cccc(NC(=O)c2ccc3c(c2)C(=O)N(c2ccccc2-c2ccccc2)C3=O)c1)OCCOCCOCCOC(=O)c1ccc(-c2c3nc(c(-c4c(F)c(F)c(F)c(F)c4F)c4ccc([nH]4)c(-c4c(F)c(F)c(F)c(F)c4F)c4nc(c(-c5c(F)c(F)c(F)c(F)c5F)c5ccc2[nH]5)C=C4)C=C3)cc1
REMARK SMILES IDX 39 1 38 2 37 3 2 4 1 5 3 6 4 7 5 8 6 9 36 10 7 11 9 12 8 13
REMARK SMILES IDX 10 14 11 15 12 17 13 18 14 19 18 20 15 21 17 22 16 23 19 24
REMARK SMILES IDX 34 25 20 26 21 27 35 28 22 29 23 30 27 31 24 32 26 33 25 34
REMARK SMILES IDX 28 35 29 36 33 37 30 38 32 39 31 40 40 41 41 42 42 43 43 44
REMARK SMILES IDX 44 45 45 46 46 47 47 48 48 49 49 50 50 51 111 52 51 53
REMARK SMILES IDX 110 54 52 55 53 56 54 57 104 58 55 59 109 60 103 61 105 62
REMARK SMILES IDX 56 63 108 64 102 65 101 66 57 68 89 69 69 70 88 71 70 72
REMARK SMILES IDX 73 73 87 74 106 75 71 76 72 77 86 79 107 80 74 81 58 82
REMARK SMILES IDX 59 83 67 84 60 85 61 86 65 87 68 88 62 89 63 90 66 91 64 92
REMARK SMILES IDX 90 93 91 94 99 95 92 96 93 97 97 98 100 99 94 100 95 101
REMARK SMILES IDX 98 102 96 103 75 104 76 105 84 106 77 107 78 108 82 109
REMARK SMILES IDX 85 110 79 111 80 112 83 113 81 114
REMARK H PARENT 10 16 105 67 73 78
REMARK Flexibility Score: inf
ROOT
ATOM      1  C   UNL A   1      48.169  26.676  24.143  1.00  0.00     0.202 C 
ENDROOT
BRANCH   1   2
ATOM      2  C   UNL A   1      47.893  25.228  24.532  1.00  0.00     0.261 C 
BRANCH   2   3
ATOM      3  O   UNL A   1      46.498  24.903  24.759  1.00  0.00    -0.461 OA
BRANCH   3   4
ATOM      4  C   UNL A   1      45.872  23.716  24.634  1.00  0.00     0.344 C 
ATOM      5  O   UNL A   1      45.541  23.315  23.519  1.00  0.00    -0.248 OA
BRANCH   4   6
ATOM      6  C   UNL A   1      45.550  22.886  25.866  1.00  0.00     0.351 C 
BRANCH   6   7
ATOM      7  O   UNL A   1      44.505  21.940  25.819  1.00  0.00    -0.482 OA
BRANCH   7   8
ATOM      8  C   UNL A   1      43.421  22.239  26.594  1.00  0.00     0.122 A 
ATOM      9  C   UNL A   1      43.700  22.355  27.949  1.00  0.00     0.046 A 
ATOM     10  C   UNL A   1      42.104  22.346  26.124  1.00  0.00     0.072 A 
ATOM     11  C   UNL A   1      42.664  22.579  28.839  1.00  0.00     0.006 A 
ATOM     12  C   UNL A   1      41.056  22.611  27.003  1.00  0.00     0.045 A 
ATOM     13  C   UNL A   1      41.354  22.674  28.364  1.00  0.00     0.026 A 
BRANCH  12  14
ATOM     14  N   UNL A   1      39.753  22.732  26.462  1.00  0.00    -0.322 N 
ATOM     15  C   UNL A   1      38.866  23.801  26.457  1.00  0.00     0.255 C 
ATOM     16  H   UNL A   1      39.419  21.922  26.014  1.00  0.00     0.170 HD
ATOM     17  O   UNL A   1      37.712  23.687  26.062  1.00  0.00    -0.269 OA
BRANCH  15  18
ATOM     18  C   UNL A   1      39.408  25.146  26.723  1.00  0.00     0.041 A 
ATOM     19  C   UNL A   1      39.008  25.858  27.874  1.00  0.00     0.015 A 
ATOM     20  C   UNL A   1      40.565  25.472  26.020  1.00  0.00     0.028 A 
ATOM     21  C   UNL A   1      39.922  26.723  28.497  1.00  0.00     0.015 A 
ATOM     22  C   UNL A   1      41.424  26.328  26.664  1.00  0.00     0.054 A 
ATOM     23  C   UNL A   1      41.167  26.858  27.904  1.00  0.00     0.053 A 
ATOM     24  C   UNL A   1      42.818  26.529  26.368  1.00  0.00     0.266 C 
ATOM     25  C   UNL A   1      42.463  27.274  28.455  1.00  0.00     0.266 C 
ATOM     26  O   UNL A   1      43.204  26.364  25.225  1.00  0.00    -0.268 OA
ATOM     27  N   UNL A   1      43.433  26.884  27.550  1.00  0.00    -0.242 N 
ATOM     28  O   UNL A   1      42.501  27.882  29.507  1.00  0.00    -0.268 OA
BRANCH  27  29
ATOM     29  C   UNL A   1      44.861  26.847  27.728  1.00  0.00     0.060 A 
ATOM     30  C   UNL A   1      45.418  25.688  28.329  1.00  0.00     0.027 A 
ATOM     31  C   UNL A   1      45.765  27.901  27.429  1.00  0.00     0.006 A 
ATOM     32  C   UNL A   1      46.778  25.519  28.562  1.00  0.00     0.002 A 
ATOM     33  C   UNL A   1      47.152  27.685  27.629  1.00  0.00     0.011 A 
ATOM     34  C   UNL A   1      47.644  26.508  28.171  1.00  0.00     0.001 A 
BRANCH  31  35
ATOM     35  C   UNL A   1      45.431  29.288  27.066  1.00  0.00    -0.016 A 
ATOM     36  C   UNL A   1      46.359  30.109  26.406  1.00  0.00     0.009 A 
ATOM     37  C   UNL A   1      44.243  29.875  27.534  1.00  0.00     0.009 A 
ATOM     38  C   UNL A   1      46.079  31.456  26.164  1.00  0.00     0.001 A 
ATOM     39  C   UNL A   1      43.971  31.228  27.308  1.00  0.00     0.001 A 
ATOM     40  C   UNL A   1      44.884  32.014  26.613  1.00  0.00     0.000 A 
ENDBRANCH  31  35
ENDBRANCH  27  29
ENDBRANCH  15  18
ENDBRANCH  12  14
ENDBRANCH   7   8
ENDBRANCH   6   7
ENDBRANCH   4   6
ENDBRANCH   3   4
ENDBRANCH   2   3
ENDBRANCH   1   2
BRANCH   1  41
ATOM     41  O   UNL A   1      49.023  27.299  25.087  1.00  0.00    -0.376 OA
BRANCH  41  42
ATOM     42  C   UNL A   1      50.265  27.763  24.567  1.00  0.00     0.188 C 
BRANCH  42  43
ATOM     43  C   UNL A   1      51.338  26.662  24.543  1.00  0.00     0.188 C 
BRANCH  43  44
ATOM     44  O   UNL A   1      52.206  26.507  25.660  1.00  0.00    -0.376 OA
BRANCH  44  45
ATOM     45  C   UNL A   1      53.101  27.555  25.995  1.00  0.00     0.202 C 
BRANCH  45  46
ATOM     46  C   UNL A   1      53.631  27.542  27.433  1.00  0.00     0.261 C 
BRANCH  46  47
ATOM     47  O   UNL A   1      52.605  27.740  28.428  1.00  0.00    -0.460 OA
BRANCH  47  48
ATOM     48  C   UNL A   1      52.729  28.854  29.189  1.00  0.00     0.338 C 
ATOM     49  O   UNL A   1      53.763  29.335  29.622  1.00  0.00    -0.246 OA
BRANCH  48  50
ATOM     50  C   UNL A   1      51.420  29.540  29.333  1.00  0.00     0.060 A 
ATOM     51  C   UNL A   1      51.129  30.146  30.563  1.00  0.00     0.016 A 
ATOM     52  C   UNL A   1      50.454  29.517  28.324  1.00  0.00     0.016 A 
ATOM     53  C   UNL A   1      49.856  30.668  30.815  1.00  0.00     0.010 A 
ATOM     54  C   UNL A   1      49.171  30.026  28.582  1.00  0.00     0.010 A 
ATOM     55  C   UNL A   1      48.850  30.563  29.845  1.00  0.00    -0.014 A 
BRANCH  55  56
ATOM     56  C   UNL A   1      47.428  30.790  30.226  1.00  0.00     0.031 A 
ATOM     57  C   UNL A   1      46.679  29.669  30.904  1.00  0.00     0.074 A 
ATOM     58  C   UNL A   1      46.799  31.959  30.004  1.00  0.00     0.049 A 
ATOM     59  N   UNL A   1      45.424  29.606  31.278  1.00  0.00    -0.248 NA
ATOM     60  C   UNL A   1      47.454  28.453  31.197  1.00  0.00     0.031 C 
ATOM     61  C   UNL A   1      47.394  33.148  29.400  1.00  0.00     0.029 A 
ATOM     62  N   UNL A   1      45.495  32.326  30.253  1.00  0.00    -0.354 N 
ATOM     63  C   UNL A   1      45.262  28.348  31.844  1.00  0.00     0.074 A 
ATOM     64  C   UNL A   1      46.536  27.668  31.740  1.00  0.00     0.031 C 
ATOM     65  C   UNL A   1      46.452  34.104  29.301  1.00  0.00     0.029 A 
ATOM     66  C   UNL A   1      45.181  33.587  29.809  1.00  0.00     0.049 A 
ATOM     67  H   UNL A   1      44.849  31.739  30.708  1.00  0.00     0.167 HD
ATOM     68  C   UNL A   1      44.158  27.804  32.412  1.00  0.00     0.037 A 
ATOM     69  C   UNL A   1      43.997  34.231  29.791  1.00  0.00     0.037 A 
ATOM     70  C   UNL A   1      42.885  28.462  32.530  1.00  0.00     0.049 A 
ATOM     71  C   UNL A   1      42.760  33.565  30.352  1.00  0.00     0.074 A 
ATOM     72  C   UNL A   1      41.719  27.987  33.110  1.00  0.00     0.029 A 
ATOM     73  N   UNL A   1      42.607  29.731  32.055  1.00  0.00    -0.354 N 
ATOM     74  N   UNL A   1      42.633  32.401  30.937  1.00  0.00    -0.248 NA
ATOM     75  C   UNL A   1      41.496  34.317  30.251  1.00  0.00     0.031 C 
ATOM     76  C   UNL A   1      40.721  28.953  32.942  1.00  0.00     0.029 A 
ATOM     77  C   UNL A   1      41.280  30.045  32.303  1.00  0.00     0.049 A 
ATOM     78  H   UNL A   1      43.255  30.323  31.609  1.00  0.00     0.167 HD
ATOM     79  C   UNL A   1      41.296  32.304  31.309  1.00  0.00     0.074 A 
ATOM     80  C   UNL A   1      40.653  33.532  30.901  1.00  0.00     0.031 C 
ATOM     81  C   UNL A   1      40.654  31.285  31.927  1.00  0.00     0.037 A 
BRANCH  68  82
ATOM     82  C   UNL A   1      44.271  26.405  32.937  1.00  0.00     0.064 A 
ATOM     83  C   UNL A   1      44.162  25.292  32.091  1.00  0.00     0.173 A 
ATOM     84  C   UNL A   1      44.540  26.177  34.295  1.00  0.00     0.173 A 
ATOM     85  F   UNL A   1      43.895  25.460  30.787  1.00  0.00    -0.203 F 
ATOM     86  C   UNL A   1      44.295  23.999  32.590  1.00  0.00     0.198 A 
ATOM     87  C   UNL A   1      44.698  24.885  34.785  1.00  0.00     0.198 A 
ATOM     88  F   UNL A   1      44.659  27.210  35.144  1.00  0.00    -0.203 F 
ATOM     89  F   UNL A   1      44.147  22.949  31.771  1.00  0.00    -0.200 F 
ATOM     90  C   UNL A   1      44.570  23.797  33.935  1.00  0.00     0.200 A 
ATOM     91  F   UNL A   1      44.976  24.691  36.082  1.00  0.00    -0.200 F 
ATOM     92  F   UNL A   1      44.706  22.552  34.411  1.00  0.00    -0.200 F 
ENDBRANCH  68  82
BRANCH  69  93
ATOM     93  C   UNL A   1      43.868  35.583  29.184  1.00  0.00     0.064 A 
ATOM     94  C   UNL A   1      44.111  36.735  29.946  1.00  0.00     0.173 A 
ATOM     95  C   UNL A   1      43.366  35.752  27.885  1.00  0.00     0.173 A 
ATOM     96  F   UNL A   1      44.592  36.627  31.194  1.00  0.00    -0.203 F 
ATOM     97  C   UNL A   1      43.778  37.996  29.462  1.00  0.00     0.198 A 
ATOM     98  C   UNL A   1      43.091  37.020  27.381  1.00  0.00     0.198 A 
ATOM     99  F   UNL A   1      43.118  34.683  27.115  1.00  0.00    -0.203 F 
ATOM    100  F   UNL A   1      43.972  39.078  30.229  1.00  0.00    -0.200 F 
ATOM    101  C   UNL A   1      43.270  38.138  28.179  1.00  0.00     0.200 A 
ATOM    102  F   UNL A   1      42.639  37.158  26.126  1.00  0.00    -0.200 F 
ATOM    103  F   UNL A   1      42.996  39.359  27.698  1.00  0.00    -0.200 F 
ENDBRANCH  69  93
BRANCH  81 104
ATOM    104  C   UNL A   1      39.201  31.472  32.257  1.00  0.00     0.064 A 
ATOM    105  C   UNL A   1      38.185  31.090  31.369  1.00  0.00     0.173 A 
ATOM    106  C   UNL A   1      38.820  32.015  33.494  1.00  0.00     0.173 A 
ATOM    107  F   UNL A   1      38.496  30.583  30.166  1.00  0.00    -0.203 F 
ATOM    108  C   UNL A   1      36.843  31.267  31.696  1.00  0.00     0.198 A 
ATOM    109  C   UNL A   1      37.477  32.164  33.830  1.00  0.00     0.198 A 
ATOM    110  F   UNL A   1      39.752  32.395  34.382  1.00  0.00    -0.203 F 
ATOM    111  F   UNL A   1      35.890  30.939  30.812  1.00  0.00    -0.200 F 
ATOM    112  C   UNL A   1      36.489  31.796  32.928  1.00  0.00     0.200 A 
ATOM    113  F   UNL A   1      37.138  32.665  35.026  1.00  0.00    -0.200 F 
ATOM    114  F   UNL A   1      35.198  31.960  33.243  1.00  0.00    -0.200 F 
ENDBRANCH  81 104
ENDBRANCH  55  56
ENDBRANCH  48  50
ENDBRANCH  47  48
ENDBRANCH  46  47
ENDBRANCH  45  46
ENDBRANCH  44  45
ENDBRANCH  43  44
ENDBRANCH  42  43
ENDBRANCH  41  42
ENDBRANCH   1  41
TORSDOF 23
ENDMDL
MODEL 2
REMARK VINA RESULT:      -7.2      3.243      9.058
REMARK SMILES O=C(COc1cccc(NC(=O)c2ccc3c(c2)C(=O)N(c2ccccc2-c2ccccc2)C3=O)c1)OCCOCCOCCOC(=O)c1ccc(-c2c3nc(c(-c4c(F)c(F)c(F)c(F)c4F)c4ccc([nH]4)c(-c4c(F)c(F)c(F)c(F)c4F)c4nc(c(-c5c(F)c(F)c(F)c(F)c5F)c5ccc2[nH]5)C=C4)C=C3)cc1
REMARK SMILES IDX 39 1 38 2 37 3 2 4 1 5 3 6 4 7 5 8 6 9 36 10 7 11 9 12 8 13
REMARK SMILES IDX 10 14 11 15 12 17 13 18 14 19 18 20 15 21 17 22 16 23 19 24
REMARK SMILES IDX 34 25 20 26 21 27 35 28 22 29 23 30 27 31 24 32 26 33 25 34
REMARK SMILES IDX 28 35 29 36 33 37 30 38 32 39 31 40 40 41 41 42 42 43 43 44
REMARK SMILES IDX 44 45 45 46 46 47 47 48 48 49 49 50 50 51 111 52 51 53
REMARK SMILES IDX 110 54 52 55 53 56 54 57 104 58 55 59 109 60 103 61 105 62
REMARK SMILES IDX 56 63 108 64 102 65 101 66 57 68 89 69 69 70 88 71 70 72
REMARK SMILES IDX 73 73 87 74 106 75 71 76 72 77 86 79 107 80 74 81 58 82
REMARK SMILES IDX 59 83 67 84 60 85 61 86 65 87 68 88 62 89 63 90 66 91 64 92
REMARK SMILES IDX 90 93 91 94 99 95 92 96 93 97 97 98 100 99 94 100 95 101
REMARK SMILES IDX 98 102 96 103 75 104 76 105 84 106 77 107 78 108 82 109
REMARK SMILES IDX 85 110 79 111 80 112 83 113 81 114
REMARK H PARENT 10 16 105 67 73 78
REMARK Flexibility Score: inf
ROOT
ATOM      1  C   UNL A   1      38.151  19.382  24.748  1.00  0.00     0.202 C 
ENDROOT
BRANCH   1   2
ATOM      2  C   UNL A   1      39.272  19.213  25.767  1.00  0.00     0.261 C 
BRANCH   2   3
ATOM      3  O   UNL A   1      40.545  19.794  25.390  1.00  0.00    -0.461 OA
BRANCH   3   4
ATOM      4  C   UNL A   1      41.564  20.191  26.178  1.00  0.00     0.344 C 
ATOM      5  O   UNL A   1      41.793  19.591  27.228  1.00  0.00    -0.248 OA
BRANCH   4   6
ATOM      6  C   UNL A   1      42.412  21.391  25.790  1.00  0.00     0.351 C 
BRANCH   6   7
ATOM      7  O   UNL A   1      43.722  21.516  26.296  1.00  0.00    -0.482 OA
BRANCH   7   8
ATOM      8  C   UNL A   1      44.130  22.798  26.533  1.00  0.00     0.122 A 
ATOM      9  C   UNL A   1      43.423  23.763  25.827  1.00  0.00     0.046 A 
ATOM     10  C   UNL A   1      45.217  23.157  27.343  1.00  0.00     0.072 A 
ATOM     11  C   UNL A   1      43.802  25.090  25.930  1.00  0.00     0.006 A 
ATOM     12  C   UNL A   1      45.583  24.494  27.487  1.00  0.00     0.045 A 
ATOM     13  C   UNL A   1      44.892  25.439  26.730  1.00  0.00     0.026 A 
BRANCH  12  14
ATOM     14  N   UNL A   1      46.674  24.792  28.338  1.00  0.00    -0.322 N 
ATOM     15  C   UNL A   1      46.706  25.242  29.652  1.00  0.00     0.255 C 
ATOM     16  H   UNL A   1      47.560  24.659  27.931  1.00  0.00     0.170 HD
ATOM     17  O   UNL A   1      47.748  25.586  30.197  1.00  0.00    -0.269 OA
BRANCH  15  18
ATOM     18  C   UNL A   1      45.486  25.079  30.464  1.00  0.00     0.041 A 
ATOM     19  C   UNL A   1      44.616  23.993  30.230  1.00  0.00     0.015 A 
ATOM     20  C   UNL A   1      45.466  25.796  31.659  1.00  0.00     0.028 A 
ATOM     21  C   UNL A   1      43.913  23.433  31.309  1.00  0.00     0.015 A 
ATOM     22  C   UNL A   1      44.758  25.213  32.682  1.00  0.00     0.054 A 
ATOM     23  C   UNL A   1      44.088  24.023  32.550  1.00  0.00     0.053 A 
ATOM     24  C   UNL A   1      44.876  25.512  34.085  1.00  0.00     0.266 C 
ATOM     25  C   UNL A   1      43.908  23.494  33.908  1.00  0.00     0.266 C 
ATOM     26  O   UNL A   1      45.209  26.634  34.420  1.00  0.00    -0.268 OA
ATOM     27  N   UNL A   1      44.563  24.356  34.769  1.00  0.00    -0.242 N 
ATOM     28  O   UNL A   1      43.239  22.493  34.080  1.00  0.00    -0.268 OA
BRANCH  27  29
ATOM     29  C   UNL A   1      44.882  24.162  36.159  1.00  0.00     0.060 A 
ATOM     30  C   UNL A   1      44.509  25.186  37.069  1.00  0.00     0.027 A 
ATOM     31  C   UNL A   1      45.611  23.069  36.701  1.00  0.00     0.006 A 
ATOM     32  C   UNL A   1      44.756  25.130  38.435  1.00  0.00     0.002 A 
ATOM     33  C   UNL A   1      45.806  23.010  38.104  1.00  0.00     0.011 A 
ATOM     34  C   UNL A   1      45.371  24.017  38.952  1.00  0.00     0.001 A 
BRANCH  31  35
ATOM     35  C   UNL A   1      46.344  22.030  35.960  1.00  0.00    -0.016 A 
ATOM     36  C   UNL A   1      47.483  22.345  35.203  1.00  0.00     0.009 A 
ATOM     37  C   UNL A   1      45.813  20.733  35.848  1.00  0.00     0.009 A 
ATOM     38  C   UNL A   1      48.108  21.378  34.412  1.00  0.00     0.001 A 
ATOM     39  C   UNL A   1      46.429  19.770  35.043  1.00  0.00     0.001 A 
ATOM     40  C   UNL A   1      47.583  20.091  34.335  1.00  0.00     0.000 A 
ENDBRANCH  31  35
ENDBRANCH  27  29
ENDBRANCH  15  18
ENDBRANCH  12  14
ENDBRANCH   7   8
ENDBRANCH   6   7
ENDBRANCH   4   6
ENDBRANCH   3   4
ENDBRANCH   2   3
ENDBRANCH   1   2
BRANCH   1  41
ATOM     41  O   UNL A   1      37.268  20.422  25.134  1.00  0.00    -0.376 OA
BRANCH  41  42
ATOM     42  C   UNL A   1      35.884  20.130  24.979  1.00  0.00     0.188 C 
BRANCH  42  43
ATOM     43  C   UNL A   1      34.992  21.350  25.262  1.00  0.00     0.188 C 
BRANCH  43  44
ATOM     44  O   UNL A   1      34.837  22.349  24.259  1.00  0.00    -0.376 OA
BRANCH  44  45
ATOM     45  C   UNL A   1      35.719  23.460  24.243  1.00  0.00     0.202 C 
BRANCH  45  46
ATOM     46  C   UNL A   1      36.454  23.744  25.557  1.00  0.00     0.261 C 
BRANCH  46  47
ATOM     47  O   UNL A   1      37.820  24.170  25.374  1.00  0.00    -0.460 OA
BRANCH  47  48
ATOM     48  C   UNL A   1      38.716  23.674  26.260  1.00  0.00     0.338 C 
ATOM     49  O   UNL A   1      38.987  22.499  26.449  1.00  0.00    -0.246 OA
BRANCH  48  50
ATOM     50  C   UNL A   1      39.471  24.772  26.914  1.00  0.00     0.060 A 
ATOM     51  C   UNL A   1      39.376  24.894  28.308  1.00  0.00     0.016 A 
ATOM     52  C   UNL A   1      40.186  25.723  26.182  1.00  0.00     0.016 A 
ATOM     53  C   UNL A   1      39.932  25.997  28.965  1.00  0.00     0.010 A 
ATOM     54  C   UNL A   1      40.730  26.838  26.839  1.00  0.00     0.010 A 
ATOM     55  C   UNL A   1      40.566  27.006  28.229  1.00  0.00    -0.014 A 
BRANCH  55  56
ATOM     56  C   UNL A   1      40.842  28.324  28.864  1.00  0.00     0.031 A 
ATOM     57  C   UNL A   1      42.258  28.638  29.279  1.00  0.00     0.074 A 
ATOM     58  C   UNL A   1      39.880  29.245  29.062  1.00  0.00     0.049 A 
ATOM     59  N   UNL A   1      42.735  29.690  29.899  1.00  0.00    -0.248 NA
ATOM     60  C   UNL A   1      43.272  27.624  28.950  1.00  0.00     0.031 C 
ATOM     61  C   UNL A   1      38.477  29.111  28.680  1.00  0.00     0.029 A 
ATOM     62  N   UNL A   1      39.948  30.484  29.660  1.00  0.00    -0.354 N 
ATOM     63  C   UNL A   1      44.099  29.462  30.036  1.00  0.00     0.074 A 
ATOM     64  C   UNL A   1      44.370  28.161  29.462  1.00  0.00     0.031 C 
ATOM     65  C   UNL A   1      37.810  30.212  29.075  1.00  0.00     0.029 A 
ATOM     66  C   UNL A   1      38.733  31.116  29.763  1.00  0.00     0.049 A 
ATOM     67  H   UNL A   1      40.790  30.879  29.982  1.00  0.00     0.167 HD
ATOM     68  C   UNL A   1      45.047  30.263  30.578  1.00  0.00     0.037 A 
ATOM     69  C   UNL A   1      38.406  32.275  30.368  1.00  0.00     0.037 A 
ATOM     70  C   UNL A   1      44.801  31.559  31.149  1.00  0.00     0.049 A 
ATOM     71  C   UNL A   1      39.472  33.108  31.045  1.00  0.00     0.074 A 
ATOM     72  C   UNL A   1      45.711  32.445  31.704  1.00  0.00     0.029 A 
ATOM     73  N   UNL A   1      43.556  32.154  31.246  1.00  0.00    -0.354 N 
ATOM     74  N   UNL A   1      40.765  32.909  31.115  1.00  0.00    -0.248 NA
ATOM     75  C   UNL A   1      39.025  34.336  31.724  1.00  0.00     0.031 C 
ATOM     76  C   UNL A   1      45.008  33.556  32.181  1.00  0.00     0.029 A 
ATOM     77  C   UNL A   1      43.670  33.383  31.878  1.00  0.00     0.049 A 
ATOM     78  H   UNL A   1      42.715  31.764  30.915  1.00  0.00     0.167 HD
ATOM     79  C   UNL A   1      41.282  34.002  31.802  1.00  0.00     0.074 A 
ATOM     80  C   UNL A   1      40.171  34.871  32.114  1.00  0.00     0.031 C 
ATOM     81  C   UNL A   1      42.565  34.261  32.152  1.00  0.00     0.037 A 
BRANCH  68  82
ATOM     82  C   UNL A   1      46.454  29.746  30.602  1.00  0.00     0.064 A 
ATOM     83  C   UNL A   1      47.315  29.912  29.507  1.00  0.00     0.173 A 
ATOM     84  C   UNL A   1      46.961  29.122  31.750  1.00  0.00     0.173 A 
ATOM     85  F   UNL A   1      46.871  30.493  28.382  1.00  0.00    -0.203 F 
ATOM     86  C   UNL A   1      48.627  29.449  29.553  1.00  0.00     0.198 A 
ATOM     87  C   UNL A   1      48.281  28.685  31.803  1.00  0.00     0.198 A 
ATOM     88  F   UNL A   1      46.178  28.946  32.826  1.00  0.00    -0.203 F 
ATOM     89  F   UNL A   1      49.420  29.581  28.482  1.00  0.00    -0.200 F 
ATOM     90  C   UNL A   1      49.111  28.843  30.703  1.00  0.00     0.200 A 
ATOM     91  F   UNL A   1      48.751  28.111  32.920  1.00  0.00    -0.200 F 
ATOM     92  F   UNL A   1      50.377  28.407  30.750  1.00  0.00    -0.200 F 
ENDBRANCH  68  82
BRANCH  69  93
ATOM     93  C   UNL A   1      36.994  32.739  30.424  1.00  0.00     0.064 A 
ATOM     94  C   UNL A   1      36.479  33.585  29.432  1.00  0.00     0.173 A 
ATOM     95  C   UNL A   1      36.183  32.465  31.536  1.00  0.00     0.173 A 
ATOM     96  F   UNL A   1      37.215  33.877  28.349  1.00  0.00    -0.203 F 
ATOM     97  C   UNL A   1      35.243  34.203  29.590  1.00  0.00     0.198 A 
ATOM     98  C   UNL A   1      34.920  33.037  31.662  1.00  0.00     0.198 A 
ATOM     99  F   UNL A   1      36.627  31.662  32.512  1.00  0.00    -0.203 F 
ATOM    100  F   UNL A   1      34.794  35.048  28.651  1.00  0.00    -0.200 F 
ATOM    101  C   UNL A   1      34.463  33.927  30.704  1.00  0.00     0.200 A 
ATOM    102  F   UNL A   1      34.152  32.738  32.719  1.00  0.00    -0.200 F 
ATOM    103  F   UNL A   1      33.252  34.488  30.829  1.00  0.00    -0.200 F 
ENDBRANCH  69  93
BRANCH  81 104
ATOM    104  C   UNL A   1      42.848  35.558  32.855  1.00  0.00     0.064 A 
ATOM    105  C   UNL A   1      42.624  35.719  34.230  1.00  0.00     0.173 A 
ATOM    106  C   UNL A   1      43.382  36.645  32.146  1.00  0.00     0.173 A 
ATOM    107  F   UNL A   1      42.097  34.716  34.950  1.00  0.00    -0.203 F 
ATOM    108  C   UNL A   1      42.899  36.928  34.864  1.00  0.00     0.198 A 
ATOM    109  C   UNL A   1      43.684  37.842  32.788  1.00  0.00     0.198 A 
ATOM    110  F   UNL A   1      43.619  36.543  30.829  1.00  0.00    -0.203 F 
ATOM    111  F   UNL A   1      42.630  37.075  36.169  1.00  0.00    -0.200 F 
ATOM    112  C   UNL A   1      43.436  37.986  34.146  1.00  0.00     0.200 A 
ATOM    113  F   UNL A   1      44.213  38.860  32.095  1.00  0.00    -0.200 F 
ATOM    114  F   UNL A   1      43.706  39.145  34.759  1.00  0.00    -0.200 F 
ENDBRANCH  81 104
ENDBRANCH  55  56
ENDBRANCH  48  50
ENDBRANCH  47  48
ENDBRANCH  46  47
ENDBRANCH  45  46
ENDBRANCH  44  45
ENDBRANCH  43  44
ENDBRANCH  42  43
ENDBRANCH  41  42
ENDBRANCH   1  41
TORSDOF 23
ENDMDL
MODEL 3
REMARK VINA RESULT:      -7.0      5.017     12.197
REMARK SMILES O=C(COc1cccc(NC(=O)c2ccc3c(c2)C(=O)N(c2ccccc2-c2ccccc2)C3=O)c1)OCCOCCOCCOC(=O)c1ccc(-c2c3nc(c(-c4c(F)c(F)c(F)c(F)c4F)c4ccc([nH]4)c(-c4c(F)c(F)c(F)c(F)c4F)c4nc(c(-c5c(F)c(F)c(F)c(F)c5F)c5ccc2[nH]5)C=C4)C=C3)cc1
REMARK SMILES IDX 39 1 38 2 37 3 2 4 1 5 3 6 4 7 5 8 6 9 36 10 7 11 9 12 8 13
REMARK SMILES IDX 10 14 11 15 12 17 13 18 14 19 18 20 15 21 17 22 16 23 19 24
REMARK SMILES IDX 34 25 20 26 21 27 35 28 22 29 23 30 27 31 24 32 26 33 25 34
REMARK SMILES IDX 28 35 29 36 33 37 30 38 32 39 31 40 40 41 41 42 42 43 43 44
REMARK SMILES IDX 44 45 45 46 46 47 47 48 48 49 49 50 50 51 111 52 51 53
REMARK SMILES IDX 110 54 52 55 53 56 54 57 104 58 55 59 109 60 103 61 105 62
REMARK SMILES IDX 56 63 108 64 102 65 101 66 57 68 89 69 69 70 88 71 70 72
REMARK SMILES IDX 73 73 87 74 106 75 71 76 72 77 86 79 107 80 74 81 58 82
REMARK SMILES IDX 59 83 67 84 60 85 61 86 65 87 68 88 62 89 63 90 66 91 64 92
REMARK SMILES IDX 90 93 91 94 99 95 92 96 93 97 97 98 100 99 94 100 95 101
REMARK SMILES IDX 98 102 96 103 75 104 76 105 84 106 77 107 78 108 82 109
REMARK SMILES IDX 85 110 79 111 80 112 83 113 81 114
REMARK H PARENT 10 16 105 67 73 78
REMARK Flexibility Score: inf
ROOT
ATOM      1  C   UNL A   1      38.846  32.811  37.715  1.00  0.00     0.202 C 
ENDROOT
BRANCH   1   2
ATOM      2  C   UNL A   1      37.659  32.702  36.764  1.00  0.00     0.261 C 
BRANCH   2   3
ATOM      3  O   UNL A   1      37.316  33.922  36.059  1.00  0.00    -0.461 OA
BRANCH   3   4
ATOM      4  C   UNL A   1      36.848  34.073  34.804  1.00  0.00     0.344 C 
ATOM      5  O   UNL A   1      37.620  33.991  33.850  1.00  0.00    -0.248 OA
BRANCH   4   6
ATOM      6  C   UNL A   1      35.377  34.373  34.566  1.00  0.00     0.351 C 
BRANCH   6   7
ATOM      7  O   UNL A   1      34.976  35.677  34.213  1.00  0.00    -0.482 OA
BRANCH   7   8
ATOM      8  C   UNL A   1      34.441  35.798  32.962  1.00  0.00     0.122 A 
ATOM      9  C   UNL A   1      33.908  37.051  32.686  1.00  0.00     0.046 A 
ATOM     10  C   UNL A   1      34.338  34.756  32.030  1.00  0.00     0.072 A 
ATOM     11  C   UNL A   1      33.271  37.264  31.476  1.00  0.00     0.006 A 
ATOM     12  C   UNL A   1      33.734  34.968  30.792  1.00  0.00     0.045 A 
ATOM     13  C   UNL A   1      33.162  36.218  30.557  1.00  0.00     0.026 A 
BRANCH  12  14
ATOM     14  N   UNL A   1      33.684  33.881  29.886  1.00  0.00    -0.322 N 
ATOM     15  C   UNL A   1      34.615  32.891  29.602  1.00  0.00     0.255 C 
ATOM     16  H   UNL A   1      32.848  33.817  29.370  1.00  0.00     0.170 HD
ATOM     17  O   UNL A   1      34.462  32.100  28.679  1.00  0.00    -0.269 OA
BRANCH  15  18
ATOM     18  C   UNL A   1      35.690  32.656  30.582  1.00  0.00     0.041 A 
ATOM     19  C   UNL A   1      35.471  31.806  31.687  1.00  0.00     0.015 A 
ATOM     20  C   UNL A   1      36.972  32.990  30.152  1.00  0.00     0.028 A 
ATOM     21  C   UNL A   1      36.542  31.050  32.193  1.00  0.00     0.015 A 
ATOM     22  C   UNL A   1      37.987  32.231  30.681  1.00  0.00     0.054 A 
ATOM     23  C   UNL A   1      37.777  31.226  31.592  1.00  0.00     0.053 A 
ATOM     24  C   UNL A   1      39.319  32.090  30.153  1.00  0.00     0.266 C 
ATOM     25  C   UNL A   1      38.956  30.353  31.527  1.00  0.00     0.266 C 
ATOM     26  O   UNL A   1      39.800  33.014  29.523  1.00  0.00    -0.268 OA
ATOM     27  N   UNL A   1      39.764  30.836  30.513  1.00  0.00    -0.242 N 
ATOM     28  O   UNL A   1      39.073  29.440  32.321  1.00  0.00    -0.268 OA
BRANCH  27  29
ATOM     29  C   UNL A   1      40.903  30.206  29.898  1.00  0.00     0.060 A 
ATOM     30  C   UNL A   1      40.670  29.044  29.117  1.00  0.00     0.027 A 
ATOM     31  C   UNL A   1      42.259  30.595  30.066  1.00  0.00     0.006 A 
ATOM     32  C   UNL A   1      41.676  28.337  28.469  1.00  0.00     0.002 A 
ATOM     33  C   UNL A   1      43.262  29.888  29.355  1.00  0.00     0.011 A 
ATOM     34  C   UNL A   1      42.968  28.790  28.561  1.00  0.00     0.001 A 
BRANCH  31  35
ATOM     35  C   UNL A   1      42.796  31.572  31.026  1.00  0.00    -0.016 A 
ATOM     36  C   UNL A   1      42.835  31.292  32.402  1.00  0.00     0.009 A 
ATOM     37  C   UNL A   1      43.112  32.876  30.608  1.00  0.00     0.009 A 
ATOM     38  C   UNL A   1      43.240  32.263  33.320  1.00  0.00     0.001 A 
ATOM     39  C   UNL A   1      43.499  33.854  31.529  1.00  0.00     0.001 A 
ATOM     40  C   UNL A   1      43.575  33.542  32.883  1.00  0.00     0.000 A 
ENDBRANCH  31  35
ENDBRANCH  27  29
ENDBRANCH  15  18
ENDBRANCH  12  14
ENDBRANCH   7   8
ENDBRANCH   6   7
ENDBRANCH   4   6
ENDBRANCH   3   4
ENDBRANCH   2   3
ENDBRANCH   1   2
BRANCH   1  41
ATOM     41  O   UNL A   1      39.810  33.725  37.220  1.00  0.00    -0.376 OA
BRANCH  41  42
ATOM     42  C   UNL A   1      41.109  33.601  37.788  1.00  0.00     0.188 C 
BRANCH  42  43
ATOM     43  C   UNL A   1      41.286  32.289  38.568  1.00  0.00     0.188 C 
BRANCH  43  44
ATOM     44  O   UNL A   1      42.274  31.354  38.148  1.00  0.00    -0.376 OA
BRANCH  44  45
ATOM     45  C   UNL A   1      42.478  31.134  36.761  1.00  0.00     0.202 C 
BRANCH  45  46
ATOM     46  C   UNL A   1      43.400  29.964  36.402  1.00  0.00     0.261 C 
BRANCH  46  47
ATOM     47  O   UNL A   1      42.966  28.700  36.945  1.00  0.00    -0.460 OA
BRANCH  47  48
ATOM     48  C   UNL A   1      41.984  28.069  36.255  1.00  0.00     0.338 C 
ATOM     49  O   UNL A   1      40.811  27.970  36.575  1.00  0.00    -0.246 OA
BRANCH  48  50
ATOM     50  C   UNL A   1      42.485  27.604  34.937  1.00  0.00     0.060 A 
ATOM     51  C   UNL A   1      43.646  26.818  34.917  1.00  0.00     0.016 A 
ATOM     52  C   UNL A   1      41.892  27.998  33.735  1.00  0.00     0.016 A 
ATOM     53  C   UNL A   1      44.256  26.482  33.703  1.00  0.00     0.010 A 
ATOM     54  C   UNL A   1      42.513  27.675  32.518  1.00  0.00     0.010 A 
ATOM     55  C   UNL A   1      43.724  26.955  32.496  1.00  0.00    -0.014 A 
BRANCH  55  56
ATOM     56  C   UNL A   1      44.545  26.903  31.255  1.00  0.00     0.031 A 
ATOM     57  C   UNL A   1      45.595  27.966  31.045  1.00  0.00     0.074 A 
ATOM     58  C   UNL A   1      44.394  25.937  30.329  1.00  0.00     0.049 A 
ATOM     59  N   UNL A   1      46.393  28.165  30.023  1.00  0.00    -0.248 NA
ATOM     60  C   UNL A   1      45.767  28.936  32.137  1.00  0.00     0.031 C 
ATOM     61  C   UNL A   1      43.457  24.820  30.405  1.00  0.00     0.029 A 
ATOM     62  N   UNL A   1      45.032  25.758  29.122  1.00  0.00    -0.354 N 
ATOM     63  C   UNL A   1      47.153  29.280  30.349  1.00  0.00     0.074 A 
ATOM     64  C   UNL A   1      46.705  29.734  31.649  1.00  0.00     0.031 C 
ATOM     65  C   UNL A   1      43.561  24.086  29.281  1.00  0.00     0.029 A 
ATOM     66  C   UNL A   1      44.553  24.696  28.395  1.00  0.00     0.049 A 
ATOM     67  H   UNL A   1      45.764  26.337  28.810  1.00  0.00     0.167 HD
ATOM     68  C   UNL A   1      48.145  29.873  29.642  1.00  0.00     0.037 A 
ATOM     69  C   UNL A   1      44.861  24.287  27.148  1.00  0.00     0.037 A 
ATOM     70  C   UNL A   1      48.610  29.438  28.352  1.00  0.00     0.049 A 
ATOM     71  C   UNL A   1      45.911  25.022  26.345  1.00  0.00     0.074 A 
ATOM     72  C   UNL A   1      49.624  29.972  27.574  1.00  0.00     0.029 A 
ATOM     73  N   UNL A   1      48.087  28.368  27.647  1.00  0.00    -0.354 N 
ATOM     74  N   UNL A   1      46.663  26.037  26.688  1.00  0.00    -0.248 NA
ATOM     75  C   UNL A   1      46.156  24.541  24.973  1.00  0.00     0.031 C 
ATOM     76  C   UNL A   1      49.683  29.254  26.375  1.00  0.00     0.029 A 
ATOM     77  C   UNL A   1      48.739  28.244  26.430  1.00  0.00     0.049 A 
ATOM     78  H   UNL A   1      47.362  27.782  27.962  1.00  0.00     0.167 HD
ATOM     79  C   UNL A   1      47.493  26.284  25.598  1.00  0.00     0.074 A 
ATOM     80  C   UNL A   1      47.167  25.304  24.588  1.00  0.00     0.031 C 
ATOM     81  C   UNL A   1      48.436  27.243  25.443  1.00  0.00     0.037 A 
BRANCH  68  82
ATOM     82  C   UNL A   1      48.790  31.085  30.242  1.00  0.00     0.064 A 
ATOM     83  C   UNL A   1      49.979  30.994  30.981  1.00  0.00     0.173 A 
ATOM     84  C   UNL A   1      48.239  32.358  30.034  1.00  0.00     0.173 A 
ATOM     85  F   UNL A   1      50.537  29.797  31.215  1.00  0.00    -0.203 F 
ATOM     86  C   UNL A   1      50.580  32.133  31.511  1.00  0.00     0.198 A 
ATOM     87  C   UNL A   1      48.857  33.497  30.542  1.00  0.00     0.198 A 
ATOM     88  F   UNL A   1      47.106  32.498  29.329  1.00  0.00    -0.203 F 
ATOM     89  F   UNL A   1      51.693  32.019  32.248  1.00  0.00    -0.200 F 
ATOM     90  C   UNL A   1      50.023  33.383  31.285  1.00  0.00     0.200 A 
ATOM     91  F   UNL A   1      48.325  34.705  30.313  1.00  0.00    -0.200 F 
ATOM     92  F   UNL A   1      50.608  34.479  31.787  1.00  0.00    -0.200 F 
ENDBRANCH  68  82
BRANCH  69  93
ATOM     93  C   UNL A   1      44.153  23.140  26.520  1.00  0.00     0.064 A 
ATOM     94  C   UNL A   1      42.760  23.161  26.359  1.00  0.00     0.173 A 
ATOM     95  C   UNL A   1      44.830  21.953  26.202  1.00  0.00     0.173 A 
ATOM     96  F   UNL A   1      42.066  24.272  26.649  1.00  0.00    -0.203 F 
ATOM     97  C   UNL A   1      42.066  22.016  25.985  1.00  0.00     0.198 A 
ATOM     98  C   UNL A   1      44.138  20.826  25.768  1.00  0.00     0.198 A 
ATOM     99  F   UNL A   1      46.161  21.881  26.336  1.00  0.00    -0.203 F 
ATOM    100  F   UNL A   1      40.729  22.047  25.888  1.00  0.00    -0.200 F 
ATOM    101  C   UNL A   1      42.756  20.849  25.688  1.00  0.00     0.200 A 
ATOM    102  F   UNL A   1      44.810  19.712  25.443  1.00  0.00    -0.200 F 
ATOM    103  F   UNL A   1      42.087  19.761  25.281  1.00  0.00    -0.200 F 
ENDBRANCH  69  93
BRANCH  81 104
ATOM    104  C   UNL A   1      49.226  27.245  24.166  1.00  0.00     0.064 A 
ATOM    105  C   UNL A   1      48.672  27.679  22.954  1.00  0.00     0.173 A 
ATOM    106  C   UNL A   1      50.569  26.835  24.164  1.00  0.00     0.173 A 
ATOM    107  F   UNL A   1      47.388  28.063  22.898  1.00  0.00    -0.203 F 
ATOM    108  C   UNL A   1      49.424  27.679  21.781  1.00  0.00     0.198 A 
ATOM    109  C   UNL A   1      51.326  26.864  22.997  1.00  0.00     0.198 A 
ATOM    110  F   UNL A   1      51.149  26.413  25.298  1.00  0.00    -0.203 F 
ATOM    111  F   UNL A   1      48.858  28.051  20.624  1.00  0.00    -0.200 F 
ATOM    112  C   UNL A   1      50.752  27.279  21.804  1.00  0.00     0.200 A 
ATOM    113  F   UNL A   1      52.612  26.488  23.023  1.00  0.00    -0.200 F 
ATOM    114  F   UNL A   1      51.475  27.286  20.677  1.00  0.00    -0.200 F 
ENDBRANCH  81 104
ENDBRANCH  55  56
ENDBRANCH  48  50
ENDBRANCH  47  48
ENDBRANCH  46  47
ENDBRANCH  45  46
ENDBRANCH  44  45
ENDBRANCH  43  44
ENDBRANCH  42  43
ENDBRANCH  41  42
ENDBRANCH   1  41
TORSDOF 23
ENDMDL
