MODEL 1
REMARK VINA RESULT:     -12.3      0.000      0.000
REMARK SMILES Cc1cc2cc(-c3ccc([C@@H](C)C(=O)OCCOCCOCCOC(=O)c4ccc(-c5c6nc(c(-c7c(F)c(F)c(F)c(F)c7F)c7ccc([nH]7)c(-c7c(F)c(F)c(F)c(F)c7F)c7nc(c(-c8c(F)c(F)c(F)c(F)c8F)c8ccc5[nH]8)C=C7)C=C6)cc4)cc3)ccc2[nH]1
REMARK SMILES IDX 19 1 18 2 17 3 16 4 15 5 13 6 14 7 11 8 12 9 10 10 7 11 8 12
REMARK SMILES IDX 91 13 9 14 90 15 6 16 1 17 2 18 3 19 95 20 4 21 94 22 5 24
REMARK SMILES IDX 93 25 92 26 20 27 21 28 22 29 23 30 24 31 25 32 26 33 27 34
REMARK SMILES IDX 28 35 89 36 29 37 88 38 30 39 31 40 32 41 82 42 33 43 87 44
REMARK SMILES IDX 81 45 83 46 34 47 86 48 80 49 79 50 35 52 67 53 47 54 66 55
REMARK SMILES IDX 48 56 51 57 65 58 84 59 49 60 50 61 64 63 85 64 52 65 36 66
REMARK SMILES IDX 37 67 45 68 38 69 39 70 43 71 46 72 40 73 41 74 44 75 42 76
REMARK SMILES IDX 68 77 69 78 77 79 70 80 71 81 75 82 78 83 72 84 73 85 76 86
REMARK SMILES IDX 74 87 53 88 54 89 62 90 55 91 56 92 60 93 63 94 57 95 58 96
REMARK SMILES IDX 61 97 59 98
REMARK H PARENT 95 23 83 51 51 62
REMARK Flexibility Score: inf
ROOT
ATOM      1  C   UNL A   1      38.519  21.805  25.837  1.00  0.00     0.188 C 
ENDROOT
BRANCH   1   2
ATOM      2  O   UNL A   1      38.067  20.682  25.089  1.00  0.00    -0.376 OA
BRANCH   2   3
ATOM      3  C   UNL A   1      36.691  20.583  24.741  1.00  0.00     0.202 C 
BRANCH   3   4
ATOM      4  C   UNL A   1      35.930  21.873  24.390  1.00  0.00     0.261 C 
BRANCH   4   5
ATOM      5  O   UNL A   1      34.503  21.851  24.626  1.00  0.00    -0.463 OA
BRANCH   5   6
ATOM      6  C   UNL A   1      34.045  22.610  25.655  1.00  0.00     0.313 C 
ATOM      7  O   UNL A   1      34.788  23.207  26.433  1.00  0.00    -0.252 OA
BRANCH   6   8
ATOM      8  C   UNL A   1      32.523  22.712  25.806  1.00  0.00     0.126 C 
ATOM      9  C   UNL A   1      31.897  21.392  25.361  1.00  0.00     0.025 C 
BRANCH   8  10
ATOM     10  C   UNL A   1      31.741  23.890  25.226  1.00  0.00    -0.034 A 
ATOM     11  C   UNL A   1      30.201  26.085  24.226  1.00  0.00    -0.018 A 
ATOM     12  C   UNL A   1      31.129  25.404  23.418  1.00  0.00     0.009 A 
ATOM     13  C   UNL A   1      30.063  25.656  25.550  1.00  0.00     0.009 A 
ATOM     14  C   UNL A   1      31.877  24.317  23.901  1.00  0.00     0.005 A 
ATOM     15  C   UNL A   1      30.811  24.573  26.040  1.00  0.00     0.005 A 
BRANCH  11  16
ATOM     16  C   UNL A   1      29.354  27.154  23.661  1.00  0.00    -0.018 A 
ATOM     17  C   UNL A   1      28.097  32.367  20.681  1.00  0.00     0.064 C 
ATOM     18  C   UNL A   1      28.335  31.091  21.399  1.00  0.00     0.013 A 
ATOM     19  C   UNL A   1      29.505  30.398  21.625  1.00  0.00     0.031 A 
ATOM     20  N   UNL A   1      27.318  30.375  21.988  1.00  0.00    -0.359 N 
ATOM     21  C   UNL A   1      29.191  29.240  22.384  1.00  0.00     0.000 A 
ATOM     22  C   UNL A   1      27.815  29.242  22.596  1.00  0.00     0.046 A 
ATOM     23  H   UNL A   1      26.368  30.636  21.976  1.00  0.00     0.166 HD
ATOM     24  C   UNL A   1      29.957  28.185  22.915  1.00  0.00     0.019 A 
ATOM     25  C   UNL A   1      27.169  28.228  23.316  1.00  0.00     0.027 A 
ATOM     26  C   UNL A   1      27.962  27.190  23.842  1.00  0.00     0.011 A 
ENDBRANCH  11  16
ENDBRANCH   8  10
ENDBRANCH   6   8
ENDBRANCH   5   6
ENDBRANCH   4   5
ENDBRANCH   3   4
ENDBRANCH   2   3
ENDBRANCH   1   2
BRANCH   1  27
ATOM     27  C   UNL A   1      39.889  21.753  26.529  1.00  0.00     0.188 C 
BRANCH  27  28
ATOM     28  O   UNL A   1      40.970  22.133  25.708  1.00  0.00    -0.376 OA
BRANCH  28  29
ATOM     29  C   UNL A   1      42.224  21.546  25.993  1.00  0.00     0.202 C 
BRANCH  29  30
ATOM     30  C   UNL A   1      43.414  22.172  25.253  1.00  0.00     0.261 C 
BRANCH  30  31
ATOM     31  O   UNL A   1      43.185  23.475  24.680  1.00  0.00    -0.460 OA
BRANCH  31  32
ATOM     32  C   UNL A   1      44.007  24.474  25.069  1.00  0.00     0.338 C 
ATOM     33  O   UNL A   1      45.121  24.726  24.630  1.00  0.00    -0.246 OA
BRANCH  32  34
ATOM     34  C   UNL A   1      43.255  25.360  25.985  1.00  0.00     0.060 A 
ATOM     35  C   UNL A   1      43.553  26.730  26.010  1.00  0.00     0.016 A 
ATOM     36  C   UNL A   1      42.268  24.842  26.828  1.00  0.00     0.016 A 
ATOM     37  C   UNL A   1      42.898  27.577  26.909  1.00  0.00     0.010 A 
ATOM     38  C   UNL A   1      41.627  25.687  27.741  1.00  0.00     0.010 A 
ATOM     39  C   UNL A   1      41.967  27.051  27.815  1.00  0.00    -0.014 A 
BRANCH  39  40
ATOM     40  C   UNL A   1      41.509  27.867  28.971  1.00  0.00     0.031 A 
ATOM     41  C   UNL A   1      42.252  27.736  30.274  1.00  0.00     0.074 A 
ATOM     42  C   UNL A   1      40.470  28.715  28.877  1.00  0.00     0.049 A 
ATOM     43  N   UNL A   1      42.009  28.289  31.436  1.00  0.00    -0.248 NA
ATOM     44  C   UNL A   1      43.431  26.854  30.264  1.00  0.00     0.031 C 
ATOM     45  C   UNL A   1      39.690  28.968  27.668  1.00  0.00     0.029 A 
ATOM     46  N   UNL A   1      39.886  29.514  29.829  1.00  0.00    -0.354 N 
ATOM     47  C   UNL A   1      42.993  27.812  32.293  1.00  0.00     0.074 A 
ATOM     48  C   UNL A   1      43.816  26.901  31.529  1.00  0.00     0.031 C 
ATOM     49  C   UNL A   1      38.718  29.851  27.956  1.00  0.00     0.029 A 
ATOM     50  C   UNL A   1      38.787  30.200  29.374  1.00  0.00     0.049 A 
ATOM     51  H   UNL A   1      40.224  29.589  30.751  1.00  0.00     0.167 HD
ATOM     52  C   UNL A   1      43.200  28.113  33.598  1.00  0.00     0.037 A 
ATOM     53  C   UNL A   1      37.922  30.997  30.036  1.00  0.00     0.037 A 
ATOM     54  C   UNL A   1      42.380  29.018  34.360  1.00  0.00     0.049 A 
ATOM     55  C   UNL A   1      38.131  31.262  31.508  1.00  0.00     0.074 A 
ATOM     56  C   UNL A   1      42.519  29.401  35.683  1.00  0.00     0.029 A 
ATOM     57  N   UNL A   1      41.262  29.676  33.870  1.00  0.00    -0.354 N 
ATOM     58  N   UNL A   1      39.077  30.829  32.305  1.00  0.00    -0.248 NA
ATOM     59  C   UNL A   1      37.149  32.135  32.169  1.00  0.00     0.031 C 
ATOM     60  C   UNL A   1      41.449  30.240  36.010  1.00  0.00     0.029 A 
ATOM     61  C   UNL A   1      40.686  30.441  34.871  1.00  0.00     0.049 A 
ATOM     62  H   UNL A   1      40.927  29.610  32.946  1.00  0.00     0.167 HD
ATOM     63  C   UNL A   1      38.829  31.407  33.546  1.00  0.00     0.074 A 
ATOM     64  C   UNL A   1      37.649  32.231  33.392  1.00  0.00     0.031 C 
ATOM     65  C   UNL A   1      39.518  31.270  34.707  1.00  0.00     0.037 A 
BRANCH  52  66
ATOM     66  C   UNL A   1      44.341  27.430  34.294  1.00  0.00     0.064 A 
ATOM     67  C   UNL A   1      45.635  27.972  34.306  1.00  0.00     0.173 A 
ATOM     68  C   UNL A   1      44.131  26.225  34.985  1.00  0.00     0.173 A 
ATOM     69  F   UNL A   1      45.896  29.113  33.650  1.00  0.00    -0.203 F 
ATOM     70  C   UNL A   1      46.681  27.321  34.956  1.00  0.00     0.198 A 
ATOM     71  C   UNL A   1      45.171  25.595  35.663  1.00  0.00     0.198 A 
ATOM     72  F   UNL A   1      42.913  25.663  35.009  1.00  0.00    -0.203 F 
ATOM     73  F   UNL A   1      47.920  27.831  34.908  1.00  0.00    -0.200 F 
ATOM     74  C   UNL A   1      46.446  26.138  35.640  1.00  0.00     0.200 A 
ATOM     75  F   UNL A   1      44.939  24.460  36.337  1.00  0.00    -0.200 F 
ATOM     76  F   UNL A   1      47.451  25.517  36.273  1.00  0.00    -0.200 F 
ENDBRANCH  52  66
BRANCH  53  77
ATOM     77  C   UNL A   1      36.766  31.603  29.320  1.00  0.00     0.064 A 
ATOM     78  C   UNL A   1      36.720  32.978  29.048  1.00  0.00     0.173 A 
ATOM     79  C   UNL A   1      35.666  30.825  28.926  1.00  0.00     0.173 A 
ATOM     80  F   UNL A   1      37.733  33.770  29.431  1.00  0.00    -0.203 F 
ATOM     81  C   UNL A   1      35.610  33.555  28.433  1.00  0.00     0.198 A 
ATOM     82  C   UNL A   1      34.572  31.399  28.281  1.00  0.00     0.198 A 
ATOM     83  F   UNL A   1      35.654  29.506  29.168  1.00  0.00    -0.203 F 
ATOM     84  F   UNL A   1      35.569  34.880  28.241  1.00  0.00    -0.200 F 
ATOM     85  C   UNL A   1      34.540  32.764  28.044  1.00  0.00     0.200 A 
ATOM     86  F   UNL A   1      33.544  30.629  27.899  1.00  0.00    -0.200 F 
ATOM     87  F   UNL A   1      33.473  33.320  27.454  1.00  0.00    -0.200 F 
ENDBRANCH  53  77
BRANCH  65  88
ATOM     88  C   UNL A   1      39.054  32.073  35.891  1.00  0.00     0.064 A 
ATOM     89  C   UNL A   1      39.411  33.419  36.066  1.00  0.00     0.173 A 
ATOM     90  C   UNL A   1      38.211  31.491  36.853  1.00  0.00     0.173 A 
ATOM     91  F   UNL A   1      40.221  34.023  35.184  1.00  0.00    -0.203 F 
ATOM     92  C   UNL A   1      38.973  34.138  37.177  1.00  0.00     0.198 A 
ATOM     93  C   UNL A   1      37.746  32.224  37.940  1.00  0.00     0.198 A 
ATOM     94  F   UNL A   1      37.830  30.211  36.731  1.00  0.00    -0.203 F 
ATOM     95  F   UNL A   1      39.377  35.404  37.354  1.00  0.00    -0.200 F 
ATOM     96  C   UNL A   1      38.137  33.542  38.108  1.00  0.00     0.200 A 
ATOM     97  F   UNL A   1      36.922  31.651  38.829  1.00  0.00    -0.200 F 
ATOM     98  F   UNL A   1      37.713  34.238  39.173  1.00  0.00    -0.200 F 
ENDBRANCH  65  88
ENDBRANCH  39  40
ENDBRANCH  32  34
ENDBRANCH  31  32
ENDBRANCH  30  31
ENDBRANCH  29  30
ENDBRANCH  28  29
ENDBRANCH  27  28
ENDBRANCH   1  27
TORSDOF 19
ENDMDL
MODEL 2
REMARK VINA RESULT:     -12.1      4.483      7.379
REMARK SMILES Cc1cc2cc(-c3ccc([C@@H](C)C(=O)OCCOCCOCCOC(=O)c4ccc(-c5c6nc(c(-c7c(F)c(F)c(F)c(F)c7F)c7ccc([nH]7)c(-c7c(F)c(F)c(F)c(F)c7F)c7nc(c(-c8c(F)c(F)c(F)c(F)c8F)c8ccc5[nH]8)C=C7)C=C6)cc4)cc3)ccc2[nH]1
REMARK SMILES IDX 19 1 18 2 17 3 16 4 15 5 13 6 14 7 11 8 12 9 10 10 7 11 8 12
REMARK SMILES IDX 91 13 9 14 90 15 6 16 1 17 2 18 3 19 95 20 4 21 94 22 5 24
REMARK SMILES IDX 93 25 92 26 20 27 21 28 22 29 23 30 24 31 25 32 26 33 27 34
REMARK SMILES IDX 28 35 89 36 29 37 88 38 30 39 31 40 32 41 82 42 33 43 87 44
REMARK SMILES IDX 81 45 83 46 34 47 86 48 80 49 79 50 35 52 67 53 47 54 66 55
REMARK SMILES IDX 48 56 51 57 65 58 84 59 49 60 50 61 64 63 85 64 52 65 36 66
REMARK SMILES IDX 37 67 45 68 38 69 39 70 43 71 46 72 40 73 41 74 44 75 42 76
REMARK SMILES IDX 68 77 69 78 77 79 70 80 71 81 75 82 78 83 72 84 73 85 76 86
REMARK SMILES IDX 74 87 53 88 54 89 62 90 55 91 56 92 60 93 63 94 57 95 58 96
REMARK SMILES IDX 61 97 59 98
REMARK H PARENT 95 23 83 51 51 62
REMARK Flexibility Score: inf
ROOT
ATOM      1  C   UNL A   1      34.972  20.736  24.920  1.00  0.00     0.188 C 
ENDROOT
BRANCH   1   2
ATOM      2  O   UNL A   1      33.935  21.514  24.333  1.00  0.00    -0.376 OA
BRANCH   2   3
ATOM      3  C   UNL A   1      34.276  22.618  23.503  1.00  0.00     0.202 C 
BRANCH   3   4
ATOM      4  C   UNL A   1      33.196  23.195  22.570  1.00  0.00     0.261 C 
BRANCH   4   5
ATOM      5  O   UNL A   1      32.538  24.398  23.029  1.00  0.00    -0.463 OA
BRANCH   5   6
ATOM      6  C   UNL A   1      31.500  24.234  23.888  1.00  0.00     0.313 C 
ATOM      7  O   UNL A   1      30.390  23.839  23.534  1.00  0.00    -0.252 OA
BRANCH   6   8
ATOM      8  C   UNL A   1      31.773  24.552  25.363  1.00  0.00     0.126 C 
ATOM      9  C   UNL A   1      30.559  24.132  26.188  1.00  0.00     0.025 C 
BRANCH   8  10
ATOM     10  C   UNL A   1      32.262  25.931  25.804  1.00  0.00    -0.034 A 
ATOM     11  C   UNL A   1      33.285  28.477  26.619  1.00  0.00    -0.018 A 
ATOM     12  C   UNL A   1      31.960  28.090  26.891  1.00  0.00     0.009 A 
ATOM     13  C   UNL A   1      34.090  27.570  25.921  1.00  0.00     0.009 A 
ATOM     14  C   UNL A   1      31.458  26.836  26.505  1.00  0.00     0.005 A 
ATOM     15  C   UNL A   1      33.592  26.317  25.529  1.00  0.00     0.005 A 
BRANCH  11  16
ATOM     16  C   UNL A   1      33.815  29.756  27.130  1.00  0.00    -0.018 A 
ATOM     17  C   UNL A   1      33.691  35.691  28.682  1.00  0.00     0.064 C 
ATOM     18  C   UNL A   1      33.780  34.250  28.339  1.00  0.00     0.013 A 
ATOM     19  C   UNL A   1      32.813  33.378  27.886  1.00  0.00     0.031 A 
ATOM     20  N   UNL A   1      34.954  33.539  28.440  1.00  0.00    -0.359 N 
ATOM     21  C   UNL A   1      33.421  32.110  27.691  1.00  0.00     0.000 A 
ATOM     22  C   UNL A   1      34.761  32.231  28.048  1.00  0.00     0.046 A 
ATOM     23  H   UNL A   1      35.812  33.912  28.748  1.00  0.00     0.166 HD
ATOM     24  C   UNL A   1      32.950  30.863  27.237  1.00  0.00     0.019 A 
ATOM     25  C   UNL A   1      35.653  31.154  27.976  1.00  0.00     0.027 A 
ATOM     26  C   UNL A   1      35.156  29.920  27.512  1.00  0.00     0.011 A 
ENDBRANCH  11  16
ENDBRANCH   8  10
ENDBRANCH   6   8
ENDBRANCH   5   6
ENDBRANCH   4   5
ENDBRANCH   3   4
ENDBRANCH   2   3
ENDBRANCH   1   2
BRANCH   1  27
ATOM     27  C   UNL A   1      36.027  21.421  25.800  1.00  0.00     0.188 C 
BRANCH  27  28
ATOM     28  O   UNL A   1      37.345  21.327  25.308  1.00  0.00    -0.376 OA
BRANCH  28  29
ATOM     29  C   UNL A   1      37.787  20.044  24.911  1.00  0.00     0.202 C 
BRANCH  29  30
ATOM     30  C   UNL A   1      39.020  19.524  25.663  1.00  0.00     0.261 C 
BRANCH  30  31
ATOM     31  O   UNL A   1      40.130  20.438  25.762  1.00  0.00    -0.460 OA
BRANCH  31  32
ATOM     32  C   UNL A   1      40.794  20.479  26.937  1.00  0.00     0.338 C 
ATOM     33  O   UNL A   1      41.318  19.540  27.522  1.00  0.00    -0.246 OA
BRANCH  32  34
ATOM     34  C   UNL A   1      40.972  21.898  27.318  1.00  0.00     0.060 A 
ATOM     35  C   UNL A   1      40.327  22.894  26.570  1.00  0.00     0.016 A 
ATOM     36  C   UNL A   1      41.782  22.249  28.401  1.00  0.00     0.016 A 
ATOM     37  C   UNL A   1      40.528  24.243  26.874  1.00  0.00     0.010 A 
ATOM     38  C   UNL A   1      41.997  23.601  28.692  1.00  0.00     0.010 A 
ATOM     39  C   UNL A   1      41.404  24.606  27.905  1.00  0.00    -0.014 A 
BRANCH  39  40
ATOM     40  C   UNL A   1      41.868  26.014  28.029  1.00  0.00     0.031 A 
ATOM     41  C   UNL A   1      43.173  26.392  27.380  1.00  0.00     0.074 A 
ATOM     42  C   UNL A   1      41.154  26.944  28.685  1.00  0.00     0.049 A 
ATOM     43  N   UNL A   1      43.819  27.532  27.399  1.00  0.00    -0.248 NA
ATOM     44  C   UNL A   1      43.845  25.336  26.606  1.00  0.00     0.031 C 
ATOM     45  C   UNL A   1      39.859  26.724  29.323  1.00  0.00     0.029 A 
ATOM     46  N   UNL A   1      41.431  28.267  28.932  1.00  0.00    -0.354 N 
ATOM     47  C   UNL A   1      44.973  27.323  26.655  1.00  0.00     0.074 A 
ATOM     48  C   UNL A   1      44.957  25.943  26.226  1.00  0.00     0.031 C 
ATOM     49  C   UNL A   1      39.459  27.869  29.903  1.00  0.00     0.029 A 
ATOM     50  C   UNL A   1      40.485  28.893  29.706  1.00  0.00     0.049 A 
ATOM     51  H   UNL A   1      42.233  28.723  28.587  1.00  0.00     0.167 HD
ATOM     52  C   UNL A   1      45.954  28.206  26.348  1.00  0.00     0.037 A 
ATOM     53  C   UNL A   1      40.464  30.142  30.216  1.00  0.00     0.037 A 
ATOM     54  C   UNL A   1      45.972  29.580  26.776  1.00  0.00     0.049 A 
ATOM     55  C   UNL A   1      41.604  31.087  29.919  1.00  0.00     0.074 A 
ATOM     56  C   UNL A   1      46.914  30.556  26.501  1.00  0.00     0.029 A 
ATOM     57  N   UNL A   1      45.006  30.171  27.577  1.00  0.00    -0.354 N 
ATOM     58  N   UNL A   1      42.679  30.891  29.194  1.00  0.00    -0.248 NA
ATOM     59  C   UNL A   1      41.521  32.431  30.510  1.00  0.00     0.031 C 
ATOM     60  C   UNL A   1      46.551  31.719  27.189  1.00  0.00     0.029 A 
ATOM     61  C   UNL A   1      45.344  31.491  27.829  1.00  0.00     0.049 A 
ATOM     62  H   UNL A   1      44.200  29.719  27.917  1.00  0.00     0.167 HD
ATOM     63  C   UNL A   1      43.376  32.094  29.209  1.00  0.00     0.074 A 
ATOM     64  C   UNL A   1      42.597  33.018  30.005  1.00  0.00     0.031 C 
ATOM     65  C   UNL A   1      44.555  32.408  28.613  1.00  0.00     0.037 A 
BRANCH  52  66
ATOM     66  C   UNL A   1      47.110  27.700  25.533  1.00  0.00     0.064 A 
ATOM     67  C   UNL A   1      47.144  27.823  24.135  1.00  0.00     0.173 A 
ATOM     68  C   UNL A   1      48.216  27.107  26.163  1.00  0.00     0.173 A 
ATOM     69  F   UNL A   1      46.107  28.368  23.480  1.00  0.00    -0.203 F 
ATOM     70  C   UNL A   1      48.224  27.346  23.398  1.00  0.00     0.198 A 
ATOM     71  C   UNL A   1      49.310  26.663  25.426  1.00  0.00     0.198 A 
ATOM     72  F   UNL A   1      48.238  26.966  27.497  1.00  0.00    -0.203 F 
ATOM     73  F   UNL A   1      48.209  27.426  22.060  1.00  0.00    -0.200 F 
ATOM     74  C   UNL A   1      49.309  26.773  24.044  1.00  0.00     0.200 A 
ATOM     75  F   UNL A   1      50.364  26.123  26.054  1.00  0.00    -0.200 F 
ATOM     76  F   UNL A   1      50.352  26.322  23.335  1.00  0.00    -0.200 F 
ENDBRANCH  52  66
BRANCH  53  77
ATOM     77  C   UNL A   1      39.328  30.581  31.073  1.00  0.00     0.064 A 
ATOM     78  C   UNL A   1      38.314  31.407  30.567  1.00  0.00     0.173 A 
ATOM     79  C   UNL A   1      39.253  30.214  32.426  1.00  0.00     0.173 A 
ATOM     80  F   UNL A   1      38.356  31.811  29.288  1.00  0.00    -0.203 F 
ATOM     81  C   UNL A   1      37.285  31.868  31.385  1.00  0.00     0.198 A 
ATOM     82  C   UNL A   1      38.205  30.649  33.233  1.00  0.00     0.198 A 
ATOM     83  F   UNL A   1      40.201  29.432  32.963  1.00  0.00    -0.203 F 
ATOM     84  F   UNL A   1      36.363  32.705  30.889  1.00  0.00    -0.200 F 
ATOM     85  C   UNL A   1      37.227  31.484  32.715  1.00  0.00     0.200 A 
ATOM     86  F   UNL A   1      38.148  30.267  34.516  1.00  0.00    -0.200 F 
ATOM     87  F   UNL A   1      36.237  31.929  33.502  1.00  0.00    -0.200 F 
ENDBRANCH  53  77
BRANCH  65  88
ATOM     88  C   UNL A   1      45.048  33.823  28.746  1.00  0.00     0.064 A 
ATOM     89  C   UNL A   1      45.901  34.221  29.787  1.00  0.00     0.173 A 
ATOM     90  C   UNL A   1      44.684  34.790  27.795  1.00  0.00     0.173 A 
ATOM     91  F   UNL A   1      46.274  33.341  30.729  1.00  0.00    -0.203 F 
ATOM     92  C   UNL A   1      46.337  35.540  29.892  1.00  0.00     0.198 A 
ATOM     93  C   UNL A   1      45.153  36.098  27.882  1.00  0.00     0.198 A 
ATOM     94  F   UNL A   1      43.880  34.463  26.772  1.00  0.00    -0.203 F 
ATOM     95  F   UNL A   1      47.101  35.911  30.930  1.00  0.00    -0.200 F 
ATOM     96  C   UNL A   1      45.968  36.475  28.936  1.00  0.00     0.200 A 
ATOM     97  F   UNL A   1      44.810  36.994  26.946  1.00  0.00    -0.200 F 
ATOM     98  F   UNL A   1      46.393  37.742  29.036  1.00  0.00    -0.200 F 
ENDBRANCH  65  88
ENDBRANCH  39  40
ENDBRANCH  32  34
ENDBRANCH  31  32
ENDBRANCH  30  31
ENDBRANCH  29  30
ENDBRANCH  28  29
ENDBRANCH  27  28
ENDBRANCH   1  27
TORSDOF 19
ENDMDL
MODEL 3
REMARK VINA RESULT:     -12.0      3.931      8.854
REMARK SMILES Cc1cc2cc(-c3ccc([C@@H](C)C(=O)OCCOCCOCCOC(=O)c4ccc(-c5c6nc(c(-c7c(F)c(F)c(F)c(F)c7F)c7ccc([nH]7)c(-c7c(F)c(F)c(F)c(F)c7F)c7nc(c(-c8c(F)c(F)c(F)c(F)c8F)c8ccc5[nH]8)C=C7)C=C6)cc4)cc3)ccc2[nH]1
REMARK SMILES IDX 19 1 18 2 17 3 16 4 15 5 13 6 14 7 11 8 12 9 10 10 7 11 8 12
REMARK SMILES IDX 91 13 9 14 90 15 6 16 1 17 2 18 3 19 95 20 4 21 94 22 5 24
REMARK SMILES IDX 93 25 92 26 20 27 21 28 22 29 23 30 24 31 25 32 26 33 27 34
REMARK SMILES IDX 28 35 89 36 29 37 88 38 30 39 31 40 32 41 82 42 33 43 87 44
REMARK SMILES IDX 81 45 83 46 34 47 86 48 80 49 79 50 35 52 67 53 47 54 66 55
REMARK SMILES IDX 48 56 51 57 65 58 84 59 49 60 50 61 64 63 85 64 52 65 36 66
REMARK SMILES IDX 37 67 45 68 38 69 39 70 43 71 46 72 40 73 41 74 44 75 42 76
REMARK SMILES IDX 68 77 69 78 77 79 70 80 71 81 75 82 78 83 72 84 73 85 76 86
REMARK SMILES IDX 74 87 53 88 54 89 62 90 55 91 56 92 60 93 63 94 57 95 58 96
REMARK SMILES IDX 61 97 59 98
REMARK H PARENT 95 23 83 51 51 62
REMARK Flexibility Score: inf
ROOT
ATOM      1  C   UNL A   1      33.380  27.220  25.544  1.00  0.00     0.188 C 
ENDROOT
BRANCH   1   2
ATOM      2  O   UNL A   1      34.264  26.300  24.913  1.00  0.00    -0.376 OA
BRANCH   2   3
ATOM      3  C   UNL A   1      34.604  25.091  25.581  1.00  0.00     0.202 C 
BRANCH   3   4
ATOM      4  C   UNL A   1      35.345  24.000  24.788  1.00  0.00     0.261 C 
BRANCH   4   5
ATOM      5  O   UNL A   1      34.589  22.801  24.499  1.00  0.00    -0.463 OA
BRANCH   5   6
ATOM      6  C   UNL A   1      34.005  22.180  25.556  1.00  0.00     0.313 C 
ATOM      7  O   UNL A   1      34.641  21.742  26.513  1.00  0.00    -0.252 OA
BRANCH   6   8
ATOM      8  C   UNL A   1      32.477  22.057  25.519  1.00  0.00     0.126 C 
ATOM      9  C   UNL A   1      32.107  20.800  24.734  1.00  0.00     0.025 C 
BRANCH   8  10
ATOM     10  C   UNL A   1      31.592  23.227  25.094  1.00  0.00    -0.034 A 
ATOM     11  C   UNL A   1      29.973  25.408  24.192  1.00  0.00    -0.018 A 
ATOM     12  C   UNL A   1      30.279  25.227  25.552  1.00  0.00     0.009 A 
ATOM     13  C   UNL A   1      30.483  24.471  23.287  1.00  0.00     0.009 A 
ATOM     14  C   UNL A   1      31.085  24.166  25.998  1.00  0.00     0.005 A 
ATOM     15  C   UNL A   1      31.285  23.405  23.728  1.00  0.00     0.005 A 
BRANCH  11  16
ATOM     16  C   UNL A   1      29.213  26.591  23.742  1.00  0.00    -0.018 A 
ATOM     17  C   UNL A   1      28.358  32.103  21.186  1.00  0.00     0.064 C 
ATOM     18  C   UNL A   1      28.498  30.761  21.804  1.00  0.00     0.013 A 
ATOM     19  C   UNL A   1      29.602  29.944  21.925  1.00  0.00     0.031 A 
ATOM     20  N   UNL A   1      27.440  30.106  22.391  1.00  0.00    -0.359 N 
ATOM     21  C   UNL A   1      29.206  28.770  22.618  1.00  0.00     0.000 A 
ATOM     22  C   UNL A   1      27.847  28.889  22.896  1.00  0.00     0.046 A 
ATOM     23  H   UNL A   1      26.521  30.456  22.442  1.00  0.00     0.166 HD
ATOM     24  C   UNL A   1      29.885  27.611  23.039  1.00  0.00     0.019 A 
ATOM     25  C   UNL A   1      27.134  27.893  23.576  1.00  0.00     0.027 A 
ATOM     26  C   UNL A   1      27.840  26.747  23.991  1.00  0.00     0.011 A 
ENDBRANCH  11  16
ENDBRANCH   8  10
ENDBRANCH   6   8
ENDBRANCH   5   6
ENDBRANCH   4   5
ENDBRANCH   3   4
ENDBRANCH   2   3
ENDBRANCH   1   2
BRANCH   1  27
ATOM     27  C   UNL A   1      33.105  28.579  24.883  1.00  0.00     0.188 C 
BRANCH  27  28
ATOM     28  O   UNL A   1      31.929  29.216  25.330  1.00  0.00    -0.376 OA
BRANCH  28  29
ATOM     29  C   UNL A   1      32.087  30.454  25.993  1.00  0.00     0.202 C 
BRANCH  29  30
ATOM     30  C   UNL A   1      32.892  30.390  27.298  1.00  0.00     0.261 C 
BRANCH  30  31
ATOM     31  O   UNL A   1      34.242  30.889  27.230  1.00  0.00    -0.460 OA
BRANCH  31  32
ATOM     32  C   UNL A   1      34.817  31.275  28.390  1.00  0.00     0.338 C 
ATOM     33  O   UNL A   1      34.334  32.004  29.246  1.00  0.00    -0.246 OA
BRANCH  32  34
ATOM     34  C   UNL A   1      36.067  30.501  28.566  1.00  0.00     0.060 A 
ATOM     35  C   UNL A   1      36.323  29.886  29.799  1.00  0.00     0.016 A 
ATOM     36  C   UNL A   1      36.991  30.394  27.523  1.00  0.00     0.016 A 
ATOM     37  C   UNL A   1      37.524  29.201  30.008  1.00  0.00     0.010 A 
ATOM     38  C   UNL A   1      38.201  29.724  27.740  1.00  0.00     0.010 A 
ATOM     39  C   UNL A   1      38.491  29.159  28.995  1.00  0.00    -0.014 A 
BRANCH  39  40
ATOM     40  C   UNL A   1      39.877  28.720  29.307  1.00  0.00     0.031 A 
ATOM     41  C   UNL A   1      40.741  29.626  30.143  1.00  0.00     0.074 A 
ATOM     42  C   UNL A   1      40.366  27.543  28.876  1.00  0.00     0.049 A 
ATOM     43  N   UNL A   1      41.996  29.498  30.495  1.00  0.00    -0.248 NA
ATOM     44  C   UNL A   1      40.099  30.851  30.648  1.00  0.00     0.031 C 
ATOM     45  C   UNL A   1      39.627  26.555  28.094  1.00  0.00     0.029 A 
ATOM     46  N   UNL A   1      41.613  26.989  29.029  1.00  0.00    -0.354 N 
ATOM     47  C   UNL A   1      42.293  30.627  31.248  1.00  0.00     0.074 A 
ATOM     48  C   UNL A   1      41.101  31.445  31.275  1.00  0.00     0.031 C 
ATOM     49  C   UNL A   1      40.441  25.520  27.823  1.00  0.00     0.029 A 
ATOM     50  C   UNL A   1      41.766  25.788  28.382  1.00  0.00     0.049 A 
ATOM     51  H   UNL A   1      42.331  27.413  29.554  1.00  0.00     0.167 HD
ATOM     52  C   UNL A   1      43.453  30.950  31.870  1.00  0.00     0.037 A 
ATOM     53  C   UNL A   1      42.857  25.008  28.238  1.00  0.00     0.037 A 
ATOM     54  C   UNL A   1      44.641  30.138  31.843  1.00  0.00     0.049 A 
ATOM     55  C   UNL A   1      44.159  25.424  28.881  1.00  0.00     0.074 A 
ATOM     56  C   UNL A   1      45.860  30.372  32.456  1.00  0.00     0.029 A 
ATOM     57  N   UNL A   1      44.762  28.938  31.157  1.00  0.00    -0.354 N 
ATOM     58  N   UNL A   1      44.426  26.478  29.612  1.00  0.00    -0.248 NA
ATOM     59  C   UNL A   1      45.311  24.532  28.680  1.00  0.00     0.031 C 
ATOM     60  C   UNL A   1      46.737  29.346  32.089  1.00  0.00     0.029 A 
ATOM     61  C   UNL A   1      46.044  28.434  31.310  1.00  0.00     0.049 A 
ATOM     62  H   UNL A   1      44.045  28.508  30.638  1.00  0.00     0.167 HD
ATOM     63  C   UNL A   1      45.759  26.357  29.990  1.00  0.00     0.074 A 
ATOM     64  C   UNL A   1      46.243  25.118  29.418  1.00  0.00     0.031 C 
ATOM     65  C   UNL A   1      46.514  27.193  30.747  1.00  0.00     0.037 A 
BRANCH  52  66
ATOM     66  C   UNL A   1      43.502  32.257  32.608  1.00  0.00     0.064 A 
ATOM     67  C   UNL A   1      43.219  32.347  33.980  1.00  0.00     0.173 A 
ATOM     68  C   UNL A   1      43.866  33.436  31.938  1.00  0.00     0.173 A 
ATOM     69  F   UNL A   1      42.851  31.254  34.666  1.00  0.00    -0.203 F 
ATOM     70  C   UNL A   1      43.269  33.570  34.645  1.00  0.00     0.198 A 
ATOM     71  C   UNL A   1      43.949  34.651  32.613  1.00  0.00     0.198 A 
ATOM     72  F   UNL A   1      44.150  33.408  30.627  1.00  0.00    -0.203 F 
ATOM     73  F   UNL A   1      42.941  33.638  35.943  1.00  0.00    -0.200 F 
ATOM     74  C   UNL A   1      43.641  34.718  33.963  1.00  0.00     0.200 A 
ATOM     75  F   UNL A   1      44.324  35.757  31.956  1.00  0.00    -0.200 F 
ATOM     76  F   UNL A   1      43.697  35.892  34.606  1.00  0.00    -0.200 F 
ENDBRANCH  52  66
BRANCH  53  77
ATOM     77  C   UNL A   1      42.779  23.752  27.443  1.00  0.00     0.064 A 
ATOM     78  C   UNL A   1      42.342  22.552  28.023  1.00  0.00     0.173 A 
ATOM     79  C   UNL A   1      43.177  23.716  26.097  1.00  0.00     0.173 A 
ATOM     80  F   UNL A   1      41.980  22.526  29.314  1.00  0.00    -0.203 F 
ATOM     81  C   UNL A   1      42.328  21.363  27.296  1.00  0.00     0.198 A 
ATOM     82  C   UNL A   1      43.130  22.533  25.363  1.00  0.00     0.198 A 
ATOM     83  F   UNL A   1      43.611  24.834  25.496  1.00  0.00    -0.203 F 
ATOM     84  F   UNL A   1      41.962  20.221  27.893  1.00  0.00    -0.200 F 
ATOM     85  C   UNL A   1      42.716  21.356  25.965  1.00  0.00     0.200 A 
ATOM     86  F   UNL A   1      43.498  22.533  24.075  1.00  0.00    -0.200 F 
ATOM     87  F   UNL A   1      42.703  20.212  25.267  1.00  0.00    -0.200 F 
ENDBRANCH  53  77
BRANCH  65  88
ATOM     88  C   UNL A   1      47.925  26.772  31.054  1.00  0.00     0.064 A 
ATOM     89  C   UNL A   1      48.234  25.921  32.125  1.00  0.00     0.173 A 
ATOM     90  C   UNL A   1      48.984  27.207  30.239  1.00  0.00     0.173 A 
ATOM     91  F   UNL A   1      47.264  25.482  32.941  1.00  0.00    -0.203 F 
ATOM     92  C   UNL A   1      49.551  25.552  32.392  1.00  0.00     0.198 A 
ATOM     93  C   UNL A   1      50.294  26.806  30.487  1.00  0.00     0.198 A 
ATOM     94  F   UNL A   1      48.747  28.014  29.195  1.00  0.00    -0.203 F 
ATOM     95  F   UNL A   1      49.828  24.787  33.457  1.00  0.00    -0.200 F 
ATOM     96  C   UNL A   1      50.578  25.990  31.569  1.00  0.00     0.200 A 
ATOM     97  F   UNL A   1      51.282  27.215  29.678  1.00  0.00    -0.200 F 
ATOM     98  F   UNL A   1      51.844  25.630  31.824  1.00  0.00    -0.200 F 
ENDBRANCH  65  88
ENDBRANCH  39  40
ENDBRANCH  32  34
ENDBRANCH  31  32
ENDBRANCH  30  31
ENDBRANCH  29  30
ENDBRANCH  28  29
ENDBRANCH  27  28
ENDBRANCH   1  27
TORSDOF 19
ENDMDL
