MODEL 1
REMARK VINA RESULT:     -10.9      0.000      0.000
REMARK SMILES Cc1ccccc1-c1nc(CC(=O)OCCOCCOCCOC(=O)c2ccc(-c3c4nc(c(-c5c(F)c(F)c(F)c(F)c5F)c5ccc([nH]5)c(-c5c(F)c(F)c(F)c(F)c5F)c5nc(c(-c6c(F)c(F)c(F)c(F)c6F)c6ccc3[nH]6)C=C5)C=C4)cc2)cs1
REMARK SMILES IDX 18 1 17 2 16 3 15 4 14 5 12 6 13 7 11 8 10 9 8 10 9 11 90 12
REMARK SMILES IDX 89 13 7 14 1 15 2 16 3 17 4 18 6 19 5 20 19 21 20 22 21 23
REMARK SMILES IDX 22 24 23 25 24 26 25 27 26 28 27 29 88 30 28 31 87 32 29 33
REMARK SMILES IDX 30 34 31 35 81 36 32 37 86 38 80 39 82 40 33 41 85 42 79 43
REMARK SMILES IDX 78 44 34 46 66 47 46 48 65 49 47 50 50 51 64 52 83 53 48 54
REMARK SMILES IDX 49 55 63 57 84 58 51 59 35 60 36 61 44 62 37 63 38 64 42 65
REMARK SMILES IDX 45 66 39 67 40 68 43 69 41 70 67 71 68 72 76 73 69 74 70 75
REMARK SMILES IDX 74 76 77 77 71 78 72 79 75 80 73 81 52 82 53 83 61 84 54 85
REMARK SMILES IDX 55 86 59 87 62 88 56 89 57 90 60 91 58 92
REMARK H PARENT 82 45 50 56
REMARK Flexibility Score: inf
ROOT
ATOM      1  C   UNL A   1      34.807  23.032  23.443  1.00  0.00     0.188 C 
ENDROOT
BRANCH   1   2
ATOM      2  O   UNL A   1      33.914  23.907  22.749  1.00  0.00    -0.376 OA
BRANCH   2   3
ATOM      3  C   UNL A   1      33.947  25.323  22.951  1.00  0.00     0.202 C 
BRANCH   3   4
ATOM      4  C   UNL A   1      33.571  25.885  24.358  1.00  0.00     0.261 C 
BRANCH   4   5
ATOM      5  O   UNL A   1      32.180  25.868  24.804  1.00  0.00    -0.463 OA
BRANCH   5   6
ATOM      6  C   UNL A   1      31.585  25.502  26.003  1.00  0.00     0.311 C 
ATOM      7  O   UNL A   1      31.388  26.296  26.913  1.00  0.00    -0.252 OA
BRANCH   6   8
ATOM      8  C   UNL A   1      31.058  24.030  25.910  1.00  0.00     0.179 C 
BRANCH   8   9
ATOM      9  C   UNL A   1      31.822  22.799  26.205  1.00  0.00     0.063 A 
ATOM     10  C   UNL A   1      32.340  20.846  25.452  1.00  0.00     0.123 A 
ATOM     11  N   UNL A   1      31.336  21.666  25.661  1.00  0.00    -0.240 NA
ATOM     12  S   UNL A   1      33.696  21.085  26.460  1.00  0.00    -0.122 S 
ATOM     13  C   UNL A   1      33.144  22.698  26.647  1.00  0.00     0.091 A 
BRANCH  10  14
ATOM     14  C   UNL A   1      32.251  19.882  24.378  1.00  0.00     0.013 A 
ATOM     15  C   UNL A   1      32.861  17.805  25.800  1.00  0.00     0.045 C 
ATOM     16  C   UNL A   1      32.528  18.507  24.507  1.00  0.00    -0.041 A 
ATOM     17  C   UNL A   1      32.570  17.739  23.334  1.00  0.00     0.004 A 
ATOM     18  C   UNL A   1      32.449  18.332  22.073  1.00  0.00     0.000 A 
ATOM     19  C   UNL A   1      32.148  20.464  23.099  1.00  0.00     0.011 A 
ATOM     20  C   UNL A   1      32.264  19.702  21.954  1.00  0.00     0.001 A 
ENDBRANCH  10  14
ENDBRANCH   8   9
ENDBRANCH   6   8
ENDBRANCH   5   6
ENDBRANCH   4   5
ENDBRANCH   3   4
ENDBRANCH   2   3
ENDBRANCH   1   2
BRANCH   1  21
ATOM     21  C   UNL A   1      36.294  23.328  23.581  1.00  0.00     0.188 C 
BRANCH  21  22
ATOM     22  O   UNL A   1      36.938  22.137  24.006  1.00  0.00    -0.376 OA
BRANCH  22  23
ATOM     23  C   UNL A   1      37.309  22.086  25.375  1.00  0.00     0.202 C 
BRANCH  23  24
ATOM     24  C   UNL A   1      38.737  21.546  25.603  1.00  0.00     0.261 C 
BRANCH  24  25
ATOM     25  O   UNL A   1      39.324  22.137  26.794  1.00  0.00    -0.460 OA
BRANCH  25  26
ATOM     26  C   UNL A   1      40.435  22.926  26.653  1.00  0.00     0.338 C 
ATOM     27  O   UNL A   1      41.588  22.518  26.672  1.00  0.00    -0.246 OA
BRANCH  26  28
ATOM     28  C   UNL A   1      40.053  24.385  26.726  1.00  0.00     0.060 A 
ATOM     29  C   UNL A   1      40.777  25.483  26.224  1.00  0.00     0.016 A 
ATOM     30  C   UNL A   1      39.128  24.682  27.675  1.00  0.00     0.016 A 
ATOM     31  C   UNL A   1      40.605  26.829  26.770  1.00  0.00     0.010 A 
ATOM     32  C   UNL A   1      39.297  25.881  28.359  1.00  0.00     0.010 A 
ATOM     33  C   UNL A   1      39.855  27.075  27.928  1.00  0.00    -0.014 A 
BRANCH  33  34
ATOM     34  C   UNL A   1      39.904  28.268  28.918  1.00  0.00     0.031 A 
ATOM     35  C   UNL A   1      39.081  29.609  29.062  1.00  0.00     0.074 A 
ATOM     36  C   UNL A   1      40.719  28.053  29.969  1.00  0.00     0.049 A 
ATOM     37  N   UNL A   1      39.536  30.783  29.452  1.00  0.00    -0.248 NA
ATOM     38  C   UNL A   1      37.665  29.825  28.755  1.00  0.00     0.031 C 
ATOM     39  C   UNL A   1      40.712  28.722  31.258  1.00  0.00     0.029 A 
ATOM     40  N   UNL A   1      41.828  27.206  30.021  1.00  0.00    -0.354 N 
ATOM     41  C   UNL A   1      38.397  31.617  29.594  1.00  0.00     0.074 A 
ATOM     42  C   UNL A   1      37.502  31.132  28.613  1.00  0.00     0.031 C 
ATOM     43  C   UNL A   1      41.878  28.472  31.871  1.00  0.00     0.029 A 
ATOM     44  C   UNL A   1      42.733  27.787  30.921  1.00  0.00     0.049 A 
ATOM     45  H   UNL A   1      41.951  26.366  29.523  1.00  0.00     0.167 HD
ATOM     46  C   UNL A   1      38.084  32.303  30.750  1.00  0.00     0.037 A 
ATOM     47  C   UNL A   1      43.953  28.173  30.451  1.00  0.00     0.037 A 
ATOM     48  C   UNL A   1      39.234  32.260  31.638  1.00  0.00     0.049 A 
ATOM     49  C   UNL A   1      44.116  29.679  30.522  1.00  0.00     0.074 A 
ATOM     50  C   UNL A   1      39.562  31.760  32.884  1.00  0.00     0.029 A 
ATOM     51  N   UNL A   1      40.423  32.629  31.071  1.00  0.00    -0.354 N 
ATOM     52  N   UNL A   1      43.321  30.466  31.196  1.00  0.00    -0.248 NA
ATOM     53  C   UNL A   1      45.119  30.436  29.776  1.00  0.00     0.031 C 
ATOM     54  C   UNL A   1      40.990  31.851  33.027  1.00  0.00     0.029 A 
ATOM     55  C   UNL A   1      41.502  32.436  31.882  1.00  0.00     0.049 A 
ATOM     56  H   UNL A   1      40.494  33.001  30.161  1.00  0.00     0.167 HD
ATOM     57  C   UNL A   1      43.577  31.771  30.882  1.00  0.00     0.074 A 
ATOM     58  C   UNL A   1      44.743  31.704  30.020  1.00  0.00     0.031 C 
ATOM     59  C   UNL A   1      42.769  32.801  31.280  1.00  0.00     0.037 A 
BRANCH  46  60
ATOM     60  C   UNL A   1      36.700  32.878  31.210  1.00  0.00     0.064 A 
ATOM     61  C   UNL A   1      36.015  33.803  30.380  1.00  0.00     0.173 A 
ATOM     62  C   UNL A   1      35.987  32.617  32.410  1.00  0.00     0.173 A 
ATOM     63  F   UNL A   1      36.464  34.105  29.156  1.00  0.00    -0.203 F 
ATOM     64  C   UNL A   1      34.816  34.449  30.746  1.00  0.00     0.198 A 
ATOM     65  C   UNL A   1      34.802  33.278  32.788  1.00  0.00     0.198 A 
ATOM     66  F   UNL A   1      36.335  31.671  33.280  1.00  0.00    -0.203 F 
ATOM     67  F   UNL A   1      34.246  35.318  29.901  1.00  0.00    -0.200 F 
ATOM     68  C   UNL A   1      34.219  34.201  31.960  1.00  0.00     0.200 A 
ATOM     69  F   UNL A   1      34.229  32.986  33.966  1.00  0.00    -0.200 F 
ATOM     70  F   UNL A   1      33.083  34.817  32.314  1.00  0.00    -0.200 F 
ENDBRANCH  46  60
BRANCH  47  71
ATOM     71  C   UNL A   1      44.456  27.194  29.426  1.00  0.00     0.064 A 
ATOM     72  C   UNL A   1      44.798  25.898  29.898  1.00  0.00     0.173 A 
ATOM     73  C   UNL A   1      44.212  27.312  28.053  1.00  0.00     0.173 A 
ATOM     74  F   UNL A   1      45.013  25.701  31.210  1.00  0.00    -0.203 F 
ATOM     75  C   UNL A   1      44.748  24.772  29.075  1.00  0.00     0.198 A 
ATOM     76  C   UNL A   1      44.217  26.183  27.218  1.00  0.00     0.198 A 
ATOM     77  F   UNL A   1      43.830  28.483  27.525  1.00  0.00    -0.203 F 
ATOM     78  F   UNL A   1      44.892  23.549  29.606  1.00  0.00    -0.200 F 
ATOM     79  C   UNL A   1      44.442  24.914  27.737  1.00  0.00     0.200 A 
ATOM     80  F   UNL A   1      43.865  26.307  25.930  1.00  0.00    -0.200 F 
ATOM     81  F   UNL A   1      44.291  23.830  26.962  1.00  0.00    -0.200 F 
ENDBRANCH  47  71
BRANCH  59  82
ATOM     82  C   UNL A   1      43.034  34.250  30.938  1.00  0.00     0.064 A 
ATOM     83  C   UNL A   1      43.505  35.141  31.910  1.00  0.00     0.173 A 
ATOM     84  C   UNL A   1      42.751  34.830  29.672  1.00  0.00     0.173 A 
ATOM     85  F   UNL A   1      43.693  34.734  33.173  1.00  0.00    -0.203 F 
ATOM     86  C   UNL A   1      43.780  36.476  31.611  1.00  0.00     0.198 A 
ATOM     87  C   UNL A   1      42.978  36.173  29.392  1.00  0.00     0.198 A 
ATOM     88  F   UNL A   1      42.270  34.128  28.639  1.00  0.00    -0.203 F 
ATOM     89  F   UNL A   1      44.305  37.266  32.556  1.00  0.00    -0.200 F 
ATOM     90  C   UNL A   1      43.520  36.991  30.354  1.00  0.00     0.200 A 
ATOM     91  F   UNL A   1      42.680  36.655  28.176  1.00  0.00    -0.200 F 
ATOM     92  F   UNL A   1      43.787  38.272  30.071  1.00  0.00    -0.200 F 
ENDBRANCH  59  82
ENDBRANCH  33  34
ENDBRANCH  26  28
ENDBRANCH  25  26
ENDBRANCH  24  25
ENDBRANCH  23  24
ENDBRANCH  22  23
ENDBRANCH  21  22
ENDBRANCH   1  21
TORSDOF 19
ENDMDL
MODEL 2
REMARK VINA RESULT:     -10.8      4.101     10.021
REMARK SMILES Cc1ccccc1-c1nc(CC(=O)OCCOCCOCCOC(=O)c2ccc(-c3c4nc(c(-c5c(F)c(F)c(F)c(F)c5F)c5ccc([nH]5)c(-c5c(F)c(F)c(F)c(F)c5F)c5nc(c(-c6c(F)c(F)c(F)c(F)c6F)c6ccc3[nH]6)C=C5)C=C4)cc2)cs1
REMARK SMILES IDX 18 1 17 2 16 3 15 4 14 5 12 6 13 7 11 8 10 9 8 10 9 11 90 12
REMARK SMILES IDX 89 13 7 14 1 15 2 16 3 17 4 18 6 19 5 20 19 21 20 22 21 23
REMARK SMILES IDX 22 24 23 25 24 26 25 27 26 28 27 29 88 30 28 31 87 32 29 33
REMARK SMILES IDX 30 34 31 35 81 36 32 37 86 38 80 39 82 40 33 41 85 42 79 43
REMARK SMILES IDX 78 44 34 46 66 47 46 48 65 49 47 50 50 51 64 52 83 53 48 54
REMARK SMILES IDX 49 55 63 57 84 58 51 59 35 60 36 61 44 62 37 63 38 64 42 65
REMARK SMILES IDX 45 66 39 67 40 68 43 69 41 70 67 71 68 72 76 73 69 74 70 75
REMARK SMILES IDX 74 76 77 77 71 78 72 79 75 80 73 81 52 82 53 83 61 84 54 85
REMARK SMILES IDX 55 86 59 87 62 88 56 89 57 90 60 91 58 92
REMARK H PARENT 82 45 50 56
REMARK Flexibility Score: inf
ROOT
ATOM      1  C   UNL A   1      34.232  33.209  28.449  1.00  0.00     0.188 C 
ENDROOT
BRANCH   1   2
ATOM      2  O   UNL A   1      33.883  31.908  27.970  1.00  0.00    -0.376 OA
BRANCH   2   3
ATOM      3  C   UNL A   1      34.875  30.994  27.493  1.00  0.00     0.202 C 
BRANCH   3   4
ATOM      4  C   UNL A   1      34.810  29.509  27.968  1.00  0.00     0.261 C 
BRANCH   4   5
ATOM      5  O   UNL A   1      33.857  28.585  27.355  1.00  0.00    -0.463 OA
BRANCH   5   6
ATOM      6  C   UNL A   1      33.502  28.346  26.036  1.00  0.00     0.311 C 
ATOM      7  O   UNL A   1      33.530  29.215  25.174  1.00  0.00    -0.252 OA
BRANCH   6   8
ATOM      8  C   UNL A   1      33.273  26.812  25.815  1.00  0.00     0.179 C 
BRANCH   8   9
ATOM      9  C   UNL A   1      32.085  26.176  25.206  1.00  0.00     0.063 A 
ATOM     10  C   UNL A   1      30.286  26.562  24.082  1.00  0.00     0.123 A 
ATOM     11  N   UNL A   1      30.987  26.953  25.120  1.00  0.00    -0.240 NA
ATOM     12  S   UNL A   1      30.518  24.935  23.618  1.00  0.00    -0.122 S 
ATOM     13  C   UNL A   1      32.044  25.041  24.392  1.00  0.00     0.091 A 
BRANCH  10  14
ATOM     14  C   UNL A   1      29.451  27.521  23.392  1.00  0.00     0.013 A 
ATOM     15  C   UNL A   1      31.384  28.965  22.452  1.00  0.00     0.045 C 
ATOM     16  C   UNL A   1      29.929  28.642  22.687  1.00  0.00    -0.041 A 
ATOM     17  C   UNL A   1      28.986  29.572  22.227  1.00  0.00     0.004 A 
ATOM     18  C   UNL A   1      27.630  29.451  22.549  1.00  0.00     0.000 A 
ATOM     19  C   UNL A   1      28.084  27.424  23.721  1.00  0.00     0.011 A 
ATOM     20  C   UNL A   1      27.181  28.388  23.320  1.00  0.00     0.001 A 
ENDBRANCH  10  14
ENDBRANCH   8   9
ENDBRANCH   6   8
ENDBRANCH   5   6
ENDBRANCH   4   5
ENDBRANCH   3   4
ENDBRANCH   2   3
ENDBRANCH   1   2
BRANCH   1  21
ATOM     21  C   UNL A   1      33.220  34.342  28.539  1.00  0.00     0.188 C 
BRANCH  21  22
ATOM     22  O   UNL A   1      33.791  35.377  29.325  1.00  0.00    -0.376 OA
BRANCH  22  23
ATOM     23  C   UNL A   1      32.881  36.143  30.099  1.00  0.00     0.202 C 
BRANCH  23  24
ATOM     24  C   UNL A   1      33.280  36.249  31.586  1.00  0.00     0.261 C 
BRANCH  24  25
ATOM     25  O   UNL A   1      33.687  34.951  32.099  1.00  0.00    -0.460 OA
BRANCH  25  26
ATOM     26  C   UNL A   1      34.967  34.804  32.566  1.00  0.00     0.338 C 
ATOM     27  O   UNL A   1      35.625  35.691  33.091  1.00  0.00    -0.246 OA
BRANCH  26  28
ATOM     28  C   UNL A   1      35.539  33.481  32.116  1.00  0.00     0.060 A 
ATOM     29  C   UNL A   1      35.621  32.289  32.859  1.00  0.00     0.016 A 
ATOM     30  C   UNL A   1      36.373  33.558  31.045  1.00  0.00     0.016 A 
ATOM     31  C   UNL A   1      36.611  31.258  32.550  1.00  0.00     0.010 A 
ATOM     32  C   UNL A   1      37.485  32.723  31.058  1.00  0.00     0.010 A 
ATOM     33  C   UNL A   1      37.642  31.467  31.624  1.00  0.00    -0.014 A 
BRANCH  33  34
ATOM     34  C   UNL A   1      39.011  30.754  31.472  1.00  0.00     0.031 A 
ATOM     35  C   UNL A   1      39.484  29.427  30.758  1.00  0.00     0.074 A 
ATOM     36  C   UNL A   1      40.046  31.494  31.915  1.00  0.00     0.049 A 
ATOM     37  N   UNL A   1      40.415  28.590  31.170  1.00  0.00    -0.248 NA
ATOM     38  C   UNL A   1      38.958  28.843  29.521  1.00  0.00     0.031 C 
ATOM     39  C   UNL A   1      41.453  31.357  31.577  1.00  0.00     0.029 A 
ATOM     40  N   UNL A   1      40.017  32.498  32.884  1.00  0.00    -0.354 N 
ATOM     41  C   UNL A   1      40.603  27.662  30.113  1.00  0.00     0.074 A 
ATOM     42  C   UNL A   1      39.325  27.570  29.517  1.00  0.00     0.031 C 
ATOM     43  C   UNL A   1      42.173  32.034  32.482  1.00  0.00     0.029 A 
ATOM     44  C   UNL A   1      41.266  32.476  33.522  1.00  0.00     0.049 A 
ATOM     45  H   UNL A   1      39.267  33.104  33.080  1.00  0.00     0.167 HD
ATOM     46  C   UNL A   1      41.825  27.401  29.526  1.00  0.00     0.037 A 
ATOM     47  C   UNL A   1      41.304  32.189  34.854  1.00  0.00     0.037 A 
ATOM     48  C   UNL A   1      42.868  27.989  30.350  1.00  0.00     0.049 A 
ATOM     49  C   UNL A   1      42.018  30.876  35.112  1.00  0.00     0.074 A 
ATOM     50  C   UNL A   1      43.842  28.964  30.247  1.00  0.00     0.029 A 
ATOM     51  N   UNL A   1      42.807  27.676  31.680  1.00  0.00    -0.354 N 
ATOM     52  N   UNL A   1      42.740  30.253  34.219  1.00  0.00    -0.248 NA
ATOM     53  C   UNL A   1      41.912  30.110  36.351  1.00  0.00     0.031 C 
ATOM     54  C   UNL A   1      44.351  29.211  31.569  1.00  0.00     0.029 A 
ATOM     55  C   UNL A   1      43.704  28.359  32.446  1.00  0.00     0.049 A 
ATOM     56  H   UNL A   1      42.174  27.018  32.050  1.00  0.00     0.167 HD
ATOM     57  C   UNL A   1      43.056  29.000  34.664  1.00  0.00     0.074 A 
ATOM     58  C   UNL A   1      42.552  28.972  36.024  1.00  0.00     0.031 C 
ATOM     59  C   UNL A   1      43.629  28.053  33.861  1.00  0.00     0.037 A 
BRANCH  46  60
ATOM     60  C   UNL A   1      42.128  26.778  28.120  1.00  0.00     0.064 A 
ATOM     61  C   UNL A   1      42.395  25.388  28.012  1.00  0.00     0.173 A 
ATOM     62  C   UNL A   1      42.202  27.428  26.860  1.00  0.00     0.173 A 
ATOM     63  F   UNL A   1      42.274  24.572  29.067  1.00  0.00    -0.203 F 
ATOM     64  C   UNL A   1      42.773  24.751  26.812  1.00  0.00     0.198 A 
ATOM     65  C   UNL A   1      42.601  26.798  25.665  1.00  0.00     0.198 A 
ATOM     66  F   UNL A   1      41.839  28.695  26.665  1.00  0.00    -0.203 F 
ATOM     67  F   UNL A   1      43.017  23.433  26.809  1.00  0.00    -0.200 F 
ATOM     68  C   UNL A   1      42.895  25.460  25.641  1.00  0.00     0.200 A 
ATOM     69  F   UNL A   1      42.678  27.516  24.533  1.00  0.00    -0.200 F 
ATOM     70  F   UNL A   1      43.260  24.860  24.500  1.00  0.00    -0.200 F 
ENDBRANCH  46  60
BRANCH  47  71
ATOM     71  C   UNL A   1      40.125  32.802  35.559  1.00  0.00     0.064 A 
ATOM     72  C   UNL A   1      39.079  31.917  35.934  1.00  0.00     0.173 A 
ATOM     73  C   UNL A   1      40.170  34.031  36.226  1.00  0.00     0.173 A 
ATOM     74  F   UNL A   1      38.992  30.704  35.361  1.00  0.00    -0.203 F 
ATOM     75  C   UNL A   1      38.232  32.184  37.010  1.00  0.00     0.198 A 
ATOM     76  C   UNL A   1      39.279  34.318  37.273  1.00  0.00     0.198 A 
ATOM     77  F   UNL A   1      41.152  34.908  35.977  1.00  0.00    -0.203 F 
ATOM     78  F   UNL A   1      37.387  31.239  37.448  1.00  0.00    -0.200 F 
ATOM     79  C   UNL A   1      38.343  33.380  37.689  1.00  0.00     0.200 A 
ATOM     80  F   UNL A   1      39.419  35.454  37.972  1.00  0.00    -0.200 F 
ATOM     81  F   UNL A   1      37.605  33.604  38.787  1.00  0.00    -0.200 F 
ENDBRANCH  47  71
BRANCH  59  82
ATOM     82  C   UNL A   1      43.982  26.660  34.336  1.00  0.00     0.064 A 
ATOM     83  C   UNL A   1      45.310  26.219  34.338  1.00  0.00     0.173 A 
ATOM     84  C   UNL A   1      43.020  25.686  34.717  1.00  0.00     0.173 A 
ATOM     85  F   UNL A   1      46.292  27.011  33.882  1.00  0.00    -0.203 F 
ATOM     86  C   UNL A   1      45.662  24.948  34.793  1.00  0.00     0.198 A 
ATOM     87  C   UNL A   1      43.369  24.403  35.122  1.00  0.00     0.198 A 
ATOM     88  F   UNL A   1      41.705  25.931  34.746  1.00  0.00    -0.203 F 
ATOM     89  F   UNL A   1      46.955  24.604  34.850  1.00  0.00    -0.200 F 
ATOM     90  C   UNL A   1      44.694  24.042  35.188  1.00  0.00     0.200 A 
ATOM     91  F   UNL A   1      42.408  23.531  35.462  1.00  0.00    -0.200 F 
ATOM     92  F   UNL A   1      45.036  22.824  35.626  1.00  0.00    -0.200 F 
ENDBRANCH  59  82
ENDBRANCH  33  34
ENDBRANCH  26  28
ENDBRANCH  25  26
ENDBRANCH  24  25
ENDBRANCH  23  24
ENDBRANCH  22  23
ENDBRANCH  21  22
ENDBRANCH   1  21
TORSDOF 19
ENDMDL
MODEL 3
REMARK VINA RESULT:     -10.7      1.814      3.786
REMARK SMILES Cc1ccccc1-c1nc(CC(=O)OCCOCCOCCOC(=O)c2ccc(-c3c4nc(c(-c5c(F)c(F)c(F)c(F)c5F)c5ccc([nH]5)c(-c5c(F)c(F)c(F)c(F)c5F)c5nc(c(-c6c(F)c(F)c(F)c(F)c6F)c6ccc3[nH]6)C=C5)C=C4)cc2)cs1
REMARK SMILES IDX 18 1 17 2 16 3 15 4 14 5 12 6 13 7 11 8 10 9 8 10 9 11 90 12
REMARK SMILES IDX 89 13 7 14 1 15 2 16 3 17 4 18 6 19 5 20 19 21 20 22 21 23
REMARK SMILES IDX 22 24 23 25 24 26 25 27 26 28 27 29 88 30 28 31 87 32 29 33
REMARK SMILES IDX 30 34 31 35 81 36 32 37 86 38 80 39 82 40 33 41 85 42 79 43
REMARK SMILES IDX 78 44 34 46 66 47 46 48 65 49 47 50 50 51 64 52 83 53 48 54
REMARK SMILES IDX 49 55 63 57 84 58 51 59 35 60 36 61 44 62 37 63 38 64 42 65
REMARK SMILES IDX 45 66 39 67 40 68 43 69 41 70 67 71 68 72 76 73 69 74 70 75
REMARK SMILES IDX 74 76 77 77 71 78 72 79 75 80 73 81 52 82 53 83 61 84 54 85
REMARK SMILES IDX 55 86 59 87 62 88 56 89 57 90 60 91 58 92
REMARK H PARENT 82 45 50 56
REMARK Flexibility Score: inf
ROOT
ATOM      1  C   UNL A   1      35.665  21.717  25.758  1.00  0.00     0.188 C 
ENDROOT
BRANCH   1   2
ATOM      2  O   UNL A   1      34.260  21.985  25.748  1.00  0.00    -0.376 OA
BRANCH   2   3
ATOM      3  C   UNL A   1      33.298  20.944  25.936  1.00  0.00     0.202 C 
BRANCH   3   4
ATOM      4  C   UNL A   1      31.817  21.213  25.521  1.00  0.00     0.261 C 
BRANCH   4   5
ATOM      5  O   UNL A   1      31.368  22.578  25.259  1.00  0.00    -0.463 OA
BRANCH   5   6
ATOM      6  C   UNL A   1      31.081  23.646  26.096  1.00  0.00     0.311 C 
ATOM      7  O   UNL A   1      31.408  23.671  27.275  1.00  0.00    -0.252 OA
BRANCH   6   8
ATOM      8  C   UNL A   1      30.483  24.831  25.263  1.00  0.00     0.179 C 
BRANCH   8   9
ATOM      9  C   UNL A   1      31.238  25.937  24.636  1.00  0.00     0.063 A 
ATOM     10  C   UNL A   1      32.268  27.789  25.033  1.00  0.00     0.123 A 
ATOM     11  N   UNL A   1      31.158  27.128  25.263  1.00  0.00    -0.240 NA
ATOM     12  S   UNL A   1      33.089  27.357  23.600  1.00  0.00    -0.122 S 
ATOM     13  C   UNL A   1      32.291  25.845  23.722  1.00  0.00     0.091 A 
BRANCH  10  14
ATOM     14  C   UNL A   1      32.731  28.752  26.009  1.00  0.00     0.013 A 
ATOM     15  C   UNL A   1      31.087  30.643  25.354  1.00  0.00     0.045 C 
ATOM     16  C   UNL A   1      32.239  30.065  26.138  1.00  0.00    -0.041 A 
ATOM     17  C   UNL A   1      32.914  30.929  27.012  1.00  0.00     0.004 A 
ATOM     18  C   UNL A   1      34.096  30.539  27.649  1.00  0.00     0.000 A 
ATOM     19  C   UNL A   1      33.932  28.381  26.646  1.00  0.00     0.011 A 
ATOM     20  C   UNL A   1      34.621  29.271  27.446  1.00  0.00     0.001 A 
ENDBRANCH  10  14
ENDBRANCH   8   9
ENDBRANCH   6   8
ENDBRANCH   5   6
ENDBRANCH   4   5
ENDBRANCH   3   4
ENDBRANCH   2   3
ENDBRANCH   1   2
BRANCH   1  21
ATOM     21  C   UNL A   1      36.278  20.558  24.985  1.00  0.00     0.188 C 
BRANCH  21  22
ATOM     22  O   UNL A   1      37.648  20.855  24.766  1.00  0.00    -0.376 OA
BRANCH  22  23
ATOM     23  C   UNL A   1      38.241  21.764  25.681  1.00  0.00     0.202 C 
BRANCH  23  24
ATOM     24  C   UNL A   1      39.662  21.352  26.120  1.00  0.00     0.261 C 
BRANCH  24  25
ATOM     25  O   UNL A   1      40.575  22.478  26.020  1.00  0.00    -0.460 OA
BRANCH  25  26
ATOM     26  C   UNL A   1      40.943  23.127  27.170  1.00  0.00     0.338 C 
ATOM     27  O   UNL A   1      41.443  22.587  28.146  1.00  0.00    -0.246 OA
BRANCH  26  28
ATOM     28  C   UNL A   1      40.416  24.542  27.163  1.00  0.00     0.060 A 
ATOM     29  C   UNL A   1      40.939  25.645  26.464  1.00  0.00     0.016 A 
ATOM     30  C   UNL A   1      39.599  24.848  28.205  1.00  0.00     0.016 A 
ATOM     31  C   UNL A   1      40.695  27.018  26.903  1.00  0.00     0.010 A 
ATOM     32  C   UNL A   1      39.725  26.122  28.745  1.00  0.00     0.010 A 
ATOM     33  C   UNL A   1      40.085  27.313  28.130  1.00  0.00    -0.014 A 
BRANCH  33  34
ATOM     34  C   UNL A   1      40.135  28.603  28.988  1.00  0.00     0.031 A 
ATOM     35  C   UNL A   1      39.208  29.877  29.110  1.00  0.00     0.074 A 
ATOM     36  C   UNL A   1      41.086  28.570  29.942  1.00  0.00     0.049 A 
ATOM     37  N   UNL A   1      39.590  31.120  29.326  1.00  0.00    -0.248 NA
ATOM     38  C   UNL A   1      37.751  29.938  28.968  1.00  0.00     0.031 C 
ATOM     39  C   UNL A   1      41.167  29.368  31.153  1.00  0.00     0.029 A 
ATOM     40  N   UNL A   1      42.271  27.831  29.932  1.00  0.00    -0.354 N 
ATOM     41  C   UNL A   1      38.400  31.864  29.533  1.00  0.00     0.074 A 
ATOM     42  C   UNL A   1      37.446  31.204  28.725  1.00  0.00     0.031 C 
ATOM     43  C   UNL A   1      42.416  29.284  31.632  1.00  0.00     0.029 A 
ATOM     44  C   UNL A   1      43.215  28.578  30.650  1.00  0.00     0.049 A 
ATOM     45  H   UNL A   1      42.414  26.957  29.504  1.00  0.00     0.167 HD
ATOM     46  C   UNL A   1      38.161  32.640  30.651  1.00  0.00     0.037 A 
ATOM     47  C   UNL A   1      44.327  29.015  29.994  1.00  0.00     0.037 A 
ATOM     48  C   UNL A   1      39.407  32.788  31.384  1.00  0.00     0.049 A 
ATOM     49  C   UNL A   1      44.350  30.528  29.901  1.00  0.00     0.074 A 
ATOM     50  C   UNL A   1      39.927  32.452  32.620  1.00  0.00     0.029 A 
ATOM     51  N   UNL A   1      40.478  33.195  30.637  1.00  0.00    -0.354 N 
ATOM     52  N   UNL A   1      43.568  31.312  30.594  1.00  0.00    -0.248 NA
ATOM     53  C   UNL A   1      45.179  31.284  28.965  1.00  0.00     0.031 C 
ATOM     54  C   UNL A   1      41.346  32.679  32.570  1.00  0.00     0.029 A 
ATOM     55  C   UNL A   1      41.659  33.181  31.319  1.00  0.00     0.049 A 
ATOM     56  H   UNL A   1      40.404  33.474  29.695  1.00  0.00     0.167 HD
ATOM     57  C   UNL A   1      43.656  32.593  30.129  1.00  0.00     0.074 A 
ATOM     58  C   UNL A   1      44.712  32.535  29.135  1.00  0.00     0.031 C 
ATOM     59  C   UNL A   1      42.805  33.587  30.528  1.00  0.00     0.037 A 
BRANCH  46  60
ATOM     60  C   UNL A   1      36.792  33.140  31.227  1.00  0.00     0.064 A 
ATOM     61  C   UNL A   1      35.967  33.985  30.440  1.00  0.00     0.173 A 
ATOM     62  C   UNL A   1      36.219  32.879  32.500  1.00  0.00     0.173 A 
ATOM     63  F   UNL A   1      36.273  34.269  29.169  1.00  0.00    -0.203 F 
ATOM     64  C   UNL A   1      34.768  34.565  30.903  1.00  0.00     0.198 A 
ATOM     65  C   UNL A   1      35.033  33.476  32.972  1.00  0.00     0.198 A 
ATOM     66  F   UNL A   1      36.714  31.992  33.361  1.00  0.00    -0.203 F 
ATOM     67  F   UNL A   1      34.059  35.362  30.091  1.00  0.00    -0.200 F 
ATOM     68  C   UNL A   1      34.310  34.326  32.177  1.00  0.00     0.200 A 
ATOM     69  F   UNL A   1      34.599  33.193  34.211  1.00  0.00    -0.200 F 
ATOM     70  F   UNL A   1      33.174  34.879  32.623  1.00  0.00    -0.200 F 
ENDBRANCH  46  60
BRANCH  47  71
ATOM     71  C   UNL A   1      44.797  27.979  29.009  1.00  0.00     0.064 A 
ATOM     72  C   UNL A   1      45.359  26.793  29.554  1.00  0.00     0.173 A 
ATOM     73  C   UNL A   1      44.351  27.906  27.685  1.00  0.00     0.173 A 
ATOM     74  F   UNL A   1      45.779  26.778  30.830  1.00  0.00    -0.203 F 
ATOM     75  C   UNL A   1      45.333  25.578  28.869  1.00  0.00     0.198 A 
ATOM     76  C   UNL A   1      44.377  26.692  26.980  1.00  0.00     0.198 A 
ATOM     77  F   UNL A   1      43.757  28.958  27.105  1.00  0.00    -0.203 F 
ATOM     78  F   UNL A   1      45.700  24.450  29.494  1.00  0.00    -0.200 F 
ATOM     79  C   UNL A   1      44.828  25.526  27.586  1.00  0.00     0.200 A 
ATOM     80  F   UNL A   1      43.836  26.622  25.755  1.00  0.00    -0.200 F 
ATOM     81  F   UNL A   1      44.704  24.347  26.958  1.00  0.00    -0.200 F 
ENDBRANCH  47  71
BRANCH  59  82
ATOM     82  C   UNL A   1      42.885  35.009  30.020  1.00  0.00     0.064 A 
ATOM     83  C   UNL A   1      43.476  36.014  30.795  1.00  0.00     0.173 A 
ATOM     84  C   UNL A   1      42.306  35.448  28.798  1.00  0.00     0.173 A 
ATOM     85  F   UNL A   1      43.947  35.741  32.020  1.00  0.00    -0.203 F 
ATOM     86  C   UNL A   1      43.583  37.328  30.337  1.00  0.00     0.198 A 
ATOM     87  C   UNL A   1      42.370  36.768  28.367  1.00  0.00     0.198 A 
ATOM     88  F   UNL A   1      41.680  34.624  27.950  1.00  0.00    -0.203 F 
ATOM     89  F   UNL A   1      44.229  38.234  31.082  1.00  0.00    -0.200 F 
ATOM     90  C   UNL A   1      43.035  37.705  29.124  1.00  0.00     0.200 A 
ATOM     91  F   UNL A   1      41.796  37.114  27.206  1.00  0.00    -0.200 F 
ATOM     92  F   UNL A   1      43.142  38.965  28.687  1.00  0.00    -0.200 F 
ENDBRANCH  59  82
ENDBRANCH  33  34
ENDBRANCH  26  28
ENDBRANCH  25  26
ENDBRANCH  24  25
ENDBRANCH  23  24
ENDBRANCH  22  23
ENDBRANCH  21  22
ENDBRANCH   1  21
TORSDOF 19
ENDMDL
