MODEL 1
REMARK VINA RESULT:     -11.1      0.000      0.000
REMARK SMILES O=C(C[NH+]1CCN(c2nccc(N3CCCCC3)n2)CC1)OCCOCCOCCOC(=O)c1ccc(-c2c3nc(c(-c4c(F)c(F)c(F)c(F)c4F)c4ccc([nH]4)c(-c4c(F)c(F)c(F)c(F)c4F)c4nc(c(-c5c(F)c(F)c(F)c(F)c5F)c5ccc2[nH]5)C=C4)C=C3)cc1
REMARK SMILES IDX 26 1 25 2 24 3 23 4 22 5 2 6 1 7 3 8 4 9 5 10 21 11 6 13
REMARK SMILES IDX 20 14 7 15 8 16 9 17 19 18 10 19 12 20 11 21 13 22 14 23
REMARK SMILES IDX 18 24 15 25 17 26 16 27 27 28 28 29 29 30 30 31 31 32 32 33
REMARK SMILES IDX 33 34 34 35 35 36 96 37 36 38 95 39 37 40 38 41 39 42 89 43
REMARK SMILES IDX 40 44 94 45 88 46 90 47 41 48 93 49 87 50 86 51 42 53 74 54
REMARK SMILES IDX 54 55 73 56 55 57 58 58 72 59 91 60 56 61 57 62 71 64 92 65
REMARK SMILES IDX 59 66 43 67 44 68 52 69 45 70 46 71 50 72 53 73 47 74 48 75
REMARK SMILES IDX 51 76 49 77 75 78 76 79 84 80 77 81 78 82 82 83 85 84 79 85
REMARK SMILES IDX 80 86 83 87 81 88 60 89 61 90 69 91 62 92 63 93 67 94 70 95
REMARK SMILES IDX 64 96 65 97 68 98 66 99
REMARK H PARENT 4 12 90 52 58 63
REMARK Flexibility Score: inf
ROOT
ATOM      1  C   UNL A   1      34.002  31.812  27.673  1.00  0.00     0.188 C 
ENDROOT
BRANCH   1   2
ATOM      2  O   UNL A   1      33.379  30.549  27.575  1.00  0.00    -0.376 OA
BRANCH   2   3
ATOM      3  C   UNL A   1      32.154  30.412  26.884  1.00  0.00     0.202 C 
BRANCH   3   4
ATOM      4  C   UNL A   1      32.125  29.358  25.788  1.00  0.00     0.261 C 
BRANCH   4   5
ATOM      5  O   UNL A   1      31.119  28.326  25.852  1.00  0.00    -0.459 OA
BRANCH   5   6
ATOM      6  C   UNL A   1      30.914  27.251  25.074  1.00  0.00     0.361 C 
ATOM      7  O   UNL A   1      31.017  27.380  23.852  1.00  0.00    -0.245 OA
BRANCH   6   8
ATOM      8  C   UNL A   1      30.496  25.913  25.658  1.00  0.00     0.386 C 
BRANCH   8   9
ATOM      9  N   UNL A   1      31.434  25.186  26.535  1.00  0.00    -0.323 N 
ATOM     10  C   UNL A   1      31.038  23.747  26.562  1.00  0.00     0.284 C 
ATOM     11  C   UNL A   1      32.856  25.235  26.136  1.00  0.00     0.284 C 
ATOM     12  H   UNL A   1      31.369  25.656  27.438  1.00  0.00     0.348 HD
ATOM     13  C   UNL A   1      31.249  22.996  25.215  1.00  0.00     0.181 C 
ATOM     14  C   UNL A   1      33.177  24.584  24.786  1.00  0.00     0.181 C 
ATOM     15  N   UNL A   1      32.565  23.271  24.683  1.00  0.00    -0.329 N 
BRANCH  15  16
ATOM     16  C   UNL A   1      33.441  22.253  24.457  1.00  0.00     0.227 A 
ATOM     17  N   UNL A   1      34.735  22.475  24.696  1.00  0.00    -0.221 NA
ATOM     18  N   UNL A   1      32.900  21.041  24.285  1.00  0.00    -0.196 NA
ATOM     19  C   UNL A   1      35.478  21.384  24.921  1.00  0.00     0.119 A 
ATOM     20  C   UNL A   1      33.650  19.967  24.535  1.00  0.00     0.134 A 
ATOM     21  C   UNL A   1      34.972  20.104  24.894  1.00  0.00     0.067 A 
BRANCH  20  22
ATOM     22  N   UNL A   1      33.034  18.739  24.453  1.00  0.00    -0.356 N 
ATOM     23  C   UNL A   1      32.697  18.050  25.695  1.00  0.00     0.118 C 
ATOM     24  C   UNL A   1      33.016  18.011  23.194  1.00  0.00     0.118 C 
ATOM     25  C   UNL A   1      33.409  16.705  25.808  1.00  0.00     0.022 C 
ATOM     26  C   UNL A   1      33.727  16.661  23.333  1.00  0.00     0.022 C 
ATOM     27  C   UNL A   1      33.217  15.882  24.540  1.00  0.00     0.004 C 
ENDBRANCH  20  22
ENDBRANCH  15  16
ENDBRANCH   8   9
ENDBRANCH   6   8
ENDBRANCH   5   6
ENDBRANCH   4   5
ENDBRANCH   3   4
ENDBRANCH   2   3
ENDBRANCH   1   2
BRANCH   1  28
ATOM     28  C   UNL A   1      34.557  32.180  29.060  1.00  0.00     0.188 C 
BRANCH  28  29
ATOM     29  O   UNL A   1      34.721  33.539  29.438  1.00  0.00    -0.376 OA
BRANCH  29  30
ATOM     30  C   UNL A   1      34.119  34.564  28.666  1.00  0.00     0.202 C 
BRANCH  30  31
ATOM     31  C   UNL A   1      33.200  35.572  29.377  1.00  0.00     0.261 C 
BRANCH  31  32
ATOM     32  O   UNL A   1      32.475  35.071  30.523  1.00  0.00    -0.460 OA
BRANCH  32  33
ATOM     33  C   UNL A   1      32.750  35.666  31.712  1.00  0.00     0.338 C 
ATOM     34  O   UNL A   1      32.108  36.548  32.254  1.00  0.00    -0.246 OA
BRANCH  33  35
ATOM     35  C   UNL A   1      33.886  34.994  32.399  1.00  0.00     0.060 A 
ATOM     36  C   UNL A   1      35.140  35.623  32.370  1.00  0.00     0.016 A 
ATOM     37  C   UNL A   1      33.755  33.739  32.999  1.00  0.00     0.016 A 
ATOM     38  C   UNL A   1      36.272  34.981  32.885  1.00  0.00     0.010 A 
ATOM     39  C   UNL A   1      34.898  33.085  33.494  1.00  0.00     0.010 A 
ATOM     40  C   UNL A   1      36.171  33.684  33.403  1.00  0.00    -0.014 A 
BRANCH  40  41
ATOM     41  C   UNL A   1      37.409  32.889  33.649  1.00  0.00     0.031 A 
ATOM     42  C   UNL A   1      38.187  33.140  34.918  1.00  0.00     0.074 A 
ATOM     43  C   UNL A   1      37.826  31.930  32.802  1.00  0.00     0.049 A 
ATOM     44  N   UNL A   1      39.307  32.600  35.333  1.00  0.00    -0.248 NA
ATOM     45  C   UNL A   1      37.621  34.134  35.844  1.00  0.00     0.031 C 
ATOM     46  C   UNL A   1      37.153  31.539  31.567  1.00  0.00     0.029 A 
ATOM     47  N   UNL A   1      38.932  31.111  32.855  1.00  0.00    -0.354 N 
ATOM     48  C   UNL A   1      39.577  33.188  36.564  1.00  0.00     0.074 A 
ATOM     49  C   UNL A   1      38.524  34.149  36.813  1.00  0.00     0.031 C 
ATOM     50  C   UNL A   1      37.866  30.566  30.970  1.00  0.00     0.029 A 
ATOM     51  C   UNL A   1      39.063  30.286  31.765  1.00  0.00     0.049 A 
ATOM     52  H   UNL A   1      39.568  31.115  33.606  1.00  0.00     0.167 HD
ATOM     53  C   UNL A   1      40.600  32.943  37.418  1.00  0.00     0.037 A 
ATOM     54  C   UNL A   1      40.046  29.422  31.433  1.00  0.00     0.037 A 
ATOM     55  C   UNL A   1      41.654  31.991  37.183  1.00  0.00     0.049 A 
ATOM     56  C   UNL A   1      41.222  29.232  32.362  1.00  0.00     0.074 A 
ATOM     57  C   UNL A   1      42.729  31.675  37.997  1.00  0.00     0.029 A 
ATOM     58  N   UNL A   1      41.770  31.204  36.048  1.00  0.00    -0.354 N 
ATOM     59  N   UNL A   1      41.457  29.778  33.531  1.00  0.00    -0.248 NA
ATOM     60  C   UNL A   1      42.271  28.297  31.924  1.00  0.00     0.031 C 
ATOM     61  C   UNL A   1      43.524  30.736  37.332  1.00  0.00     0.029 A 
ATOM     62  C   UNL A   1      42.912  30.422  36.129  1.00  0.00     0.049 A 
ATOM     63  H   UNL A   1      41.135  31.201  35.295  1.00  0.00     0.167 HD
ATOM     64  C   UNL A   1      42.654  29.231  33.977  1.00  0.00     0.074 A 
ATOM     65  C   UNL A   1      43.089  28.293  32.966  1.00  0.00     0.031 C 
ATOM     66  C   UNL A   1      43.335  29.483  35.123  1.00  0.00     0.037 A 
BRANCH  53  67
ATOM     67  C   UNL A   1      40.646  33.736  38.693  1.00  0.00     0.064 A 
ATOM     68  C   UNL A   1      39.913  33.351  39.825  1.00  0.00     0.173 A 
ATOM     69  C   UNL A   1      41.482  34.857  38.802  1.00  0.00     0.173 A 
ATOM     70  F   UNL A   1      39.091  32.292  39.769  1.00  0.00    -0.203 F 
ATOM     71  C   UNL A   1      40.000  34.071  41.013  1.00  0.00     0.198 A 
ATOM     72  C   UNL A   1      41.589  35.558  40.000  1.00  0.00     0.198 A 
ATOM     73  F   UNL A   1      42.209  35.264  37.750  1.00  0.00    -0.203 F 
ATOM     74  F   UNL A   1      39.262  33.708  42.071  1.00  0.00    -0.200 F 
ATOM     75  C   UNL A   1      40.845  35.167  41.103  1.00  0.00     0.200 A 
ATOM     76  F   UNL A   1      42.418  36.608  40.089  1.00  0.00    -0.200 F 
ATOM     77  F   UNL A   1      40.940  35.851  42.253  1.00  0.00    -0.200 F 
ENDBRANCH  53  67
BRANCH  54  78
ATOM     78  C   UNL A   1      39.993  28.678  30.144  1.00  0.00     0.064 A 
ATOM     79  C   UNL A   1      39.371  27.424  30.052  1.00  0.00     0.173 A 
ATOM     80  C   UNL A   1      40.624  29.175  28.994  1.00  0.00     0.173 A 
ATOM     81  F   UNL A   1      38.783  26.888  31.133  1.00  0.00    -0.203 F 
ATOM     82  C   UNL A   1      39.410  26.684  28.872  1.00  0.00     0.198 A 
ATOM     83  C   UNL A   1      40.633  28.450  27.804  1.00  0.00     0.198 A 
ATOM     84  F   UNL A   1      41.242  30.365  29.027  1.00  0.00    -0.203 F 
ATOM     85  F   UNL A   1      38.868  25.458  28.833  1.00  0.00    -0.200 F 
ATOM     86  C   UNL A   1      40.036  27.199  27.747  1.00  0.00     0.200 A 
ATOM     87  F   UNL A   1      41.231  28.955  26.718  1.00  0.00    -0.200 F 
ATOM     88  F   UNL A   1      40.080  26.485  26.615  1.00  0.00    -0.200 F 
ENDBRANCH  54  78
BRANCH  66  89
ATOM     89  C   UNL A   1      44.601  28.707  35.367  1.00  0.00     0.064 A 
ATOM     90  C   UNL A   1      44.594  27.463  36.016  1.00  0.00     0.173 A 
ATOM     91  C   UNL A   1      45.836  29.204  34.921  1.00  0.00     0.173 A 
ATOM     92  F   UNL A   1      43.443  26.948  36.474  1.00  0.00    -0.203 F 
ATOM     93  C   UNL A   1      45.777  26.765  36.243  1.00  0.00     0.198 A 
ATOM     94  C   UNL A   1      47.014  28.487  35.119  1.00  0.00     0.198 A 
ATOM     95  F   UNL A   1      45.903  30.383  34.284  1.00  0.00    -0.203 F 
ATOM     96  F   UNL A   1      45.751  25.608  36.920  1.00  0.00    -0.200 F 
ATOM     97  C   UNL A   1      46.985  27.275  35.791  1.00  0.00     0.200 A 
ATOM     98  F   UNL A   1      48.177  28.973  34.666  1.00  0.00    -0.200 F 
ATOM     99  F   UNL A   1      48.122  26.599  36.008  1.00  0.00    -0.200 F 
ENDBRANCH  66  89
ENDBRANCH  40  41
ENDBRANCH  33  35
ENDBRANCH  32  33
ENDBRANCH  31  32
ENDBRANCH  30  31
ENDBRANCH  29  30
ENDBRANCH  28  29
ENDBRANCH   1  28
TORSDOF 20
ENDMDL
MODEL 2
REMARK VINA RESULT:     -11.0      5.777     11.458
REMARK SMILES O=C(C[NH+]1CCN(c2nccc(N3CCCCC3)n2)CC1)OCCOCCOCCOC(=O)c1ccc(-c2c3nc(c(-c4c(F)c(F)c(F)c(F)c4F)c4ccc([nH]4)c(-c4c(F)c(F)c(F)c(F)c4F)c4nc(c(-c5c(F)c(F)c(F)c(F)c5F)c5ccc2[nH]5)C=C4)C=C3)cc1
REMARK SMILES IDX 26 1 25 2 24 3 23 4 22 5 2 6 1 7 3 8 4 9 5 10 21 11 6 13
REMARK SMILES IDX 20 14 7 15 8 16 9 17 19 18 10 19 12 20 11 21 13 22 14 23
REMARK SMILES IDX 18 24 15 25 17 26 16 27 27 28 28 29 29 30 30 31 31 32 32 33
REMARK SMILES IDX 33 34 34 35 35 36 96 37 36 38 95 39 37 40 38 41 39 42 89 43
REMARK SMILES IDX 40 44 94 45 88 46 90 47 41 48 93 49 87 50 86 51 42 53 74 54
REMARK SMILES IDX 54 55 73 56 55 57 58 58 72 59 91 60 56 61 57 62 71 64 92 65
REMARK SMILES IDX 59 66 43 67 44 68 52 69 45 70 46 71 50 72 53 73 47 74 48 75
REMARK SMILES IDX 51 76 49 77 75 78 76 79 84 80 77 81 78 82 82 83 85 84 79 85
REMARK SMILES IDX 80 86 83 87 81 88 60 89 61 90 69 91 62 92 63 93 67 94 70 95
REMARK SMILES IDX 64 96 65 97 68 98 66 99
REMARK H PARENT 4 12 90 52 58 63
REMARK Flexibility Score: inf
ROOT
ATOM      1  C   UNL A   1      35.989  21.832  24.407  1.00  0.00     0.188 C 
ENDROOT
BRANCH   1   2
ATOM      2  O   UNL A   1      35.049  22.156  25.410  1.00  0.00    -0.376 OA
BRANCH   2   3
ATOM      3  C   UNL A   1      34.344  21.133  26.082  1.00  0.00     0.202 C 
BRANCH   3   4
ATOM      4  C   UNL A   1      33.700  20.079  25.195  1.00  0.00     0.261 C 
BRANCH   4   5
ATOM      5  O   UNL A   1      32.474  20.410  24.512  1.00  0.00    -0.459 OA
BRANCH   5   6
ATOM      6  C   UNL A   1      32.245  20.734  23.229  1.00  0.00     0.361 C 
ATOM      7  O   UNL A   1      32.124  19.826  22.404  1.00  0.00    -0.245 OA
BRANCH   6   8
ATOM      8  C   UNL A   1      32.202  22.181  22.768  1.00  0.00     0.386 C 
BRANCH   8   9
ATOM      9  N   UNL A   1      32.790  23.227  23.627  1.00  0.00    -0.323 N 
ATOM     10  C   UNL A   1      33.550  24.177  22.761  1.00  0.00     0.284 C 
ATOM     11  C   UNL A   1      31.829  24.032  24.410  1.00  0.00     0.284 C 
ATOM     12  H   UNL A   1      33.365  22.723  24.301  1.00  0.00     0.348 HD
ATOM     13  C   UNL A   1      32.663  25.035  21.813  1.00  0.00     0.181 C 
ATOM     14  C   UNL A   1      30.852  24.871  23.579  1.00  0.00     0.181 C 
ATOM     15  N   UNL A   1      31.552  25.607  22.541  1.00  0.00    -0.329 N 
BRANCH  15  16
ATOM     16  C   UNL A   1      31.388  26.958  22.594  1.00  0.00     0.227 A 
ATOM     17  N   UNL A   1      30.299  27.479  22.024  1.00  0.00    -0.221 NA
ATOM     18  N   UNL A   1      32.182  27.612  23.448  1.00  0.00    -0.196 NA
ATOM     19  C   UNL A   1      29.928  28.682  22.479  1.00  0.00     0.119 A 
ATOM     20  C   UNL A   1      31.785  28.800  23.906  1.00  0.00     0.134 A 
ATOM     21  C   UNL A   1      30.615  29.369  23.454  1.00  0.00     0.067 A 
BRANCH  20  22
ATOM     22  N   UNL A   1      32.570  29.399  24.864  1.00  0.00    -0.356 N 
ATOM     23  C   UNL A   1      33.925  28.892  25.063  1.00  0.00     0.118 C 
ATOM     24  C   UNL A   1      31.973  30.277  25.858  1.00  0.00     0.118 C 
ATOM     25  C   UNL A   1      34.130  28.366  26.481  1.00  0.00     0.022 C 
ATOM     26  C   UNL A   1      32.199  29.735  27.272  1.00  0.00     0.022 C 
ATOM     27  C   UNL A   1      33.664  29.388  27.512  1.00  0.00     0.004 C 
ENDBRANCH  20  22
ENDBRANCH  15  16
ENDBRANCH   8   9
ENDBRANCH   6   8
ENDBRANCH   5   6
ENDBRANCH   4   5
ENDBRANCH   3   4
ENDBRANCH   2   3
ENDBRANCH   1   2
BRANCH   1  28
ATOM     28  C   UNL A   1      37.463  22.103  24.757  1.00  0.00     0.188 C 
BRANCH  28  29
ATOM     29  O   UNL A   1      38.158  21.261  25.665  1.00  0.00    -0.376 OA
BRANCH  29  30
ATOM     30  C   UNL A   1      38.349  19.892  25.355  1.00  0.00     0.202 C 
BRANCH  30  31
ATOM     31  C   UNL A   1      39.669  19.224  25.775  1.00  0.00     0.261 C 
BRANCH  31  32
ATOM     32  O   UNL A   1      40.848  20.057  25.722  1.00  0.00    -0.460 OA
BRANCH  32  33
ATOM     33  C   UNL A   1      41.521  20.218  26.890  1.00  0.00     0.338 C 
ATOM     34  O   UNL A   1      42.155  19.370  27.492  1.00  0.00    -0.246 OA
BRANCH  33  35
ATOM     35  C   UNL A   1      41.537  21.646  27.308  1.00  0.00     0.060 A 
ATOM     36  C   UNL A   1      41.060  22.605  26.402  1.00  0.00     0.016 A 
ATOM     37  C   UNL A   1      42.075  22.058  28.530  1.00  0.00     0.016 A 
ATOM     38  C   UNL A   1      41.169  23.971  26.685  1.00  0.00     0.010 A 
ATOM     39  C   UNL A   1      42.206  23.431  28.803  1.00  0.00     0.010 A 
ATOM     40  C   UNL A   1      41.792  24.398  27.864  1.00  0.00    -0.014 A 
BRANCH  40  41
ATOM     41  C   UNL A   1      42.192  25.827  28.012  1.00  0.00     0.031 A 
ATOM     42  C   UNL A   1      43.526  26.264  27.458  1.00  0.00     0.074 A 
ATOM     43  C   UNL A   1      41.386  26.742  28.581  1.00  0.00     0.049 A 
ATOM     44  N   UNL A   1      44.103  27.440  27.497  1.00  0.00    -0.248 NA
ATOM     45  C   UNL A   1      44.314  25.233  26.764  1.00  0.00     0.031 C 
ATOM     46  C   UNL A   1      40.051  26.482  29.114  1.00  0.00     0.029 A 
ATOM     47  N   UNL A   1      41.583  28.086  28.812  1.00  0.00    -0.354 N 
ATOM     48  C   UNL A   1      45.317  27.289  26.834  1.00  0.00     0.074 A 
ATOM     49  C   UNL A   1      45.409  25.901  26.435  1.00  0.00     0.031 C 
ATOM     50  C   UNL A   1      39.554  27.624  29.623  1.00  0.00     0.029 A 
ATOM     51  C   UNL A   1      40.547  28.691  29.480  1.00  0.00     0.049 A 
ATOM     52  H   UNL A   1      42.391  28.568  28.523  1.00  0.00     0.167 HD
ATOM     53  C   UNL A   1      46.265  28.220  26.570  1.00  0.00     0.037 A 
ATOM     54  C   UNL A   1      40.422  29.952  29.944  1.00  0.00     0.037 A 
ATOM     55  C   UNL A   1      46.186  29.604  26.963  1.00  0.00     0.049 A 
ATOM     56  C   UNL A   1      41.533  30.950  29.713  1.00  0.00     0.074 A 
ATOM     57  C   UNL A   1      47.100  30.619  26.733  1.00  0.00     0.029 A 
ATOM     58  N   UNL A   1      45.137  30.166  27.672  1.00  0.00    -0.354 N 
ATOM     59  N   UNL A   1      42.666  30.801  29.069  1.00  0.00    -0.248 NA
ATOM     60  C   UNL A   1      41.342  32.298  30.272  1.00  0.00     0.031 C 
ATOM     61  C   UNL A   1      46.629  31.783  27.347  1.00  0.00     0.029 A 
ATOM     62  C   UNL A   1      45.393  31.508  27.910  1.00  0.00     0.049 A 
ATOM     63  H   UNL A   1      44.330  29.683  27.964  1.00  0.00     0.167 HD
ATOM     64  C   UNL A   1      43.301  32.036  29.119  1.00  0.00     0.074 A 
ATOM     65  C   UNL A   1      42.420  32.932  29.836  1.00  0.00     0.031 C 
ATOM     66  C   UNL A   1      44.508  32.397  28.616  1.00  0.00     0.037 A 
BRANCH  53  67
ATOM     67  C   UNL A   1      47.492  27.772  25.830  1.00  0.00     0.064 A 
ATOM     68  C   UNL A   1      48.623  27.292  26.506  1.00  0.00     0.173 A 
ATOM     69  C   UNL A   1      47.513  27.765  24.428  1.00  0.00     0.173 A 
ATOM     70  F   UNL A   1      48.658  27.289  27.848  1.00  0.00    -0.203 F 
ATOM     71  C   UNL A   1      49.738  26.839  25.805  1.00  0.00     0.198 A 
ATOM     72  C   UNL A   1      48.617  27.284  23.729  1.00  0.00     0.198 A 
ATOM     73  F   UNL A   1      46.453  28.207  23.733  1.00  0.00    -0.203 F 
ATOM     74  F   UNL A   1      50.822  26.421  26.471  1.00  0.00    -0.200 F 
ATOM     75  C   UNL A   1      49.730  26.826  24.418  1.00  0.00     0.200 A 
ATOM     76  F   UNL A   1      48.601  27.258  22.390  1.00  0.00    -0.200 F 
ATOM     77  F   UNL A   1      50.797  26.375  23.744  1.00  0.00    -0.200 F 
ENDBRANCH  53  67
BRANCH  54  78
ATOM     78  C   UNL A   1      39.209  30.358  30.709  1.00  0.00     0.064 A 
ATOM     79  C   UNL A   1      39.121  30.160  32.094  1.00  0.00     0.173 A 
ATOM     80  C   UNL A   1      38.087  30.890  30.057  1.00  0.00     0.173 A 
ATOM     81  F   UNL A   1      40.155  29.621  32.760  1.00  0.00    -0.203 F 
ATOM     82  C   UNL A   1      37.949  30.447  32.792  1.00  0.00     0.198 A 
ATOM     83  C   UNL A   1      36.927  31.210  30.761  1.00  0.00     0.198 A 
ATOM     84  F   UNL A   1      38.112  31.094  28.732  1.00  0.00    -0.203 F 
ATOM     85  F   UNL A   1      37.870  30.181  34.104  1.00  0.00    -0.200 F 
ATOM     86  C   UNL A   1      36.855  30.976  32.126  1.00  0.00     0.200 A 
ATOM     87  F   UNL A   1      35.875  31.729  30.115  1.00  0.00    -0.200 F 
ATOM     88  F   UNL A   1      35.725  31.245  32.794  1.00  0.00    -0.200 F 
ENDBRANCH  54  78
BRANCH  66  89
ATOM     89  C   UNL A   1      44.933  33.830  28.786  1.00  0.00     0.064 A 
ATOM     90  C   UNL A   1      45.708  34.248  29.879  1.00  0.00     0.173 A 
ATOM     91  C   UNL A   1      44.580  34.795  27.829  1.00  0.00     0.173 A 
ATOM     92  F   UNL A   1      46.063  33.371  30.829  1.00  0.00    -0.203 F 
ATOM     93  C   UNL A   1      46.081  35.582  30.026  1.00  0.00     0.198 A 
ATOM     94  C   UNL A   1      44.984  36.122  27.961  1.00  0.00     0.198 A 
ATOM     95  F   UNL A   1      43.849  34.451  26.758  1.00  0.00    -0.203 F 
ATOM     96  F   UNL A   1      46.771  35.967  31.109  1.00  0.00    -0.200 F 
ATOM     97  C   UNL A   1      45.724  36.516  29.065  1.00  0.00     0.200 A 
ATOM     98  F   UNL A   1      44.653  37.018  27.023  1.00  0.00    -0.200 F 
ATOM     99  F   UNL A   1      46.087  37.799  29.207  1.00  0.00    -0.200 F 
ENDBRANCH  66  89
ENDBRANCH  40  41
ENDBRANCH  33  35
ENDBRANCH  32  33
ENDBRANCH  31  32
ENDBRANCH  30  31
ENDBRANCH  29  30
ENDBRANCH  28  29
ENDBRANCH   1  28
TORSDOF 20
ENDMDL
MODEL 3
REMARK VINA RESULT:     -10.4      1.555      7.560
REMARK SMILES O=C(C[NH+]1CCN(c2nccc(N3CCCCC3)n2)CC1)OCCOCCOCCOC(=O)c1ccc(-c2c3nc(c(-c4c(F)c(F)c(F)c(F)c4F)c4ccc([nH]4)c(-c4c(F)c(F)c(F)c(F)c4F)c4nc(c(-c5c(F)c(F)c(F)c(F)c5F)c5ccc2[nH]5)C=C4)C=C3)cc1
REMARK SMILES IDX 26 1 25 2 24 3 23 4 22 5 2 6 1 7 3 8 4 9 5 10 21 11 6 13
REMARK SMILES IDX 20 14 7 15 8 16 9 17 19 18 10 19 12 20 11 21 13 22 14 23
REMARK SMILES IDX 18 24 15 25 17 26 16 27 27 28 28 29 29 30 30 31 31 32 32 33
REMARK SMILES IDX 33 34 34 35 35 36 96 37 36 38 95 39 37 40 38 41 39 42 89 43
REMARK SMILES IDX 40 44 94 45 88 46 90 47 41 48 93 49 87 50 86 51 42 53 74 54
REMARK SMILES IDX 54 55 73 56 55 57 58 58 72 59 91 60 56 61 57 62 71 64 92 65
REMARK SMILES IDX 59 66 43 67 44 68 52 69 45 70 46 71 50 72 53 73 47 74 48 75
REMARK SMILES IDX 51 76 49 77 75 78 76 79 84 80 77 81 78 82 82 83 85 84 79 85
REMARK SMILES IDX 80 86 83 87 81 88 60 89 61 90 69 91 62 92 63 93 67 94 70 95
REMARK SMILES IDX 64 96 65 97 68 98 66 99
REMARK H PARENT 4 12 90 52 58 63
REMARK Flexibility Score: inf
ROOT
ATOM      1  C   UNL A   1      34.338  31.837  28.506  1.00  0.00     0.188 C 
ENDROOT
BRANCH   1   2
ATOM      2  O   UNL A   1      34.190  31.192  27.259  1.00  0.00    -0.376 OA
BRANCH   2   3
ATOM      3  C   UNL A   1      33.976  29.797  27.200  1.00  0.00     0.202 C 
BRANCH   3   4
ATOM      4  C   UNL A   1      32.543  29.355  26.953  1.00  0.00     0.261 C 
BRANCH   4   5
ATOM      5  O   UNL A   1      31.934  29.671  25.685  1.00  0.00    -0.459 OA
BRANCH   5   6
ATOM      6  C   UNL A   1      31.432  28.871  24.729  1.00  0.00     0.361 C 
ATOM      7  O   UNL A   1      31.153  29.365  23.634  1.00  0.00    -0.245 OA
BRANCH   6   8
ATOM      8  C   UNL A   1      31.141  27.404  24.989  1.00  0.00     0.386 C 
BRANCH   8   9
ATOM      9  N   UNL A   1      31.792  26.381  24.148  1.00  0.00    -0.323 N 
ATOM     10  C   UNL A   1      33.266  26.453  24.372  1.00  0.00     0.284 C 
ATOM     11  C   UNL A   1      31.384  24.984  24.404  1.00  0.00     0.284 C 
ATOM     12  H   UNL A   1      31.502  26.599  23.195  1.00  0.00     0.348 HD
ATOM     13  C   UNL A   1      33.724  26.006  25.791  1.00  0.00     0.181 C 
ATOM     14  C   UNL A   1      31.722  24.451  25.801  1.00  0.00     0.181 C 
ATOM     15  N   UNL A   1      33.098  24.753  26.153  1.00  0.00    -0.329 N 
BRANCH  15  16
ATOM     16  C   UNL A   1      33.862  23.664  26.447  1.00  0.00     0.227 A 
ATOM     17  N   UNL A   1      33.238  22.506  26.671  1.00  0.00    -0.221 NA
ATOM     18  N   UNL A   1      35.173  23.785  26.211  1.00  0.00    -0.196 NA
ATOM     19  C   UNL A   1      33.979  21.405  26.491  1.00  0.00     0.119 A 
ATOM     20  C   UNL A   1      35.889  22.678  26.013  1.00  0.00     0.134 A 
ATOM     21  C   UNL A   1      35.304  21.436  26.118  1.00  0.00     0.067 A 
BRANCH  20  22
ATOM     22  N   UNL A   1      37.212  22.840  25.667  1.00  0.00    -0.356 N 
ATOM     23  C   UNL A   1      37.925  21.696  25.108  1.00  0.00     0.118 C 
ATOM     24  C   UNL A   1      37.956  23.997  26.138  1.00  0.00     0.118 C 
ATOM     25  C   UNL A   1      39.113  21.291  25.976  1.00  0.00     0.022 C 
ATOM     26  C   UNL A   1      39.148  23.567  26.998  1.00  0.00     0.022 C 
ATOM     27  C   UNL A   1      39.984  22.498  26.302  1.00  0.00     0.004 C 
ENDBRANCH  20  22
ENDBRANCH  15  16
ENDBRANCH   8   9
ENDBRANCH   6   8
ENDBRANCH   5   6
ENDBRANCH   4   5
ENDBRANCH   3   4
ENDBRANCH   2   3
ENDBRANCH   1   2
BRANCH   1  28
ATOM     28  C   UNL A   1      35.588  32.722  28.659  1.00  0.00     0.188 C 
BRANCH  28  29
ATOM     29  O   UNL A   1      35.463  34.116  28.897  1.00  0.00    -0.376 OA
BRANCH  29  30
ATOM     30  C   UNL A   1      34.422  34.849  28.276  1.00  0.00     0.202 C 
BRANCH  30  31
ATOM     31  C   UNL A   1      33.359  35.510  29.168  1.00  0.00     0.261 C 
BRANCH  31  32
ATOM     32  O   UNL A   1      32.927  34.745  30.316  1.00  0.00    -0.460 OA
BRANCH  32  33
ATOM     33  C   UNL A   1      32.986  35.380  31.514  1.00  0.00     0.338 C 
ATOM     34  O   UNL A   1      32.180  36.177  31.960  1.00  0.00    -0.246 OA
BRANCH  33  35
ATOM     35  C   UNL A   1      34.111  34.865  32.341  1.00  0.00     0.060 A 
ATOM     36  C   UNL A   1      35.324  35.571  32.319  1.00  0.00     0.016 A 
ATOM     37  C   UNL A   1      34.017  33.676  33.069  1.00  0.00     0.016 A 
ATOM     38  C   UNL A   1      36.454  35.067  32.971  1.00  0.00     0.010 A 
ATOM     39  C   UNL A   1      35.161  33.159  33.703  1.00  0.00     0.010 A 
ATOM     40  C   UNL A   1      36.398  33.830  33.623  1.00  0.00    -0.014 A 
BRANCH  40  41
ATOM     41  C   UNL A   1      37.662  33.152  34.033  1.00  0.00     0.031 A 
ATOM     42  C   UNL A   1      38.246  32.102  33.119  1.00  0.00     0.074 A 
ATOM     43  C   UNL A   1      38.318  33.478  35.162  1.00  0.00     0.049 A 
ATOM     44  N   UNL A   1      39.312  31.356  33.276  1.00  0.00    -0.248 NA
ATOM     45  C   UNL A   1      37.529  31.864  31.856  1.00  0.00     0.031 C 
ATOM     46  C   UNL A   1      37.906  34.506  36.114  1.00  0.00     0.029 A 
ATOM     47  N   UNL A   1      39.476  32.965  35.702  1.00  0.00    -0.354 N 
ATOM     48  C   UNL A   1      39.392  30.564  32.135  1.00  0.00     0.074 A 
ATOM     49  C   UNL A   1      38.249  30.896  31.311  1.00  0.00     0.031 C 
ATOM     50  C   UNL A   1      38.788  34.537  37.130  1.00  0.00     0.029 A 
ATOM     51  C   UNL A   1      39.811  33.513  36.916  1.00  0.00     0.049 A 
ATOM     52  H   UNL A   1      40.014  32.270  35.258  1.00  0.00     0.167 HD
ATOM     53  C   UNL A   1      40.336  29.653  31.796  1.00  0.00     0.037 A 
ATOM     54  C   UNL A   1      40.813  33.208  37.768  1.00  0.00     0.037 A 
ATOM     55  C   UNL A   1      41.476  29.313  32.607  1.00  0.00     0.049 A 
ATOM     56  C   UNL A   1      41.803  32.125  37.405  1.00  0.00     0.074 A 
ATOM     57  C   UNL A   1      42.485  28.404  32.338  1.00  0.00     0.029 A 
ATOM     58  N   UNL A   1      41.757  29.864  33.847  1.00  0.00    -0.354 N 
ATOM     59  N   UNL A   1      41.879  31.398  36.316  1.00  0.00    -0.248 NA
ATOM     60  C   UNL A   1      42.851  31.825  38.393  1.00  0.00     0.031 C 
ATOM     61  C   UNL A   1      43.348  28.366  33.437  1.00  0.00     0.029 A 
ATOM     62  C   UNL A   1      42.910  29.295  34.367  1.00  0.00     0.049 A 
ATOM     63  H   UNL A   1      41.217  30.557  34.293  1.00  0.00     0.167 HD
ATOM     64  C   UNL A   1      42.995  30.584  36.476  1.00  0.00     0.074 A 
ATOM     65  C   UNL A   1      43.579  30.920  37.756  1.00  0.00     0.031 C 
ATOM     66  C   UNL A   1      43.492  29.641  35.637  1.00  0.00     0.037 A 
BRANCH  53  67
ATOM     67  C   UNL A   1      40.169  28.934  30.489  1.00  0.00     0.064 A 
ATOM     68  C   UNL A   1      40.724  29.431  29.300  1.00  0.00     0.173 A 
ATOM     69  C   UNL A   1      39.500  27.702  30.436  1.00  0.00     0.173 A 
ATOM     70  F   UNL A   1      41.364  30.610  29.295  1.00  0.00    -0.203 F 
ATOM     71  C   UNL A   1      40.598  28.731  28.103  1.00  0.00     0.198 A 
ATOM     72  C   UNL A   1      39.401  26.990  29.244  1.00  0.00     0.198 A 
ATOM     73  F   UNL A   1      38.956  27.179  31.546  1.00  0.00    -0.203 F 
ATOM     74  F   UNL A   1      41.102  29.243  26.973  1.00  0.00    -0.200 F 
ATOM     75  C   UNL A   1      39.946  27.506  28.078  1.00  0.00     0.200 A 
ATOM     76  F   UNL A   1      38.784  25.801  29.224  1.00  0.00    -0.200 F 
ATOM     77  F   UNL A   1      39.839  26.826  26.928  1.00  0.00    -0.200 F 
ENDBRANCH  53  67
BRANCH  54  78
ATOM     78  C   UNL A   1      40.932  33.911  39.076  1.00  0.00     0.064 A 
ATOM     79  C   UNL A   1      41.794  35.005  39.239  1.00  0.00     0.173 A 
ATOM     80  C   UNL A   1      40.236  33.459  40.207  1.00  0.00     0.173 A 
ATOM     81  F   UNL A   1      42.509  35.455  38.196  1.00  0.00    -0.203 F 
ATOM     82  C   UNL A   1      41.980  35.598  40.486  1.00  0.00     0.198 A 
ATOM     83  C   UNL A   1      40.396  34.075  41.447  1.00  0.00     0.198 A 
ATOM     84  F   UNL A   1      39.404  32.411  40.111  1.00  0.00    -0.203 F 
ATOM     85  F   UNL A   1      42.864  36.597  40.626  1.00  0.00    -0.200 F 
ATOM     86  C   UNL A   1      41.277  35.136  41.588  1.00  0.00     0.200 A 
ATOM     87  F   UNL A   1      39.709  33.630  42.507  1.00  0.00    -0.200 F 
ATOM     88  F   UNL A   1      41.461  35.701  42.789  1.00  0.00    -0.200 F 
ENDBRANCH  54  78
BRANCH  66  89
ATOM     89  C   UNL A   1      44.751  28.931  36.055  1.00  0.00     0.064 A 
ATOM     90  C   UNL A   1      46.023  29.426  35.729  1.00  0.00     0.173 A 
ATOM     91  C   UNL A   1      44.685  27.752  36.814  1.00  0.00     0.173 A 
ATOM     92  F   UNL A   1      46.145  30.543  34.995  1.00  0.00    -0.203 F 
ATOM     93  C   UNL A   1      47.177  28.749  36.114  1.00  0.00     0.198 A 
ATOM     94  C   UNL A   1      45.842  27.095  37.228  1.00  0.00     0.198 A 
ATOM     95  F   UNL A   1      43.496  27.238  37.164  1.00  0.00    -0.203 F 
ATOM     96  F   UNL A   1      48.380  29.210  35.739  1.00  0.00    -0.200 F 
ATOM     97  C   UNL A   1      47.086  27.588  36.867  1.00  0.00     0.200 A 
ATOM     98  F   UNL A   1      45.751  25.984  37.969  1.00  0.00    -0.200 F 
ATOM     99  F   UNL A   1      48.199  26.939  37.239  1.00  0.00    -0.200 F 
ENDBRANCH  66  89
ENDBRANCH  40  41
ENDBRANCH  33  35
ENDBRANCH  32  33
ENDBRANCH  31  32
ENDBRANCH  30  31
ENDBRANCH  29  30
ENDBRANCH  28  29
ENDBRANCH   1  28
TORSDOF 20
ENDMDL
