MODEL 1
REMARK VINA RESULT:     -10.4      0.000      0.000
REMARK SMILES Cc1ccc(C(c2ccccc2)(c2ccccc2)n2cnc(C[C@H]([NH3+])C(=O)OCCOCCOCCOC(=O)c3ccc(-c4c5nc(c(-c6c(F)c(F)c(F)c(F)c6F)c6ccc([nH]6)c(-c6c(F)c(F)c(F)c(F)c6F)c6nc(c(-c7c(F)c(F)c(F)c(F)c7F)c7ccc4[nH]7)C=C6)C=C5)cc3)c2)cc1
REMARK SMILES IDX 32 1 31 2 30 3 29 4 28 5 26 6 27 7 24 8 23 9 22 10 19 11
REMARK SMILES IDX 20 12 103 13 21 14 6 15 5 16 1 17 2 18 3 19 105 20 4 21
REMARK SMILES IDX 104 22 7 23 8 24 12 25 9 26 11 27 10 28 13 29 14 30 18 31
REMARK SMILES IDX 15 32 17 33 16 34 25 35 33 39 34 40 35 41 36 42 37 43 38 44
REMARK SMILES IDX 39 45 40 46 41 47 102 48 42 49 101 50 43 51 44 52 45 53
REMARK SMILES IDX 95 54 46 55 100 56 94 57 96 58 47 59 99 60 93 61 92 62 48 64
REMARK SMILES IDX 80 65 60 66 79 67 61 68 64 69 78 70 97 71 62 72 63 73 77 75
REMARK SMILES IDX 98 76 65 77 49 78 50 79 58 80 51 81 52 82 56 83 59 84 53 85
REMARK SMILES IDX 54 86 57 87 55 88 81 89 82 90 90 91 83 92 84 93 88 94 91 95
REMARK SMILES IDX 85 96 86 97 89 98 87 99 66 100 67 101 75 102 68 103 69 104
REMARK SMILES IDX 73 105 76 106 70 107 71 108 74 109 72 110
REMARK H PARENT 25 36 25 37 25 38 96 63 64 74
REMARK Flexibility Score: inf
ROOT
ATOM      1  C   UNL A   1      42.626  21.604  26.740  1.00  0.00     0.188 C 
ENDROOT
BRANCH   1   2
ATOM      2  O   UNL A   1      41.769  20.761  26.016  1.00  0.00    -0.376 OA
BRANCH   2   3
ATOM      3  C   UNL A   1      41.862  19.394  26.313  1.00  0.00     0.202 C 
BRANCH   3   4
ATOM      4  C   UNL A   1      43.011  18.527  25.760  1.00  0.00     0.261 C 
BRANCH   4   5
ATOM      5  O   UNL A   1      44.596  19.166  25.389  1.00  0.00    -0.459 OA
BRANCH   5   6
ATOM      6  C   UNL A   1      45.664  20.100  25.145  1.00  0.00     0.365 C 
ATOM      7  O   UNL A   1      46.735  19.485  24.997  1.00  0.00    -0.245 OA
BRANCH   6   8
ATOM      8  C   UNL A   1      45.894  21.848  25.111  1.00  0.00     0.297 C 
BRANCH   8   9
ATOM      9  C   UNL A   1      45.143  23.249  25.276  1.00  0.00     0.135 C 
BRANCH   9  10
ATOM     10  C   UNL A   1      45.969  24.291  25.968  1.00  0.00     0.065 A 
ATOM     11  N   UNL A   1      47.469  25.899  26.264  1.00  0.00    -0.319 N 
ATOM     12  C   UNL A   1      47.745  24.769  26.987  1.00  0.00     0.201 A 
ATOM     13  C   UNL A   1      46.242  25.621  25.662  1.00  0.00     0.112 A 
ATOM     14  N   UNL A   1      46.827  23.852  26.909  1.00  0.00    -0.241 NA
BRANCH  11  15
ATOM     15  C   UNL A   1      48.493  27.001  25.972  1.00  0.00     0.121 C 
BRANCH  15  16
ATOM     16  C   UNL A   1      48.063  28.315  26.819  1.00  0.00    -0.013 A 
ATOM     17  C   UNL A   1      45.885  32.546  29.067  1.00  0.00     0.044 C 
ATOM     18  C   UNL A   1      46.560  31.367  28.459  1.00  0.00    -0.051 A 
ATOM     19  C   UNL A   1      45.922  29.763  28.877  1.00  0.00     0.004 A 
ATOM     20  C   UNL A   1      47.895  31.433  27.312  1.00  0.00     0.004 A 
ATOM     21  C   UNL A   1      46.760  28.132  28.036  1.00  0.00     0.007 A 
ATOM     22  C   UNL A   1      48.626  29.974  26.545  1.00  0.00     0.007 A 
ENDBRANCH  15  16
BRANCH  15  23
ATOM     23  C   UNL A   1      49.907  26.477  26.532  1.00  0.00    -0.013 A 
ATOM     24  C   UNL A   1      50.544  27.067  27.657  1.00  0.00     0.007 A 
ATOM     25  C   UNL A   1      50.709  25.580  25.794  1.00  0.00     0.007 A 
ATOM     26  C   UNL A   1      51.877  26.796  28.001  1.00  0.00     0.000 A 
ATOM     27  C   UNL A   1      52.058  25.348  26.106  1.00  0.00     0.000 A 
ATOM     28  C   UNL A   1      52.642  25.950  27.213  1.00  0.00     0.000 A 
ENDBRANCH  15  23
BRANCH  15  29
ATOM     29  C   UNL A   1      48.425  27.188  24.403  1.00  0.00    -0.013 A 
ATOM     30  C   UNL A   1      49.588  27.088  23.607  1.00  0.00     0.007 A 
ATOM     31  C   UNL A   1      47.316  27.785  23.760  1.00  0.00     0.007 A 
ATOM     32  C   UNL A   1      49.630  27.484  22.264  1.00  0.00     0.000 A 
ATOM     33  C   UNL A   1      47.373  28.249  22.435  1.00  0.00     0.000 A 
ATOM     34  C   UNL A   1      48.525  28.082  21.682  1.00  0.00     0.000 A 
ENDBRANCH  15  29
ENDBRANCH  11  15
ENDBRANCH   9  10
ENDBRANCH   8   9
BRANCH   8  35
ATOM     35  N   UNL A   1      46.779  22.119  23.872  1.00  0.00    -0.346 N 
ATOM     36  H   UNL A   1      46.474  22.979  23.417  1.00  0.00     0.345 HD
ATOM     37  H   UNL A   1      46.695  21.340  23.218  1.00  0.00     0.345 HD
ATOM     38  H   UNL A   1      47.752  22.214  24.163  1.00  0.00     0.345 HD
ENDBRANCH   8  35
ENDBRANCH   6   8
ENDBRANCH   5   6
ENDBRANCH   4   5
ENDBRANCH   3   4
ENDBRANCH   2   3
ENDBRANCH   1   2
BRANCH   1  39
ATOM     39  C   UNL A   1      42.011  22.715  27.545  1.00  0.00     0.188 C 
BRANCH  39  40
ATOM     40  O   UNL A   1      40.806  23.253  27.041  1.00  0.00    -0.376 OA
BRANCH  40  41
ATOM     41  C   UNL A   1      40.677  24.534  26.512  1.00  0.00     0.202 C 
BRANCH  41  42
ATOM     42  C   UNL A   1      41.861  24.784  25.624  1.00  0.00     0.261 C 
BRANCH  42  43
ATOM     43  O   UNL A   1      42.363  26.148  25.891  1.00  0.00    -0.460 OA
BRANCH  43  44
ATOM     44  C   UNL A   1      42.633  26.608  27.156  1.00  0.00     0.338 C 
ATOM     45  O   UNL A   1      43.439  26.065  27.903  1.00  0.00    -0.246 OA
BRANCH  44  46
ATOM     46  C   UNL A   1      41.850  27.844  27.579  1.00  0.00     0.060 A 
ATOM     47  C   UNL A   1      42.498  29.029  27.876  1.00  0.00     0.016 A 
ATOM     48  C   UNL A   1      40.481  27.857  27.844  1.00  0.00     0.016 A 
ATOM     49  C   UNL A   1      41.788  30.033  28.585  1.00  0.00     0.010 A 
ATOM     50  C   UNL A   1      39.922  28.778  28.797  1.00  0.00     0.010 A 
ATOM     51  C   UNL A   1      40.695  29.778  29.410  1.00  0.00    -0.014 A 
BRANCH  51  52
ATOM     52  C   UNL A   1      40.300  30.443  30.923  1.00  0.00     0.031 A 
ATOM     53  C   UNL A   1      39.395  31.572  30.705  1.00  0.00     0.074 A 
ATOM     54  C   UNL A   1      40.662  30.267  32.350  1.00  0.00     0.049 A 
ATOM     55  N   UNL A   1      39.233  32.502  31.571  1.00  0.00    -0.248 NA
ATOM     56  C   UNL A   1      38.871  31.930  29.381  1.00  0.00     0.031 C 
ATOM     57  C   UNL A   1      39.646  29.962  33.455  1.00  0.00     0.029 A 
ATOM     58  N   UNL A   1      41.776  29.653  33.037  1.00  0.00    -0.354 N 
ATOM     59  C   UNL A   1      38.231  33.273  31.077  1.00  0.00     0.074 A 
ATOM     60  C   UNL A   1      38.319  33.112  29.655  1.00  0.00     0.031 C 
ATOM     61  C   UNL A   1      40.192  29.261  34.498  1.00  0.00     0.029 A 
ATOM     62  C   UNL A   1      41.634  29.099  34.296  1.00  0.00     0.049 A 
ATOM     63  H   UNL A   1      42.657  29.629  32.597  1.00  0.00     0.167 HD
ATOM     64  C   UNL A   1      37.242  33.618  31.937  1.00  0.00     0.037 A 
ATOM     65  C   UNL A   1      42.702  29.199  35.153  1.00  0.00     0.037 A 
ATOM     66  C   UNL A   1      37.499  33.028  33.284  1.00  0.00     0.049 A 
ATOM     67  C   UNL A   1      42.400  30.502  35.828  1.00  0.00     0.074 A 
ATOM     68  C   UNL A   1      36.884  32.031  34.025  1.00  0.00     0.029 A 
ATOM     69  N   UNL A   1      38.740  33.195  33.906  1.00  0.00    -0.354 N 
ATOM     70  N   UNL A   1      41.271  31.095  35.558  1.00  0.00    -0.248 NA
ATOM     71  C   UNL A   1      43.167  31.227  36.811  1.00  0.00     0.031 C 
ATOM     72  C   UNL A   1      37.684  31.766  35.186  1.00  0.00     0.029 A 
ATOM     73  C   UNL A   1      38.824  32.548  35.126  1.00  0.00     0.049 A 
ATOM     74  H   UNL A   1      39.478  33.718  33.517  1.00  0.00     0.167 HD
ATOM     75  C   UNL A   1      41.051  32.189  36.260  1.00  0.00     0.074 A 
ATOM     76  C   UNL A   1      42.319  32.254  37.034  1.00  0.00     0.031 C 
ATOM     77  C   UNL A   1      39.892  32.902  36.045  1.00  0.00     0.037 A 
BRANCH  64  78
ATOM     78  C   UNL A   1      35.911  34.208  31.513  1.00  0.00     0.064 A 
ATOM     79  C   UNL A   1      35.298  35.154  32.355  1.00  0.00     0.173 A 
ATOM     80  C   UNL A   1      35.179  33.919  30.336  1.00  0.00     0.173 A 
ATOM     81  F   UNL A   1      35.906  35.598  33.463  1.00  0.00    -0.203 F 
ATOM     82  C   UNL A   1      34.043  35.704  32.084  1.00  0.00     0.198 A 
ATOM     83  C   UNL A   1      33.924  34.469  30.065  1.00  0.00     0.198 A 
ATOM     84  F   UNL A   1      35.629  33.119  29.370  1.00  0.00    -0.203 F 
ATOM     85  F   UNL A   1      33.511  36.583  32.943  1.00  0.00    -0.200 F 
ATOM     86  C   UNL A   1      33.351  35.356  30.944  1.00  0.00     0.200 A 
ATOM     87  F   UNL A   1      33.283  34.132  28.935  1.00  0.00    -0.200 F 
ATOM     88  F   UNL A   1      32.151  35.889  30.682  1.00  0.00    -0.200 F 
ENDBRANCH  64  78
BRANCH  65  89
ATOM     89  C   UNL A   1      44.024  28.626  34.651  1.00  0.00     0.064 A 
ATOM     90  C   UNL A   1      44.130  27.213  34.625  1.00  0.00     0.173 A 
ATOM     91  C   UNL A   1      45.019  29.302  33.921  1.00  0.00     0.173 A 
ATOM     92  F   UNL A   1      43.316  26.473  35.394  1.00  0.00    -0.203 F 
ATOM     93  C   UNL A   1      44.986  26.532  33.744  1.00  0.00     0.198 A 
ATOM     94  C   UNL A   1      45.885  28.614  33.035  1.00  0.00     0.198 A 
ATOM     95  F   UNL A   1      45.115  30.637  33.981  1.00  0.00    -0.203 F 
ATOM     96  F   UNL A   1      44.905  25.196  33.628  1.00  0.00    -0.200 F 
ATOM     97  C   UNL A   1      45.786  27.240  32.873  1.00  0.00     0.200 A 
ATOM     98  F   UNL A   1      46.712  29.302  32.229  1.00  0.00    -0.200 F 
ATOM     99  F   UNL A   1      46.369  26.616  31.835  1.00  0.00    -0.200 F 
ENDBRANCH  65  89
BRANCH  77 100
ATOM    100  C   UNL A   1      39.811  34.260  36.617  1.00  0.00     0.064 A 
ATOM    101  C   UNL A   1      39.090  34.245  38.232  1.00  0.00     0.173 A 
ATOM    102  C   UNL A   1      41.095  35.398  36.129  1.00  0.00     0.173 A 
ATOM    103  F   UNL A   1      38.075  33.393  38.461  1.00  0.00    -0.203 F 
ATOM    104  C   UNL A   1      39.678  35.197  39.542  1.00  0.00     0.198 A 
ATOM    105  C   UNL A   1      41.777  36.474  37.377  1.00  0.00     0.198 A 
ATOM    106  F   UNL A   1      41.640  35.449  34.910  1.00  0.00    -0.203 F 
ATOM    107  F   UNL A   1      39.170  35.035  40.769  1.00  0.00    -0.200 F 
ATOM    108  C   UNL A   1      41.025  36.330  39.243  1.00  0.00     0.200 A 
ATOM    109  F   UNL A   1      42.780  37.245  36.850  1.00  0.00    -0.200 F 
ATOM    110  F   UNL A   1      41.367  36.949  40.412  1.00  0.00    -0.200 F 
ENDBRANCH  77 100
ENDBRANCH  51  52
ENDBRANCH  44  46
ENDBRANCH  43  44
ENDBRANCH  42  43
ENDBRANCH  41  42
ENDBRANCH  40  41
ENDBRANCH  39  40
ENDBRANCH   1  39
TORSDOF 24
ENDMDL
MODEL 2
REMARK VINA RESULT:     -10.3      4.834      8.147
REMARK SMILES Cc1ccc(C(c2ccccc2)(c2ccccc2)n2cnc(C[C@H]([NH3+])C(=O)OCCOCCOCCOC(=O)c3ccc(-c4c5nc(c(-c6c(F)c(F)c(F)c(F)c6F)c6ccc([nH]6)c(-c6c(F)c(F)c(F)c(F)c6F)c6nc(c(-c7c(F)c(F)c(F)c(F)c7F)c7ccc4[nH]7)C=C6)C=C5)cc3)c2)cc1
REMARK SMILES IDX 32 1 31 2 30 3 29 4 28 5 26 6 27 7 24 8 23 9 22 10 19 11
REMARK SMILES IDX 20 12 103 13 21 14 6 15 5 16 1 17 2 18 3 19 105 20 4 21
REMARK SMILES IDX 104 22 7 23 8 24 12 25 9 26 11 27 10 28 13 29 14 30 18 31
REMARK SMILES IDX 15 32 17 33 16 34 25 35 33 39 34 40 35 41 36 42 37 43 38 44
REMARK SMILES IDX 39 45 40 46 41 47 102 48 42 49 101 50 43 51 44 52 45 53
REMARK SMILES IDX 95 54 46 55 100 56 94 57 96 58 47 59 99 60 93 61 92 62 48 64
REMARK SMILES IDX 80 65 60 66 79 67 61 68 64 69 78 70 97 71 62 72 63 73 77 75
REMARK SMILES IDX 98 76 65 77 49 78 50 79 58 80 51 81 52 82 56 83 59 84 53 85
REMARK SMILES IDX 54 86 57 87 55 88 81 89 82 90 90 91 83 92 84 93 88 94 91 95
REMARK SMILES IDX 85 96 86 97 89 98 87 99 66 100 67 101 75 102 68 103 69 104
REMARK SMILES IDX 73 105 76 106 70 107 71 108 74 109 72 110
REMARK H PARENT 25 36 25 37 25 38 96 63 64 74
REMARK Flexibility Score: inf
ROOT
ATOM      1  C   UNL A   1      43.904  28.517  27.557  1.00  0.00     0.188 C 
ENDROOT
BRANCH   1   2
ATOM      2  O   UNL A   1      42.646  29.133  27.628  1.00  0.00    -0.376 OA
BRANCH   2   3
ATOM      3  C   UNL A   1      42.504  30.124  28.610  1.00  0.00     0.202 C 
BRANCH   3   4
ATOM      4  C   UNL A   1      43.643  31.115  28.922  1.00  0.00     0.261 C 
BRANCH   4   5
ATOM      5  O   UNL A   1      43.880  32.606  28.038  1.00  0.00    -0.459 OA
BRANCH   5   6
ATOM      6  C   UNL A   1      43.935  34.011  27.729  1.00  0.00     0.365 C 
ATOM      7  O   UNL A   1      45.110  34.412  27.801  1.00  0.00    -0.245 OA
BRANCH   6   8
ATOM      8  C   UNL A   1      42.806  35.323  27.394  1.00  0.00     0.297 C 
BRANCH   8   9
ATOM      9  C   UNL A   1      42.664  36.753  26.695  1.00  0.00     0.135 C 
BRANCH   9  10
ATOM     10  C   UNL A   1      43.523  37.811  27.319  1.00  0.00     0.065 A 
ATOM     11  N   UNL A   1      45.149  39.303  27.550  1.00  0.00    -0.319 N 
ATOM     12  C   UNL A   1      45.227  38.279  28.457  1.00  0.00     0.201 A 
ATOM     13  C   UNL A   1      43.967  39.047  26.856  1.00  0.00     0.112 A 
ATOM     14  N   UNL A   1      44.229  37.449  28.408  1.00  0.00    -0.241 NA
BRANCH  11  15
ATOM     15  C   UNL A   1      46.310  40.247  27.222  1.00  0.00     0.121 C 
BRANCH  15  16
ATOM     16  C   UNL A   1      46.797  40.934  28.607  1.00  0.00    -0.013 A 
ATOM     17  C   UNL A   1      47.539  43.576  33.099  1.00  0.00     0.044 C 
ATOM     18  C   UNL A   1      47.395  42.815  31.828  1.00  0.00    -0.051 A 
ATOM     19  C   UNL A   1      46.301  41.416  31.839  1.00  0.00     0.004 A 
ATOM     20  C   UNL A   1      48.169  43.226  30.299  1.00  0.00     0.004 A 
ATOM     21  C   UNL A   1      46.022  40.384  30.128  1.00  0.00     0.007 A 
ATOM     22  C   UNL A   1      47.898  42.315  28.766  1.00  0.00     0.007 A 
ENDBRANCH  15  16
BRANCH  15  23
ATOM     23  C   UNL A   1      47.508  39.329  26.664  1.00  0.00    -0.013 A 
ATOM     24  C   UNL A   1      47.301  38.325  25.680  1.00  0.00     0.007 A 
ATOM     25  C   UNL A   1      48.769  39.294  27.297  1.00  0.00     0.007 A 
ATOM     26  C   UNL A   1      48.269  37.357  25.370  1.00  0.00     0.000 A 
ATOM     27  C   UNL A   1      49.717  38.294  27.026  1.00  0.00     0.000 A 
ATOM     28  C   UNL A   1      49.471  37.329  26.058  1.00  0.00     0.000 A 
ENDBRANCH  15  23
BRANCH  15  29
ATOM     29  C   UNL A   1      45.702  41.260  26.172  1.00  0.00    -0.013 A 
ATOM     30  C   UNL A   1      46.265  41.399  24.883  1.00  0.00     0.007 A 
ATOM     31  C   UNL A   1      44.818  42.298  26.547  1.00  0.00     0.007 A 
ATOM     32  C   UNL A   1      45.928  42.442  24.011  1.00  0.00     0.000 A 
ATOM     33  C   UNL A   1      44.531  43.385  25.704  1.00  0.00     0.000 A 
ATOM     34  C   UNL A   1      45.072  43.447  24.430  1.00  0.00     0.000 A 
ENDBRANCH  15  29
ENDBRANCH  11  15
ENDBRANCH   9  10
ENDBRANCH   8   9
BRANCH   8  35
ATOM     35  N   UNL A   1      42.046  35.554  28.721  1.00  0.00    -0.346 N 
ATOM     36  H   UNL A   1      41.750  34.657  29.104  1.00  0.00     0.345 HD
ATOM     37  H   UNL A   1      41.225  36.136  28.546  1.00  0.00     0.345 HD
ATOM     38  H   UNL A   1      42.659  36.024  29.388  1.00  0.00     0.345 HD
ENDBRANCH   8  35
ENDBRANCH   6   8
ENDBRANCH   5   6
ENDBRANCH   4   5
ENDBRANCH   3   4
ENDBRANCH   2   3
ENDBRANCH   1   2
BRANCH   1  39
ATOM     39  C   UNL A   1      44.159  27.326  28.438  1.00  0.00     0.188 C 
BRANCH  39  40
ATOM     40  O   UNL A   1      45.062  26.363  27.934  1.00  0.00    -0.376 OA
BRANCH  40  41
ATOM     41  C   UNL A   1      44.948  25.754  26.687  1.00  0.00     0.202 C 
BRANCH  41  42
ATOM     42  C   UNL A   1      44.545  24.325  26.912  1.00  0.00     0.261 C 
BRANCH  42  43
ATOM     43  O   UNL A   1      43.258  24.092  26.225  1.00  0.00    -0.460 OA
BRANCH  43  44
ATOM     44  C   UNL A   1      42.137  23.639  26.876  1.00  0.00     0.338 C 
ATOM     45  O   UNL A   1      42.006  22.478  27.244  1.00  0.00    -0.246 OA
BRANCH  44  46
ATOM     46  C   UNL A   1      41.052  24.683  27.104  1.00  0.00     0.060 A 
ATOM     47  C   UNL A   1      41.220  25.988  26.680  1.00  0.00     0.016 A 
ATOM     48  C   UNL A   1      39.900  24.470  27.861  1.00  0.00     0.016 A 
ATOM     49  C   UNL A   1      40.361  26.990  27.204  1.00  0.00     0.010 A 
ATOM     50  C   UNL A   1      39.266  25.554  28.562  1.00  0.00     0.010 A 
ATOM     51  C   UNL A   1      39.697  26.884  28.424  1.00  0.00    -0.014 A 
BRANCH  51  52
ATOM     52  C   UNL A   1      39.446  28.059  29.627  1.00  0.00     0.031 A 
ATOM     53  C   UNL A   1      38.682  29.160  29.039  1.00  0.00     0.074 A 
ATOM     54  C   UNL A   1      39.836  28.319  31.033  1.00  0.00     0.049 A 
ATOM     55  N   UNL A   1      38.671  30.337  29.546  1.00  0.00    -0.248 NA
ATOM     56  C   UNL A   1      38.157  29.125  27.669  1.00  0.00     0.031 C 
ATOM     57  C   UNL A   1      38.832  28.532  32.171  1.00  0.00     0.029 A 
ATOM     58  N   UNL A   1      40.889  27.826  31.892  1.00  0.00    -0.354 N 
ATOM     59  C   UNL A   1      37.756  31.025  28.816  1.00  0.00     0.074 A 
ATOM     60  C   UNL A   1      37.769  30.393  27.530  1.00  0.00     0.031 C 
ATOM     61  C   UNL A   1      39.325  28.151  33.390  1.00  0.00     0.029 A 
ATOM     62  C   UNL A   1      40.727  27.744  33.263  1.00  0.00     0.049 A 
ATOM     63  H   UNL A   1      41.743  27.543  31.491  1.00  0.00     0.167 HD
ATOM     64  C   UNL A   1      36.851  31.762  29.506  1.00  0.00     0.037 A 
ATOM     65  C   UNL A   1      41.830  27.981  34.044  1.00  0.00     0.037 A 
ATOM     66  C   UNL A   1      37.082  31.623  30.974  1.00  0.00     0.049 A 
ATOM     67  C   UNL A   1      41.720  29.462  34.245  1.00  0.00     0.074 A 
ATOM     68  C   UNL A   1      36.375  31.017  32.001  1.00  0.00     0.029 A 
ATOM     69  N   UNL A   1      38.358  31.822  31.513  1.00  0.00    -0.354 N 
ATOM     70  N   UNL A   1      40.665  30.074  33.786  1.00  0.00    -0.248 NA
ATOM     71  C   UNL A   1      42.609  30.364  34.935  1.00  0.00     0.031 C 
ATOM     72  C   UNL A   1      37.179  31.048  33.189  1.00  0.00     0.029 A 
ATOM     73  C   UNL A   1      38.406  31.610  32.879  1.00  0.00     0.049 A 
ATOM     74  H   UNL A   1      39.140  32.085  30.977  1.00  0.00     0.167 HD
ATOM     75  C   UNL A   1      40.611  31.358  34.082  1.00  0.00     0.074 A 
ATOM     76  C   UNL A   1      41.905  31.509  34.798  1.00  0.00     0.031 C 
ATOM     77  C   UNL A   1      39.543  32.105  33.635  1.00  0.00     0.037 A 
BRANCH  64  78
ATOM     78  C   UNL A   1      35.590  32.347  28.902  1.00  0.00     0.064 A 
ATOM     79  C   UNL A   1      34.628  31.466  28.374  1.00  0.00     0.173 A 
ATOM     80  C   UNL A   1      35.242  33.715  28.796  1.00  0.00     0.173 A 
ATOM     81  F   UNL A   1      34.769  30.138  28.477  1.00  0.00    -0.203 F 
ATOM     82  C   UNL A   1      33.466  31.910  27.739  1.00  0.00     0.198 A 
ATOM     83  C   UNL A   1      34.081  34.159  28.160  1.00  0.00     0.198 A 
ATOM     84  F   UNL A   1      35.975  34.700  29.313  1.00  0.00    -0.203 F 
ATOM     85  F   UNL A   1      32.606  31.014  27.240  1.00  0.00    -0.200 F 
ATOM     86  C   UNL A   1      33.195  33.257  27.623  1.00  0.00     0.200 A 
ATOM     87  F   UNL A   1      33.829  35.476  28.084  1.00  0.00    -0.200 F 
ATOM     88  F   UNL A   1      32.078  33.681  27.019  1.00  0.00    -0.200 F 
ENDBRANCH  64  78
BRANCH  65  89
ATOM     89  C   UNL A   1      43.050  27.106  33.770  1.00  0.00     0.064 A 
ATOM     90  C   UNL A   1      43.061  25.829  34.384  1.00  0.00     0.173 A 
ATOM     91  C   UNL A   1      44.001  27.272  32.747  1.00  0.00     0.173 A 
ATOM     92  F   UNL A   1      42.290  25.604  35.460  1.00  0.00    -0.203 F 
ATOM     93  C   UNL A   1      43.770  24.738  33.855  1.00  0.00     0.198 A 
ATOM     94  C   UNL A   1      44.719  26.173  32.216  1.00  0.00     0.198 A 
ATOM     95  F   UNL A   1      44.188  28.474  32.185  1.00  0.00    -0.203 F 
ATOM     96  F   UNL A   1      43.591  23.510  34.367  1.00  0.00    -0.200 F 
ATOM     97  C   UNL A   1      44.514  24.891  32.705  1.00  0.00     0.200 A 
ATOM     98  F   UNL A   1      45.496  26.334  31.130  1.00  0.00    -0.200 F 
ATOM     99  F   UNL A   1      44.939  23.810  32.029  1.00  0.00    -0.200 F 
ENDBRANCH  65  89
BRANCH  77 100
ATOM    100  C   UNL A   1      39.656  33.573  33.721  1.00  0.00     0.064 A 
ATOM    101  C   UNL A   1      39.020  34.187  35.254  1.00  0.00     0.173 A 
ATOM    102  C   UNL A   1      41.040  34.310  32.872  1.00  0.00     0.173 A 
ATOM    103  F   UNL A   1      37.923  33.598  35.762  1.00  0.00    -0.203 F 
ATOM    104  C   UNL A   1      39.783  35.432  36.167  1.00  0.00     0.198 A 
ATOM    105  C   UNL A   1      41.909  35.638  33.685  1.00  0.00     0.198 A 
ATOM    106  F   UNL A   1      41.526  33.884  31.702  1.00  0.00    -0.203 F 
ATOM    107  F   UNL A   1      39.322  35.752  37.381  1.00  0.00    -0.200 F 
ATOM    108  C   UNL A   1      41.240  36.217  35.497  1.00  0.00     0.200 A 
ATOM    109  F   UNL A   1      42.969  36.055  32.924  1.00  0.00    -0.200 F 
ATOM    110  F   UNL A   1      41.712  37.137  36.390  1.00  0.00    -0.200 F 
ENDBRANCH  77 100
ENDBRANCH  51  52
ENDBRANCH  44  46
ENDBRANCH  43  44
ENDBRANCH  42  43
ENDBRANCH  41  42
ENDBRANCH  40  41
ENDBRANCH  39  40
ENDBRANCH   1  39
TORSDOF 24
ENDMDL
MODEL 3
REMARK VINA RESULT:     -10.1      4.440      8.522
REMARK SMILES Cc1ccc(C(c2ccccc2)(c2ccccc2)n2cnc(C[C@H]([NH3+])C(=O)OCCOCCOCCOC(=O)c3ccc(-c4c5nc(c(-c6c(F)c(F)c(F)c(F)c6F)c6ccc([nH]6)c(-c6c(F)c(F)c(F)c(F)c6F)c6nc(c(-c7c(F)c(F)c(F)c(F)c7F)c7ccc4[nH]7)C=C6)C=C5)cc3)c2)cc1
REMARK SMILES IDX 32 1 31 2 30 3 29 4 28 5 26 6 27 7 24 8 23 9 22 10 19 11
REMARK SMILES IDX 20 12 103 13 21 14 6 15 5 16 1 17 2 18 3 19 105 20 4 21
REMARK SMILES IDX 104 22 7 23 8 24 12 25 9 26 11 27 10 28 13 29 14 30 18 31
REMARK SMILES IDX 15 32 17 33 16 34 25 35 33 39 34 40 35 41 36 42 37 43 38 44
REMARK SMILES IDX 39 45 40 46 41 47 102 48 42 49 101 50 43 51 44 52 45 53
REMARK SMILES IDX 95 54 46 55 100 56 94 57 96 58 47 59 99 60 93 61 92 62 48 64
REMARK SMILES IDX 80 65 60 66 79 67 61 68 64 69 78 70 97 71 62 72 63 73 77 75
REMARK SMILES IDX 98 76 65 77 49 78 50 79 58 80 51 81 52 82 56 83 59 84 53 85
REMARK SMILES IDX 54 86 57 87 55 88 81 89 82 90 90 91 83 92 84 93 88 94 91 95
REMARK SMILES IDX 85 96 86 97 89 98 87 99 66 100 67 101 75 102 68 103 69 104
REMARK SMILES IDX 73 105 76 106 70 107 71 108 74 109 72 110
REMARK H PARENT 25 36 25 37 25 38 96 63 64 74
REMARK Flexibility Score: inf
ROOT
ATOM      1  C   UNL A   1      43.345  29.103  28.192  1.00  0.00     0.188 C 
ENDROOT
BRANCH   1   2
ATOM      2  O   UNL A   1      42.245  29.927  28.472  1.00  0.00    -0.376 OA
BRANCH   2   3
ATOM      3  C   UNL A   1      42.398  30.807  29.553  1.00  0.00     0.202 C 
BRANCH   3   4
ATOM      4  C   UNL A   1      43.301  32.053  29.453  1.00  0.00     0.261 C 
BRANCH   4   5
ATOM      5  O   UNL A   1      44.787  32.232  30.358  1.00  0.00    -0.459 OA
BRANCH   5   6
ATOM      6  C   UNL A   1      45.754  32.727  31.303  1.00  0.00     0.365 C 
ATOM      7  O   UNL A   1      46.242  31.778  31.941  1.00  0.00    -0.245 OA
BRANCH   6   8
ATOM      8  C   UNL A   1      46.346  34.286  31.875  1.00  0.00     0.297 C 
BRANCH   8   9
ATOM      9  C   UNL A   1      45.895  35.760  32.294  1.00  0.00     0.135 C 
BRANCH   9  10
ATOM     10  C   UNL A   1      45.691  36.677  31.126  1.00  0.00     0.065 A 
ATOM     11  N   UNL A   1      45.177  38.507  29.981  1.00  0.00    -0.319 N 
ATOM     12  C   UNL A   1      44.384  37.435  29.664  1.00  0.00     0.201 A 
ATOM     13  C   UNL A   1      46.106  37.983  30.879  1.00  0.00     0.112 A 
ATOM     14  N   UNL A   1      44.732  36.327  30.246  1.00  0.00    -0.241 NA
BRANCH  11  15
ATOM     15  C   UNL A   1      44.824  39.960  29.650  1.00  0.00     0.121 C 
BRANCH  15  16
ATOM     16  C   UNL A   1      44.042  40.584  30.926  1.00  0.00    -0.013 A 
ATOM     17  C   UNL A   1      42.120  43.304  35.001  1.00  0.00     0.044 C 
ATOM     18  C   UNL A   1      42.627  42.483  33.869  1.00  0.00    -0.051 A 
ATOM     19  C   UNL A   1      42.322  43.088  32.227  1.00  0.00     0.004 A 
ATOM     20  C   UNL A   1      43.558  40.995  34.023  1.00  0.00     0.004 A 
ATOM     21  C   UNL A   1      43.038  42.044  30.656  1.00  0.00     0.007 A 
ATOM     22  C   UNL A   1      44.216  40.078  32.617  1.00  0.00     0.007 A 
ENDBRANCH  15  16
BRANCH  15  23
ATOM     23  C   UNL A   1      46.218  40.745  29.476  1.00  0.00    -0.013 A 
ATOM     24  C   UNL A   1      46.413  42.064  29.968  1.00  0.00     0.007 A 
ATOM     25  C   UNL A   1      47.230  40.274  28.612  1.00  0.00     0.007 A 
ATOM     26  C   UNL A   1      47.519  42.851  29.610  1.00  0.00     0.000 A 
ATOM     27  C   UNL A   1      48.309  41.079  28.211  1.00  0.00     0.000 A 
ATOM     28  C   UNL A   1      48.458  42.364  28.714  1.00  0.00     0.000 A 
ENDBRANCH  15  23
BRANCH  15  29
ATOM     29  C   UNL A   1      43.948  39.859  28.337  1.00  0.00    -0.013 A 
ATOM     30  C   UNL A   1      44.348  40.500  27.143  1.00  0.00     0.007 A 
ATOM     31  C   UNL A   1      42.599  39.435  28.359  1.00  0.00     0.007 A 
ATOM     32  C   UNL A   1      43.502  40.649  26.037  1.00  0.00     0.000 A 
ATOM     33  C   UNL A   1      41.726  39.645  27.280  1.00  0.00     0.000 A 
ATOM     34  C   UNL A   1      42.182  40.237  26.112  1.00  0.00     0.000 A 
ENDBRANCH  15  29
ENDBRANCH  11  15
ENDBRANCH   9  10
ENDBRANCH   8   9
BRANCH   8  35
ATOM     35  N   UNL A   1      47.604  34.581  31.026  1.00  0.00    -0.346 N 
ATOM     36  H   UNL A   1      48.314  35.022  31.610  1.00  0.00     0.345 HD
ATOM     37  H   UNL A   1      47.357  35.208  30.259  1.00  0.00     0.345 HD
ATOM     38  H   UNL A   1      47.971  33.708  30.646  1.00  0.00     0.345 HD
ENDBRANCH   8  35
ENDBRANCH   6   8
ENDBRANCH   5   6
ENDBRANCH   4   5
ENDBRANCH   3   4
ENDBRANCH   2   3
ENDBRANCH   1   2
BRANCH   1  39
ATOM     39  C   UNL A   1      43.560  27.893  29.059  1.00  0.00     0.188 C 
BRANCH  39  40
ATOM     40  O   UNL A   1      44.612  27.032  28.674  1.00  0.00    -0.376 OA
BRANCH  40  41
ATOM     41  C   UNL A   1      44.877  26.652  27.361  1.00  0.00     0.202 C 
BRANCH  41  42
ATOM     42  C   UNL A   1      44.697  25.164  27.272  1.00  0.00     0.261 C 
BRANCH  42  43
ATOM     43  O   UNL A   1      43.743  24.876  26.180  1.00  0.00    -0.460 OA
BRANCH  43  44
ATOM     44  C   UNL A   1      42.558  24.214  26.382  1.00  0.00     0.338 C 
ATOM     45  O   UNL A   1      42.451  22.997  26.288  1.00  0.00    -0.246 OA
BRANCH  44  46
ATOM     46  C   UNL A   1      41.368  25.102  26.724  1.00  0.00     0.060 A 
ATOM     47  C   UNL A   1      41.336  26.428  26.335  1.00  0.00     0.016 A 
ATOM     48  C   UNL A   1      40.315  24.722  27.556  1.00  0.00     0.016 A 
ATOM     49  C   UNL A   1      40.398  27.296  26.955  1.00  0.00     0.010 A 
ATOM     50  C   UNL A   1      39.603  25.697  28.338  1.00  0.00     0.010 A 
ATOM     51  C   UNL A   1      39.848  27.075  28.215  1.00  0.00    -0.014 A 
BRANCH  51  52
ATOM     52  C   UNL A   1      39.542  28.176  29.473  1.00  0.00     0.031 A 
ATOM     53  C   UNL A   1      38.725  29.266  28.939  1.00  0.00     0.074 A 
ATOM     54  C   UNL A   1      39.922  28.387  30.891  1.00  0.00     0.049 A 
ATOM     55  N   UNL A   1      38.657  30.415  29.502  1.00  0.00    -0.248 NA
ATOM     56  C   UNL A   1      38.200  29.272  27.568  1.00  0.00     0.031 C 
ATOM     57  C   UNL A   1      38.911  28.496  32.036  1.00  0.00     0.029 A 
ATOM     58  N   UNL A   1      40.999  27.906  31.726  1.00  0.00    -0.354 N 
ATOM     59  C   UNL A   1      37.708  31.092  28.806  1.00  0.00     0.074 A 
ATOM     60  C   UNL A   1      37.749  30.524  27.490  1.00  0.00     0.031 C 
ATOM     61  C   UNL A   1      39.424  28.081  33.237  1.00  0.00     0.029 A 
ATOM     62  C   UNL A   1      40.843  27.750  33.091  1.00  0.00     0.049 A 
ATOM     63  H   UNL A   1      41.865  27.684  31.312  1.00  0.00     0.167 HD
ATOM     64  C   UNL A   1      36.769  31.749  29.530  1.00  0.00     0.037 A 
ATOM     65  C   UNL A   1      41.935  28.003  33.883  1.00  0.00     0.037 A 
ATOM     66  C   UNL A   1      37.009  31.551  30.989  1.00  0.00     0.049 A 
ATOM     67  C   UNL A   1      41.753  29.465  34.156  1.00  0.00     0.074 A 
ATOM     68  C   UNL A   1      36.335  30.862  31.986  1.00  0.00     0.029 A 
ATOM     69  N   UNL A   1      38.274  31.786  31.538  1.00  0.00    -0.354 N 
ATOM     70  N   UNL A   1      40.668  30.046  33.725  1.00  0.00    -0.248 NA
ATOM     71  C   UNL A   1      42.598  30.375  34.889  1.00  0.00     0.031 C 
ATOM     72  C   UNL A   1      37.138  30.876  33.174  1.00  0.00     0.029 A 
ATOM     73  C   UNL A   1      38.335  31.511  32.893  1.00  0.00     0.049 A 
ATOM     74  H   UNL A   1      39.042  32.113  31.015  1.00  0.00     0.167 HD
ATOM     75  C   UNL A   1      40.552  31.310  34.083  1.00  0.00     0.074 A 
ATOM     76  C   UNL A   1      41.838  31.489  34.807  1.00  0.00     0.031 C 
ATOM     77  C   UNL A   1      39.448  32.024  33.672  1.00  0.00     0.037 A 
BRANCH  64  78
ATOM     78  C   UNL A   1      35.480  32.300  28.954  1.00  0.00     0.064 A 
ATOM     79  C   UNL A   1      34.580  31.405  28.345  1.00  0.00     0.173 A 
ATOM     80  C   UNL A   1      35.048  33.649  28.947  1.00  0.00     0.173 A 
ATOM     81  F   UNL A   1      34.803  30.085  28.349  1.00  0.00    -0.203 F 
ATOM     82  C   UNL A   1      33.399  31.825  27.729  1.00  0.00     0.198 A 
ATOM     83  C   UNL A   1      33.867  34.068  28.331  1.00  0.00     0.198 A 
ATOM     84  F   UNL A   1      35.713  34.634  29.550  1.00  0.00    -0.203 F 
ATOM     85  F   UNL A   1      32.602  30.918  27.151  1.00  0.00    -0.200 F 
ATOM     86  C   UNL A   1      33.045  33.157  27.713  1.00  0.00     0.200 A 
ATOM     87  F   UNL A   1      33.534  35.368  28.352  1.00  0.00    -0.200 F 
ATOM     88  F   UNL A   1      31.910  33.556  27.126  1.00  0.00    -0.200 F 
ENDBRANCH  64  78
BRANCH  65  89
ATOM     89  C   UNL A   1      43.196  27.203  33.569  1.00  0.00     0.064 A 
ATOM     90  C   UNL A   1      44.221  27.889  32.872  1.00  0.00     0.173 A 
ATOM     91  C   UNL A   1      43.597  25.987  34.152  1.00  0.00     0.173 A 
ATOM     92  F   UNL A   1      43.919  28.990  32.165  1.00  0.00    -0.203 F 
ATOM     93  C   UNL A   1      45.576  27.532  32.968  1.00  0.00     0.198 A 
ATOM     94  C   UNL A   1      44.963  25.624  34.245  1.00  0.00     0.198 A 
ATOM     95  F   UNL A   1      42.693  25.175  34.716  1.00  0.00    -0.203 F 
ATOM     96  F   UNL A   1      46.520  28.330  32.443  1.00  0.00    -0.200 F 
ATOM     97  C   UNL A   1      45.953  26.459  33.746  1.00  0.00     0.200 A 
ATOM     98  F   UNL A   1      45.328  24.540  34.952  1.00  0.00    -0.200 F 
ATOM     99  F   UNL A   1      47.242  26.294  34.088  1.00  0.00    -0.200 F 
ENDBRANCH  65  89
BRANCH  77 100
ATOM    100  C   UNL A   1      39.489  33.491  33.829  1.00  0.00     0.064 A 
ATOM    101  C   UNL A   1      38.864  33.995  35.406  1.00  0.00     0.173 A 
ATOM    102  C   UNL A   1      40.812  34.339  32.985  1.00  0.00     0.173 A 
ATOM    103  F   UNL A   1      37.811  33.326  35.909  1.00  0.00    -0.203 F 
ATOM    104  C   UNL A   1      39.587  35.232  36.361  1.00  0.00     0.198 A 
ATOM    105  C   UNL A   1      41.634  35.668  33.842  1.00  0.00     0.198 A 
ATOM    106  F   UNL A   1      41.287  33.996  31.784  1.00  0.00    -0.203 F 
ATOM    107  F   UNL A   1      39.143  35.468  37.600  1.00  0.00    -0.200 F 
ATOM    108  C   UNL A   1      40.984  36.123  35.697  1.00  0.00     0.200 A 
ATOM    109  F   UNL A   1      42.651  36.176  33.078  1.00  0.00    -0.200 F 
ATOM    110  F   UNL A   1      41.433  37.021  36.623  1.00  0.00    -0.200 F 
ENDBRANCH  77 100
ENDBRANCH  51  52
ENDBRANCH  44  46
ENDBRANCH  43  44
ENDBRANCH  42  43
ENDBRANCH  41  42
ENDBRANCH  40  41
ENDBRANCH  39  40
ENDBRANCH   1  39
TORSDOF 24
ENDMDL
