MODEL 1
REMARK VINA RESULT:     -11.4      0.000      0.000
REMARK SMILES O=C(OCCOCCOCCOC(=O)c1ccc(-c2c3nc(c(-c4c(F)c(F)c(F)c(F)c4F)c4ccc([nH]4)c(-c4c(F)c(F)c(F)c(F)c4F)c4nc(c(-c5c(F)c(F)c(F)c(F)c5F)c5ccc2[nH]5)C=C4)C=C3)cc1)C1=Cc2cc(OC(F)(F)F)ccc2O[C@@H]1C(F)(F)F
REMARK SMILES IDX 7 1 6 2 5 3 4 4 3 5 2 6 1 7 78 8 79 9 92 10 80 11 91 12
REMARK SMILES IDX 81 13 90 14 82 15 89 16 88 17 93 18 94 19 95 20 96 21 83 22
REMARK SMILES IDX 84 23 85 24 86 25 87 26 8 27 9 28 10 29 11 30 12 31 13 32
REMARK SMILES IDX 14 33 15 34 16 35 77 36 17 37 76 38 18 39 19 40 20 41 70 42
REMARK SMILES IDX 21 43 75 44 69 45 71 46 22 47 74 48 68 49 67 50 23 52 55 53
REMARK SMILES IDX 35 54 54 55 36 56 39 57 53 58 72 59 37 60 38 61 52 63 73 64
REMARK SMILES IDX 40 65 24 66 25 67 33 68 26 69 27 70 31 71 34 72 28 73 29 74
REMARK SMILES IDX 32 75 30 76 56 77 57 78 65 79 58 80 59 81 63 82 66 83 60 84
REMARK SMILES IDX 61 85 64 86 62 87 41 88 42 89 50 90 43 91 44 92 48 93 51 94
REMARK SMILES IDX 45 95 46 96 49 97 47 98
REMARK H PARENT 71 51 39 62
REMARK Flexibility Score: inf
ROOT
ATOM      1  C   UNL A   1      40.027  21.953  27.241  1.00  0.00     0.188 C 
ENDROOT
BRANCH   1   2
ATOM      2  O   UNL A   1      39.255  23.143  27.133  1.00  0.00    -0.376 OA
BRANCH   2   3
ATOM      3  C   UNL A   1      38.685  23.372  25.841  1.00  0.00     0.202 C 
BRANCH   3   4
ATOM      4  C   UNL A   1      37.178  23.660  25.870  1.00  0.00     0.261 C 
BRANCH   4   5
ATOM      5  O   UNL A   1      36.409  22.436  25.854  1.00  0.00    -0.460 OA
BRANCH   5   6
ATOM      6  C   UNL A   1      35.469  22.264  24.899  1.00  0.00     0.338 C 
ATOM      7  O   UNL A   1      35.534  22.818  23.811  1.00  0.00    -0.246 OA
BRANCH   6   8
ATOM      8  C   UNL A   1      34.250  21.543  25.344  1.00  0.00     0.087 C 
ATOM      9  C   UNL A   1      33.662  22.094  26.426  1.00  0.00     0.027 C 
ATOM     10  C   UNL A   1      33.402  20.867  24.293  1.00  0.00     0.316 C 
ATOM     11  C   UNL A   1      32.550  22.968  25.990  1.00  0.00     0.021 A 
ATOM     12  O   UNL A   1      32.110  21.513  24.097  1.00  0.00    -0.475 OA
ATOM     13  C   UNL A   1      32.211  24.116  26.709  1.00  0.00     0.058 A 
ATOM     14  C   UNL A   1      31.891  22.675  24.795  1.00  0.00     0.128 A 
ATOM     15  C   UNL A   1      31.285  25.027  26.188  1.00  0.00     0.130 A 
ATOM     16  C   UNL A   1      31.008  23.601  24.248  1.00  0.00     0.051 A 
ATOM     17  C   UNL A   1      30.745  24.799  24.920  1.00  0.00     0.050 A 
BRANCH  10  18
ATOM     18  C   UNL A   1      33.245  19.364  24.530  1.00  0.00     0.430 C 
ATOM     19  F   UNL A   1      32.669  18.757  23.465  1.00  0.00    -0.167 F 
ATOM     20  F   UNL A   1      34.449  18.767  24.711  1.00  0.00    -0.167 F 
ATOM     21  F   UNL A   1      32.489  19.092  25.616  1.00  0.00    -0.167 F 
ENDBRANCH  10  18
BRANCH  15  22
ATOM     22  O   UNL A   1      30.999  26.078  27.011  1.00  0.00    -0.406 OA
BRANCH  22  23
ATOM     23  C   UNL A   1      31.642  27.321  26.771  1.00  0.00     0.573 C 
ATOM     24  F   UNL A   1      31.108  27.918  25.685  1.00  0.00    -0.132 F 
ATOM     25  F   UNL A   1      31.557  28.156  27.830  1.00  0.00    -0.132 F 
ATOM     26  F   UNL A   1      32.952  27.093  26.532  1.00  0.00    -0.132 F 
ENDBRANCH  22  23
ENDBRANCH  15  22
ENDBRANCH   6   8
ENDBRANCH   5   6
ENDBRANCH   4   5
ENDBRANCH   3   4
ENDBRANCH   2   3
ENDBRANCH   1   2
BRANCH   1  27
ATOM     27  C   UNL A   1      41.027  21.794  26.097  1.00  0.00     0.188 C 
BRANCH  27  28
ATOM     28  O   UNL A   1      42.366  21.741  26.581  1.00  0.00    -0.376 OA
BRANCH  28  29
ATOM     29  C   UNL A   1      43.316  21.296  25.610  1.00  0.00     0.202 C 
BRANCH  29  30
ATOM     30  C   UNL A   1      44.241  22.377  25.009  1.00  0.00     0.261 C 
BRANCH  30  31
ATOM     31  O   UNL A   1      43.634  23.631  24.648  1.00  0.00    -0.460 OA
BRANCH  31  32
ATOM     32  C   UNL A   1      44.312  24.755  24.957  1.00  0.00     0.338 C 
ATOM     33  O   UNL A   1      45.408  25.086  24.543  1.00  0.00    -0.246 OA
BRANCH  32  34
ATOM     34  C   UNL A   1      43.473  25.609  25.826  1.00  0.00     0.060 A 
ATOM     35  C   UNL A   1      43.963  26.855  26.225  1.00  0.00     0.016 A 
ATOM     36  C   UNL A   1      42.267  25.129  26.348  1.00  0.00     0.016 A 
ATOM     37  C   UNL A   1      43.271  27.608  27.178  1.00  0.00     0.010 A 
ATOM     38  C   UNL A   1      41.579  25.881  27.314  1.00  0.00     0.010 A 
ATOM     39  C   UNL A   1      42.099  27.107  27.764  1.00  0.00    -0.014 A 
BRANCH  39  40
ATOM     40  C   UNL A   1      41.548  27.795  28.963  1.00  0.00     0.031 A 
ATOM     41  C   UNL A   1      42.255  27.634  30.285  1.00  0.00     0.074 A 
ATOM     42  C   UNL A   1      40.490  28.621  28.873  1.00  0.00     0.049 A 
ATOM     43  N   UNL A   1      42.027  28.226  31.431  1.00  0.00    -0.248 NA
ATOM     44  C   UNL A   1      43.377  26.684  30.312  1.00  0.00     0.031 C 
ATOM     45  C   UNL A   1      39.723  28.882  27.660  1.00  0.00     0.029 A 
ATOM     46  N   UNL A   1      39.885  29.401  29.830  1.00  0.00    -0.354 N 
ATOM     47  C   UNL A   1      42.994  27.744  32.304  1.00  0.00     0.074 A 
ATOM     48  C   UNL A   1      43.777  26.771  31.573  1.00  0.00     0.031 C 
ATOM     49  C   UNL A   1      38.742  29.759  27.945  1.00  0.00     0.029 A 
ATOM     50  C   UNL A   1      38.808  30.112  29.363  1.00  0.00     0.049 A 
ATOM     51  H   UNL A   1      40.195  29.445  30.764  1.00  0.00     0.167 HD
ATOM     52  C   UNL A   1      43.227  28.095  33.593  1.00  0.00     0.037 A 
ATOM     53  C   UNL A   1      37.969  30.949  30.007  1.00  0.00     0.037 A 
ATOM     54  C   UNL A   1      42.432  29.036  34.340  1.00  0.00     0.049 A 
ATOM     55  C   UNL A   1      38.203  31.265  31.464  1.00  0.00     0.074 A 
ATOM     56  C   UNL A   1      42.586  29.445  35.654  1.00  0.00     0.029 A 
ATOM     57  N   UNL A   1      41.326  29.705  33.842  1.00  0.00    -0.354 N 
ATOM     58  N   UNL A   1      39.151  30.845  32.266  1.00  0.00    -0.248 NA
ATOM     59  C   UNL A   1      37.255  32.192  32.101  1.00  0.00     0.031 C 
ATOM     60  C   UNL A   1      41.543  30.323  35.966  1.00  0.00     0.029 A 
ATOM     61  C   UNL A   1      40.772  30.507  34.829  1.00  0.00     0.049 A 
ATOM     62  H   UNL A   1      40.982  29.623  32.923  1.00  0.00     0.167 HD
ATOM     63  C   UNL A   1      38.929  31.471  33.487  1.00  0.00     0.074 A 
ATOM     64  C   UNL A   1      37.773  32.324  33.313  1.00  0.00     0.031 C 
ATOM     65  C   UNL A   1      39.619  31.351  34.649  1.00  0.00     0.037 A 
BRANCH  52  66
ATOM     66  C   UNL A   1      44.391  27.446  34.284  1.00  0.00     0.064 A 
ATOM     67  C   UNL A   1      45.660  28.047  34.296  1.00  0.00     0.173 A 
ATOM     68  C   UNL A   1      44.231  26.237  34.976  1.00  0.00     0.173 A 
ATOM     69  F   UNL A   1      45.869  29.197  33.638  1.00  0.00    -0.203 F 
ATOM     70  C   UNL A   1      46.730  27.447  34.956  1.00  0.00     0.198 A 
ATOM     71  C   UNL A   1      45.297  25.656  35.659  1.00  0.00     0.198 A 
ATOM     72  F   UNL A   1      43.038  25.624  35.001  1.00  0.00    -0.203 F 
ATOM     73  F   UNL A   1      47.943  28.018  34.918  1.00  0.00    -0.200 F 
ATOM     74  C   UNL A   1      46.546  26.257  35.644  1.00  0.00     0.200 A 
ATOM     75  F   UNL A   1      45.114  24.512  36.334  1.00  0.00    -0.200 F 
ATOM     76  F   UNL A   1      47.574  25.688  36.286  1.00  0.00    -0.200 F 
ENDBRANCH  52  66
BRANCH  53  77
ATOM     77  C   UNL A   1      36.813  31.548  29.286  1.00  0.00     0.064 A 
ATOM     78  C   UNL A   1      36.760  32.921  29.001  1.00  0.00     0.173 A 
ATOM     79  C   UNL A   1      35.710  30.764  28.915  1.00  0.00     0.173 A 
ATOM     80  F   UNL A   1      37.774  33.719  29.363  1.00  0.00    -0.203 F 
ATOM     81  C   UNL A   1      35.636  33.489  28.401  1.00  0.00     0.198 A 
ATOM     82  C   UNL A   1      34.602  31.327  28.287  1.00  0.00     0.198 A 
ATOM     83  F   UNL A   1      35.706  29.448  29.173  1.00  0.00    -0.203 F 
ATOM     84  F   UNL A   1      35.584  34.812  28.201  1.00  0.00    -0.200 F 
ATOM     85  C   UNL A   1      34.561  32.691  28.040  1.00  0.00     0.200 A 
ATOM     86  F   UNL A   1      33.568  30.552  27.934  1.00  0.00    -0.200 F 
ATOM     87  F   UNL A   1      33.479  33.239  27.472  1.00  0.00    -0.200 F 
ENDBRANCH  53  77
BRANCH  65  88
ATOM     88  C   UNL A   1      39.156  32.179  35.816  1.00  0.00     0.064 A 
ATOM     89  C   UNL A   1      39.576  33.505  35.996  1.00  0.00     0.173 A 
ATOM     90  C   UNL A   1      38.268  31.642  36.763  1.00  0.00     0.173 A 
ATOM     91  F   UNL A   1      40.432  34.065  35.127  1.00  0.00    -0.203 F 
ATOM     92  C   UNL A   1      39.162  34.248  37.099  1.00  0.00     0.198 A 
ATOM     93  C   UNL A   1      37.829  32.399  37.846  1.00  0.00     0.198 A 
ATOM     94  F   UNL A   1      37.824  30.382  36.636  1.00  0.00    -0.203 F 
ATOM     95  F   UNL A   1      39.629  35.491  37.283  1.00  0.00    -0.200 F 
ATOM     96  C   UNL A   1      38.285  33.696  38.020  1.00  0.00     0.200 A 
ATOM     97  F   UNL A   1      36.967  31.868  38.727  1.00  0.00    -0.200 F 
ATOM     98  F   UNL A   1      37.889  34.411  39.083  1.00  0.00    -0.200 F 
ENDBRANCH  65  88
ENDBRANCH  39  40
ENDBRANCH  32  34
ENDBRANCH  31  32
ENDBRANCH  30  31
ENDBRANCH  29  30
ENDBRANCH  28  29
ENDBRANCH  27  28
ENDBRANCH   1  27
TORSDOF 20
ENDMDL
MODEL 2
REMARK VINA RESULT:     -11.3      2.825      8.827
REMARK SMILES O=C(OCCOCCOCCOC(=O)c1ccc(-c2c3nc(c(-c4c(F)c(F)c(F)c(F)c4F)c4ccc([nH]4)c(-c4c(F)c(F)c(F)c(F)c4F)c4nc(c(-c5c(F)c(F)c(F)c(F)c5F)c5ccc2[nH]5)C=C4)C=C3)cc1)C1=Cc2cc(OC(F)(F)F)ccc2O[C@@H]1C(F)(F)F
REMARK SMILES IDX 7 1 6 2 5 3 4 4 3 5 2 6 1 7 78 8 79 9 92 10 80 11 91 12
REMARK SMILES IDX 81 13 90 14 82 15 89 16 88 17 93 18 94 19 95 20 96 21 83 22
REMARK SMILES IDX 84 23 85 24 86 25 87 26 8 27 9 28 10 29 11 30 12 31 13 32
REMARK SMILES IDX 14 33 15 34 16 35 77 36 17 37 76 38 18 39 19 40 20 41 70 42
REMARK SMILES IDX 21 43 75 44 69 45 71 46 22 47 74 48 68 49 67 50 23 52 55 53
REMARK SMILES IDX 35 54 54 55 36 56 39 57 53 58 72 59 37 60 38 61 52 63 73 64
REMARK SMILES IDX 40 65 24 66 25 67 33 68 26 69 27 70 31 71 34 72 28 73 29 74
REMARK SMILES IDX 32 75 30 76 56 77 57 78 65 79 58 80 59 81 63 82 66 83 60 84
REMARK SMILES IDX 61 85 64 86 62 87 41 88 42 89 50 90 43 91 44 92 48 93 51 94
REMARK SMILES IDX 45 95 46 96 49 97 47 98
REMARK H PARENT 71 51 39 62
REMARK Flexibility Score: inf
ROOT
ATOM      1  C   UNL A   1      32.086  27.987  23.896  1.00  0.00     0.188 C 
ENDROOT
BRANCH   1   2
ATOM      2  O   UNL A   1      31.508  26.789  24.401  1.00  0.00    -0.376 OA
BRANCH   2   3
ATOM      3  C   UNL A   1      31.379  25.736  23.442  1.00  0.00     0.202 C 
BRANCH   3   4
ATOM      4  C   UNL A   1      30.659  24.492  23.979  1.00  0.00     0.261 C 
BRANCH   4   5
ATOM      5  O   UNL A   1      30.950  23.327  23.175  1.00  0.00    -0.460 OA
BRANCH   5   6
ATOM      6  C   UNL A   1      32.140  22.707  23.327  1.00  0.00     0.338 C 
ATOM      7  O   UNL A   1      32.788  22.293  22.376  1.00  0.00    -0.246 OA
BRANCH   6   8
ATOM      8  C   UNL A   1      32.494  22.365  24.729  1.00  0.00     0.087 C 
ATOM      9  C   UNL A   1      31.952  21.206  25.154  1.00  0.00     0.027 C 
ATOM     10  C   UNL A   1      33.847  22.794  25.243  1.00  0.00     0.316 C 
ATOM     11  C   UNL A   1      32.946  20.118  25.018  1.00  0.00     0.021 A 
ATOM     12  O   UNL A   1      34.753  21.675  25.472  1.00  0.00    -0.475 OA
ATOM     13  C   UNL A   1      32.549  18.811  24.732  1.00  0.00     0.058 A 
ATOM     14  C   UNL A   1      34.304  20.433  25.097  1.00  0.00     0.128 A 
ATOM     15  C   UNL A   1      33.504  17.835  24.424  1.00  0.00     0.130 A 
ATOM     16  C   UNL A   1      35.255  19.481  24.743  1.00  0.00     0.051 A 
ATOM     17  C   UNL A   1      34.852  18.198  24.357  1.00  0.00     0.050 A 
BRANCH  10  18
ATOM     18  C   UNL A   1      33.758  23.700  26.472  1.00  0.00     0.430 C 
ATOM     19  F   UNL A   1      34.340  24.901  26.239  1.00  0.00    -0.167 F 
ATOM     20  F   UNL A   1      32.468  23.953  26.802  1.00  0.00    -0.167 F 
ATOM     21  F   UNL A   1      34.356  23.157  27.555  1.00  0.00    -0.167 F 
ENDBRANCH  10  18
BRANCH  15  22
ATOM     22  O   UNL A   1      32.993  16.586  24.218  1.00  0.00    -0.406 OA
BRANCH  22  23
ATOM     23  C   UNL A   1      33.051  15.647  25.282  1.00  0.00     0.573 C 
ATOM     24  F   UNL A   1      34.311  15.181  25.421  1.00  0.00    -0.132 F 
ATOM     25  F   UNL A   1      32.633  16.171  26.454  1.00  0.00    -0.132 F 
ATOM     26  F   UNL A   1      32.241  14.606  24.987  1.00  0.00    -0.132 F 
ENDBRANCH  22  23
ENDBRANCH  15  22
ENDBRANCH   6   8
ENDBRANCH   5   6
ENDBRANCH   4   5
ENDBRANCH   3   4
ENDBRANCH   2   3
ENDBRANCH   1   2
BRANCH   1  27
ATOM     27  C   UNL A   1      31.540  29.238  24.582  1.00  0.00     0.188 C 
BRANCH  27  28
ATOM     28  O   UNL A   1      32.453  29.735  25.557  1.00  0.00    -0.376 OA
BRANCH  28  29
ATOM     29  C   UNL A   1      31.821  30.268  26.723  1.00  0.00     0.202 C 
BRANCH  29  30
ATOM     30  C   UNL A   1      31.815  31.807  26.859  1.00  0.00     0.261 C 
BRANCH  30  31
ATOM     31  O   UNL A   1      33.079  32.481  26.715  1.00  0.00    -0.460 OA
BRANCH  31  32
ATOM     32  C   UNL A   1      33.613  33.032  27.824  1.00  0.00     0.338 C 
ATOM     33  O   UNL A   1      33.098  33.865  28.548  1.00  0.00    -0.246 OA
BRANCH  32  34
ATOM     34  C   UNL A   1      34.918  32.397  28.107  1.00  0.00     0.060 A 
ATOM     35  C   UNL A   1      34.948  31.049  28.475  1.00  0.00     0.016 A 
ATOM     36  C   UNL A   1      36.091  33.157  28.133  1.00  0.00     0.016 A 
ATOM     37  C   UNL A   1      36.142  30.468  28.911  1.00  0.00     0.010 A 
ATOM     38  C   UNL A   1      37.288  32.575  28.582  1.00  0.00     0.010 A 
ATOM     39  C   UNL A   1      37.310  31.237  29.012  1.00  0.00    -0.014 A 
BRANCH  39  40
ATOM     40  C   UNL A   1      38.480  30.670  29.737  1.00  0.00     0.031 A 
ATOM     41  C   UNL A   1      38.717  31.079  31.169  1.00  0.00     0.074 A 
ATOM     42  C   UNL A   1      39.272  29.742  29.173  1.00  0.00     0.049 A 
ATOM     43  N   UNL A   1      39.597  30.631  32.030  1.00  0.00    -0.248 NA
ATOM     44  C   UNL A   1      37.835  32.128  31.703  1.00  0.00     0.031 C 
ATOM     45  C   UNL A   1      39.149  29.243  27.807  1.00  0.00     0.029 A 
ATOM     46  N   UNL A   1      40.339  29.046  29.692  1.00  0.00    -0.354 N 
ATOM     47  C   UNL A   1      39.353  31.319  33.212  1.00  0.00     0.074 A 
ATOM     48  C   UNL A   1      38.281  32.254  32.944  1.00  0.00     0.031 C 
ATOM     49  C   UNL A   1      40.108  28.324  27.590  1.00  0.00     0.029 A 
ATOM     50  C   UNL A   1      40.917  28.177  28.800  1.00  0.00     0.049 A 
ATOM     51  H   UNL A   1      40.659  29.161  30.616  1.00  0.00     0.167 HD
ATOM     52  C   UNL A   1      39.952  31.173  34.420  1.00  0.00     0.037 A 
ATOM     53  C   UNL A   1      41.980  27.360  28.943  1.00  0.00     0.037 A 
ATOM     54  C   UNL A   1      41.043  30.272  34.687  1.00  0.00     0.049 A 
ATOM     55  C   UNL A   1      42.679  27.271  30.278  1.00  0.00     0.074 A 
ATOM     56  C   UNL A   1      41.720  30.064  35.878  1.00  0.00     0.029 A 
ATOM     57  N   UNL A   1      41.626  29.436  33.747  1.00  0.00    -0.354 N 
ATOM     58  N   UNL A   1      42.408  27.887  31.403  1.00  0.00    -0.248 NA
ATOM     59  C   UNL A   1      43.826  26.353  30.366  1.00  0.00     0.031 C 
ATOM     60  C   UNL A   1      42.744  29.140  35.645  1.00  0.00     0.029 A 
ATOM     61  C   UNL A   1      42.669  28.728  34.325  1.00  0.00     0.049 A 
ATOM     62  H   UNL A   1      41.342  29.358  32.809  1.00  0.00     0.167 HD
ATOM     63  C   UNL A   1      43.329  27.415  32.332  1.00  0.00     0.074 A 
ATOM     64  C   UNL A   1      44.148  26.439  31.647  1.00  0.00     0.031 C 
ATOM     65  C   UNL A   1      43.483  27.760  33.636  1.00  0.00     0.037 A 
BRANCH  52  66
ATOM     66  C   UNL A   1      39.440  32.020  35.549  1.00  0.00     0.064 A 
ATOM     67  C   UNL A   1      38.497  31.525  36.464  1.00  0.00     0.173 A 
ATOM     68  C   UNL A   1      39.925  33.321  35.746  1.00  0.00     0.173 A 
ATOM     69  F   UNL A   1      37.992  30.291  36.312  1.00  0.00    -0.203 F 
ATOM     70  C   UNL A   1      38.043  32.311  37.520  1.00  0.00     0.198 A 
ATOM     71  C   UNL A   1      39.489  34.093  36.820  1.00  0.00     0.198 A 
ATOM     72  F   UNL A   1      40.831  33.840  34.904  1.00  0.00    -0.203 F 
ATOM     73  F   UNL A   1      37.111  31.832  38.356  1.00  0.00    -0.200 F 
ATOM     74  C   UNL A   1      38.544  33.591  37.702  1.00  0.00     0.200 A 
ATOM     75  F   UNL A   1      39.984  35.325  37.002  1.00  0.00    -0.200 F 
ATOM     76  F   UNL A   1      38.113  34.341  38.724  1.00  0.00    -0.200 F 
ENDBRANCH  52  66
BRANCH  53  77
ATOM     77  C   UNL A   1      42.467  26.558  27.787  1.00  0.00     0.064 A 
ATOM     78  C   UNL A   1      43.457  27.046  26.922  1.00  0.00     0.173 A 
ATOM     79  C   UNL A   1      41.909  25.304  27.495  1.00  0.00     0.173 A 
ATOM     80  F   UNL A   1      44.000  28.252  27.139  1.00  0.00    -0.203 F 
ATOM     81  C   UNL A   1      43.848  26.325  25.794  1.00  0.00     0.198 A 
ATOM     82  C   UNL A   1      42.322  24.570  26.386  1.00  0.00     0.198 A 
ATOM     83  F   UNL A   1      40.952  24.795  28.285  1.00  0.00    -0.203 F 
ATOM     84  F   UNL A   1      44.747  26.845  24.949  1.00  0.00    -0.200 F 
ATOM     85  C   UNL A   1      43.283  25.086  25.530  1.00  0.00     0.200 A 
ATOM     86  F   UNL A   1      41.779  23.371  26.138  1.00  0.00    -0.200 F 
ATOM     87  F   UNL A   1      43.653  24.398  24.442  1.00  0.00    -0.200 F 
ENDBRANCH  53  77
BRANCH  65  88
ATOM     88  C   UNL A   1      44.564  27.060  34.411  1.00  0.00     0.064 A 
ATOM     89  C   UNL A   1      44.333  25.842  35.068  1.00  0.00     0.173 A 
ATOM     90  C   UNL A   1      45.855  27.609  34.490  1.00  0.00     0.173 A 
ATOM     91  F   UNL A   1      43.116  25.278  35.035  1.00  0.00    -0.203 F 
ATOM     92  C   UNL A   1      45.337  25.222  35.808  1.00  0.00     0.198 A 
ATOM     93  C   UNL A   1      46.866  26.969  35.202  1.00  0.00     0.198 A 
ATOM     94  F   UNL A   1      46.137  28.766  33.872  1.00  0.00    -0.203 F 
ATOM     95  F   UNL A   1      45.073  24.092  36.480  1.00  0.00    -0.200 F 
ATOM     96  C   UNL A   1      46.604  25.783  35.870  1.00  0.00     0.200 A 
ATOM     97  F   UNL A   1      48.095  27.505  35.247  1.00  0.00    -0.200 F 
ATOM     98  F   UNL A   1      47.568  25.187  36.585  1.00  0.00    -0.200 F 
ENDBRANCH  65  88
ENDBRANCH  39  40
ENDBRANCH  32  34
ENDBRANCH  31  32
ENDBRANCH  30  31
ENDBRANCH  29  30
ENDBRANCH  28  29
ENDBRANCH  27  28
ENDBRANCH   1  27
TORSDOF 20
ENDMDL
MODEL 3
REMARK VINA RESULT:     -11.1      1.237      1.744
REMARK SMILES O=C(OCCOCCOCCOC(=O)c1ccc(-c2c3nc(c(-c4c(F)c(F)c(F)c(F)c4F)c4ccc([nH]4)c(-c4c(F)c(F)c(F)c(F)c4F)c4nc(c(-c5c(F)c(F)c(F)c(F)c5F)c5ccc2[nH]5)C=C4)C=C3)cc1)C1=Cc2cc(OC(F)(F)F)ccc2O[C@@H]1C(F)(F)F
REMARK SMILES IDX 7 1 6 2 5 3 4 4 3 5 2 6 1 7 78 8 79 9 92 10 80 11 91 12
REMARK SMILES IDX 81 13 90 14 82 15 89 16 88 17 93 18 94 19 95 20 96 21 83 22
REMARK SMILES IDX 84 23 85 24 86 25 87 26 8 27 9 28 10 29 11 30 12 31 13 32
REMARK SMILES IDX 14 33 15 34 16 35 77 36 17 37 76 38 18 39 19 40 20 41 70 42
REMARK SMILES IDX 21 43 75 44 69 45 71 46 22 47 74 48 68 49 67 50 23 52 55 53
REMARK SMILES IDX 35 54 54 55 36 56 39 57 53 58 72 59 37 60 38 61 52 63 73 64
REMARK SMILES IDX 40 65 24 66 25 67 33 68 26 69 27 70 31 71 34 72 28 73 29 74
REMARK SMILES IDX 32 75 30 76 56 77 57 78 65 79 58 80 59 81 63 82 66 83 60 84
REMARK SMILES IDX 61 85 64 86 62 87 41 88 42 89 50 90 43 91 44 92 48 93 51 94
REMARK SMILES IDX 45 95 46 96 49 97 47 98
REMARK H PARENT 71 51 39 62
REMARK Flexibility Score: inf
ROOT
ATOM      1  C   UNL A   1      40.770  21.320  27.397  1.00  0.00     0.188 C 
ENDROOT
BRANCH   1   2
ATOM      2  O   UNL A   1      39.734  22.287  27.273  1.00  0.00    -0.376 OA
BRANCH   2   3
ATOM      3  C   UNL A   1      39.050  22.274  26.017  1.00  0.00     0.202 C 
BRANCH   3   4
ATOM      4  C   UNL A   1      37.717  23.035  26.029  1.00  0.00     0.261 C 
BRANCH   4   5
ATOM      5  O   UNL A   1      37.488  23.712  24.773  1.00  0.00    -0.460 OA
BRANCH   5   6
ATOM      6  C   UNL A   1      36.532  23.245  23.941  1.00  0.00     0.338 C 
ATOM      7  O   UNL A   1      36.713  23.127  22.737  1.00  0.00    -0.246 OA
BRANCH   6   8
ATOM      8  C   UNL A   1      35.186  23.102  24.552  1.00  0.00     0.087 C 
ATOM      9  C   UNL A   1      34.766  24.209  25.197  1.00  0.00     0.027 C 
ATOM     10  C   UNL A   1      34.182  22.213  23.857  1.00  0.00     0.316 C 
ATOM     11  C   UNL A   1      33.882  24.993  24.305  1.00  0.00     0.021 A 
ATOM     12  O   UNL A   1      33.075  22.953  23.265  1.00  0.00    -0.475 OA
ATOM     13  C   UNL A   1      33.837  26.386  24.379  1.00  0.00     0.058 A 
ATOM     14  C   UNL A   1      33.149  24.323  23.324  1.00  0.00     0.128 A 
ATOM     15  C   UNL A   1      33.142  27.122  23.411  1.00  0.00     0.130 A 
ATOM     16  C   UNL A   1      32.498  25.049  22.332  1.00  0.00     0.051 A 
ATOM     17  C   UNL A   1      32.538  26.447  22.348  1.00  0.00     0.050 A 
BRANCH  10  18
ATOM     18  C   UNL A   1      33.681  21.073  24.745  1.00  0.00     0.430 C 
ATOM     19  F   UNL A   1      32.927  20.197  24.038  1.00  0.00    -0.167 F 
ATOM     20  F   UNL A   1      34.714  20.363  25.262  1.00  0.00    -0.167 F 
ATOM     21  F   UNL A   1      32.934  21.517  25.779  1.00  0.00    -0.167 F 
ENDBRANCH  10  18
BRANCH  15  22
ATOM     22  O   UNL A   1      33.127  28.470  23.626  1.00  0.00    -0.406 OA
BRANCH  22  23
ATOM     23  C   UNL A   1      32.010  29.037  24.294  1.00  0.00     0.573 C 
ATOM     24  F   UNL A   1      32.427  29.909  25.237  1.00  0.00    -0.132 F 
ATOM     25  F   UNL A   1      31.166  29.662  23.445  1.00  0.00    -0.132 F 
ATOM     26  F   UNL A   1      31.320  28.048  24.903  1.00  0.00    -0.132 F 
ENDBRANCH  22  23
ENDBRANCH  15  22
ENDBRANCH   6   8
ENDBRANCH   5   6
ENDBRANCH   4   5
ENDBRANCH   3   4
ENDBRANCH   2   3
ENDBRANCH   1   2
BRANCH   1  27
ATOM     27  C   UNL A   1      41.587  21.165  26.115  1.00  0.00     0.188 C 
BRANCH  27  28
ATOM     28  O   UNL A   1      42.956  20.893  26.402  1.00  0.00    -0.376 OA
BRANCH  28  29
ATOM     29  C   UNL A   1      43.833  21.107  25.294  1.00  0.00     0.202 C 
BRANCH  29  30
ATOM     30  C   UNL A   1      44.604  22.444  25.275  1.00  0.00     0.261 C 
BRANCH  30  31
ATOM     31  O   UNL A   1      43.877  23.612  24.850  1.00  0.00    -0.460 OA
BRANCH  31  32
ATOM     32  C   UNL A   1      44.456  24.811  25.067  1.00  0.00     0.338 C 
ATOM     33  O   UNL A   1      45.491  25.223  24.576  1.00  0.00    -0.246 OA
BRANCH  32  34
ATOM     34  C   UNL A   1      43.584  25.625  25.941  1.00  0.00     0.060 A 
ATOM     35  C   UNL A   1      43.973  26.929  26.258  1.00  0.00     0.016 A 
ATOM     36  C   UNL A   1      42.456  25.062  26.546  1.00  0.00     0.016 A 
ATOM     37  C   UNL A   1      43.261  27.660  27.214  1.00  0.00     0.010 A 
ATOM     38  C   UNL A   1      41.748  25.793  27.514  1.00  0.00     0.010 A 
ATOM     39  C   UNL A   1      42.171  27.083  27.882  1.00  0.00    -0.014 A 
BRANCH  39  40
ATOM     40  C   UNL A   1      41.617  27.774  29.077  1.00  0.00     0.031 A 
ATOM     41  C   UNL A   1      42.334  27.639  30.396  1.00  0.00     0.074 A 
ATOM     42  C   UNL A   1      40.545  28.582  28.986  1.00  0.00     0.049 A 
ATOM     43  N   UNL A   1      42.104  28.239  31.538  1.00  0.00    -0.248 NA
ATOM     44  C   UNL A   1      43.472  26.706  30.426  1.00  0.00     0.031 C 
ATOM     45  C   UNL A   1      39.765  28.817  27.775  1.00  0.00     0.029 A 
ATOM     46  N   UNL A   1      39.933  29.362  29.939  1.00  0.00    -0.354 N 
ATOM     47  C   UNL A   1      43.085  27.782  32.409  1.00  0.00     0.074 A 
ATOM     48  C   UNL A   1      43.879  26.814  31.683  1.00  0.00     0.031 C 
ATOM     49  C   UNL A   1      38.772  29.681  28.057  1.00  0.00     0.029 A 
ATOM     50  C   UNL A   1      38.842  30.050  29.471  1.00  0.00     0.049 A 
ATOM     51  H   UNL A   1      40.248  29.420  30.870  1.00  0.00     0.167 HD
ATOM     52  C   UNL A   1      43.320  28.150  33.693  1.00  0.00     0.037 A 
ATOM     53  C   UNL A   1      37.993  30.879  30.112  1.00  0.00     0.037 A 
ATOM     54  C   UNL A   1      42.515  29.085  34.435  1.00  0.00     0.049 A 
ATOM     55  C   UNL A   1      38.231  31.215  31.565  1.00  0.00     0.074 A 
ATOM     56  C   UNL A   1      42.670  29.510  35.744  1.00  0.00     0.029 A 
ATOM     57  N   UNL A   1      41.395  29.731  33.937  1.00  0.00    -0.354 N 
ATOM     58  N   UNL A   1      39.192  30.818  32.365  1.00  0.00    -0.248 NA
ATOM     59  C   UNL A   1      37.272  32.133  32.198  1.00  0.00     0.031 C 
ATOM     60  C   UNL A   1      41.615  30.375  36.053  1.00  0.00     0.029 A 
ATOM     61  C   UNL A   1      40.835  30.535  34.920  1.00  0.00     0.049 A 
ATOM     62  H   UNL A   1      41.047  29.634  33.022  1.00  0.00     0.167 HD
ATOM     63  C   UNL A   1      38.967  31.454  33.580  1.00  0.00     0.074 A 
ATOM     64  C   UNL A   1      37.797  32.286  33.405  1.00  0.00     0.031 C 
ATOM     65  C   UNL A   1      39.667  31.358  34.739  1.00  0.00     0.037 A 
BRANCH  52  66
ATOM     66  C   UNL A   1      44.499  27.527  34.382  1.00  0.00     0.064 A 
ATOM     67  C   UNL A   1      45.743  28.178  34.434  1.00  0.00     0.173 A 
ATOM     68  C   UNL A   1      44.378  26.291  35.035  1.00  0.00     0.173 A 
ATOM     69  F   UNL A   1      45.914  29.356  33.815  1.00  0.00    -0.203 F 
ATOM     70  C   UNL A   1      46.826  27.602  35.093  1.00  0.00     0.198 A 
ATOM     71  C   UNL A   1      45.457  25.733  35.717  1.00  0.00     0.198 A 
ATOM     72  F   UNL A   1      43.211  25.630  35.021  1.00  0.00    -0.203 F 
ATOM     73  F   UNL A   1      48.014  28.222  35.093  1.00  0.00    -0.200 F 
ATOM     74  C   UNL A   1      46.680  26.385  35.741  1.00  0.00     0.200 A 
ATOM     75  F   UNL A   1      45.310  24.562  36.353  1.00  0.00    -0.200 F 
ATOM     76  F   UNL A   1      47.721  25.837  36.382  1.00  0.00    -0.200 F 
ENDBRANCH  52  66
BRANCH  53  77
ATOM     77  C   UNL A   1      36.823  31.453  29.393  1.00  0.00     0.064 A 
ATOM     78  C   UNL A   1      35.733  30.655  29.014  1.00  0.00     0.173 A 
ATOM     79  C   UNL A   1      36.798  32.806  29.023  1.00  0.00     0.173 A 
ATOM     80  F   UNL A   1      35.723  29.349  29.316  1.00  0.00    -0.203 F 
ATOM     81  C   UNL A   1      34.679  31.182  28.268  1.00  0.00     0.198 A 
ATOM     82  C   UNL A   1      35.730  33.339  28.304  1.00  0.00     0.198 A 
ATOM     83  F   UNL A   1      37.819  33.611  29.351  1.00  0.00    -0.203 F 
ATOM     84  F   UNL A   1      33.684  30.382  27.862  1.00  0.00    -0.200 F 
ATOM     85  C   UNL A   1      34.677  32.524  27.917  1.00  0.00     0.200 A 
ATOM     86  F   UNL A   1      35.728  34.637  27.974  1.00  0.00    -0.200 F 
ATOM     87  F   UNL A   1      33.669  33.027  27.193  1.00  0.00    -0.200 F 
ENDBRANCH  53  77
BRANCH  65  88
ATOM     88  C   UNL A   1      39.197  32.190  35.900  1.00  0.00     0.064 A 
ATOM     89  C   UNL A   1      39.607  33.521  36.070  1.00  0.00     0.173 A 
ATOM     90  C   UNL A   1      38.315  31.652  36.852  1.00  0.00     0.173 A 
ATOM     91  F   UNL A   1      40.457  34.082  35.196  1.00  0.00    -0.203 F 
ATOM     92  C   UNL A   1      39.187  34.268  37.168  1.00  0.00     0.198 A 
ATOM     93  C   UNL A   1      37.871  32.413  37.930  1.00  0.00     0.198 A 
ATOM     94  F   UNL A   1      37.882  30.388  36.735  1.00  0.00    -0.203 F 
ATOM     95  F   UNL A   1      39.644  35.516  37.342  1.00  0.00    -0.200 F 
ATOM     96  C   UNL A   1      38.316  33.715  38.094  1.00  0.00     0.200 A 
ATOM     97  F   UNL A   1      37.015  31.882  38.816  1.00  0.00    -0.200 F 
ATOM     98  F   UNL A   1      37.915  34.435  39.152  1.00  0.00    -0.200 F 
ENDBRANCH  65  88
ENDBRANCH  39  40
ENDBRANCH  32  34
ENDBRANCH  31  32
ENDBRANCH  30  31
ENDBRANCH  29  30
ENDBRANCH  28  29
ENDBRANCH  27  28
ENDBRANCH   1  27
TORSDOF 20
ENDMDL
