MODEL 1
REMARK VINA RESULT:     -11.0      0.000      0.000
REMARK SMILES CC(C)C[C@@H](NC(=O)Cn1nc(O)ccc1=O)C(=O)OCCOCCOCCOC(=O)c1ccc(-c2c3nc(c(-c4c(F)c(F)c(F)c(F)c4F)c4ccc([nH]4)c(-c4c(F)c(F)c(F)c(F)c4F)c4nc(c(-c5c(F)c(F)c(F)c(F)c5F)c5ccc2[nH]5)C=C4)C=C3)cc1
REMARK SMILES IDX 24 1 23 2 22 3 21 4 20 5 18 6 19 7 5 8 4 9 2 10 1 11 3 12
REMARK SMILES IDX 6 13 7 14 8 16 9 17 10 18 11 19 16 20 12 21 15 22 17 23
REMARK SMILES IDX 14 24 13 25 25 27 26 28 27 29 28 30 29 31 30 32 31 33 32 34
REMARK SMILES IDX 33 35 94 36 34 37 93 38 35 39 36 40 37 41 87 42 38 43 92 44
REMARK SMILES IDX 86 45 88 46 39 47 91 48 85 49 84 50 40 52 72 53 52 54 71 55
REMARK SMILES IDX 53 56 56 57 70 58 89 59 54 60 55 61 69 63 90 64 57 65 41 66
REMARK SMILES IDX 42 67 50 68 43 69 44 70 48 71 51 72 45 73 46 74 49 75 47 76
REMARK SMILES IDX 73 77 74 78 82 79 75 80 76 81 80 82 83 83 77 84 78 85 81 86
REMARK SMILES IDX 79 87 58 88 59 89 67 90 60 91 61 92 65 93 68 94 62 95 63 96
REMARK SMILES IDX 66 97 64 98
REMARK H PARENT 6 15 13 26 88 51 56 62
REMARK Flexibility Score: inf
ROOT
ATOM      1  C   UNL A   1      32.881  21.152  25.287  1.00  0.00     0.188 C 
ENDROOT
BRANCH   1   2
ATOM      2  O   UNL A   1      32.538  22.380  24.675  1.00  0.00    -0.376 OA
BRANCH   2   3
ATOM      3  C   UNL A   1      31.479  23.113  25.311  1.00  0.00     0.202 C 
BRANCH   3   4
ATOM      4  C   UNL A   1      31.736  24.013  26.548  1.00  0.00     0.261 C 
BRANCH   4   5
ATOM      5  O   UNL A   1      31.506  25.425  26.376  1.00  0.00    -0.462 OA
BRANCH   5   6
ATOM      6  C   UNL A   1      32.575  26.233  26.179  1.00  0.00     0.328 C 
ATOM      7  O   UNL A   1      33.727  25.820  26.074  1.00  0.00    -0.250 OA
BRANCH   6   8
ATOM      8  C   UNL A   1      32.184  27.702  25.872  1.00  0.00     0.192 C 
BRANCH   8   9
ATOM      9  C   UNL A   1      32.505  28.641  27.058  1.00  0.00     0.040 C 
BRANCH   9  10
ATOM     10  C   UNL A   1      33.635  29.675  26.848  1.00  0.00    -0.015 C 
ATOM     11  C   UNL A   1      33.185  31.093  27.214  1.00  0.00     0.007 C 
ATOM     12  C   UNL A   1      34.841  29.312  27.728  1.00  0.00     0.007 C 
ENDBRANCH   9  10
ENDBRANCH   8   9
BRANCH   8  13
ATOM     13  N   UNL A   1      32.501  28.328  24.577  1.00  0.00    -0.341 N 
ATOM     14  C   UNL A   1      32.150  28.138  23.278  1.00  0.00     0.242 C 
ATOM     15  H   UNL A   1      33.130  29.078  24.677  1.00  0.00     0.164 HD
ATOM     16  O   UNL A   1      32.986  28.518  22.449  1.00  0.00    -0.273 OA
BRANCH  14  17
ATOM     17  C   UNL A   1      30.808  27.576  22.817  1.00  0.00     0.248 C 
BRANCH  17  18
ATOM     18  N   UNL A   1      29.721  28.543  22.697  1.00  0.00    -0.217 N 
ATOM     19  N   UNL A   1      29.963  29.665  21.923  1.00  0.00    -0.131 NA
ATOM     20  C   UNL A   1      28.435  28.200  23.126  1.00  0.00     0.267 A 
ATOM     21  C   UNL A   1      28.967  30.460  21.782  1.00  0.00     0.229 A 
ATOM     22  C   UNL A   1      27.409  29.271  23.035  1.00  0.00     0.079 A 
ATOM     23  O   UNL A   1      28.101  27.102  23.558  1.00  0.00    -0.268 OA
ATOM     24  C   UNL A   1      27.668  30.416  22.408  1.00  0.00     0.075 A 
BRANCH  21  25
ATOM     25  O   UNL A   1      29.015  31.467  20.915  1.00  0.00    -0.492 OA
ATOM     26  H   UNL A   1      29.627  32.166  21.041  1.00  0.00     0.295 HD
ENDBRANCH  21  25
ENDBRANCH  17  18
ENDBRANCH  14  17
ENDBRANCH   8  13
ENDBRANCH   6   8
ENDBRANCH   5   6
ENDBRANCH   4   5
ENDBRANCH   3   4
ENDBRANCH   2   3
ENDBRANCH   1   2
BRANCH   1  27
ATOM     27  C   UNL A   1      33.811  21.144  26.508  1.00  0.00     0.188 C 
BRANCH  27  28
ATOM     28  O   UNL A   1      35.161  21.535  26.349  1.00  0.00    -0.376 OA
BRANCH  28  29
ATOM     29  C   UNL A   1      35.784  21.374  25.080  1.00  0.00     0.202 C 
BRANCH  29  30
ATOM     30  C   UNL A   1      37.110  20.617  25.035  1.00  0.00     0.261 C 
BRANCH  30  31
ATOM     31  O   UNL A   1      38.240  21.497  25.072  1.00  0.00    -0.460 OA
BRANCH  31  32
ATOM     32  C   UNL A   1      39.204  21.184  25.966  1.00  0.00     0.338 C 
ATOM     33  O   UNL A   1      39.766  20.110  26.125  1.00  0.00    -0.246 OA
BRANCH  32  34
ATOM     34  C   UNL A   1      39.625  22.428  26.623  1.00  0.00     0.060 A 
ATOM     35  C   UNL A   1      40.647  22.375  27.569  1.00  0.00     0.016 A 
ATOM     36  C   UNL A   1      39.038  23.650  26.257  1.00  0.00     0.016 A 
ATOM     37  C   UNL A   1      41.120  23.560  28.116  1.00  0.00     0.010 A 
ATOM     38  C   UNL A   1      39.501  24.836  26.819  1.00  0.00     0.010 A 
ATOM     39  C   UNL A   1      40.575  24.794  27.715  1.00  0.00    -0.014 A 
BRANCH  39  40
ATOM     40  C   UNL A   1      41.317  26.024  28.052  1.00  0.00     0.031 A 
ATOM     41  C   UNL A   1      42.712  26.255  27.589  1.00  0.00     0.074 A 
ATOM     42  C   UNL A   1      40.646  26.960  28.749  1.00  0.00     0.049 A 
ATOM     43  N   UNL A   1      43.404  27.365  27.620  1.00  0.00    -0.248 NA
ATOM     44  C   UNL A   1      43.429  25.105  27.023  1.00  0.00     0.031 C 
ATOM     45  C   UNL A   1      39.290  26.790  29.279  1.00  0.00     0.029 A 
ATOM     46  N   UNL A   1      40.984  28.239  29.097  1.00  0.00    -0.354 N 
ATOM     47  C   UNL A   1      44.627  27.061  27.043  1.00  0.00     0.074 A 
ATOM     48  C   UNL A   1      44.606  25.647  26.727  1.00  0.00     0.031 C 
ATOM     49  C   UNL A   1      38.890  27.941  29.835  1.00  0.00     0.029 A 
ATOM     50  C   UNL A   1      39.966  28.919  29.720  1.00  0.00     0.049 A 
ATOM     51  H   UNL A   1      41.869  28.633  28.920  1.00  0.00     0.167 HD
ATOM     52  C   UNL A   1      45.653  27.905  26.787  1.00  0.00     0.037 A 
ATOM     53  C   UNL A   1      39.900  30.198  30.130  1.00  0.00     0.037 A 
ATOM     54  C   UNL A   1      45.653  29.305  27.139  1.00  0.00     0.049 A 
ATOM     55  C   UNL A   1      41.071  31.099  29.863  1.00  0.00     0.074 A 
ATOM     56  C   UNL A   1      46.631  30.253  26.898  1.00  0.00     0.029 A 
ATOM     57  N   UNL A   1      44.632  29.952  27.824  1.00  0.00    -0.354 N 
ATOM     58  N   UNL A   1      42.188  30.832  29.229  1.00  0.00    -0.248 NA
ATOM     59  C   UNL A   1      40.972  32.477  30.357  1.00  0.00     0.031 C 
ATOM     60  C   UNL A   1      46.231  31.455  27.489  1.00  0.00     0.029 A 
ATOM     61  C   UNL A   1      44.974  31.278  28.043  1.00  0.00     0.049 A 
ATOM     62  H   UNL A   1      43.790  29.530  28.111  1.00  0.00     0.167 HD
ATOM     63  C   UNL A   1      42.918  32.012  29.231  1.00  0.00     0.074 A 
ATOM     64  C   UNL A   1      42.106  33.002  29.909  1.00  0.00     0.031 C 
ATOM     65  C   UNL A   1      44.151  32.249  28.722  1.00  0.00     0.037 A 
BRANCH  52  66
ATOM     66  C   UNL A   1      46.858  27.356  26.081  1.00  0.00     0.064 A 
ATOM     67  C   UNL A   1      47.010  27.489  24.692  1.00  0.00     0.173 A 
ATOM     68  C   UNL A   1      47.912  26.779  26.804  1.00  0.00     0.173 A 
ATOM     69  F   UNL A   1      46.031  28.031  23.953  1.00  0.00    -0.203 F 
ATOM     70  C   UNL A   1      48.170  27.056  24.053  1.00  0.00     0.198 A 
ATOM     71  C   UNL A   1      49.082  26.373  26.166  1.00  0.00     0.198 A 
ATOM     72  F   UNL A   1      47.822  26.635  28.135  1.00  0.00    -0.203 F 
ATOM     73  F   UNL A   1      48.283  27.172  22.724  1.00  0.00    -0.200 F 
ATOM     74  C   UNL A   1      49.209  26.510  24.792  1.00  0.00     0.200 A 
ATOM     75  F   UNL A   1      50.092  25.862  26.883  1.00  0.00    -0.200 F 
ATOM     76  F   UNL A   1      50.333  26.116  24.179  1.00  0.00    -0.200 F 
ENDBRANCH  52  66
BRANCH  53  77
ATOM     77  C   UNL A   1      38.662  30.695  30.781  1.00  0.00     0.064 A 
ATOM     78  C   UNL A   1      37.552  31.085  30.020  1.00  0.00     0.173 A 
ATOM     79  C   UNL A   1      38.548  30.750  32.178  1.00  0.00     0.173 A 
ATOM     80  F   UNL A   1      37.614  31.061  28.681  1.00  0.00    -0.203 F 
ATOM     81  C   UNL A   1      36.379  31.523  30.632  1.00  0.00     0.198 A 
ATOM     82  C   UNL A   1      37.365  31.158  32.789  1.00  0.00     0.198 A 
ATOM     83  F   UNL A   1      39.578  30.377  32.951  1.00  0.00    -0.203 F 
ATOM     84  F   UNL A   1      35.343  31.923  29.881  1.00  0.00    -0.200 F 
ATOM     85  C   UNL A   1      36.283  31.551  32.015  1.00  0.00     0.200 A 
ATOM     86  F   UNL A   1      37.269  31.162  34.125  1.00  0.00    -0.200 F 
ATOM     87  F   UNL A   1      35.150  31.957  32.603  1.00  0.00    -0.200 F 
ENDBRANCH  53  77
BRANCH  65  88
ATOM     88  C   UNL A   1      44.704  33.638  28.871  1.00  0.00     0.064 A 
ATOM     89  C   UNL A   1      44.440  34.637  27.923  1.00  0.00     0.173 A 
ATOM     90  C   UNL A   1      45.442  33.993  30.012  1.00  0.00     0.173 A 
ATOM     91  F   UNL A   1      43.753  34.346  26.808  1.00  0.00    -0.203 F 
ATOM     92  C   UNL A   1      44.907  35.936  28.103  1.00  0.00     0.198 A 
ATOM     93  C   UNL A   1      45.876  35.301  30.205  1.00  0.00     0.198 A 
ATOM     94  F   UNL A   1      45.716  33.076  30.952  1.00  0.00    -0.203 F 
ATOM     95  F   UNL A   1      44.675  36.866  27.165  1.00  0.00    -0.200 F 
ATOM     96  C   UNL A   1      45.613  36.270  29.250  1.00  0.00     0.200 A 
ATOM     97  F   UNL A   1      46.542  35.625  31.322  1.00  0.00    -0.200 F 
ATOM     98  F   UNL A   1      46.042  37.526  29.432  1.00  0.00    -0.200 F 
ENDBRANCH  65  88
ENDBRANCH  39  40
ENDBRANCH  32  34
ENDBRANCH  31  32
ENDBRANCH  30  31
ENDBRANCH  29  30
ENDBRANCH  28  29
ENDBRANCH  27  28
ENDBRANCH   1  27
TORSDOF 23
ENDMDL
MODEL 2
REMARK VINA RESULT:     -11.0      4.406      8.706
REMARK SMILES CC(C)C[C@@H](NC(=O)Cn1nc(O)ccc1=O)C(=O)OCCOCCOCCOC(=O)c1ccc(-c2c3nc(c(-c4c(F)c(F)c(F)c(F)c4F)c4ccc([nH]4)c(-c4c(F)c(F)c(F)c(F)c4F)c4nc(c(-c5c(F)c(F)c(F)c(F)c5F)c5ccc2[nH]5)C=C4)C=C3)cc1
REMARK SMILES IDX 24 1 23 2 22 3 21 4 20 5 18 6 19 7 5 8 4 9 2 10 1 11 3 12
REMARK SMILES IDX 6 13 7 14 8 16 9 17 10 18 11 19 16 20 12 21 15 22 17 23
REMARK SMILES IDX 14 24 13 25 25 27 26 28 27 29 28 30 29 31 30 32 31 33 32 34
REMARK SMILES IDX 33 35 94 36 34 37 93 38 35 39 36 40 37 41 87 42 38 43 92 44
REMARK SMILES IDX 86 45 88 46 39 47 91 48 85 49 84 50 40 52 72 53 52 54 71 55
REMARK SMILES IDX 53 56 56 57 70 58 89 59 54 60 55 61 69 63 90 64 57 65 41 66
REMARK SMILES IDX 42 67 50 68 43 69 44 70 48 71 51 72 45 73 46 74 49 75 47 76
REMARK SMILES IDX 73 77 74 78 82 79 75 80 76 81 80 82 83 83 77 84 78 85 81 86
REMARK SMILES IDX 79 87 58 88 59 89 67 90 60 91 61 92 65 93 68 94 62 95 63 96
REMARK SMILES IDX 66 97 64 98
REMARK H PARENT 6 15 13 26 88 51 56 62
REMARK Flexibility Score: inf
ROOT
ATOM      1  C   UNL A   1      38.346  21.844  25.413  1.00  0.00     0.188 C 
ENDROOT
BRANCH   1   2
ATOM      2  O   UNL A   1      36.976  21.792  25.758  1.00  0.00    -0.376 OA
BRANCH   2   3
ATOM      3  C   UNL A   1      36.305  20.561  25.442  1.00  0.00     0.202 C 
BRANCH   3   4
ATOM      4  C   UNL A   1      34.987  20.535  24.624  1.00  0.00     0.261 C 
BRANCH   4   5
ATOM      5  O   UNL A   1      34.260  21.776  24.535  1.00  0.00    -0.462 OA
BRANCH   5   6
ATOM      6  C   UNL A   1      32.949  21.731  24.197  1.00  0.00     0.328 C 
ATOM      7  O   UNL A   1      32.345  20.689  23.961  1.00  0.00    -0.250 OA
BRANCH   6   8
ATOM      8  C   UNL A   1      32.229  23.096  24.357  1.00  0.00     0.192 C 
BRANCH   8   9
ATOM      9  C   UNL A   1      31.828  23.697  22.990  1.00  0.00     0.040 C 
BRANCH   9  10
ATOM     10  C   UNL A   1      32.810  24.707  22.353  1.00  0.00    -0.015 C 
ATOM     11  C   UNL A   1      32.074  25.819  21.599  1.00  0.00     0.007 C 
ATOM     12  C   UNL A   1      33.671  25.355  23.447  1.00  0.00     0.007 C 
ENDBRANCH   9  10
ENDBRANCH   8   9
BRANCH   8  13
ATOM     13  N   UNL A   1      31.182  23.298  25.373  1.00  0.00    -0.341 N 
ATOM     14  C   UNL A   1      30.918  24.204  26.351  1.00  0.00     0.242 C 
ATOM     15  H   UNL A   1      30.494  22.595  25.334  1.00  0.00     0.164 HD
ATOM     16  O   UNL A   1      30.247  23.772  27.296  1.00  0.00    -0.273 OA
BRANCH  14  17
ATOM     17  C   UNL A   1      31.326  25.674  26.302  1.00  0.00     0.248 C 
BRANCH  17  18
ATOM     18  N   UNL A   1      30.701  26.472  25.252  1.00  0.00    -0.217 N 
ATOM     19  N   UNL A   1      29.459  26.055  24.802  1.00  0.00    -0.131 NA
ATOM     20  C   UNL A   1      31.223  27.729  24.930  1.00  0.00     0.267 A 
ATOM     21  C   UNL A   1      28.907  26.815  23.930  1.00  0.00     0.229 A 
ATOM     22  C   UNL A   1      30.569  28.438  23.799  1.00  0.00     0.079 A 
ATOM     23  O   UNL A   1      32.158  28.276  25.504  1.00  0.00    -0.268 OA
ATOM     24  C   UNL A   1      29.442  27.978  23.263  1.00  0.00     0.075 A 
BRANCH  21  25
ATOM     25  O   UNL A   1      27.643  26.627  23.563  1.00  0.00    -0.492 OA
ATOM     26  H   UNL A   1      27.335  25.763  23.370  1.00  0.00     0.295 HD
ENDBRANCH  21  25
ENDBRANCH  17  18
ENDBRANCH  14  17
ENDBRANCH   8  13
ENDBRANCH   6   8
ENDBRANCH   5   6
ENDBRANCH   4   5
ENDBRANCH   3   4
ENDBRANCH   2   3
ENDBRANCH   1   2
BRANCH   1  27
ATOM     27  C   UNL A   1      39.347  20.931  26.135  1.00  0.00     0.188 C 
BRANCH  27  28
ATOM     28  O   UNL A   1      40.497  21.500  26.729  1.00  0.00    -0.376 OA
BRANCH  28  29
ATOM     29  C   UNL A   1      41.778  20.979  26.395  1.00  0.00     0.202 C 
BRANCH  29  30
ATOM     30  C   UNL A   1      42.792  21.939  25.775  1.00  0.00     0.261 C 
BRANCH  30  31
ATOM     31  O   UNL A   1      42.190  23.169  25.352  1.00  0.00    -0.460 OA
BRANCH  31  32
ATOM     32  C   UNL A   1      43.001  24.249  25.334  1.00  0.00     0.338 C 
ATOM     33  O   UNL A   1      44.002  24.429  24.654  1.00  0.00    -0.246 OA
BRANCH  32  34
ATOM     34  C   UNL A   1      42.372  25.295  26.151  1.00  0.00     0.060 A 
ATOM     35  C   UNL A   1      41.419  24.924  27.097  1.00  0.00     0.016 A 
ATOM     36  C   UNL A   1      42.772  26.633  26.008  1.00  0.00     0.016 A 
ATOM     37  C   UNL A   1      40.899  25.895  27.942  1.00  0.00     0.010 A 
ATOM     38  C   UNL A   1      42.236  27.608  26.843  1.00  0.00     0.010 A 
ATOM     39  C   UNL A   1      41.332  27.230  27.844  1.00  0.00    -0.014 A 
BRANCH  39  40
ATOM     40  C   UNL A   1      41.020  28.146  28.957  1.00  0.00     0.031 A 
ATOM     41  C   UNL A   1      39.857  29.073  28.913  1.00  0.00     0.074 A 
ATOM     42  C   UNL A   1      41.806  28.058  30.047  1.00  0.00     0.049 A 
ATOM     43  N   UNL A   1      39.336  29.769  29.890  1.00  0.00    -0.248 NA
ATOM     44  C   UNL A   1      39.191  29.251  27.616  1.00  0.00     0.031 C 
ATOM     45  C   UNL A   1      42.994  27.207  30.150  1.00  0.00     0.029 A 
ATOM     46  N   UNL A   1      41.709  28.650  31.277  1.00  0.00    -0.354 N 
ATOM     47  C   UNL A   1      38.256  30.440  29.339  1.00  0.00     0.074 A 
ATOM     48  C   UNL A   1      38.233  30.117  27.927  1.00  0.00     0.031 C 
ATOM     49  C   UNL A   1      43.484  27.287  31.394  1.00  0.00     0.029 A 
ATOM     50  C   UNL A   1      42.659  28.210  32.166  1.00  0.00     0.049 A 
ATOM     51  H   UNL A   1      41.029  29.325  31.501  1.00  0.00     0.167 HD
ATOM     52  C   UNL A   1      37.363  31.231  29.977  1.00  0.00     0.037 A 
ATOM     53  C   UNL A   1      42.828  28.500  33.468  1.00  0.00     0.037 A 
ATOM     54  C   UNL A   1      37.429  31.556  31.381  1.00  0.00     0.049 A 
ATOM     55  C   UNL A   1      41.839  29.411  34.136  1.00  0.00     0.074 A 
ATOM     56  C   UNL A   1      36.556  32.325  32.130  1.00  0.00     0.029 A 
ATOM     57  N   UNL A   1      38.437  31.144  32.244  1.00  0.00    -0.354 N 
ATOM     58  N   UNL A   1      40.761  29.967  33.635  1.00  0.00    -0.248 NA
ATOM     59  C   UNL A   1      42.080  29.730  35.548  1.00  0.00     0.031 C 
ATOM     60  C   UNL A   1      37.067  32.430  33.427  1.00  0.00     0.029 A 
ATOM     61  C   UNL A   1      38.224  31.672  33.508  1.00  0.00     0.049 A 
ATOM     62  H   UNL A   1      39.191  30.562  31.995  1.00  0.00     0.167 HD
ATOM     63  C   UNL A   1      40.185  30.685  34.672  1.00  0.00     0.074 A 
ATOM     64  C   UNL A   1      41.021  30.475  35.837  1.00  0.00     0.031 C 
ATOM     65  C   UNL A   1      39.069  31.453  34.657  1.00  0.00     0.037 A 
BRANCH  52  66
ATOM     66  C   UNL A   1      36.224  31.793  29.177  1.00  0.00     0.064 A 
ATOM     67  C   UNL A   1      35.167  30.978  28.743  1.00  0.00     0.173 A 
ATOM     68  C   UNL A   1      36.135  33.170  28.924  1.00  0.00     0.173 A 
ATOM     69  F   UNL A   1      35.203  29.654  28.956  1.00  0.00    -0.203 F 
ATOM     70  C   UNL A   1      34.070  31.519  28.077  1.00  0.00     0.198 A 
ATOM     71  C   UNL A   1      35.023  33.712  28.283  1.00  0.00     0.198 A 
ATOM     72  F   UNL A   1      37.113  33.997  29.325  1.00  0.00    -0.203 F 
ATOM     73  F   UNL A   1      33.085  30.718  27.651  1.00  0.00    -0.200 F 
ATOM     74  C   UNL A   1      33.993  32.886  27.859  1.00  0.00     0.200 A 
ATOM     75  F   UNL A   1      34.942  35.036  28.090  1.00  0.00    -0.200 F 
ATOM     76  F   UNL A   1      32.926  33.409  27.240  1.00  0.00    -0.200 F 
ENDBRANCH  52  66
BRANCH  53  77
ATOM     77  C   UNL A   1      43.947  27.875  34.218  1.00  0.00     0.064 A 
ATOM     78  C   UNL A   1      45.180  28.526  34.353  1.00  0.00     0.173 A 
ATOM     79  C   UNL A   1      43.792  26.632  34.849  1.00  0.00     0.173 A 
ATOM     80  F   UNL A   1      45.381  29.712  33.759  1.00  0.00    -0.203 F 
ATOM     81  C   UNL A   1      46.220  27.952  35.082  1.00  0.00     0.198 A 
ATOM     82  C   UNL A   1      44.821  26.074  35.604  1.00  0.00     0.198 A 
ATOM     83  F   UNL A   1      42.628  25.973  34.760  1.00  0.00    -0.203 F 
ATOM     84  F   UNL A   1      47.401  28.580  35.168  1.00  0.00    -0.200 F 
ATOM     85  C   UNL A   1      46.037  26.731  35.713  1.00  0.00     0.200 A 
ATOM     86  F   UNL A   1      44.632  24.905  36.231  1.00  0.00    -0.200 F 
ATOM     87  F   UNL A   1      47.032  26.187  36.427  1.00  0.00    -0.200 F 
ENDBRANCH  53  77
BRANCH  65  88
ATOM     88  C   UNL A   1      38.675  32.124  35.942  1.00  0.00     0.064 A 
ATOM     89  C   UNL A   1      38.023  31.422  36.966  1.00  0.00     0.173 A 
ATOM     90  C   UNL A   1      39.022  33.463  36.182  1.00  0.00     0.173 A 
ATOM     91  F   UNL A   1      37.657  30.144  36.781  1.00  0.00    -0.203 F 
ATOM     92  C   UNL A   1      37.719  32.038  38.176  1.00  0.00     0.198 A 
ATOM     93  C   UNL A   1      38.747  34.066  37.405  1.00  0.00     0.198 A 
ATOM     94  F   UNL A   1      39.652  34.178  35.238  1.00  0.00    -0.203 F 
ATOM     95  F   UNL A   1      37.061  31.359  39.126  1.00  0.00    -0.200 F 
ATOM     96  C   UNL A   1      38.092  33.356  38.399  1.00  0.00     0.200 A 
ATOM     97  F   UNL A   1      39.125  35.333  37.626  1.00  0.00    -0.200 F 
ATOM     98  F   UNL A   1      37.818  33.942  39.573  1.00  0.00    -0.200 F 
ENDBRANCH  65  88
ENDBRANCH  39  40
ENDBRANCH  32  34
ENDBRANCH  31  32
ENDBRANCH  30  31
ENDBRANCH  29  30
ENDBRANCH  28  29
ENDBRANCH  27  28
ENDBRANCH   1  27
TORSDOF 23
ENDMDL
MODEL 3
REMARK VINA RESULT:     -10.5      4.313      8.531
REMARK SMILES CC(C)C[C@@H](NC(=O)Cn1nc(O)ccc1=O)C(=O)OCCOCCOCCOC(=O)c1ccc(-c2c3nc(c(-c4c(F)c(F)c(F)c(F)c4F)c4ccc([nH]4)c(-c4c(F)c(F)c(F)c(F)c4F)c4nc(c(-c5c(F)c(F)c(F)c(F)c5F)c5ccc2[nH]5)C=C4)C=C3)cc1
REMARK SMILES IDX 24 1 23 2 22 3 21 4 20 5 18 6 19 7 5 8 4 9 2 10 1 11 3 12
REMARK SMILES IDX 6 13 7 14 8 16 9 17 10 18 11 19 16 20 12 21 15 22 17 23
REMARK SMILES IDX 14 24 13 25 25 27 26 28 27 29 28 30 29 31 30 32 31 33 32 34
REMARK SMILES IDX 33 35 94 36 34 37 93 38 35 39 36 40 37 41 87 42 38 43 92 44
REMARK SMILES IDX 86 45 88 46 39 47 91 48 85 49 84 50 40 52 72 53 52 54 71 55
REMARK SMILES IDX 53 56 56 57 70 58 89 59 54 60 55 61 69 63 90 64 57 65 41 66
REMARK SMILES IDX 42 67 50 68 43 69 44 70 48 71 51 72 45 73 46 74 49 75 47 76
REMARK SMILES IDX 73 77 74 78 82 79 75 80 76 81 80 82 83 83 77 84 78 85 81 86
REMARK SMILES IDX 79 87 58 88 59 89 67 90 60 91 61 92 65 93 68 94 62 95 63 96
REMARK SMILES IDX 66 97 64 98
REMARK H PARENT 6 15 13 26 88 51 56 62
REMARK Flexibility Score: inf
ROOT
ATOM      1  C   UNL A   1      39.261  22.687  26.321  1.00  0.00     0.188 C 
ENDROOT
BRANCH   1   2
ATOM      2  O   UNL A   1      37.881  22.959  26.174  1.00  0.00    -0.376 OA
BRANCH   2   3
ATOM      3  C   UNL A   1      37.296  22.537  24.932  1.00  0.00     0.202 C 
BRANCH   3   4
ATOM      4  C   UNL A   1      36.202  23.373  24.217  1.00  0.00     0.261 C 
BRANCH   4   5
ATOM      5  O   UNL A   1      35.372  24.199  25.057  1.00  0.00    -0.462 OA
BRANCH   5   6
ATOM      6  C   UNL A   1      34.299  23.633  25.659  1.00  0.00     0.328 C 
ATOM      7  O   UNL A   1      34.305  22.500  26.131  1.00  0.00    -0.250 OA
BRANCH   6   8
ATOM      8  C   UNL A   1      33.134  24.630  25.897  1.00  0.00     0.192 C 
BRANCH   8   9
ATOM      9  C   UNL A   1      32.026  24.017  26.784  1.00  0.00     0.040 C 
BRANCH   9  10
ATOM     10  C   UNL A   1      30.636  23.826  26.138  1.00  0.00    -0.015 C 
ATOM     11  C   UNL A   1      29.726  22.939  26.994  1.00  0.00     0.007 C 
ATOM     12  C   UNL A   1      29.952  25.190  25.964  1.00  0.00     0.007 C 
ENDBRANCH   9  10
ENDBRANCH   8   9
BRANCH   8  13
ATOM     13  N   UNL A   1      33.388  26.041  26.235  1.00  0.00    -0.341 N 
ATOM     14  C   UNL A   1      33.767  27.162  25.566  1.00  0.00     0.242 C 
ATOM     15  H   UNL A   1      33.246  26.219  27.192  1.00  0.00     0.164 HD
ATOM     16  O   UNL A   1      34.348  28.011  26.255  1.00  0.00    -0.273 OA
BRANCH  14  17
ATOM     17  C   UNL A   1      33.457  27.442  24.098  1.00  0.00     0.248 C 
BRANCH  17  18
ATOM     18  N   UNL A   1      32.097  27.887  23.810  1.00  0.00    -0.217 N 
ATOM     19  N   UNL A   1      31.737  29.143  24.268  1.00  0.00    -0.131 NA
ATOM     20  C   UNL A   1      31.315  27.180  22.890  1.00  0.00     0.267 A 
ATOM     21  C   UNL A   1      30.560  29.531  23.940  1.00  0.00     0.229 A 
ATOM     22  C   UNL A   1      29.920  27.660  22.715  1.00  0.00     0.079 A 
ATOM     23  O   UNL A   1      31.692  26.217  22.231  1.00  0.00    -0.268 OA
ATOM     24  C   UNL A   1      29.515  28.803  23.262  1.00  0.00     0.075 A 
BRANCH  21  25
ATOM     25  O   UNL A   1      30.170  30.784  24.157  1.00  0.00    -0.492 OA
ATOM     26  H   UNL A   1      30.214  31.146  25.020  1.00  0.00     0.295 HD
ENDBRANCH  21  25
ENDBRANCH  17  18
ENDBRANCH  14  17
ENDBRANCH   8  13
ENDBRANCH   6   8
ENDBRANCH   5   6
ENDBRANCH   4   5
ENDBRANCH   3   4
ENDBRANCH   2   3
ENDBRANCH   1   2
BRANCH   1  27
ATOM     27  C   UNL A   1      39.752  21.233  26.333  1.00  0.00     0.188 C 
BRANCH  27  28
ATOM     28  O   UNL A   1      40.991  20.928  26.943  1.00  0.00    -0.376 OA
BRANCH  28  29
ATOM     29  C   UNL A   1      42.114  20.635  26.119  1.00  0.00     0.202 C 
BRANCH  29  30
ATOM     30  C   UNL A   1      43.122  21.757  25.874  1.00  0.00     0.261 C 
BRANCH  30  31
ATOM     31  O   UNL A   1      42.496  22.959  25.409  1.00  0.00    -0.460 OA
BRANCH  31  32
ATOM     32  C   UNL A   1      43.282  24.058  25.371  1.00  0.00     0.338 C 
ATOM     33  O   UNL A   1      44.267  24.258  24.675  1.00  0.00    -0.246 OA
BRANCH  32  34
ATOM     34  C   UNL A   1      42.641  25.093  26.193  1.00  0.00     0.060 A 
ATOM     35  C   UNL A   1      41.775  24.701  27.212  1.00  0.00     0.016 A 
ATOM     36  C   UNL A   1      42.946  26.447  25.980  1.00  0.00     0.016 A 
ATOM     37  C   UNL A   1      41.249  25.669  28.057  1.00  0.00     0.010 A 
ATOM     38  C   UNL A   1      42.404  27.418  26.816  1.00  0.00     0.010 A 
ATOM     39  C   UNL A   1      41.591  27.023  27.886  1.00  0.00    -0.014 A 
BRANCH  39  40
ATOM     40  C   UNL A   1      41.294  27.959  28.986  1.00  0.00     0.031 A 
ATOM     41  C   UNL A   1      40.132  28.888  28.938  1.00  0.00     0.074 A 
ATOM     42  C   UNL A   1      42.090  27.888  30.069  1.00  0.00     0.049 A 
ATOM     43  N   UNL A   1      39.623  29.603  29.909  1.00  0.00    -0.248 NA
ATOM     44  C   UNL A   1      39.453  29.045  27.645  1.00  0.00     0.031 C 
ATOM     45  C   UNL A   1      43.277  27.035  30.174  1.00  0.00     0.029 A 
ATOM     46  N   UNL A   1      42.008  28.502  31.289  1.00  0.00    -0.354 N 
ATOM     47  C   UNL A   1      38.540  30.267  29.358  1.00  0.00     0.074 A 
ATOM     48  C   UNL A   1      38.500  29.919  27.952  1.00  0.00     0.031 C 
ATOM     49  C   UNL A   1      43.780  27.136  31.412  1.00  0.00     0.029 A 
ATOM     50  C   UNL A   1      42.966  28.074  32.176  1.00  0.00     0.049 A 
ATOM     51  H   UNL A   1      41.332  29.182  31.509  1.00  0.00     0.167 HD
ATOM     52  C   UNL A   1      37.655  31.072  29.990  1.00  0.00     0.037 A 
ATOM     53  C   UNL A   1      43.150  28.386  33.471  1.00  0.00     0.037 A 
ATOM     54  C   UNL A   1      37.737  31.421  31.388  1.00  0.00     0.049 A 
ATOM     55  C   UNL A   1      42.170  29.312  34.133  1.00  0.00     0.074 A 
ATOM     56  C   UNL A   1      36.874  32.205  32.133  1.00  0.00     0.029 A 
ATOM     57  N   UNL A   1      38.752  31.021  32.248  1.00  0.00    -0.354 N 
ATOM     58  N   UNL A   1      41.089  29.861  33.634  1.00  0.00    -0.248 NA
ATOM     59  C   UNL A   1      42.427  29.654  35.537  1.00  0.00     0.031 C 
ATOM     60  C   UNL A   1      37.398  32.331  33.422  1.00  0.00     0.029 A 
ATOM     61  C   UNL A   1      38.554  31.572  33.505  1.00  0.00     0.049 A 
ATOM     62  H   UNL A   1      39.503  30.433  32.000  1.00  0.00     0.167 HD
ATOM     63  C   UNL A   1      40.526  30.599  34.665  1.00  0.00     0.074 A 
ATOM     64  C   UNL A   1      41.373  30.407  35.825  1.00  0.00     0.031 C 
ATOM     65  C   UNL A   1      39.411  31.370  34.648  1.00  0.00     0.037 A 
BRANCH  52  66
ATOM     66  C   UNL A   1      36.509  31.623  29.193  1.00  0.00     0.064 A 
ATOM     67  C   UNL A   1      35.419  30.816  28.832  1.00  0.00     0.173 A 
ATOM     68  C   UNL A   1      36.451  32.987  28.869  1.00  0.00     0.173 A 
ATOM     69  F   UNL A   1      35.425  29.505  29.115  1.00  0.00    -0.203 F 
ATOM     70  C   UNL A   1      34.318  31.353  28.169  1.00  0.00     0.198 A 
ATOM     71  C   UNL A   1      35.336  33.526  28.231  1.00  0.00     0.198 A 
ATOM     72  F   UNL A   1      37.462  33.805  29.198  1.00  0.00    -0.203 F 
ATOM     73  F   UNL A   1      33.300  30.559  27.813  1.00  0.00    -0.200 F 
ATOM     74  C   UNL A   1      34.272  32.708  27.879  1.00  0.00     0.200 A 
ATOM     75  F   UNL A   1      35.285  34.839  27.969  1.00  0.00    -0.200 F 
ATOM     76  F   UNL A   1      33.202  33.227  27.263  1.00  0.00    -0.200 F 
ENDBRANCH  52  66
BRANCH  53  77
ATOM     77  C   UNL A   1      44.275  27.771  34.219  1.00  0.00     0.064 A 
ATOM     78  C   UNL A   1      44.123  26.538  34.867  1.00  0.00     0.173 A 
ATOM     79  C   UNL A   1      45.536  28.383  34.266  1.00  0.00     0.173 A 
ATOM     80  F   UNL A   1      42.934  25.918  34.861  1.00  0.00    -0.203 F 
ATOM     81  C   UNL A   1      45.188  25.946  35.545  1.00  0.00     0.198 A 
ATOM     82  C   UNL A   1      46.608  27.776  34.916  1.00  0.00     0.198 A 
ATOM     83  F   UNL A   1      45.736  29.558  33.653  1.00  0.00    -0.203 F 
ATOM     84  F   UNL A   1      45.008  24.782  36.185  1.00  0.00    -0.200 F 
ATOM     85  C   UNL A   1      46.431  26.561  35.560  1.00  0.00     0.200 A 
ATOM     86  F   UNL A   1      47.813  28.362  34.910  1.00  0.00    -0.200 F 
ATOM     87  F   UNL A   1      47.458  25.984  36.198  1.00  0.00    -0.200 F 
ENDBRANCH  53  77
BRANCH  65  88
ATOM     88  C   UNL A   1      39.033  32.064  35.925  1.00  0.00     0.064 A 
ATOM     89  C   UNL A   1      39.436  33.381  36.191  1.00  0.00     0.173 A 
ATOM     90  C   UNL A   1      38.196  31.432  36.859  1.00  0.00     0.173 A 
ATOM     91  F   UNL A   1      40.248  34.023  35.338  1.00  0.00    -0.203 F 
ATOM     92  C   UNL A   1      39.028  34.034  37.350  1.00  0.00     0.198 A 
ATOM     93  C   UNL A   1      37.762  32.101  37.999  1.00  0.00     0.198 A 
ATOM     94  F   UNL A   1      37.777  30.175  36.650  1.00  0.00    -0.203 F 
ATOM     95  F   UNL A   1      39.456  35.279  37.601  1.00  0.00    -0.200 F 
ATOM     96  C   UNL A   1      38.181  33.399  38.247  1.00  0.00     0.200 A 
ATOM     97  F   UNL A   1      36.929  31.492  38.855  1.00  0.00    -0.200 F 
ATOM     98  F   UNL A   1      37.771  34.038  39.351  1.00  0.00    -0.200 F 
ENDBRANCH  65  88
ENDBRANCH  39  40
ENDBRANCH  32  34
ENDBRANCH  31  32
ENDBRANCH  30  31
ENDBRANCH  29  30
ENDBRANCH  28  29
ENDBRANCH  27  28
ENDBRANCH   1  27
TORSDOF 23
ENDMDL
