MODEL 1
REMARK VINA RESULT:     -11.2      0.000      0.000
REMARK SMILES CC1(C)C(NC(=O)c2cc(F)c(F)cc2C(=O)OCCOCCOCCOC(=O)c2ccc(-c3c4nc(c(-c5c(F)c(F)c(F)c(F)c5F)c5ccc([nH]5)c(-c5c(F)c(F)c(F)c(F)c5F)c5nc(c(-c6c(F)c(F)c(F)c(F)c6F)c6ccc3[nH]6)C=C5)C=C4)cc2)C1(C)C
REMARK SMILES IDX 22 1 21 2 20 3 19 4 18 5 16 6 17 7 15 8 8 9 9 10 10 11 14 12
REMARK SMILES IDX 11 13 12 14 13 15 6 16 5 17 7 19 4 20 1 21 2 22 3 23 93 24
REMARK SMILES IDX 94 25 95 26 23 27 24 28 25 29 26 30 27 31 28 32 29 33 30 34
REMARK SMILES IDX 31 35 92 36 32 37 91 38 33 39 34 40 35 41 85 42 36 43 90 44
REMARK SMILES IDX 84 45 86 46 37 47 89 48 83 49 82 50 38 52 70 53 50 54 69 55
REMARK SMILES IDX 51 56 54 57 68 58 87 59 52 60 53 61 67 63 88 64 55 65 39 66
REMARK SMILES IDX 40 67 48 68 41 69 42 70 46 71 49 72 43 73 44 74 47 75 45 76
REMARK SMILES IDX 71 77 72 78 80 79 73 80 74 81 78 82 81 83 75 84 76 85 79 86
REMARK SMILES IDX 77 87 56 88 57 89 65 90 58 91 59 92 63 93 66 94 60 95 61 96
REMARK SMILES IDX 64 97 62 98
REMARK H PARENT 5 18 86 51 54 62
REMARK Flexibility Score: inf
ROOT
ATOM      1  C   UNL A   1      35.600  32.155  28.027  1.00  0.00     0.188 C 
ENDROOT
BRANCH   1   2
ATOM      2  O   UNL A   1      34.997  30.996  27.491  1.00  0.00    -0.376 OA
BRANCH   2   3
ATOM      3  C   UNL A   1      33.619  31.001  27.136  1.00  0.00     0.202 C 
BRANCH   3   4
ATOM      4  C   UNL A   1      32.661  29.867  27.514  1.00  0.00     0.261 C 
BRANCH   4   5
ATOM      5  O   UNL A   1      32.993  28.594  26.944  1.00  0.00    -0.460 OA
BRANCH   5   6
ATOM      6  C   UNL A   1      31.939  27.761  26.795  1.00  0.00     0.339 C 
ATOM      7  O   UNL A   1      31.030  27.584  27.593  1.00  0.00    -0.246 OA
BRANCH   6   8
ATOM      8  C   UNL A   1      31.822  27.245  25.417  1.00  0.00     0.075 A 
ATOM      9  C   UNL A   1      31.222  26.029  25.056  1.00  0.00     0.057 A 
ATOM     10  C   UNL A   1      30.928  25.800  23.703  1.00  0.00     0.057 A 
ATOM     11  C   UNL A   1      31.422  26.656  22.724  1.00  0.00     0.159 A 
ATOM     12  C   UNL A   1      32.310  28.109  24.418  1.00  0.00     0.059 A 
ATOM     13  F   UNL A   1      31.226  26.357  21.433  1.00  0.00    -0.204 F 
ATOM     14  C   UNL A   1      32.144  27.784  23.079  1.00  0.00     0.159 A 
ATOM     15  F   UNL A   1      32.675  28.575  22.139  1.00  0.00    -0.204 F 
BRANCH   9  16
ATOM     16  C   UNL A   1      30.941  24.972  26.058  1.00  0.00     0.252 C 
ATOM     17  N   UNL A   1      31.965  24.132  26.479  1.00  0.00    -0.348 N 
ATOM     18  H   UNL A   1      31.753  23.566  27.256  1.00  0.00     0.164 HD
ATOM     19  O   UNL A   1      29.813  24.876  26.530  1.00  0.00    -0.269 OA
BRANCH  17  20
ATOM     20  C   UNL A   1      33.286  23.973  25.942  1.00  0.00     0.094 C 
ATOM     21  C   UNL A   1      35.764  23.308  26.217  1.00  0.00     0.014 C 
ATOM     22  C   UNL A   1      34.302  22.893  26.248  1.00  0.00    -0.007 C 
ATOM     23  C   UNL A   1      34.030  21.927  27.374  1.00  0.00     0.014 C 
ATOM     24  C   UNL A   1      33.513  22.854  24.927  1.00  0.00    -0.007 C 
ATOM     25  C   UNL A   1      34.130  23.266  23.607  1.00  0.00     0.014 C 
ATOM     26  C   UNL A   1      32.473  21.767  24.731  1.00  0.00     0.014 C 
ENDBRANCH  17  20
ENDBRANCH   9  16
ENDBRANCH   6   8
ENDBRANCH   5   6
ENDBRANCH   4   5
ENDBRANCH   3   4
ENDBRANCH   2   3
ENDBRANCH   1   2
BRANCH   1  27
ATOM     27  C   UNL A   1      34.823  33.489  28.052  1.00  0.00     0.188 C 
BRANCH  27  28
ATOM     28  O   UNL A   1      34.937  34.399  29.125  1.00  0.00    -0.376 OA
BRANCH  28  29
ATOM     29  C   UNL A   1      34.264  34.145  30.347  1.00  0.00     0.202 C 
BRANCH  29  30
ATOM     30  C   UNL A   1      35.012  33.743  31.624  1.00  0.00     0.261 C 
BRANCH  30  31
ATOM     31  O   UNL A   1      35.230  32.338  31.796  1.00  0.00    -0.460 OA
BRANCH  31  32
ATOM     32  C   UNL A   1      36.213  32.019  32.675  1.00  0.00     0.338 C 
ATOM     33  O   UNL A   1      36.204  32.152  33.884  1.00  0.00    -0.246 OA
BRANCH  32  34
ATOM     34  C   UNL A   1      37.277  31.292  31.962  1.00  0.00     0.060 A 
ATOM     35  C   UNL A   1      38.420  30.912  32.678  1.00  0.00     0.016 A 
ATOM     36  C   UNL A   1      37.173  31.037  30.595  1.00  0.00     0.016 A 
ATOM     37  C   UNL A   1      39.474  30.279  32.024  1.00  0.00     0.010 A 
ATOM     38  C   UNL A   1      38.243  30.430  29.934  1.00  0.00     0.010 A 
ATOM     39  C   UNL A   1      39.404  30.069  30.641  1.00  0.00    -0.014 A 
BRANCH  39  40
ATOM     40  C   UNL A   1      40.601  29.610  29.901  1.00  0.00     0.031 A 
ATOM     41  C   UNL A   1      41.707  30.591  29.639  1.00  0.00     0.074 A 
ATOM     42  C   UNL A   1      40.702  28.342  29.471  1.00  0.00     0.049 A 
ATOM     43  N   UNL A   1      42.798  30.442  28.933  1.00  0.00    -0.248 NA
ATOM     44  C   UNL A   1      41.563  31.918  30.258  1.00  0.00     0.031 C 
ATOM     45  C   UNL A   1      39.722  27.287  29.718  1.00  0.00     0.029 A 
ATOM     46  N   UNL A   1      41.679  27.730  28.726  1.00  0.00    -0.354 N 
ATOM     47  C   UNL A   1      43.467  31.655  29.019  1.00  0.00     0.074 A 
ATOM     48  C   UNL A   1      42.651  32.538  29.824  1.00  0.00     0.031 C 
ATOM     49  C   UNL A   1      40.139  26.158  29.121  1.00  0.00     0.029 A 
ATOM     50  C   UNL A   1      41.395  26.423  28.418  1.00  0.00     0.049 A 
ATOM     51  H   UNL A   1      42.503  28.185  28.439  1.00  0.00     0.167 HD
ATOM     52  C   UNL A   1      44.659  31.997  28.476  1.00  0.00     0.037 A 
ATOM     53  C   UNL A   1      42.060  25.551  27.635  1.00  0.00     0.037 A 
ATOM     54  C   UNL A   1      45.463  31.118  27.669  1.00  0.00     0.049 A 
ATOM     55  C   UNL A   1      43.341  25.985  26.968  1.00  0.00     0.074 A 
ATOM     56  C   UNL A   1      46.682  31.375  27.069  1.00  0.00     0.029 A 
ATOM     57  N   UNL A   1      45.123  29.813  27.344  1.00  0.00    -0.354 N 
ATOM     58  N   UNL A   1      43.967  27.134  27.044  1.00  0.00    -0.248 NA
ATOM     59  C   UNL A   1      44.006  24.999  26.102  1.00  0.00     0.031 C 
ATOM     60  C   UNL A   1      47.058  30.243  26.340  1.00  0.00     0.029 A 
ATOM     61  C   UNL A   1      46.102  29.259  26.535  1.00  0.00     0.049 A 
ATOM     62  H   UNL A   1      44.309  29.349  27.646  1.00  0.00     0.167 HD
ATOM     63  C   UNL A   1      45.110  27.003  26.264  1.00  0.00     0.074 A 
ATOM     64  C   UNL A   1      45.095  25.658  25.729  1.00  0.00     0.031 C 
ATOM     65  C   UNL A   1      46.082  27.914  26.016  1.00  0.00     0.037 A 
BRANCH  52  66
ATOM     66  C   UNL A   1      45.162  33.389  28.718  1.00  0.00     0.064 A 
ATOM     67  C   UNL A   1      44.831  34.427  27.834  1.00  0.00     0.173 A 
ATOM     68  C   UNL A   1      46.021  33.683  29.787  1.00  0.00     0.173 A 
ATOM     69  F   UNL A   1      44.014  34.196  26.796  1.00  0.00    -0.203 F 
ATOM     70  C   UNL A   1      45.357  35.705  28.002  1.00  0.00     0.198 A 
ATOM     71  C   UNL A   1      46.522  34.971  29.968  1.00  0.00     0.198 A 
ATOM     72  F   UNL A   1      46.353  32.730  30.670  1.00  0.00    -0.203 F 
ATOM     73  F   UNL A   1      45.053  36.673  27.126  1.00  0.00    -0.200 F 
ATOM     74  C   UNL A   1      46.198  35.977  29.071  1.00  0.00     0.200 A 
ATOM     75  F   UNL A   1      47.314  35.238  31.015  1.00  0.00    -0.200 F 
ATOM     76  F   UNL A   1      46.696  37.210  29.235  1.00  0.00    -0.200 F 
ENDBRANCH  52  66
BRANCH  53  77
ATOM     77  C   UNL A   1      41.524  24.179  27.439  1.00  0.00     0.064 A 
ATOM     78  C   UNL A   1      42.133  23.066  28.034  1.00  0.00     0.173 A 
ATOM     79  C   UNL A   1      40.394  23.957  26.641  1.00  0.00     0.173 A 
ATOM     80  F   UNL A   1      43.214  23.226  28.812  1.00  0.00    -0.203 F 
ATOM     81  C   UNL A   1      41.646  21.778  27.821  1.00  0.00     0.198 A 
ATOM     82  C   UNL A   1      39.892  22.670  26.450  1.00  0.00     0.198 A 
ATOM     83  F   UNL A   1      39.761  24.992  26.074  1.00  0.00    -0.203 F 
ATOM     84  F   UNL A   1      42.266  20.728  28.377  1.00  0.00    -0.200 F 
ATOM     85  C   UNL A   1      40.523  21.582  27.032  1.00  0.00     0.200 A 
ATOM     86  F   UNL A   1      38.789  22.489  25.710  1.00  0.00    -0.200 F 
ATOM     87  F   UNL A   1      40.046  20.345  26.838  1.00  0.00    -0.200 F 
ENDBRANCH  53  77
BRANCH  65  88
ATOM     88  C   UNL A   1      47.237  27.491  25.155  1.00  0.00     0.064 A 
ATOM     89  C   UNL A   1      48.342  26.837  25.723  1.00  0.00     0.173 A 
ATOM     90  C   UNL A   1      47.289  27.800  23.788  1.00  0.00     0.173 A 
ATOM     91  F   UNL A   1      48.348  26.529  27.029  1.00  0.00    -0.203 F 
ATOM     92  C   UNL A   1      49.462  26.524  24.957  1.00  0.00     0.198 A 
ATOM     93  C   UNL A   1      48.399  27.457  23.019  1.00  0.00     0.198 A 
ATOM     94  F   UNL A   1      46.255  28.414  23.194  1.00  0.00    -0.203 F 
ATOM     95  F   UNL A   1      50.520  25.934  25.531  1.00  0.00    -0.200 F 
ATOM     96  C   UNL A   1      49.487  26.829  23.606  1.00  0.00     0.200 A 
ATOM     97  F   UNL A   1      48.412  27.731  21.707  1.00  0.00    -0.200 F 
ATOM     98  F   UNL A   1      50.561  26.517  22.868  1.00  0.00    -0.200 F 
ENDBRANCH  65  88
ENDBRANCH  39  40
ENDBRANCH  32  34
ENDBRANCH  31  32
ENDBRANCH  30  31
ENDBRANCH  29  30
ENDBRANCH  28  29
ENDBRANCH  27  28
ENDBRANCH   1  27
TORSDOF 19
ENDMDL
MODEL 2
REMARK VINA RESULT:     -11.1      5.109      7.830
REMARK SMILES CC1(C)C(NC(=O)c2cc(F)c(F)cc2C(=O)OCCOCCOCCOC(=O)c2ccc(-c3c4nc(c(-c5c(F)c(F)c(F)c(F)c5F)c5ccc([nH]5)c(-c5c(F)c(F)c(F)c(F)c5F)c5nc(c(-c6c(F)c(F)c(F)c(F)c6F)c6ccc3[nH]6)C=C5)C=C4)cc2)C1(C)C
REMARK SMILES IDX 22 1 21 2 20 3 19 4 18 5 16 6 17 7 15 8 8 9 9 10 10 11 14 12
REMARK SMILES IDX 11 13 12 14 13 15 6 16 5 17 7 19 4 20 1 21 2 22 3 23 93 24
REMARK SMILES IDX 94 25 95 26 23 27 24 28 25 29 26 30 27 31 28 32 29 33 30 34
REMARK SMILES IDX 31 35 92 36 32 37 91 38 33 39 34 40 35 41 85 42 36 43 90 44
REMARK SMILES IDX 84 45 86 46 37 47 89 48 83 49 82 50 38 52 70 53 50 54 69 55
REMARK SMILES IDX 51 56 54 57 68 58 87 59 52 60 53 61 67 63 88 64 55 65 39 66
REMARK SMILES IDX 40 67 48 68 41 69 42 70 46 71 49 72 43 73 44 74 47 75 45 76
REMARK SMILES IDX 71 77 72 78 80 79 73 80 74 81 78 82 81 83 75 84 76 85 79 86
REMARK SMILES IDX 77 87 56 88 57 89 65 90 58 91 59 92 63 93 66 94 60 95 61 96
REMARK SMILES IDX 64 97 62 98
REMARK H PARENT 5 18 86 51 54 62
REMARK Flexibility Score: inf
ROOT
ATOM      1  C   UNL A   1      34.769  31.498  27.640  1.00  0.00     0.188 C 
ENDROOT
BRANCH   1   2
ATOM      2  O   UNL A   1      33.402  31.167  27.762  1.00  0.00    -0.376 OA
BRANCH   2   3
ATOM      3  C   UNL A   1      32.783  30.306  26.812  1.00  0.00     0.202 C 
BRANCH   3   4
ATOM      4  C   UNL A   1      31.720  29.274  27.199  1.00  0.00     0.261 C 
BRANCH   4   5
ATOM      5  O   UNL A   1      32.087  27.914  26.931  1.00  0.00    -0.460 OA
BRANCH   5   6
ATOM      6  C   UNL A   1      33.273  27.774  26.298  1.00  0.00     0.339 C 
ATOM      7  O   UNL A   1      34.384  27.904  26.791  1.00  0.00    -0.246 OA
BRANCH   6   8
ATOM      8  C   UNL A   1      33.126  27.168  24.960  1.00  0.00     0.075 A 
ATOM      9  C   UNL A   1      32.474  25.956  24.686  1.00  0.00     0.057 A 
ATOM     10  C   UNL A   1      32.163  25.646  23.353  1.00  0.00     0.057 A 
ATOM     11  C   UNL A   1      32.686  26.411  22.315  1.00  0.00     0.159 A 
ATOM     12  C   UNL A   1      33.643  27.940  23.901  1.00  0.00     0.059 A 
ATOM     13  F   UNL A   1      32.470  26.031  21.049  1.00  0.00    -0.204 F 
ATOM     14  C   UNL A   1      33.456  27.530  22.589  1.00  0.00     0.159 A 
ATOM     15  F   UNL A   1      34.013  28.231  21.594  1.00  0.00    -0.204 F 
BRANCH   9  16
ATOM     16  C   UNL A   1      32.156  24.984  25.761  1.00  0.00     0.252 C 
ATOM     17  N   UNL A   1      33.128  24.088  26.189  1.00  0.00    -0.348 N 
ATOM     18  H   UNL A   1      32.908  23.586  27.007  1.00  0.00     0.164 HD
ATOM     19  O   UNL A   1      31.047  25.007  26.283  1.00  0.00    -0.269 OA
BRANCH  17  20
ATOM     20  C   UNL A   1      34.407  23.791  25.609  1.00  0.00     0.094 C 
ATOM     21  C   UNL A   1      36.734  22.682  25.733  1.00  0.00     0.014 C 
ATOM     22  C   UNL A   1      35.222  22.521  25.728  1.00  0.00    -0.007 C 
ATOM     23  C   UNL A   1      34.781  21.454  26.700  1.00  0.00     0.014 C 
ATOM     24  C   UNL A   1      34.447  22.819  24.431  1.00  0.00    -0.007 C 
ATOM     25  C   UNL A   1      35.135  23.317  23.178  1.00  0.00     0.014 C 
ATOM     26  C   UNL A   1      33.239  21.967  24.092  1.00  0.00     0.014 C 
ENDBRANCH  17  20
ENDBRANCH   9  16
ENDBRANCH   6   8
ENDBRANCH   5   6
ENDBRANCH   4   5
ENDBRANCH   3   4
ENDBRANCH   2   3
ENDBRANCH   1   2
BRANCH   1  27
ATOM     27  C   UNL A   1      35.362  32.650  28.481  1.00  0.00     0.188 C 
BRANCH  27  28
ATOM     28  O   UNL A   1      34.554  33.466  29.302  1.00  0.00    -0.376 OA
BRANCH  28  29
ATOM     29  C   UNL A   1      33.792  34.515  28.729  1.00  0.00     0.202 C 
BRANCH  29  30
ATOM     30  C   UNL A   1      33.177  35.636  29.578  1.00  0.00     0.261 C 
BRANCH  30  31
ATOM     31  O   UNL A   1      32.362  35.205  30.673  1.00  0.00    -0.460 OA
BRANCH  31  32
ATOM     32  C   UNL A   1      32.662  35.779  31.865  1.00  0.00     0.338 C 
ATOM     33  O   UNL A   1      32.039  36.641  32.456  1.00  0.00    -0.246 OA
BRANCH  32  34
ATOM     34  C   UNL A   1      33.801  35.065  32.468  1.00  0.00     0.060 A 
ATOM     35  C   UNL A   1      35.058  35.685  32.455  1.00  0.00     0.016 A 
ATOM     36  C   UNL A   1      33.642  33.782  32.989  1.00  0.00     0.016 A 
ATOM     37  C   UNL A   1      36.170  35.015  32.959  1.00  0.00     0.010 A 
ATOM     38  C   UNL A   1      34.763  33.099  33.466  1.00  0.00     0.010 A 
ATOM     39  C   UNL A   1      36.032  33.704  33.432  1.00  0.00    -0.014 A 
BRANCH  39  40
ATOM     40  C   UNL A   1      37.235  32.904  33.755  1.00  0.00     0.031 A 
ATOM     41  C   UNL A   1      37.965  33.184  35.037  1.00  0.00     0.074 A 
ATOM     42  C   UNL A   1      37.670  31.944  32.922  1.00  0.00     0.049 A 
ATOM     43  N   UNL A   1      39.088  32.680  35.480  1.00  0.00    -0.248 NA
ATOM     44  C   UNL A   1      37.342  34.163  35.943  1.00  0.00     0.031 C 
ATOM     45  C   UNL A   1      37.011  31.543  31.681  1.00  0.00     0.029 A 
ATOM     46  N   UNL A   1      38.778  31.138  32.994  1.00  0.00    -0.354 N 
ATOM     47  C   UNL A   1      39.308  33.283  36.711  1.00  0.00     0.074 A 
ATOM     48  C   UNL A   1      38.218  34.207  36.936  1.00  0.00     0.031 C 
ATOM     49  C   UNL A   1      37.738  30.574  31.098  1.00  0.00     0.029 A 
ATOM     50  C   UNL A   1      38.931  30.317  31.905  1.00  0.00     0.049 A 
ATOM     51  H   UNL A   1      39.405  31.149  33.754  1.00  0.00     0.167 HD
ATOM     52  C   UNL A   1      40.330  33.079  37.575  1.00  0.00     0.037 A 
ATOM     53  C   UNL A   1      39.933  29.475  31.586  1.00  0.00     0.037 A 
ATOM     54  C   UNL A   1      41.416  32.165  37.342  1.00  0.00     0.049 A 
ATOM     55  C   UNL A   1      41.105  29.332  32.524  1.00  0.00     0.074 A 
ATOM     56  C   UNL A   1      42.501  31.892  38.155  1.00  0.00     0.029 A 
ATOM     57  N   UNL A   1      41.558  31.379  36.208  1.00  0.00    -0.354 N 
ATOM     58  N   UNL A   1      41.315  29.908  33.682  1.00  0.00    -0.248 NA
ATOM     59  C   UNL A   1      42.182  28.421  32.106  1.00  0.00     0.031 C 
ATOM     60  C   UNL A   1      43.326  30.979  37.493  1.00  0.00     0.029 A 
ATOM     61  C   UNL A   1      42.725  30.636  36.293  1.00  0.00     0.049 A 
ATOM     62  H   UNL A   1      40.924  31.352  35.456  1.00  0.00     0.167 HD
ATOM     63  C   UNL A   1      42.527  29.412  34.145  1.00  0.00     0.074 A 
ATOM     64  C   UNL A   1      43.004  28.479  33.146  1.00  0.00     0.031 C 
ATOM     65  C   UNL A   1      43.184  29.703  35.295  1.00  0.00     0.037 A 
BRANCH  52  66
ATOM     66  C   UNL A   1      40.335  33.871  38.848  1.00  0.00     0.064 A 
ATOM     67  C   UNL A   1      41.094  35.046  38.949  1.00  0.00     0.173 A 
ATOM     68  C   UNL A   1      39.640  33.436  39.986  1.00  0.00     0.173 A 
ATOM     69  F   UNL A   1      41.778  35.503  37.890  1.00  0.00    -0.203 F 
ATOM     70  C   UNL A   1      41.172  35.747  40.151  1.00  0.00     0.198 A 
ATOM     71  C   UNL A   1      39.697  34.156  41.178  1.00  0.00     0.198 A 
ATOM     72  F   UNL A   1      38.885  32.328  39.935  1.00  0.00    -0.203 F 
ATOM     73  F   UNL A   1      41.931  36.849  40.232  1.00  0.00    -0.200 F 
ATOM     74  C   UNL A   1      40.471  35.303  41.261  1.00  0.00     0.200 A 
ATOM     75  F   UNL A   1      38.999  33.740  42.243  1.00  0.00    -0.200 F 
ATOM     76  F   UNL A   1      40.540  35.985  42.413  1.00  0.00    -0.200 F 
ENDBRANCH  52  66
BRANCH  53  77
ATOM     77  C   UNL A   1      39.872  28.704  30.317  1.00  0.00     0.064 A 
ATOM     78  C   UNL A   1      39.294  27.428  30.266  1.00  0.00     0.173 A 
ATOM     79  C   UNL A   1      40.401  29.229  29.131  1.00  0.00     0.173 A 
ATOM     80  F   UNL A   1      38.769  26.883  31.373  1.00  0.00    -0.203 F 
ATOM     81  C   UNL A   1      39.268  26.695  29.081  1.00  0.00     0.198 A 
ATOM     82  C   UNL A   1      40.350  28.506  27.940  1.00  0.00     0.198 A 
ATOM     83  F   UNL A   1      40.938  30.457  29.123  1.00  0.00    -0.203 F 
ATOM     84  F   UNL A   1      38.738  25.464  29.068  1.00  0.00    -0.200 F 
ATOM     85  C   UNL A   1      39.793  27.237  27.918  1.00  0.00     0.200 A 
ATOM     86  F   UNL A   1      40.832  29.046  26.811  1.00  0.00    -0.200 F 
ATOM     87  F   UNL A   1      39.755  26.539  26.775  1.00  0.00    -0.200 F 
ENDBRANCH  53  77
BRANCH  65  88
ATOM     88  C   UNL A   1      44.476  28.986  35.565  1.00  0.00     0.064 A 
ATOM     89  C   UNL A   1      45.690  29.510  35.092  1.00  0.00     0.173 A 
ATOM     90  C   UNL A   1      44.507  27.745  36.218  1.00  0.00     0.173 A 
ATOM     91  F   UNL A   1      45.714  30.688  34.451  1.00  0.00    -0.203 F 
ATOM     92  C   UNL A   1      46.883  28.811  35.250  1.00  0.00     0.198 A 
ATOM     93  C   UNL A   1      45.708  27.063  36.401  1.00  0.00     0.198 A 
ATOM     94  F   UNL A   1      43.377  27.206  36.697  1.00  0.00    -0.203 F 
ATOM     95  F   UNL A   1      48.023  29.314  34.757  1.00  0.00    -0.200 F 
ATOM     96  C   UNL A   1      46.892  27.591  35.908  1.00  0.00     0.200 A 
ATOM     97  F   UNL A   1      45.718  25.895  37.059  1.00  0.00    -0.200 F 
ATOM     98  F   UNL A   1      48.043  26.924  36.070  1.00  0.00    -0.200 F 
ENDBRANCH  65  88
ENDBRANCH  39  40
ENDBRANCH  32  34
ENDBRANCH  31  32
ENDBRANCH  30  31
ENDBRANCH  29  30
ENDBRANCH  28  29
ENDBRANCH  27  28
ENDBRANCH   1  27
TORSDOF 19
ENDMDL
MODEL 3
REMARK VINA RESULT:     -10.8     10.452     15.250
REMARK SMILES CC1(C)C(NC(=O)c2cc(F)c(F)cc2C(=O)OCCOCCOCCOC(=O)c2ccc(-c3c4nc(c(-c5c(F)c(F)c(F)c(F)c5F)c5ccc([nH]5)c(-c5c(F)c(F)c(F)c(F)c5F)c5nc(c(-c6c(F)c(F)c(F)c(F)c6F)c6ccc3[nH]6)C=C5)C=C4)cc2)C1(C)C
REMARK SMILES IDX 22 1 21 2 20 3 19 4 18 5 16 6 17 7 15 8 8 9 9 10 10 11 14 12
REMARK SMILES IDX 11 13 12 14 13 15 6 16 5 17 7 19 4 20 1 21 2 22 3 23 93 24
REMARK SMILES IDX 94 25 95 26 23 27 24 28 25 29 26 30 27 31 28 32 29 33 30 34
REMARK SMILES IDX 31 35 92 36 32 37 91 38 33 39 34 40 35 41 85 42 36 43 90 44
REMARK SMILES IDX 84 45 86 46 37 47 89 48 83 49 82 50 38 52 70 53 50 54 69 55
REMARK SMILES IDX 51 56 54 57 68 58 87 59 52 60 53 61 67 63 88 64 55 65 39 66
REMARK SMILES IDX 40 67 48 68 41 69 42 70 46 71 49 72 43 73 44 74 47 75 45 76
REMARK SMILES IDX 71 77 72 78 80 79 73 80 74 81 78 82 81 83 75 84 76 85 79 86
REMARK SMILES IDX 77 87 56 88 57 89 65 90 58 91 59 92 63 93 66 94 60 95 61 96
REMARK SMILES IDX 64 97 62 98
REMARK H PARENT 5 18 86 51 54 62
REMARK Flexibility Score: inf
ROOT
ATOM      1  C   UNL A   1      46.975  20.213  39.532  1.00  0.00     0.188 C 
ENDROOT
BRANCH   1   2
ATOM      2  O   UNL A   1      46.233  19.217  40.204  1.00  0.00    -0.376 OA
BRANCH   2   3
ATOM      3  C   UNL A   1      46.596  17.847  40.086  1.00  0.00     0.202 C 
BRANCH   3   4
ATOM      4  C   UNL A   1      45.599  16.757  39.682  1.00  0.00     0.261 C 
BRANCH   4   5
ATOM      5  O   UNL A   1      44.976  16.083  40.784  1.00  0.00    -0.460 OA
BRANCH   5   6
ATOM      6  C   UNL A   1      43.647  16.302  40.889  1.00  0.00     0.339 C 
ATOM      7  O   UNL A   1      43.026  17.256  40.442  1.00  0.00    -0.246 OA
BRANCH   6   8
ATOM      8  C   UNL A   1      42.920  15.117  41.384  1.00  0.00     0.075 A 
ATOM      9  C   UNL A   1      42.783  14.756  42.734  1.00  0.00     0.057 A 
ATOM     10  C   UNL A   1      41.837  13.778  43.076  1.00  0.00     0.057 A 
ATOM     11  C   UNL A   1      41.214  13.028  42.083  1.00  0.00     0.159 A 
ATOM     12  C   UNL A   1      42.277  14.357  40.388  1.00  0.00     0.059 A 
ATOM     13  F   UNL A   1      40.400  12.024  42.434  1.00  0.00    -0.204 F 
ATOM     14  C   UNL A   1      41.464  13.291  40.746  1.00  0.00     0.159 A 
ATOM     15  F   UNL A   1      40.916  12.531  39.790  1.00  0.00    -0.204 F 
BRANCH   9  16
ATOM     16  C   UNL A   1      43.645  15.345  43.788  1.00  0.00     0.252 C 
ATOM     17  N   UNL A   1      44.716  14.617  44.290  1.00  0.00    -0.348 N 
ATOM     18  H   UNL A   1      45.338  15.122  44.862  1.00  0.00     0.164 HD
ATOM     19  O   UNL A   1      43.421  16.486  44.178  1.00  0.00    -0.269 OA
BRANCH  17  20
ATOM     20  C   UNL A   1      45.045  13.234  44.092  1.00  0.00     0.094 C 
ATOM     21  C   UNL A   1      46.743  11.292  44.144  1.00  0.00     0.014 C 
ATOM     22  C   UNL A   1      45.978  12.363  44.905  1.00  0.00    -0.007 C 
ATOM     23  C   UNL A   1      46.838  13.001  45.967  1.00  0.00     0.014 C 
ATOM     24  C   UNL A   1      44.454  12.215  45.065  1.00  0.00    -0.007 C 
ATOM     25  C   UNL A   1      43.686  11.067  44.444  1.00  0.00     0.014 C 
ATOM     26  C   UNL A   1      43.809  12.669  46.361  1.00  0.00     0.014 C 
ENDBRANCH  17  20
ENDBRANCH   9  16
ENDBRANCH   6   8
ENDBRANCH   5   6
ENDBRANCH   4   5
ENDBRANCH   3   4
ENDBRANCH   2   3
ENDBRANCH   1   2
BRANCH   1  27
ATOM     27  C   UNL A   1      46.323  21.575  39.208  1.00  0.00     0.188 C 
BRANCH  27  28
ATOM     28  O   UNL A   1      47.055  22.632  38.623  1.00  0.00    -0.376 OA
BRANCH  28  29
ATOM     29  C   UNL A   1      47.429  23.754  39.404  1.00  0.00     0.202 C 
BRANCH  29  30
ATOM     30  C   UNL A   1      46.680  25.091  39.325  1.00  0.00     0.261 C 
BRANCH  30  31
ATOM     31  O   UNL A   1      46.047  25.370  38.071  1.00  0.00    -0.460 OA
BRANCH  31  32
ATOM     32  C   UNL A   1      46.590  26.402  37.378  1.00  0.00     0.338 C 
ATOM     33  O   UNL A   1      47.720  26.845  37.462  1.00  0.00    -0.246 OA
BRANCH  32  34
ATOM     34  C   UNL A   1      45.645  26.825  36.329  1.00  0.00     0.060 A 
ATOM     35  C   UNL A   1      45.972  27.944  35.551  1.00  0.00     0.016 A 
ATOM     36  C   UNL A   1      44.431  26.162  36.155  1.00  0.00     0.016 A 
ATOM     37  C   UNL A   1      45.075  28.412  34.594  1.00  0.00     0.010 A 
ATOM     38  C   UNL A   1      43.521  26.650  35.215  1.00  0.00     0.010 A 
ATOM     39  C   UNL A   1      43.830  27.788  34.449  1.00  0.00    -0.014 A 
BRANCH  39  40
ATOM     40  C   UNL A   1      42.785  28.409  33.603  1.00  0.00     0.031 A 
ATOM     41  C   UNL A   1      41.831  29.382  34.234  1.00  0.00     0.074 A 
ATOM     42  C   UNL A   1      42.689  28.113  32.297  1.00  0.00     0.049 A 
ATOM     43  N   UNL A   1      40.784  29.971  33.717  1.00  0.00    -0.248 NA
ATOM     44  C   UNL A   1      42.095  29.739  35.637  1.00  0.00     0.031 C 
ATOM     45  C   UNL A   1      43.593  27.232  31.562  1.00  0.00     0.029 A 
ATOM     46  N   UNL A   1      41.773  28.519  31.358  1.00  0.00    -0.354 N 
ATOM     47  C   UNL A   1      40.262  30.763  34.731  1.00  0.00     0.074 A 
ATOM     48  C   UNL A   1      41.091  30.563  35.899  1.00  0.00     0.031 C 
ATOM     49  C   UNL A   1      43.179  27.150  30.286  1.00  0.00     0.029 A 
ATOM     50  C   UNL A   1      41.959  27.942  30.127  1.00  0.00     0.049 A 
ATOM     51  H   UNL A   1      41.052  29.162  31.550  1.00  0.00     0.167 HD
ATOM     52  C   UNL A   1      39.189  31.586  34.685  1.00  0.00     0.037 A 
ATOM     53  C   UNL A   1      41.212  28.024  29.008  1.00  0.00     0.037 A 
ATOM     54  C   UNL A   1      38.363  31.776  33.522  1.00  0.00     0.049 A 
ATOM     55  C   UNL A   1      39.969  28.878  29.009  1.00  0.00     0.074 A 
ATOM     56  C   UNL A   1      37.249  32.583  33.379  1.00  0.00     0.029 A 
ATOM     57  N   UNL A   1      38.558  31.142  32.303  1.00  0.00    -0.354 N 
ATOM     58  N   UNL A   1      39.474  29.619  29.970  1.00  0.00    -0.248 NA
ATOM     59  C   UNL A   1      39.179  28.902  27.769  1.00  0.00     0.031 C 
ATOM     60  C   UNL A   1      36.740  32.403  32.090  1.00  0.00     0.029 A 
ATOM     61  C   UNL A   1      37.572  31.527  31.409  1.00  0.00     0.049 A 
ATOM     62  H   UNL A   1      39.289  30.514  32.103  1.00  0.00     0.167 HD
ATOM     63  C   UNL A   1      38.336  30.220  29.446  1.00  0.00     0.074 A 
ATOM     64  C   UNL A   1      38.218  29.763  28.077  1.00  0.00     0.031 C 
ATOM     65  C   UNL A   1      37.470  31.073  30.045  1.00  0.00     0.037 A 
BRANCH  52  66
ATOM     66  C   UNL A   1      38.830  32.334  35.934  1.00  0.00     0.064 A 
ATOM     67  C   UNL A   1      39.281  33.648  36.129  1.00  0.00     0.173 A 
ATOM     68  C   UNL A   1      38.093  31.731  36.964  1.00  0.00     0.173 A 
ATOM     69  F   UNL A   1      39.989  34.268  35.174  1.00  0.00    -0.203 F 
ATOM     70  C   UNL A   1      39.023  34.324  37.319  1.00  0.00     0.198 A 
ATOM     71  C   UNL A   1      37.813  32.421  38.141  1.00  0.00     0.198 A 
ATOM     72  F   UNL A   1      37.624  30.483  36.819  1.00  0.00    -0.203 F 
ATOM     73  F   UNL A   1      39.492  35.567  37.495  1.00  0.00    -0.200 F 
ATOM     74  C   UNL A   1      38.287  33.712  38.321  1.00  0.00     0.200 A 
ATOM     75  F   UNL A   1      37.080  31.838  39.099  1.00  0.00    -0.200 F 
ATOM     76  F   UNL A   1      38.032  34.369  39.462  1.00  0.00    -0.200 F 
ENDBRANCH  52  66
BRANCH  53  77
ATOM     77  C   UNL A   1      41.620  27.272  27.793  1.00  0.00     0.064 A 
ATOM     78  C   UNL A   1      42.323  27.894  26.752  1.00  0.00     0.173 A 
ATOM     79  C   UNL A   1      41.304  25.914  27.648  1.00  0.00     0.173 A 
ATOM     80  F   UNL A   1      42.654  29.190  26.845  1.00  0.00    -0.203 F 
ATOM     81  C   UNL A   1      42.675  27.193  25.600  1.00  0.00     0.198 A 
ATOM     82  C   UNL A   1      41.681  25.207  26.507  1.00  0.00     0.198 A 
ATOM     83  F   UNL A   1      40.659  25.268  28.629  1.00  0.00    -0.203 F 
ATOM     84  F   UNL A   1      43.319  27.820  24.606  1.00  0.00    -0.200 F 
ATOM     85  C   UNL A   1      42.357  25.849  25.481  1.00  0.00     0.200 A 
ATOM     86  F   UNL A   1      41.397  23.901  26.408  1.00  0.00    -0.200 F 
ATOM     87  F   UNL A   1      42.708  25.171  24.380  1.00  0.00    -0.200 F 
ENDBRANCH  53  77
BRANCH  65  88
ATOM     88  C   UNL A   1      36.330  31.605  29.225  1.00  0.00     0.064 A 
ATOM     89  C   UNL A   1      36.290  32.961  28.863  1.00  0.00     0.173 A 
ATOM     90  C   UNL A   1      35.241  30.798  28.866  1.00  0.00     0.173 A 
ATOM     91  F   UNL A   1      37.301  33.779  29.191  1.00  0.00    -0.203 F 
ATOM     92  C   UNL A   1      35.195  33.490  28.186  1.00  0.00     0.198 A 
ATOM     93  C   UNL A   1      34.161  31.325  28.162  1.00  0.00     0.198 A 
ATOM     94  F   UNL A   1      35.234  29.493  29.179  1.00  0.00    -0.203 F 
ATOM     95  F   UNL A   1      35.162  34.796  27.884  1.00  0.00    -0.200 F 
ATOM     96  C   UNL A   1      34.134  32.672  27.832  1.00  0.00     0.200 A 
ATOM     97  F   UNL A   1      33.146  30.527  27.799  1.00  0.00    -0.200 F 
ATOM     98  F   UNL A   1      33.085  33.181  27.170  1.00  0.00    -0.200 F 
ENDBRANCH  65  88
ENDBRANCH  39  40
ENDBRANCH  32  34
ENDBRANCH  31  32
ENDBRANCH  30  31
ENDBRANCH  29  30
ENDBRANCH  28  29
ENDBRANCH  27  28
ENDBRANCH   1  27
TORSDOF 19
ENDMDL
