MODEL 1
REMARK VINA RESULT:     -11.9      0.000      0.000
REMARK SMILES NS(=O)(=O)c1ccc(N2N=C(C(=O)OCCOCCOCCOC(=O)c3ccc(-c4c5nc(c(-c6c(F)c(F)c(F)c(F)c6F)c6ccc([nH]6)c(-c6c(F)c(F)c(F)c(F)c6F)c6nc(c(-c7c(F)c(F)c(F)c(F)c7F)c7ccc4[nH]7)C=C6)C=C5)cc3)C[C@H]2c2cccs2)cc1
REMARK SMILES IDX 18 1 17 2 16 3 15 4 14 5 12 6 13 7 11 8 9 9 10 10 90 11
REMARK SMILES IDX 89 12 8 13 5 14 6 15 97 16 7 17 96 18 2 19 3 20 4 21 1 22
REMARK SMILES IDX 91 25 92 26 95 27 93 28 94 29 19 30 20 31 21 32 22 33 23 34
REMARK SMILES IDX 24 35 25 36 26 37 27 38 88 39 28 40 87 41 29 42 30 43 31 44
REMARK SMILES IDX 81 45 32 46 86 47 80 48 82 49 33 50 85 51 79 52 78 53 34 55
REMARK SMILES IDX 66 56 46 57 65 58 47 59 50 60 64 61 83 62 48 63 49 64 63 66
REMARK SMILES IDX 84 67 51 68 35 69 36 70 44 71 37 72 38 73 42 74 45 75 39 76
REMARK SMILES IDX 40 77 43 78 41 79 67 80 68 81 76 82 69 83 70 84 74 85 77 86
REMARK SMILES IDX 71 87 72 88 75 89 73 90 52 91 53 92 61 93 54 94 55 95 59 96
REMARK SMILES IDX 62 97 56 98 57 99 60 100 58 101
REMARK H PARENT 1 23 1 24 82 54 50 65
REMARK Flexibility Score: inf
ROOT
ATOM      1  C   UNL A   1      32.694  28.911  25.347  1.00  0.00     0.188 C 
ENDROOT
BRANCH   1   2
ATOM      2  O   UNL A   1      31.489  28.983  24.606  1.00  0.00    -0.376 OA
BRANCH   2   3
ATOM      3  C   UNL A   1      31.512  28.880  23.188  1.00  0.00     0.202 C 
BRANCH   3   4
ATOM      4  C   UNL A   1      31.710  27.536  22.466  1.00  0.00     0.261 C 
BRANCH   4   5
ATOM      5  O   UNL A   1      33.068  27.084  22.397  1.00  0.00    -0.459 OA
BRANCH   5   6
ATOM      6  C   UNL A   1      33.248  25.862  21.857  1.00  0.00     0.354 C 
ATOM      7  O   UNL A   1      33.271  25.562  20.679  1.00  0.00    -0.245 OA
BRANCH   6   8
ATOM      8  C   UNL A   1      33.575  24.868  22.944  1.00  0.00     0.148 C 
ATOM      9  N   UNL A   1      33.837  23.026  23.957  1.00  0.00    -0.256 N 
ATOM     10  N   UNL A   1      33.605  23.584  22.731  1.00  0.00    -0.169 NA
ATOM     11  C   UNL A   1      33.616  23.999  25.052  1.00  0.00     0.154 C 
ATOM     12  C   UNL A   1      33.953  25.310  24.324  1.00  0.00     0.099 C 
BRANCH   9  13
ATOM     13  C   UNL A   1      33.736  21.647  24.100  1.00  0.00     0.060 A 
ATOM     14  C   UNL A   1      33.538  18.844  24.292  1.00  0.00     0.082 A 
ATOM     15  C   UNL A   1      32.530  19.569  23.654  1.00  0.00     0.024 A 
ATOM     16  C   UNL A   1      34.616  19.506  24.878  1.00  0.00     0.024 A 
ATOM     17  C   UNL A   1      32.637  20.963  23.557  1.00  0.00     0.029 A 
ATOM     18  C   UNL A   1      34.696  20.899  24.794  1.00  0.00     0.029 A 
BRANCH  14  19
ATOM     19  S   UNL A   1      33.411  17.083  24.420  1.00  0.00     0.238 S 
ATOM     20  O   UNL A   1      33.659  16.498  23.119  1.00  0.00    -0.207 OA
ATOM     21  O   UNL A   1      32.263  16.738  25.219  1.00  0.00    -0.207 OA
BRANCH  19  22
ATOM     22  N   UNL A   1      34.747  16.694  25.362  1.00  0.00    -0.225 NA
ATOM     23  H   UNL A   1      35.519  17.319  25.131  1.00  0.00     0.137 HD
ATOM     24  H   UNL A   1      35.023  15.729  25.178  1.00  0.00     0.137 HD
ENDBRANCH  19  22
ENDBRANCH  14  19
ENDBRANCH   9  13
BRANCH  11  25
ATOM     25  C   UNL A   1      32.236  24.010  25.702  1.00  0.00     0.030 A 
ATOM     26  C   UNL A   1      31.657  22.994  26.445  1.00  0.00     0.017 A 
ATOM     27  S   UNL A   1      31.153  25.344  25.571  1.00  0.00    -0.147 S 
ATOM     28  C   UNL A   1      30.336  23.305  26.876  1.00  0.00     0.012 A 
ATOM     29  C   UNL A   1      29.957  24.571  26.500  1.00  0.00     0.065 A 
ENDBRANCH  11  25
ENDBRANCH   6   8
ENDBRANCH   5   6
ENDBRANCH   4   5
ENDBRANCH   3   4
ENDBRANCH   2   3
ENDBRANCH   1   2
BRANCH   1  30
ATOM     30  C   UNL A   1      32.706  29.349  26.824  1.00  0.00     0.188 C 
BRANCH  30  31
ATOM     31  O   UNL A   1      33.358  30.555  27.134  1.00  0.00    -0.376 OA
BRANCH  31  32
ATOM     32  C   UNL A   1      32.614  31.757  27.256  1.00  0.00     0.202 C 
BRANCH  32  33
ATOM     33  C   UNL A   1      33.191  33.174  27.479  1.00  0.00     0.261 C 
BRANCH  33  34
ATOM     34  O   UNL A   1      32.343  34.185  28.026  1.00  0.00    -0.460 OA
BRANCH  34  35
ATOM     35  C   UNL A   1      32.967  35.172  28.715  1.00  0.00     0.338 C 
ATOM     36  O   UNL A   1      32.612  36.330  28.841  1.00  0.00    -0.246 OA
BRANCH  35  37
ATOM     37  C   UNL A   1      34.082  34.569  29.468  1.00  0.00     0.060 A 
ATOM     38  C   UNL A   1      35.374  34.587  28.920  1.00  0.00     0.016 A 
ATOM     39  C   UNL A   1      33.839  33.971  30.702  1.00  0.00     0.016 A 
ATOM     40  C   UNL A   1      36.432  33.991  29.605  1.00  0.00     0.010 A 
ATOM     41  C   UNL A   1      34.892  33.349  31.373  1.00  0.00     0.010 A 
ATOM     42  C   UNL A   1      36.185  33.331  30.814  1.00  0.00    -0.014 A 
BRANCH  42  43
ATOM     43  C   UNL A   1      37.209  32.445  31.414  1.00  0.00     0.031 A 
ATOM     44  C   UNL A   1      37.705  32.773  32.793  1.00  0.00     0.074 A 
ATOM     45  C   UNL A   1      37.718  31.403  30.737  1.00  0.00     0.049 A 
ATOM     46  N   UNL A   1      38.711  32.273  33.460  1.00  0.00    -0.248 NA
ATOM     47  C   UNL A   1      36.966  33.826  33.511  1.00  0.00     0.031 C 
ATOM     48  C   UNL A   1      37.275  30.947  29.423  1.00  0.00     0.029 A 
ATOM     49  N   UNL A   1      38.746  30.554  31.063  1.00  0.00    -0.354 N 
ATOM     50  C   UNL A   1      38.740  32.962  34.666  1.00  0.00     0.074 A 
ATOM     51  C   UNL A   1      37.669  33.933  34.628  1.00  0.00     0.031 C 
ATOM     52  C   UNL A   1      38.047  29.917  29.038  1.00  0.00     0.029 A 
ATOM     53  C   UNL A   1      39.066  29.674  30.059  1.00  0.00     0.049 A 
ATOM     54  H   UNL A   1      39.210  30.574  31.931  1.00  0.00     0.167 HD
ATOM     55  C   UNL A   1      39.587  32.795  35.708  1.00  0.00     0.037 A 
ATOM     56  C   UNL A   1      40.091  28.803  29.965  1.00  0.00     0.037 A 
ATOM     57  C   UNL A   1      40.654  31.831  35.731  1.00  0.00     0.049 A 
ATOM     58  C   UNL A   1      41.080  28.700  31.100  1.00  0.00     0.074 A 
ATOM     59  C   UNL A   1      41.566  31.577  36.739  1.00  0.00     0.029 A 
ATOM     60  N   UNL A   1      40.959  30.967  34.688  1.00  0.00    -0.354 N 
ATOM     61  N   UNL A   1      41.107  29.350  32.240  1.00  0.00    -0.248 NA
ATOM     62  C   UNL A   1      42.183  27.743  30.934  1.00  0.00     0.031 C 
ATOM     63  C   UNL A   1      42.462  30.606  36.282  1.00  0.00     0.029 A 
ATOM     64  C   UNL A   1      42.061  30.198  35.020  1.00  0.00     0.049 A 
ATOM     65  H   UNL A   1      40.464  30.910  33.839  1.00  0.00     0.167 HD
ATOM     66  C   UNL A   1      42.196  28.847  32.943  1.00  0.00     0.074 A 
ATOM     67  C   UNL A   1      42.806  27.840  32.100  1.00  0.00     0.031 C 
ATOM     68  C   UNL A   1      42.643  29.182  34.178  1.00  0.00     0.037 A 
BRANCH  55  69
ATOM     69  C   UNL A   1      39.416  33.705  36.891  1.00  0.00     0.064 A 
ATOM     70  C   UNL A   1      38.684  33.320  38.025  1.00  0.00     0.173 A 
ATOM     71  C   UNL A   1      40.011  34.976  36.897  1.00  0.00     0.173 A 
ATOM     72  F   UNL A   1      38.080  32.124  38.065  1.00  0.00    -0.203 F 
ATOM     73  C   UNL A   1      38.528  34.186  39.104  1.00  0.00     0.198 A 
ATOM     74  C   UNL A   1      39.884  35.824  37.993  1.00  0.00     0.198 A 
ATOM     75  F   UNL A   1      40.724  35.396  35.840  1.00  0.00    -0.203 F 
ATOM     76  F   UNL A   1      37.774  33.820  40.151  1.00  0.00    -0.200 F 
ATOM     77  C   UNL A   1      39.134  35.434  39.091  1.00  0.00     0.200 A 
ATOM     78  F   UNL A   1      40.482  37.023  37.984  1.00  0.00    -0.200 F 
ATOM     79  F   UNL A   1      38.988  36.262  40.134  1.00  0.00    -0.200 F 
ENDBRANCH  55  69
BRANCH  56  80
ATOM     80  C   UNL A   1      40.250  27.970  28.743  1.00  0.00     0.064 A 
ATOM     81  C   UNL A   1      39.660  26.701  28.654  1.00  0.00     0.173 A 
ATOM     82  C   UNL A   1      41.011  28.412  27.650  1.00  0.00     0.173 A 
ATOM     83  F   UNL A   1      38.950  26.220  29.685  1.00  0.00    -0.203 F 
ATOM     84  C   UNL A   1      39.843  25.898  27.530  1.00  0.00     0.198 A 
ATOM     85  C   UNL A   1      41.166  27.621  26.513  1.00  0.00     0.198 A 
ATOM     86  F   UNL A   1      41.603  29.614  27.685  1.00  0.00    -0.203 F 
ATOM     87  F   UNL A   1      39.317  24.666  27.497  1.00  0.00    -0.200 F 
ATOM     88  C   UNL A   1      40.590  26.361  26.458  1.00  0.00     0.200 A 
ATOM     89  F   UNL A   1      41.882  28.076  25.476  1.00  0.00    -0.200 F 
ATOM     90  F   UNL A   1      40.766  25.588  25.377  1.00  0.00    -0.200 F 
ENDBRANCH  56  80
BRANCH  68  91
ATOM     91  C   UNL A   1      43.808  28.410  34.735  1.00  0.00     0.064 A 
ATOM     92  C   UNL A   1      43.639  27.223  35.461  1.00  0.00     0.173 A 
ATOM     93  C   UNL A   1      45.120  28.837  34.473  1.00  0.00     0.173 A 
ATOM     94  F   UNL A   1      42.407  26.776  35.747  1.00  0.00    -0.203 F 
ATOM     95  C   UNL A   1      44.738  26.505  35.924  1.00  0.00     0.198 A 
ATOM     96  C   UNL A   1      46.217  28.099  34.908  1.00  0.00     0.198 A 
ATOM     97  F   UNL A   1      45.340  29.960  33.773  1.00  0.00    -0.203 F 
ATOM     98  F   UNL A   1      44.553  25.396  36.655  1.00  0.00    -0.200 F 
ATOM     99  C   UNL A   1      46.025  26.936  35.639  1.00  0.00     0.200 A 
ATOM    100  F   UNL A   1      47.458  28.507  34.612  1.00  0.00    -0.200 F 
ATOM    101  F   UNL A   1      47.082  26.234  36.071  1.00  0.00    -0.200 F 
ENDBRANCH  68  91
ENDBRANCH  42  43
ENDBRANCH  35  37
ENDBRANCH  34  35
ENDBRANCH  33  34
ENDBRANCH  32  33
ENDBRANCH  31  32
ENDBRANCH  30  31
ENDBRANCH   1  30
TORSDOF 21
ENDMDL
MODEL 2
REMARK VINA RESULT:     -11.8      1.416      7.351
REMARK SMILES NS(=O)(=O)c1ccc(N2N=C(C(=O)OCCOCCOCCOC(=O)c3ccc(-c4c5nc(c(-c6c(F)c(F)c(F)c(F)c6F)c6ccc([nH]6)c(-c6c(F)c(F)c(F)c(F)c6F)c6nc(c(-c7c(F)c(F)c(F)c(F)c7F)c7ccc4[nH]7)C=C6)C=C5)cc3)C[C@H]2c2cccs2)cc1
REMARK SMILES IDX 18 1 17 2 16 3 15 4 14 5 12 6 13 7 11 8 9 9 10 10 90 11
REMARK SMILES IDX 89 12 8 13 5 14 6 15 97 16 7 17 96 18 2 19 3 20 4 21 1 22
REMARK SMILES IDX 91 25 92 26 95 27 93 28 94 29 19 30 20 31 21 32 22 33 23 34
REMARK SMILES IDX 24 35 25 36 26 37 27 38 88 39 28 40 87 41 29 42 30 43 31 44
REMARK SMILES IDX 81 45 32 46 86 47 80 48 82 49 33 50 85 51 79 52 78 53 34 55
REMARK SMILES IDX 66 56 46 57 65 58 47 59 50 60 64 61 83 62 48 63 49 64 63 66
REMARK SMILES IDX 84 67 51 68 35 69 36 70 44 71 37 72 38 73 42 74 45 75 39 76
REMARK SMILES IDX 40 77 43 78 41 79 67 80 68 81 76 82 69 83 70 84 74 85 77 86
REMARK SMILES IDX 71 87 72 88 75 89 73 90 52 91 53 92 61 93 54 94 55 95 59 96
REMARK SMILES IDX 62 97 56 98 57 99 60 100 58 101
REMARK H PARENT 1 23 1 24 82 54 50 65
REMARK Flexibility Score: inf
ROOT
ATOM      1  C   UNL A   1      30.686  29.388  23.511  1.00  0.00     0.188 C 
ENDROOT
BRANCH   1   2
ATOM      2  O   UNL A   1      30.612  28.052  23.043  1.00  0.00    -0.376 OA
BRANCH   2   3
ATOM      3  C   UNL A   1      29.477  27.251  23.343  1.00  0.00     0.202 C 
BRANCH   3   4
ATOM      4  C   UNL A   1      29.416  26.345  24.586  1.00  0.00     0.261 C 
BRANCH   4   5
ATOM      5  O   UNL A   1      30.676  26.119  25.229  1.00  0.00    -0.459 OA
BRANCH   5   6
ATOM      6  C   UNL A   1      30.824  24.914  25.812  1.00  0.00     0.354 C 
ATOM      7  O   UNL A   1      30.354  24.532  26.867  1.00  0.00    -0.245 OA
BRANCH   6   8
ATOM      8  C   UNL A   1      31.574  23.987  24.888  1.00  0.00     0.148 C 
ATOM      9  N   UNL A   1      32.404  22.219  24.068  1.00  0.00    -0.256 N 
ATOM     10  N   UNL A   1      31.535  22.693  25.011  1.00  0.00    -0.169 NA
ATOM     11  C   UNL A   1      33.280  23.291  23.543  1.00  0.00     0.154 C 
ATOM     12  C   UNL A   1      32.359  24.509  23.723  1.00  0.00     0.099 C 
BRANCH   9  13
ATOM     13  C   UNL A   1      32.732  20.869  24.072  1.00  0.00     0.060 A 
ATOM     14  C   UNL A   1      33.352  18.122  24.167  1.00  0.00     0.082 A 
ATOM     15  C   UNL A   1      33.904  18.992  25.110  1.00  0.00     0.024 A 
ATOM     16  C   UNL A   1      32.537  18.615  23.149  1.00  0.00     0.024 A 
ATOM     17  C   UNL A   1      33.587  20.356  25.060  1.00  0.00     0.029 A 
ATOM     18  C   UNL A   1      32.249  19.983  23.099  1.00  0.00     0.029 A 
BRANCH  14  19
ATOM     19  S   UNL A   1      33.748  16.398  24.221  1.00  0.00     0.238 S 
ATOM     20  O   UNL A   1      34.248  15.989  22.925  1.00  0.00    -0.207 OA
ATOM     21  O   UNL A   1      32.704  15.684  24.911  1.00  0.00    -0.207 OA
BRANCH  19  22
ATOM     22  N   UNL A   1      35.072  16.366  25.256  1.00  0.00    -0.225 NA
ATOM     23  H   UNL A   1      34.954  17.074  25.980  1.00  0.00     0.137 HD
ATOM     24  H   UNL A   1      35.922  16.559  24.726  1.00  0.00     0.137 HD
ENDBRANCH  19  22
ENDBRANCH  14  19
ENDBRANCH   9  13
BRANCH  11  25
ATOM     25  C   UNL A   1      34.640  23.464  24.210  1.00  0.00     0.030 A 
ATOM     26  C   UNL A   1      34.888  23.975  25.474  1.00  0.00     0.017 A 
ATOM     27  S   UNL A   1      36.121  23.051  23.432  1.00  0.00    -0.147 S 
ATOM     28  C   UNL A   1      36.277  24.044  25.782  1.00  0.00     0.012 A 
ATOM     29  C   UNL A   1      37.055  23.534  24.770  1.00  0.00     0.065 A 
ENDBRANCH  11  25
ENDBRANCH   6   8
ENDBRANCH   5   6
ENDBRANCH   4   5
ENDBRANCH   3   4
ENDBRANCH   2   3
ENDBRANCH   1   2
BRANCH   1  30
ATOM     30  C   UNL A   1      31.364  29.683  24.862  1.00  0.00     0.188 C 
BRANCH  30  31
ATOM     31  O   UNL A   1      31.033  30.892  25.499  1.00  0.00    -0.376 OA
BRANCH  31  32
ATOM     32  C   UNL A   1      31.743  31.304  26.657  1.00  0.00     0.202 C 
BRANCH  32  33
ATOM     33  C   UNL A   1      31.878  32.751  27.183  1.00  0.00     0.261 C 
BRANCH  33  34
ATOM     34  O   UNL A   1      33.184  33.291  27.391  1.00  0.00    -0.460 OA
BRANCH  34  35
ATOM     35  C   UNL A   1      33.285  34.245  28.349  1.00  0.00     0.338 C 
ATOM     36  O   UNL A   1      32.472  35.106  28.630  1.00  0.00    -0.246 OA
BRANCH  35  37
ATOM     37  C   UNL A   1      34.489  33.960  29.152  1.00  0.00     0.060 A 
ATOM     38  C   UNL A   1      35.745  34.374  28.681  1.00  0.00     0.016 A 
ATOM     39  C   UNL A   1      34.371  33.267  30.354  1.00  0.00     0.016 A 
ATOM     40  C   UNL A   1      36.896  34.082  29.412  1.00  0.00     0.010 A 
ATOM     41  C   UNL A   1      35.525  32.950  31.069  1.00  0.00     0.010 A 
ATOM     42  C   UNL A   1      36.793  33.330  30.588  1.00  0.00    -0.014 A 
BRANCH  42  43
ATOM     43  C   UNL A   1      37.999  32.754  31.225  1.00  0.00     0.031 A 
ATOM     44  C   UNL A   1      38.634  31.556  30.580  1.00  0.00     0.074 A 
ATOM     45  C   UNL A   1      38.494  33.253  32.370  1.00  0.00     0.049 A 
ATOM     46  N   UNL A   1      39.573  30.765  31.027  1.00  0.00    -0.248 NA
ATOM     47  C   UNL A   1      38.123  31.194  29.247  1.00  0.00     0.031 C 
ATOM     48  C   UNL A   1      38.006  34.447  33.055  1.00  0.00     0.029 A 
ATOM     49  N   UNL A   1      39.508  32.791  33.171  1.00  0.00    -0.354 N 
ATOM     50  C   UNL A   1      39.752  29.802  30.043  1.00  0.00     0.074 A 
ATOM     51  C   UNL A   1      38.806  30.090  28.987  1.00  0.00     0.031 C 
ATOM     52  C   UNL A   1      38.704  34.609  34.192  1.00  0.00     0.029 A 
ATOM     53  C   UNL A   1      39.652  33.504  34.335  1.00  0.00     0.049 A 
ATOM     54  H   UNL A   1      40.077  32.024  32.934  1.00  0.00     0.167 HD
ATOM     55  C   UNL A   1      40.628  28.770  30.026  1.00  0.00     0.037 A 
ATOM     56  C   UNL A   1      40.433  33.264  35.406  1.00  0.00     0.037 A 
ATOM     57  C   UNL A   1      41.559  28.488  31.086  1.00  0.00     0.049 A 
ATOM     58  C   UNL A   1      41.336  32.054  35.407  1.00  0.00     0.074 A 
ATOM     59  C   UNL A   1      42.493  27.472  31.167  1.00  0.00     0.029 A 
ATOM     60  N   UNL A   1      41.664  29.224  32.259  1.00  0.00    -0.354 N 
ATOM     61  N   UNL A   1      41.505  31.144  34.477  1.00  0.00    -0.248 NA
ATOM     62  C   UNL A   1      42.154  31.837  36.608  1.00  0.00     0.031 C 
ATOM     63  C   UNL A   1      43.118  27.553  32.414  1.00  0.00     0.029 A 
ATOM     64  C   UNL A   1      42.630  28.666  33.080  1.00  0.00     0.049 A 
ATOM     65  H   UNL A   1      41.131  30.023  32.474  1.00  0.00     0.167 HD
ATOM     66  C   UNL A   1      42.480  30.278  34.960  1.00  0.00     0.074 A 
ATOM     67  C   UNL A   1      42.862  30.770  36.267  1.00  0.00     0.031 C 
ATOM     68  C   UNL A   1      43.017  29.181  34.369  1.00  0.00     0.037 A 
BRANCH  55  69
ATOM     69  C   UNL A   1      40.588  27.847  28.841  1.00  0.00     0.064 A 
ATOM     70  C   UNL A   1      41.398  28.052  27.714  1.00  0.00     0.173 A 
ATOM     71  C   UNL A   1      39.739  26.730  28.843  1.00  0.00     0.173 A 
ATOM     72  F   UNL A   1      42.215  29.114  27.652  1.00  0.00    -0.203 F 
ATOM     73  C   UNL A   1      41.335  27.192  26.621  1.00  0.00     0.198 A 
ATOM     74  C   UNL A   1      39.706  25.851  27.764  1.00  0.00     0.198 A 
ATOM     75  F   UNL A   1      38.944  26.485  29.896  1.00  0.00    -0.203 F 
ATOM     76  F   UNL A   1      42.074  27.441  25.531  1.00  0.00    -0.200 F 
ATOM     77  C   UNL A   1      40.496  26.088  26.650  1.00  0.00     0.200 A 
ATOM     78  F   UNL A   1      38.905  24.778  27.801  1.00  0.00    -0.200 F 
ATOM     79  F   UNL A   1      40.442  25.257  25.601  1.00  0.00    -0.200 F 
ENDBRANCH  55  69
BRANCH  56  80
ATOM     80  C   UNL A   1      40.387  34.176  36.581  1.00  0.00     0.064 A 
ATOM     81  C   UNL A   1      39.476  33.961  37.625  1.00  0.00     0.173 A 
ATOM     82  C   UNL A   1      41.234  35.291  36.675  1.00  0.00     0.173 A 
ATOM     83  F   UNL A   1      38.623  32.928  37.566  1.00  0.00    -0.203 F 
ATOM     84  C   UNL A   1      39.398  34.838  38.706  1.00  0.00     0.198 A 
ATOM     85  C   UNL A   1      41.178  36.147  37.772  1.00  0.00     0.198 A 
ATOM     86  F   UNL A   1      42.120  35.547  35.701  1.00  0.00    -0.203 F 
ATOM     87  F   UNL A   1      38.477  34.641  39.658  1.00  0.00    -0.200 F 
ATOM     88  C   UNL A   1      40.254  35.925  38.782  1.00  0.00     0.200 A 
ATOM     89  F   UNL A   1      42.012  37.194  37.846  1.00  0.00    -0.200 F 
ATOM     90  F   UNL A   1      40.178  36.769  39.821  1.00  0.00    -0.200 F 
ENDBRANCH  56  80
BRANCH  68  91
ATOM     91  C   UNL A   1      44.128  28.470  35.091  1.00  0.00     0.064 A 
ATOM     92  C   UNL A   1      45.472  28.835  34.938  1.00  0.00     0.173 A 
ATOM     93  C   UNL A   1      43.827  27.448  36.006  1.00  0.00     0.173 A 
ATOM     94  F   UNL A   1      45.815  29.799  34.070  1.00  0.00    -0.203 F 
ATOM     95  C   UNL A   1      46.475  28.189  35.655  1.00  0.00     0.198 A 
ATOM     96  C   UNL A   1      44.828  26.827  36.747  1.00  0.00     0.198 A 
ATOM     97  F   UNL A   1      42.555  27.066  36.200  1.00  0.00    -0.203 F 
ATOM     98  F   UNL A   1      47.759  28.525  35.460  1.00  0.00    -0.200 F 
ATOM     99  C   UNL A   1      46.153  27.194  36.566  1.00  0.00     0.200 A 
ATOM    100  F   UNL A   1      44.511  25.881  37.641  1.00  0.00    -0.200 F 
ATOM    101  F   UNL A   1      47.119  26.585  37.268  1.00  0.00    -0.200 F 
ENDBRANCH  68  91
ENDBRANCH  42  43
ENDBRANCH  35  37
ENDBRANCH  34  35
ENDBRANCH  33  34
ENDBRANCH  32  33
ENDBRANCH  31  32
ENDBRANCH  30  31
ENDBRANCH   1  30
TORSDOF 21
ENDMDL
MODEL 3
REMARK VINA RESULT:     -11.8      0.688      7.154
REMARK SMILES NS(=O)(=O)c1ccc(N2N=C(C(=O)OCCOCCOCCOC(=O)c3ccc(-c4c5nc(c(-c6c(F)c(F)c(F)c(F)c6F)c6ccc([nH]6)c(-c6c(F)c(F)c(F)c(F)c6F)c6nc(c(-c7c(F)c(F)c(F)c(F)c7F)c7ccc4[nH]7)C=C6)C=C5)cc3)C[C@H]2c2cccs2)cc1
REMARK SMILES IDX 18 1 17 2 16 3 15 4 14 5 12 6 13 7 11 8 9 9 10 10 90 11
REMARK SMILES IDX 89 12 8 13 5 14 6 15 97 16 7 17 96 18 2 19 3 20 4 21 1 22
REMARK SMILES IDX 91 25 92 26 95 27 93 28 94 29 19 30 20 31 21 32 22 33 23 34
REMARK SMILES IDX 24 35 25 36 26 37 27 38 88 39 28 40 87 41 29 42 30 43 31 44
REMARK SMILES IDX 81 45 32 46 86 47 80 48 82 49 33 50 85 51 79 52 78 53 34 55
REMARK SMILES IDX 66 56 46 57 65 58 47 59 50 60 64 61 83 62 48 63 49 64 63 66
REMARK SMILES IDX 84 67 51 68 35 69 36 70 44 71 37 72 38 73 42 74 45 75 39 76
REMARK SMILES IDX 40 77 43 78 41 79 67 80 68 81 76 82 69 83 70 84 74 85 77 86
REMARK SMILES IDX 71 87 72 88 75 89 73 90 52 91 53 92 61 93 54 94 55 95 59 96
REMARK SMILES IDX 62 97 56 98 57 99 60 100 58 101
REMARK H PARENT 1 23 1 24 82 54 50 65
REMARK Flexibility Score: inf
ROOT
ATOM      1  C   UNL A   1      31.418  29.863  24.999  1.00  0.00     0.188 C 
ENDROOT
BRANCH   1   2
ATOM      2  O   UNL A   1      31.798  29.228  23.791  1.00  0.00    -0.376 OA
BRANCH   2   3
ATOM      3  C   UNL A   1      33.165  28.926  23.540  1.00  0.00     0.202 C 
BRANCH   3   4
ATOM      4  C   UNL A   1      33.594  27.786  22.599  1.00  0.00     0.261 C 
BRANCH   4   5
ATOM      5  O   UNL A   1      32.616  26.756  22.415  1.00  0.00    -0.459 OA
BRANCH   5   6
ATOM      6  C   UNL A   1      33.065  25.622  21.843  1.00  0.00     0.354 C 
ATOM      7  O   UNL A   1      33.276  25.413  20.664  1.00  0.00    -0.245 OA
BRANCH   6   8
ATOM      8  C   UNL A   1      33.428  24.620  22.912  1.00  0.00     0.148 C 
ATOM      9  N   UNL A   1      33.745  22.772  23.897  1.00  0.00    -0.256 N 
ATOM     10  N   UNL A   1      33.485  23.341  22.681  1.00  0.00    -0.169 NA
ATOM     11  C   UNL A   1      33.517  23.725  25.007  1.00  0.00     0.154 C 
ATOM     12  C   UNL A   1      33.815  25.053  24.293  1.00  0.00     0.099 C 
BRANCH   9  13
ATOM     13  C   UNL A   1      33.677  21.390  24.022  1.00  0.00     0.060 A 
ATOM     14  C   UNL A   1      33.533  18.598  24.373  1.00  0.00     0.082 A 
ATOM     15  C   UNL A   1      34.632  19.305  24.867  1.00  0.00     0.024 A 
ATOM     16  C   UNL A   1      32.533  19.261  23.663  1.00  0.00     0.024 A 
ATOM     17  C   UNL A   1      34.694  20.694  24.694  1.00  0.00     0.029 A 
ATOM     18  C   UNL A   1      32.622  20.644  23.477  1.00  0.00     0.029 A 
BRANCH  14  19
ATOM     19  S   UNL A   1      33.446  16.844  24.586  1.00  0.00     0.238 S 
ATOM     20  O   UNL A   1      33.517  16.208  23.288  1.00  0.00    -0.207 OA
ATOM     21  O   UNL A   1      32.426  16.524  25.552  1.00  0.00    -0.207 OA
BRANCH  19  22
ATOM     22  N   UNL A   1      34.905  16.502  25.347  1.00  0.00    -0.225 NA
ATOM     23  H   UNL A   1      35.500  17.330  25.330  1.00  0.00     0.137 HD
ATOM     24  H   UNL A   1      35.373  15.738  24.858  1.00  0.00     0.137 HD
ENDBRANCH  19  22
ENDBRANCH  14  19
ENDBRANCH   9  13
BRANCH  11  25
ATOM     25  C   UNL A   1      32.146  23.697  25.675  1.00  0.00     0.030 A 
ATOM     26  C   UNL A   1      31.605  22.661  26.421  1.00  0.00     0.017 A 
ATOM     27  S   UNL A   1      31.027  25.001  25.565  1.00  0.00    -0.147 S 
ATOM     28  C   UNL A   1      30.281  22.935  26.871  1.00  0.00     0.012 A 
ATOM     29  C   UNL A   1      29.863  24.192  26.506  1.00  0.00     0.065 A 
ENDBRANCH  11  25
ENDBRANCH   6   8
ENDBRANCH   5   6
ENDBRANCH   4   5
ENDBRANCH   3   4
ENDBRANCH   2   3
ENDBRANCH   1   2
BRANCH   1  30
ATOM     30  C   UNL A   1      32.276  29.668  26.263  1.00  0.00     0.188 C 
BRANCH  30  31
ATOM     31  O   UNL A   1      32.369  30.751  27.154  1.00  0.00    -0.376 OA
BRANCH  31  32
ATOM     32  C   UNL A   1      31.724  31.979  26.852  1.00  0.00     0.202 C 
BRANCH  32  33
ATOM     33  C   UNL A   1      32.304  33.395  27.066  1.00  0.00     0.261 C 
BRANCH  33  34
ATOM     34  O   UNL A   1      32.153  34.017  28.344  1.00  0.00    -0.460 OA
BRANCH  34  35
ATOM     35  C   UNL A   1      33.111  34.913  28.684  1.00  0.00     0.338 C 
ATOM     36  O   UNL A   1      33.007  36.124  28.752  1.00  0.00    -0.246 OA
BRANCH  35  37
ATOM     37  C   UNL A   1      34.290  34.163  29.156  1.00  0.00     0.060 A 
ATOM     38  C   UNL A   1      34.125  33.152  30.115  1.00  0.00     0.016 A 
ATOM     39  C   UNL A   1      35.553  34.478  28.661  1.00  0.00     0.016 A 
ATOM     40  C   UNL A   1      35.234  32.457  30.595  1.00  0.00     0.010 A 
ATOM     41  C   UNL A   1      36.665  33.803  29.165  1.00  0.00     0.010 A 
ATOM     42  C   UNL A   1      36.514  32.811  30.153  1.00  0.00    -0.014 A 
BRANCH  42  43
ATOM     43  C   UNL A   1      37.720  32.308  30.849  1.00  0.00     0.031 A 
ATOM     44  C   UNL A   1      38.502  31.205  30.195  1.00  0.00     0.074 A 
ATOM     45  C   UNL A   1      38.088  32.784  32.050  1.00  0.00     0.049 A 
ATOM     46  N   UNL A   1      39.476  30.475  30.672  1.00  0.00    -0.248 NA
ATOM     47  C   UNL A   1      38.119  30.874  28.812  1.00  0.00     0.031 C 
ATOM     48  C   UNL A   1      37.449  33.893  32.753  1.00  0.00     0.029 A 
ATOM     49  N   UNL A   1      39.081  32.368  32.900  1.00  0.00    -0.354 N 
ATOM     50  C   UNL A   1      39.807  29.585  29.659  1.00  0.00     0.074 A 
ATOM     51  C   UNL A   1      38.915  29.848  28.551  1.00  0.00     0.031 C 
ATOM     52  C   UNL A   1      38.049  34.052  33.945  1.00  0.00     0.029 A 
ATOM     53  C   UNL A   1      39.080  33.027  34.104  1.00  0.00     0.049 A 
ATOM     54  H   UNL A   1      39.732  31.667  32.669  1.00  0.00     0.167 HD
ATOM     55  C   UNL A   1      40.771  28.635  29.657  1.00  0.00     0.037 A 
ATOM     56  C   UNL A   1      39.804  32.797  35.218  1.00  0.00     0.037 A 
ATOM     57  C   UNL A   1      41.648  28.377  30.768  1.00  0.00     0.049 A 
ATOM     58  C   UNL A   1      40.809  31.670  35.226  1.00  0.00     0.074 A 
ATOM     59  C   UNL A   1      42.662  27.442  30.868  1.00  0.00     0.029 A 
ATOM     60  N   UNL A   1      41.606  29.054  31.979  1.00  0.00    -0.354 N 
ATOM     61  N   UNL A   1      41.123  30.830  34.269  1.00  0.00    -0.248 NA
ATOM     62  C   UNL A   1      41.558  31.459  36.473  1.00  0.00     0.031 C 
ATOM     63  C   UNL A   1      43.190  27.508  32.160  1.00  0.00     0.029 A 
ATOM     64  C   UNL A   1      42.559  28.538  32.841  1.00  0.00     0.049 A 
ATOM     65  H   UNL A   1      40.990  29.791  32.193  1.00  0.00     0.167 HD
ATOM     66  C   UNL A   1      42.136  30.026  34.780  1.00  0.00     0.074 A 
ATOM     67  C   UNL A   1      42.381  30.477  36.134  1.00  0.00     0.031 C 
ATOM     68  C   UNL A   1      42.808  29.013  34.179  1.00  0.00     0.037 A 
BRANCH  55  69
ATOM     69  C   UNL A   1      40.896  27.778  28.429  1.00  0.00     0.064 A 
ATOM     70  C   UNL A   1      40.202  26.566  28.295  1.00  0.00     0.173 A 
ATOM     71  C   UNL A   1      41.711  28.187  27.362  1.00  0.00     0.173 A 
ATOM     72  F   UNL A   1      39.423  26.120  29.291  1.00  0.00    -0.203 F 
ATOM     73  C   UNL A   1      40.344  25.782  27.153  1.00  0.00     0.198 A 
ATOM     74  C   UNL A   1      41.822  27.419  26.207  1.00  0.00     0.198 A 
ATOM     75  F   UNL A   1      42.397  29.339  27.436  1.00  0.00    -0.203 F 
ATOM     76  F   UNL A   1      39.717  24.600  27.072  1.00  0.00    -0.200 F 
ATOM     77  C   UNL A   1      41.147  26.212  26.107  1.00  0.00     0.200 A 
ATOM     78  F   UNL A   1      42.587  27.843  25.192  1.00  0.00    -0.200 F 
ATOM     79  F   UNL A   1      41.276  25.460  25.007  1.00  0.00    -0.200 F 
ENDBRANCH  55  69
BRANCH  56  80
ATOM     80  C   UNL A   1      39.595  33.636  36.428  1.00  0.00     0.064 A 
ATOM     81  C   UNL A   1      40.242  34.872  36.569  1.00  0.00     0.173 A 
ATOM     82  C   UNL A   1      38.766  33.211  37.478  1.00  0.00     0.173 A 
ATOM     83  F   UNL A   1      41.070  35.307  35.608  1.00  0.00    -0.203 F 
ATOM     84  C   UNL A   1      40.085  35.641  37.721  1.00  0.00     0.198 A 
ATOM     85  C   UNL A   1      38.585  33.996  38.615  1.00  0.00     0.198 A 
ATOM     86  F   UNL A   1      38.130  32.034  37.399  1.00  0.00    -0.203 F 
ATOM     87  F   UNL A   1      40.761  36.789  37.853  1.00  0.00    -0.200 F 
ATOM     88  C   UNL A   1      39.251  35.206  38.739  1.00  0.00     0.200 A 
ATOM     89  F   UNL A   1      37.772  33.576  39.594  1.00  0.00    -0.200 F 
ATOM     90  F   UNL A   1      39.101  35.945  39.847  1.00  0.00    -0.200 F 
ENDBRANCH  56  80
BRANCH  68  91
ATOM     91  C   UNL A   1      43.925  28.362  34.945  1.00  0.00     0.064 A 
ATOM     92  C   UNL A   1      45.239  28.851  34.912  1.00  0.00     0.173 A 
ATOM     93  C   UNL A   1      43.655  27.267  35.783  1.00  0.00     0.173 A 
ATOM     94  F   UNL A   1      45.553  29.888  34.121  1.00  0.00    -0.203 F 
ATOM     95  C   UNL A   1      46.244  28.255  35.668  1.00  0.00     0.198 A 
ATOM     96  C   UNL A   1      44.655  26.696  36.565  1.00  0.00     0.198 A 
ATOM     97  F   UNL A   1      42.414  26.765  35.862  1.00  0.00    -0.203 F 
ATOM     98  F   UNL A   1      47.502  28.711  35.588  1.00  0.00    -0.200 F 
ATOM     99  C   UNL A   1      45.950  27.186  36.502  1.00  0.00     0.200 A 
ATOM    100  F   UNL A   1      44.363  25.676  37.384  1.00  0.00    -0.200 F 
ATOM    101  F   UNL A   1      46.916  26.625  37.243  1.00  0.00    -0.200 F 
ENDBRANCH  68  91
ENDBRANCH  42  43
ENDBRANCH  35  37
ENDBRANCH  34  35
ENDBRANCH  33  34
ENDBRANCH  32  33
ENDBRANCH  31  32
ENDBRANCH  30  31
ENDBRANCH   1  30
TORSDOF 21
ENDMDL
