MODEL 1
REMARK VINA RESULT:     -11.7      0.000      0.000
REMARK SMILES O=C(/C=C/c1ccccc1)Nc1ccc(O)cc1C(=O)OCCOCCOCCOC(=O)c1ccc(-c2c3nc(c(-c4c(F)c(F)c(F)c(F)c4F)c4ccc([nH]4)c(-c4c(F)c(F)c(F)c(F)c4F)c4nc(c(-c5c(F)c(F)c(F)c(F)c5F)c5ccc2[nH]5)C=C4)C=C3)cc1
REMARK SMILES IDX 25 1 24 2 23 3 22 4 21 5 19 6 20 7 18 8 12 9 13 10 14 11
REMARK SMILES IDX 17 12 15 13 11 14 1 15 2 16 3 18 4 19 5 20 6 21 10 22 7 23
REMARK SMILES IDX 9 24 8 25 16 26 26 28 27 29 28 30 29 31 30 32 31 33 32 34
REMARK SMILES IDX 33 35 34 36 95 37 35 38 94 39 36 40 37 41 38 42 88 43 39 44
REMARK SMILES IDX 93 45 87 46 89 47 40 48 92 49 86 50 85 51 41 53 73 54 53 55
REMARK SMILES IDX 72 56 54 57 57 58 71 59 90 60 55 61 56 62 70 64 91 65 58 66
REMARK SMILES IDX 42 67 43 68 51 69 44 70 45 71 49 72 52 73 46 74 47 75 50 76
REMARK SMILES IDX 48 77 74 78 75 79 83 80 76 81 77 82 81 83 84 84 78 85 79 86
REMARK SMILES IDX 82 87 80 88 59 89 60 90 68 91 61 92 62 93 66 94 69 95 63 96
REMARK SMILES IDX 64 97 67 98 65 99
REMARK H PARENT 11 17 16 27 89 52 57 63
REMARK Flexibility Score: inf
ROOT
ATOM      1  C   UNL A   1      38.899  22.175  25.949  1.00  0.00     0.188 C 
ENDROOT
BRANCH   1   2
ATOM      2  O   UNL A   1      37.761  22.218  25.112  1.00  0.00    -0.376 OA
BRANCH   2   3
ATOM      3  C   UNL A   1      36.462  22.080  25.670  1.00  0.00     0.202 C 
BRANCH   3   4
ATOM      4  C   UNL A   1      35.583  23.284  26.029  1.00  0.00     0.261 C 
BRANCH   4   5
ATOM      5  O   UNL A   1      35.414  24.238  24.978  1.00  0.00    -0.460 OA
BRANCH   5   6
ATOM      6  C   UNL A   1      34.399  25.128  25.135  1.00  0.00     0.340 C 
ATOM      7  O   UNL A   1      34.195  25.826  26.117  1.00  0.00    -0.246 OA
BRANCH   6   8
ATOM      8  C   UNL A   1      33.724  25.365  23.832  1.00  0.00     0.087 A 
ATOM      9  C   UNL A   1      33.325  24.373  22.912  1.00  0.00     0.056 A 
ATOM     10  C   UNL A   1      32.877  24.778  21.641  1.00  0.00     0.031 A 
ATOM     11  C   UNL A   1      32.810  26.131  21.293  1.00  0.00     0.048 A 
ATOM     12  C   UNL A   1      33.659  26.727  23.466  1.00  0.00     0.064 A 
ATOM     13  C   UNL A   1      33.212  27.093  22.204  1.00  0.00     0.116 A 
BRANCH   9  14
ATOM     14  N   UNL A   1      33.382  22.972  23.110  1.00  0.00    -0.322 N 
ATOM     15  O   UNL A   1      31.425  22.617  24.280  1.00  0.00    -0.270 OA
ATOM     16  C   UNL A   1      32.523  22.237  23.882  1.00  0.00     0.248 C 
ATOM     17  H   UNL A   1      34.104  22.485  22.652  1.00  0.00     0.170 HD
BRANCH  16  18
ATOM     18  C   UNL A   1      32.929  20.844  24.194  1.00  0.00     0.072 C 
ATOM     19  C   UNL A   1      32.537  19.701  23.608  1.00  0.00     0.014 C 
BRANCH  19  20
ATOM     20  C   UNL A   1      32.938  18.374  24.114  1.00  0.00    -0.025 A 
ATOM     21  C   UNL A   1      33.652  17.500  23.285  1.00  0.00     0.008 A 
ATOM     22  C   UNL A   1      32.531  17.916  25.377  1.00  0.00     0.008 A 
ATOM     23  C   UNL A   1      33.956  16.203  23.715  1.00  0.00     0.001 A 
ATOM     24  C   UNL A   1      32.840  16.625  25.807  1.00  0.00     0.001 A 
ATOM     25  C   UNL A   1      33.548  15.767  24.973  1.00  0.00     0.000 A 
ENDBRANCH  19  20
ENDBRANCH  16  18
ENDBRANCH   9  14
BRANCH  13  26
ATOM     26  O   UNL A   1      33.184  28.395  21.807  1.00  0.00    -0.508 OA
ATOM     27  H   UNL A   1      32.541  28.979  22.159  1.00  0.00     0.293 HD
ENDBRANCH  13  26
ENDBRANCH   6   8
ENDBRANCH   5   6
ENDBRANCH   4   5
ENDBRANCH   3   4
ENDBRANCH   2   3
ENDBRANCH   1   2
BRANCH   1  28
ATOM     28  C   UNL A   1      39.670  20.851  26.139  1.00  0.00     0.188 C 
BRANCH  28  29
ATOM     29  O   UNL A   1      40.855  20.839  26.898  1.00  0.00    -0.376 OA
BRANCH  29  30
ATOM     30  C   UNL A   1      42.082  20.446  26.307  1.00  0.00     0.202 C 
BRANCH  30  31
ATOM     31  C   UNL A   1      43.103  21.392  25.639  1.00  0.00     0.261 C 
BRANCH  31  32
ATOM     32  O   UNL A   1      42.614  22.576  25.001  1.00  0.00    -0.460 OA
BRANCH  32  33
ATOM     33  C   UNL A   1      43.454  23.644  25.011  1.00  0.00     0.338 C 
ATOM     34  O   UNL A   1      44.370  23.874  24.249  1.00  0.00    -0.246 OA
BRANCH  33  35
ATOM     35  C   UNL A   1      42.956  24.617  26.007  1.00  0.00     0.060 A 
ATOM     36  C   UNL A   1      43.499  25.910  26.020  1.00  0.00     0.016 A 
ATOM     37  C   UNL A   1      41.961  24.257  26.913  1.00  0.00     0.016 A 
ATOM     38  C   UNL A   1      43.034  26.855  26.935  1.00  0.00     0.010 A 
ATOM     39  C   UNL A   1      41.517  25.196  27.850  1.00  0.00     0.010 A 
ATOM     40  C   UNL A   1      42.057  26.496  27.872  1.00  0.00    -0.014 A 
BRANCH  40  41
ATOM     41  C   UNL A   1      41.677  27.435  28.957  1.00  0.00     0.031 A 
ATOM     42  C   UNL A   1      42.455  27.416  30.241  1.00  0.00     0.074 A 
ATOM     43  C   UNL A   1      40.645  28.285  28.806  1.00  0.00     0.049 A 
ATOM     44  N   UNL A   1      42.242  28.072  31.354  1.00  0.00    -0.248 NA
ATOM     45  C   UNL A   1      43.631  26.533  30.277  1.00  0.00     0.031 C 
ATOM     46  C   UNL A   1      39.840  28.429  27.596  1.00  0.00     0.029 A 
ATOM     47  N   UNL A   1      40.088  29.174  29.691  1.00  0.00    -0.354 N 
ATOM     48  C   UNL A   1      43.250  27.677  32.222  1.00  0.00     0.074 A 
ATOM     49  C   UNL A   1      44.060  26.705  31.517  1.00  0.00     0.031 C 
ATOM     50  C   UNL A   1      38.876  29.339  27.822  1.00  0.00     0.029 A 
ATOM     51  C   UNL A   1      38.972  29.808  29.204  1.00  0.00     0.049 A 
ATOM     52  H   UNL A   1      40.454  29.342  30.591  1.00  0.00     0.167 HD
ATOM     53  C   UNL A   1      43.482  28.092  33.491  1.00  0.00     0.037 A 
ATOM     54  C   UNL A   1      38.107  30.642  29.816  1.00  0.00     0.037 A 
ATOM     55  C   UNL A   1      42.669  29.051  34.192  1.00  0.00     0.049 A 
ATOM     56  C   UNL A   1      38.330  31.012  31.262  1.00  0.00     0.074 A 
ATOM     57  C   UNL A   1      42.836  29.552  35.472  1.00  0.00     0.029 A 
ATOM     58  N   UNL A   1      41.525  29.644  33.679  1.00  0.00    -0.354 N 
ATOM     59  N   UNL A   1      39.303  30.661  32.068  1.00  0.00    -0.248 NA
ATOM     60  C   UNL A   1      37.330  31.892  31.883  1.00  0.00     0.031 C 
ATOM     61  C   UNL A   1      41.757  30.395  35.756  1.00  0.00     0.029 A 
ATOM     62  C   UNL A   1      40.954  30.475  34.630  1.00  0.00     0.049 A 
ATOM     63  H   UNL A   1      41.170  29.497  32.772  1.00  0.00     0.167 HD
ATOM     64  C   UNL A   1      39.047  31.298  33.278  1.00  0.00     0.074 A 
ATOM     65  C   UNL A   1      37.839  32.071  33.095  1.00  0.00     0.031 C 
ATOM     66  C   UNL A   1      39.750  31.244  34.437  1.00  0.00     0.037 A 
BRANCH  53  67
ATOM     67  C   UNL A   1      44.647  27.484  34.219  1.00  0.00     0.064 A 
ATOM     68  C   UNL A   1      44.520  26.298  34.959  1.00  0.00     0.173 A 
ATOM     69  C   UNL A   1      45.917  28.075  34.144  1.00  0.00     0.173 A 
ATOM     70  F   UNL A   1      43.325  25.697  35.073  1.00  0.00    -0.203 F 
ATOM     71  C   UNL A   1      45.614  25.744  35.618  1.00  0.00     0.198 A 
ATOM     72  C   UNL A   1      47.015  27.501  34.776  1.00  0.00     0.198 A 
ATOM     73  F   UNL A   1      46.095  29.207  33.446  1.00  0.00    -0.203 F 
ATOM     74  F   UNL A   1      45.459  24.638  36.359  1.00  0.00    -0.200 F 
ATOM     75  C   UNL A   1      46.862  26.341  35.519  1.00  0.00     0.200 A 
ATOM     76  F   UNL A   1      48.224  28.071  34.665  1.00  0.00    -0.200 F 
ATOM     77  F   UNL A   1      47.917  25.801  36.146  1.00  0.00    -0.200 F 
ENDBRANCH  53  67
BRANCH  54  78
ATOM     78  C   UNL A   1      36.928  31.169  29.077  1.00  0.00     0.064 A 
ATOM     79  C   UNL A   1      36.864  32.512  28.681  1.00  0.00     0.173 A 
ATOM     80  C   UNL A   1      35.828  30.351  28.781  1.00  0.00     0.173 A 
ATOM     81  F   UNL A   1      37.877  33.343  28.967  1.00  0.00    -0.203 F 
ATOM     82  C   UNL A   1      35.738  33.021  28.036  1.00  0.00     0.198 A 
ATOM     83  C   UNL A   1      34.715  30.852  28.106  1.00  0.00     0.198 A 
ATOM     84  F   UNL A   1      35.833  29.059  29.143  1.00  0.00    -0.203 F 
ATOM     85  F   UNL A   1      35.680  34.322  27.721  1.00  0.00    -0.200 F 
ATOM     86  C   UNL A   1      34.668  32.189  27.743  1.00  0.00     0.200 A 
ATOM     87  F   UNL A   1      33.689  30.042  27.816  1.00  0.00    -0.200 F 
ATOM     88  F   UNL A   1      33.585  32.680  27.123  1.00  0.00    -0.200 F 
ENDBRANCH  54  78
BRANCH  66  89
ATOM     89  C   UNL A   1      39.251  32.067  35.593  1.00  0.00     0.064 A 
ATOM     90  C   UNL A   1      38.434  31.519  36.592  1.00  0.00     0.173 A 
ATOM     91  C   UNL A   1      39.635  33.411  35.726  1.00  0.00     0.173 A 
ATOM     92  F   UNL A   1      38.027  30.243  36.507  1.00  0.00    -0.203 F 
ATOM     93  C   UNL A   1      37.999  32.290  37.667  1.00  0.00     0.198 A 
ATOM     94  C   UNL A   1      39.228  34.170  36.820  1.00  0.00     0.198 A 
ATOM     95  F   UNL A   1      40.422  33.985  34.804  1.00  0.00    -0.203 F 
ATOM     96  F   UNL A   1      37.179  31.758  38.584  1.00  0.00    -0.200 F 
ATOM     97  C   UNL A   1      38.404  33.612  37.785  1.00  0.00     0.200 A 
ATOM     98  F   UNL A   1      39.634  35.441  36.941  1.00  0.00    -0.200 F 
ATOM     99  F   UNL A   1      37.994  34.349  38.827  1.00  0.00    -0.200 F 
ENDBRANCH  66  89
ENDBRANCH  40  41
ENDBRANCH  33  35
ENDBRANCH  32  33
ENDBRANCH  31  32
ENDBRANCH  30  31
ENDBRANCH  29  30
ENDBRANCH  28  29
ENDBRANCH   1  28
TORSDOF 21
ENDMDL
MODEL 2
REMARK VINA RESULT:     -11.6      3.722      8.612
REMARK SMILES O=C(/C=C/c1ccccc1)Nc1ccc(O)cc1C(=O)OCCOCCOCCOC(=O)c1ccc(-c2c3nc(c(-c4c(F)c(F)c(F)c(F)c4F)c4ccc([nH]4)c(-c4c(F)c(F)c(F)c(F)c4F)c4nc(c(-c5c(F)c(F)c(F)c(F)c5F)c5ccc2[nH]5)C=C4)C=C3)cc1
REMARK SMILES IDX 25 1 24 2 23 3 22 4 21 5 19 6 20 7 18 8 12 9 13 10 14 11
REMARK SMILES IDX 17 12 15 13 11 14 1 15 2 16 3 18 4 19 5 20 6 21 10 22 7 23
REMARK SMILES IDX 9 24 8 25 16 26 26 28 27 29 28 30 29 31 30 32 31 33 32 34
REMARK SMILES IDX 33 35 34 36 95 37 35 38 94 39 36 40 37 41 38 42 88 43 39 44
REMARK SMILES IDX 93 45 87 46 89 47 40 48 92 49 86 50 85 51 41 53 73 54 53 55
REMARK SMILES IDX 72 56 54 57 57 58 71 59 90 60 55 61 56 62 70 64 91 65 58 66
REMARK SMILES IDX 42 67 43 68 51 69 44 70 45 71 49 72 52 73 46 74 47 75 50 76
REMARK SMILES IDX 48 77 74 78 75 79 83 80 76 81 77 82 81 83 84 84 78 85 79 86
REMARK SMILES IDX 82 87 80 88 59 89 60 90 68 91 61 92 62 93 66 94 69 95 63 96
REMARK SMILES IDX 64 97 67 98 65 99
REMARK H PARENT 11 17 16 27 89 52 57 63
REMARK Flexibility Score: inf
ROOT
ATOM      1  C   UNL A   1      33.541  28.030  26.288  1.00  0.00     0.188 C 
ENDROOT
BRANCH   1   2
ATOM      2  O   UNL A   1      32.385  27.461  25.706  1.00  0.00    -0.376 OA
BRANCH   2   3
ATOM      3  C   UNL A   1      31.524  26.644  26.487  1.00  0.00     0.202 C 
BRANCH   3   4
ATOM      4  C   UNL A   1      30.244  26.016  25.923  1.00  0.00     0.261 C 
BRANCH   4   5
ATOM      5  O   UNL A   1      30.130  26.059  24.499  1.00  0.00    -0.460 OA
BRANCH   5   6
ATOM      6  C   UNL A   1      28.961  26.546  24.006  1.00  0.00     0.340 C 
ATOM      7  O   UNL A   1      27.837  26.230  24.365  1.00  0.00    -0.246 OA
BRANCH   6   8
ATOM      8  C   UNL A   1      29.225  27.743  23.164  1.00  0.00     0.087 A 
ATOM      9  C   UNL A   1      30.486  28.163  22.691  1.00  0.00     0.056 A 
ATOM     10  C   UNL A   1      30.584  29.423  22.072  1.00  0.00     0.031 A 
ATOM     11  C   UNL A   1      29.462  30.241  21.911  1.00  0.00     0.048 A 
ATOM     12  C   UNL A   1      28.101  28.581  23.002  1.00  0.00     0.064 A 
ATOM     13  C   UNL A   1      28.232  29.819  22.387  1.00  0.00     0.116 A 
BRANCH   9  14
ATOM     14  N   UNL A   1      31.709  27.463  22.825  1.00  0.00    -0.322 N 
ATOM     15  O   UNL A   1      31.645  26.111  20.956  1.00  0.00    -0.270 OA
ATOM     16  C   UNL A   1      32.121  26.415  22.046  1.00  0.00     0.248 C 
ATOM     17  H   UNL A   1      32.316  27.756  23.543  1.00  0.00     0.170 HD
BRANCH  16  18
ATOM     18  C   UNL A   1      33.288  25.637  22.535  1.00  0.00     0.072 C 
ATOM     19  C   UNL A   1      33.334  24.704  23.499  1.00  0.00     0.014 C 
BRANCH  19  20
ATOM     20  C   UNL A   1      34.601  24.103  23.959  1.00  0.00    -0.025 A 
ATOM     21  C   UNL A   1      35.104  24.424  25.226  1.00  0.00     0.008 A 
ATOM     22  C   UNL A   1      35.378  23.292  23.116  1.00  0.00     0.008 A 
ATOM     23  C   UNL A   1      36.350  23.939  25.639  1.00  0.00     0.001 A 
ATOM     24  C   UNL A   1      36.617  22.804  23.531  1.00  0.00     0.001 A 
ATOM     25  C   UNL A   1      37.105  23.132  24.791  1.00  0.00     0.000 A 
ENDBRANCH  19  20
ENDBRANCH  16  18
ENDBRANCH   9  14
BRANCH  13  26
ATOM     26  O   UNL A   1      27.175  30.667  22.260  1.00  0.00    -0.508 OA
ATOM     27  H   UNL A   1      26.461  30.620  22.864  1.00  0.00     0.293 HD
ENDBRANCH  13  26
ENDBRANCH   6   8
ENDBRANCH   5   6
ENDBRANCH   4   5
ENDBRANCH   3   4
ENDBRANCH   2   3
ENDBRANCH   1   2
BRANCH   1  28
ATOM     28  C   UNL A   1      33.567  29.530  26.652  1.00  0.00     0.188 C 
BRANCH  28  29
ATOM     29  O   UNL A   1      32.432  30.124  27.235  1.00  0.00    -0.376 OA
BRANCH  29  30
ATOM     30  C   UNL A   1      31.729  31.149  26.555  1.00  0.00     0.202 C 
BRANCH  30  31
ATOM     31  C   UNL A   1      31.727  32.645  26.937  1.00  0.00     0.261 C 
BRANCH  31  32
ATOM     32  O   UNL A   1      32.977  33.342  26.953  1.00  0.00    -0.460 OA
BRANCH  32  33
ATOM     33  C   UNL A   1      33.261  34.021  28.095  1.00  0.00     0.338 C 
ATOM     34  O   UNL A   1      32.582  34.864  28.645  1.00  0.00    -0.246 OA
BRANCH  33  35
ATOM     35  C   UNL A   1      34.475  33.429  28.697  1.00  0.00     0.060 A 
ATOM     36  C   UNL A   1      34.367  32.203  29.370  1.00  0.00     0.016 A 
ATOM     37  C   UNL A   1      35.705  34.075  28.594  1.00  0.00     0.016 A 
ATOM     38  C   UNL A   1      35.500  31.611  29.931  1.00  0.00     0.010 A 
ATOM     39  C   UNL A   1      36.834  33.496  29.183  1.00  0.00     0.010 A 
ATOM     40  C   UNL A   1      36.735  32.266  29.863  1.00  0.00    -0.014 A 
BRANCH  40  41
ATOM     41  C   UNL A   1      37.909  31.734  30.599  1.00  0.00     0.031 A 
ATOM     42  C   UNL A   1      38.763  30.686  29.945  1.00  0.00     0.074 A 
ATOM     43  C   UNL A   1      38.204  32.169  31.837  1.00  0.00     0.049 A 
ATOM     44  N   UNL A   1      39.772  30.010  30.433  1.00  0.00    -0.248 NA
ATOM     45  C   UNL A   1      38.430  30.351  28.552  1.00  0.00     0.031 C 
ATOM     46  C   UNL A   1      37.480  33.209  32.562  1.00  0.00     0.029 A 
ATOM     47  N   UNL A   1      39.185  31.768  32.710  1.00  0.00    -0.354 N 
ATOM     48  C   UNL A   1      40.189  29.167  29.413  1.00  0.00     0.074 A 
ATOM     49  C   UNL A   1      39.308  29.396  28.287  1.00  0.00     0.031 C 
ATOM     50  C   UNL A   1      38.029  33.351  33.781  1.00  0.00     0.029 A 
ATOM     51  C   UNL A   1      39.114  32.383  33.936  1.00  0.00     0.049 A 
ATOM     52  H   UNL A   1      39.874  31.102  32.480  1.00  0.00     0.167 HD
ATOM     53  C   UNL A   1      41.217  28.285  29.414  1.00  0.00     0.037 A 
ATOM     54  C   UNL A   1      39.820  32.162  35.064  1.00  0.00     0.037 A 
ATOM     55  C   UNL A   1      42.085  28.052  30.539  1.00  0.00     0.049 A 
ATOM     56  C   UNL A   1      40.895  31.103  35.070  1.00  0.00     0.074 A 
ATOM     57  C   UNL A   1      43.168  27.195  30.631  1.00  0.00     0.029 A 
ATOM     58  N   UNL A   1      41.959  28.667  31.776  1.00  0.00    -0.354 N 
ATOM     59  N   UNL A   1      41.307  30.332  34.093  1.00  0.00    -0.248 NA
ATOM     60  C   UNL A   1      41.601  30.883  36.341  1.00  0.00     0.031 C 
ATOM     61  C   UNL A   1      43.655  27.242  31.940  1.00  0.00     0.029 A 
ATOM     62  C   UNL A   1      42.920  28.179  32.648  1.00  0.00     0.049 A 
ATOM     63  H   UNL A   1      41.287  29.349  32.002  1.00  0.00     0.167 HD
ATOM     64  C   UNL A   1      42.334  29.558  34.622  1.00  0.00     0.074 A 
ATOM     65  C   UNL A   1      42.496  29.966  36.001  1.00  0.00     0.031 C 
ATOM     66  C   UNL A   1      43.074  28.594  34.020  1.00  0.00     0.037 A 
BRANCH  53  67
ATOM     67  C   UNL A   1      41.442  27.477  28.168  1.00  0.00     0.064 A 
ATOM     68  C   UNL A   1      42.349  27.882  27.177  1.00  0.00     0.173 A 
ATOM     69  C   UNL A   1      40.767  26.262  27.980  1.00  0.00     0.173 A 
ATOM     70  F   UNL A   1      43.013  29.042  27.300  1.00  0.00    -0.203 F 
ATOM     71  C   UNL A   1      42.551  27.114  26.033  1.00  0.00     0.198 A 
ATOM     72  C   UNL A   1      40.996  25.480  26.852  1.00  0.00     0.198 A 
ATOM     73  F   UNL A   1      39.892  25.825  28.898  1.00  0.00    -0.203 F 
ATOM     74  F   UNL A   1      43.385  27.544  25.076  1.00  0.00    -0.200 F 
ATOM     75  C   UNL A   1      41.880  25.910  25.876  1.00  0.00     0.200 A 
ATOM     76  F   UNL A   1      40.359  24.308  26.710  1.00  0.00    -0.200 F 
ATOM     77  F   UNL A   1      42.083  25.166  24.779  1.00  0.00    -0.200 F 
ENDBRANCH  53  67
BRANCH  54  78
ATOM     78  C   UNL A   1      39.520  32.938  36.296  1.00  0.00     0.064 A 
ATOM     79  C   UNL A   1      38.544  32.506  37.205  1.00  0.00     0.173 A 
ATOM     80  C   UNL A   1      40.178  34.146  36.576  1.00  0.00     0.173 A 
ATOM     81  F   UNL A   1      37.865  31.373  36.967  1.00  0.00    -0.203 F 
ATOM     82  C   UNL A   1      38.223  33.259  38.333  1.00  0.00     0.198 A 
ATOM     83  C   UNL A   1      39.880  34.882  37.722  1.00  0.00     0.198 A 
ATOM     84  F   UNL A   1      41.115  34.611  35.737  1.00  0.00    -0.203 F 
ATOM     85  F   UNL A   1      37.245  32.850  39.153  1.00  0.00    -0.200 F 
ATOM     86  C   UNL A   1      38.896  34.443  38.594  1.00  0.00     0.200 A 
ATOM     87  F   UNL A   1      40.540  36.020  37.974  1.00  0.00    -0.200 F 
ATOM     88  F   UNL A   1      38.587  35.167  39.679  1.00  0.00    -0.200 F 
ENDBRANCH  54  78
BRANCH  66  89
ATOM     89  C   UNL A   1      44.151  27.931  34.835  1.00  0.00     0.064 A 
ATOM     90  C   UNL A   1      43.932  26.718  35.503  1.00  0.00     0.173 A 
ATOM     91  C   UNL A   1      45.435  28.496  34.910  1.00  0.00     0.173 A 
ATOM     92  F   UNL A   1      42.720  26.141  35.475  1.00  0.00    -0.203 F 
ATOM     93  C   UNL A   1      44.947  26.108  36.235  1.00  0.00     0.198 A 
ATOM     94  C   UNL A   1      46.457  27.866  35.614  1.00  0.00     0.198 A 
ATOM     95  F   UNL A   1      45.704  29.652  34.285  1.00  0.00    -0.203 F 
ATOM     96  F   UNL A   1      44.700  24.974  36.906  1.00  0.00    -0.200 F 
ATOM     97  C   UNL A   1      46.211  26.677  36.283  1.00  0.00     0.200 A 
ATOM     98  F   UNL A   1      47.683  28.409  35.644  1.00  0.00    -0.200 F 
ATOM     99  F   UNL A   1      47.190  26.082  36.979  1.00  0.00    -0.200 F 
ENDBRANCH  66  89
ENDBRANCH  40  41
ENDBRANCH  33  35
ENDBRANCH  32  33
ENDBRANCH  31  32
ENDBRANCH  30  31
ENDBRANCH  29  30
ENDBRANCH  28  29
ENDBRANCH   1  28
TORSDOF 21
ENDMDL
MODEL 3
REMARK VINA RESULT:     -11.5      3.341      9.420
REMARK SMILES O=C(/C=C/c1ccccc1)Nc1ccc(O)cc1C(=O)OCCOCCOCCOC(=O)c1ccc(-c2c3nc(c(-c4c(F)c(F)c(F)c(F)c4F)c4ccc([nH]4)c(-c4c(F)c(F)c(F)c(F)c4F)c4nc(c(-c5c(F)c(F)c(F)c(F)c5F)c5ccc2[nH]5)C=C4)C=C3)cc1
REMARK SMILES IDX 25 1 24 2 23 3 22 4 21 5 19 6 20 7 18 8 12 9 13 10 14 11
REMARK SMILES IDX 17 12 15 13 11 14 1 15 2 16 3 18 4 19 5 20 6 21 10 22 7 23
REMARK SMILES IDX 9 24 8 25 16 26 26 28 27 29 28 30 29 31 30 32 31 33 32 34
REMARK SMILES IDX 33 35 34 36 95 37 35 38 94 39 36 40 37 41 38 42 88 43 39 44
REMARK SMILES IDX 93 45 87 46 89 47 40 48 92 49 86 50 85 51 41 53 73 54 53 55
REMARK SMILES IDX 72 56 54 57 57 58 71 59 90 60 55 61 56 62 70 64 91 65 58 66
REMARK SMILES IDX 42 67 43 68 51 69 44 70 45 71 49 72 52 73 46 74 47 75 50 76
REMARK SMILES IDX 48 77 74 78 75 79 83 80 76 81 77 82 81 83 84 84 78 85 79 86
REMARK SMILES IDX 82 87 80 88 59 89 60 90 68 91 61 92 62 93 66 94 69 95 63 96
REMARK SMILES IDX 64 97 67 98 65 99
REMARK H PARENT 11 17 16 27 89 52 57 63
REMARK Flexibility Score: inf
ROOT
ATOM      1  C   UNL A   1      32.899  29.042  25.680  1.00  0.00     0.188 C 
ENDROOT
BRANCH   1   2
ATOM      2  O   UNL A   1      33.098  29.327  24.310  1.00  0.00    -0.376 OA
BRANCH   2   3
ATOM      3  C   UNL A   1      33.966  28.514  23.533  1.00  0.00     0.202 C 
BRANCH   3   4
ATOM      4  C   UNL A   1      33.654  27.049  23.204  1.00  0.00     0.261 C 
BRANCH   4   5
ATOM      5  O   UNL A   1      34.111  26.105  24.174  1.00  0.00    -0.460 OA
BRANCH   5   6
ATOM      6  C   UNL A   1      34.028  24.795  23.820  1.00  0.00     0.340 C 
ATOM      7  O   UNL A   1      34.496  24.287  22.812  1.00  0.00    -0.246 OA
BRANCH   6   8
ATOM      8  C   UNL A   1      33.543  23.988  24.971  1.00  0.00     0.087 A 
ATOM      9  C   UNL A   1      32.351  24.206  25.693  1.00  0.00     0.056 A 
ATOM     10  C   UNL A   1      32.139  23.471  26.874  1.00  0.00     0.031 A 
ATOM     11  C   UNL A   1      33.073  22.533  27.322  1.00  0.00     0.048 A 
ATOM     12  C   UNL A   1      34.482  23.043  25.437  1.00  0.00     0.064 A 
ATOM     13  C   UNL A   1      34.242  22.334  26.607  1.00  0.00     0.116 A 
BRANCH   9  14
ATOM     14  N   UNL A   1      31.343  25.151  25.385  1.00  0.00    -0.322 N 
ATOM     15  O   UNL A   1      30.383  24.174  23.528  1.00  0.00    -0.270 OA
ATOM     16  C   UNL A   1      30.547  25.137  24.271  1.00  0.00     0.248 C 
ATOM     17  H   UNL A   1      31.203  25.883  26.028  1.00  0.00     0.170 HD
BRANCH  16  18
ATOM     18  C   UNL A   1      29.766  26.369  23.991  1.00  0.00     0.072 C 
ATOM     19  C   UNL A   1      30.168  27.505  23.399  1.00  0.00     0.014 C 
BRANCH  19  20
ATOM     20  C   UNL A   1      29.302  28.696  23.302  1.00  0.00    -0.025 A 
ATOM     21  C   UNL A   1      29.850  29.971  23.494  1.00  0.00     0.008 A 
ATOM     22  C   UNL A   1      27.914  28.583  23.126  1.00  0.00     0.008 A 
ATOM     23  C   UNL A   1      29.027  31.104  23.500  1.00  0.00     0.001 A 
ATOM     24  C   UNL A   1      27.096  29.713  23.126  1.00  0.00     0.001 A 
ATOM     25  C   UNL A   1      27.652  30.973  23.319  1.00  0.00     0.000 A 
ENDBRANCH  19  20
ENDBRANCH  16  18
ENDBRANCH   9  14
BRANCH  13  26
ATOM     26  O   UNL A   1      35.152  21.453  27.105  1.00  0.00    -0.508 OA
ATOM     27  H   UNL A   1      35.984  21.759  27.408  1.00  0.00     0.293 HD
ENDBRANCH  13  26
ENDBRANCH   6   8
ENDBRANCH   5   6
ENDBRANCH   4   5
ENDBRANCH   3   4
ENDBRANCH   2   3
ENDBRANCH   1   2
BRANCH   1  28
ATOM     28  C   UNL A   1      32.385  30.142  26.633  1.00  0.00     0.188 C 
BRANCH  28  29
ATOM     29  O   UNL A   1      31.482  31.110  26.156  1.00  0.00    -0.376 OA
BRANCH  29  30
ATOM     30  C   UNL A   1      31.492  32.424  26.688  1.00  0.00     0.202 C 
BRANCH  30  31
ATOM     31  C   UNL A   1      32.529  32.984  27.684  1.00  0.00     0.261 C 
BRANCH  31  32
ATOM     32  O   UNL A   1      32.977  34.331  27.511  1.00  0.00    -0.460 OA
BRANCH  32  33
ATOM     33  C   UNL A   1      33.115  35.061  28.649  1.00  0.00     0.338 C 
ATOM     34  O   UNL A   1      32.354  35.896  29.091  1.00  0.00    -0.246 OA
BRANCH  33  35
ATOM     35  C   UNL A   1      34.277  34.536  29.398  1.00  0.00     0.060 A 
ATOM     36  C   UNL A   1      35.531  34.510  28.772  1.00  0.00     0.016 A 
ATOM     37  C   UNL A   1      34.129  34.080  30.707  1.00  0.00     0.016 A 
ATOM     38  C   UNL A   1      36.649  34.038  29.462  1.00  0.00     0.010 A 
ATOM     39  C   UNL A   1      35.244  33.579  31.387  1.00  0.00     0.010 A 
ATOM     40  C   UNL A   1      36.507  33.547  30.766  1.00  0.00    -0.014 A 
BRANCH  40  41
ATOM     41  C   UNL A   1      37.648  32.888  31.448  1.00  0.00     0.031 A 
ATOM     42  C   UNL A   1      38.293  31.697  30.799  1.00  0.00     0.074 A 
ATOM     43  C   UNL A   1      38.097  33.336  32.634  1.00  0.00     0.049 A 
ATOM     44  N   UNL A   1      39.233  30.907  31.255  1.00  0.00    -0.248 NA
ATOM     45  C   UNL A   1      37.809  31.345  29.456  1.00  0.00     0.031 C 
ATOM     46  C   UNL A   1      37.585  34.504  33.345  1.00  0.00     0.029 A 
ATOM     47  N   UNL A   1      39.077  32.841  33.459  1.00  0.00    -0.354 N 
ATOM     48  C   UNL A   1      39.447  29.964  30.260  1.00  0.00     0.074 A 
ATOM     49  C   UNL A   1      38.522  30.262  29.187  1.00  0.00     0.031 C 
ATOM     50  C   UNL A   1      38.241  34.625  34.512  1.00  0.00     0.029 A 
ATOM     51  C   UNL A   1      39.189  33.519  34.647  1.00  0.00     0.049 A 
ATOM     52  H   UNL A   1      39.646  32.072  33.221  1.00  0.00     0.167 HD
ATOM     53  C   UNL A   1      40.339  28.944  30.241  1.00  0.00     0.037 A 
ATOM     54  C   UNL A   1      39.943  33.254  35.734  1.00  0.00     0.037 A 
ATOM     55  C   UNL A   1      41.251  28.644  31.314  1.00  0.00     0.049 A 
ATOM     56  C   UNL A   1      40.857  32.054  35.728  1.00  0.00     0.074 A 
ATOM     57  C   UNL A   1      42.207  27.646  31.380  1.00  0.00     0.029 A 
ATOM     58  N   UNL A   1      41.309  29.331  32.518  1.00  0.00    -0.354 N 
ATOM     59  N   UNL A   1      41.079  31.184  34.772  1.00  0.00    -0.248 NA
ATOM     60  C   UNL A   1      41.622  31.796  36.957  1.00  0.00     0.031 C 
ATOM     61  C   UNL A   1      42.796  27.686  32.648  1.00  0.00     0.029 A 
ATOM     62  C   UNL A   1      42.257  28.753  33.347  1.00  0.00     0.049 A 
ATOM     63  H   UNL A   1      40.758  30.113  32.750  1.00  0.00     0.167 HD
ATOM     64  C   UNL A   1      42.026  30.297  35.273  1.00  0.00     0.074 A 
ATOM     65  C   UNL A   1      42.350  30.744  36.610  1.00  0.00     0.031 C 
ATOM     66  C   UNL A   1      42.575  29.208  34.679  1.00  0.00     0.037 A 
BRANCH  53  67
ATOM     67  C   UNL A   1      40.350  28.053  29.032  1.00  0.00     0.064 A 
ATOM     68  C   UNL A   1      41.096  28.369  27.887  1.00  0.00     0.173 A 
ATOM     69  C   UNL A   1      39.634  26.846  29.035  1.00  0.00     0.173 A 
ATOM     70  F   UNL A   1      41.790  29.515  27.826  1.00  0.00    -0.203 F 
ATOM     71  C   UNL A   1      41.102  27.523  26.780  1.00  0.00     0.198 A 
ATOM     72  C   UNL A   1      39.668  25.988  27.940  1.00  0.00     0.198 A 
ATOM     73  F   UNL A   1      38.908  26.494  30.107  1.00  0.00    -0.203 F 
ATOM     74  F   UNL A   1      41.782  27.868  25.678  1.00  0.00    -0.200 F 
ATOM     75  C   UNL A   1      40.395  26.330  26.811  1.00  0.00     0.200 A 
ATOM     76  F   UNL A   1      38.998  24.827  27.979  1.00  0.00    -0.200 F 
ATOM     77  F   UNL A   1      40.409  25.513  25.749  1.00  0.00    -0.200 F 
ENDBRANCH  53  67
BRANCH  54  78
ATOM     78  C   UNL A   1      39.852  34.125  36.936  1.00  0.00     0.064 A 
ATOM     79  C   UNL A   1      40.667  35.257  37.073  1.00  0.00     0.173 A 
ATOM     80  C   UNL A   1      38.972  33.827  37.988  1.00  0.00     0.173 A 
ATOM     81  F   UNL A   1      41.546  35.569  36.109  1.00  0.00    -0.203 F 
ATOM     82  C   UNL A   1      40.621  36.045  38.223  1.00  0.00     0.198 A 
ATOM     83  C   UNL A   1      38.903  34.634  39.123  1.00  0.00     0.198 A 
ATOM     84  F   UNL A   1      38.174  32.752  37.912  1.00  0.00    -0.203 F 
ATOM     85  F   UNL A   1      41.454  37.087  38.351  1.00  0.00    -0.200 F 
ATOM     86  C   UNL A   1      39.735  35.736  39.243  1.00  0.00     0.200 A 
ATOM     87  F   UNL A   1      38.037  34.337  40.101  1.00  0.00    -0.200 F 
ATOM     88  F   UNL A   1      39.692  36.494  40.348  1.00  0.00    -0.200 F 
ENDBRANCH  54  78
BRANCH  66  89
ATOM     89  C   UNL A   1      43.609  28.438  35.454  1.00  0.00     0.064 A 
ATOM     90  C   UNL A   1      44.975  28.744  35.370  1.00  0.00     0.173 A 
ATOM     91  C   UNL A   1      43.221  27.410  36.328  1.00  0.00     0.173 A 
ATOM     92  F   UNL A   1      45.401  29.709  34.540  1.00  0.00    -0.203 F 
ATOM     93  C   UNL A   1      45.916  28.035  36.112  1.00  0.00     0.198 A 
ATOM     94  C   UNL A   1      44.161  26.726  37.095  1.00  0.00     0.198 A 
ATOM     95  F   UNL A   1      41.928  27.080  36.454  1.00  0.00    -0.203 F 
ATOM     96  F   UNL A   1      47.221  28.313  35.978  1.00  0.00    -0.200 F 
ATOM     97  C   UNL A   1      45.508  27.033  36.980  1.00  0.00     0.200 A 
ATOM     98  F   UNL A   1      43.763  25.771  37.947  1.00  0.00    -0.200 F 
ATOM     99  F   UNL A   1      46.415  26.359  37.703  1.00  0.00    -0.200 F 
ENDBRANCH  66  89
ENDBRANCH  40  41
ENDBRANCH  33  35
ENDBRANCH  32  33
ENDBRANCH  31  32
ENDBRANCH  30  31
ENDBRANCH  29  30
ENDBRANCH  28  29
ENDBRANCH   1  28
TORSDOF 21
ENDMDL
