MODEL 1
REMARK VINA RESULT:     -11.2      0.000      0.000
REMARK SMILES Cc1[nH]c(=O)sc1S(=O)(=O)NC1(CC(=O)OCCOCCOCCOC(=O)c2ccc(-c3c4nc(c(-c5c(F)c(F)c(F)c(F)c5F)c5ccc([nH]5)c(-c5c(F)c(F)c(F)c(F)c5F)c5nc(c(-c6c(F)c(F)c(F)c(F)c6F)c6ccc3[nH]6)C=C5)C=C4)cc2)CCC1
REMARK SMILES IDX 20 1 19 2 18 3 17 4 16 5 14 6 15 7 13 8 12 9 91 10 93 11
REMARK SMILES IDX 92 12 11 13 8 15 9 16 10 17 7 18 1 19 2 20 3 21 4 22 6 24
REMARK SMILES IDX 5 25 21 26 22 27 23 28 24 29 25 30 26 31 27 32 28 33 29 34
REMARK SMILES IDX 90 35 30 36 89 37 31 38 32 39 33 40 83 41 34 42 88 43 82 44
REMARK SMILES IDX 84 45 35 46 87 47 81 48 80 49 36 51 68 52 48 53 67 54 49 55
REMARK SMILES IDX 52 56 66 57 85 58 50 59 51 60 65 62 86 63 53 64 37 65 38 66
REMARK SMILES IDX 46 67 39 68 40 69 44 70 47 71 41 72 42 73 45 74 43 75 69 76
REMARK SMILES IDX 70 77 78 78 71 79 72 80 76 81 79 82 73 83 74 84 77 85 75 86
REMARK SMILES IDX 54 87 55 88 63 89 56 90 57 91 61 92 64 93 58 94 59 95 62 96
REMARK SMILES IDX 60 97
REMARK H PARENT 11 14 3 23 84 50 52 61
REMARK Flexibility Score: inf
ROOT
ATOM      1  C   UNL A   1      38.944  22.903  26.231  1.00  0.00     0.188 C 
ENDROOT
BRANCH   1   2
ATOM      2  O   UNL A   1      37.635  22.752  25.751  1.00  0.00    -0.376 OA
BRANCH   2   3
ATOM      3  C   UNL A   1      37.230  21.460  25.317  1.00  0.00     0.202 C 
BRANCH   3   4
ATOM      4  C   UNL A   1      35.718  21.057  25.102  1.00  0.00     0.261 C 
BRANCH   4   5
ATOM      5  O   UNL A   1      34.705  21.495  26.125  1.00  0.00    -0.463 OA
BRANCH   5   6
ATOM      6  C   UNL A   1      33.863  22.573  26.397  1.00  0.00     0.307 C 
ATOM      7  O   UNL A   1      32.880  22.643  27.120  1.00  0.00    -0.252 OA
BRANCH   6   8
ATOM      8  C   UNL A   1      34.260  23.834  25.676  1.00  0.00     0.146 C 
BRANCH   8   9
ATOM      9  C   UNL A   1      33.091  24.312  24.873  1.00  0.00     0.044 C 
ATOM     10  C   UNL A   1      32.444  23.329  23.819  1.00  0.00     0.024 C 
ATOM     11  C   UNL A   1      33.686  24.999  23.546  1.00  0.00     0.024 C 
ATOM     12  C   UNL A   1      33.670  23.605  22.899  1.00  0.00     0.004 C 
BRANCH   9  13
ATOM     13  N   UNL A   1      32.171  25.109  25.905  1.00  0.00    -0.204 NA
ATOM     14  H   UNL A   1      31.567  24.396  26.316  1.00  0.00     0.142 HD
BRANCH  13  15
ATOM     15  S   UNL A   1      31.035  26.545  25.569  1.00  0.00     0.252 S 
ATOM     16  O   UNL A   1      30.994  27.314  26.795  1.00  0.00    -0.206 OA
ATOM     17  O   UNL A   1      29.851  25.750  25.254  1.00  0.00    -0.206 OA
BRANCH  15  18
ATOM     18  C   UNL A   1      31.194  27.750  24.149  1.00  0.00     0.158 A 
ATOM     19  C   UNL A   1      33.642  28.846  23.394  1.00  0.00     0.067 C 
ATOM     20  C   UNL A   1      32.155  28.518  23.505  1.00  0.00     0.046 A 
ATOM     21  N   UNL A   1      31.595  29.275  22.470  1.00  0.00    -0.315 N 
ATOM     22  C   UNL A   1      30.279  29.236  22.236  1.00  0.00     0.305 A 
ATOM     23  H   UNL A   1      32.174  29.840  21.909  1.00  0.00     0.170 HD
ATOM     24  S   UNL A   1      29.558  28.218  23.426  1.00  0.00    -0.061 S 
ATOM     25  O   UNL A   1      29.704  29.821  21.310  1.00  0.00    -0.257 OA
ENDBRANCH  15  18
ENDBRANCH  13  15
ENDBRANCH   9  13
ENDBRANCH   8   9
ENDBRANCH   6   8
ENDBRANCH   5   6
ENDBRANCH   4   5
ENDBRANCH   3   4
ENDBRANCH   2   3
ENDBRANCH   1   2
BRANCH   1  26
ATOM     26  C   UNL A   1      39.677  21.570  26.308  1.00  0.00     0.188 C 
BRANCH  26  27
ATOM     27  O   UNL A   1      40.388  21.128  27.469  1.00  0.00    -0.376 OA
BRANCH  27  28
ATOM     28  C   UNL A   1      41.328  20.063  27.428  1.00  0.00     0.202 C 
BRANCH  28  29
ATOM     29  C   UNL A   1      42.057  19.855  26.112  1.00  0.00     0.261 C 
BRANCH  29  30
ATOM     30  O   UNL A   1      43.269  20.578  26.084  1.00  0.00    -0.460 OA
BRANCH  30  31
ATOM     31  C   UNL A   1      43.998  20.398  24.959  1.00  0.00     0.338 C 
ATOM     32  O   UNL A   1      44.082  19.395  24.273  1.00  0.00    -0.246 OA
BRANCH  31  33
ATOM     33  C   UNL A   1      44.775  21.633  24.726  1.00  0.00     0.060 A 
ATOM     34  C   UNL A   1      45.727  21.871  25.713  1.00  0.00     0.016 A 
ATOM     35  C   UNL A   1      44.063  22.663  24.099  1.00  0.00     0.016 A 
ATOM     36  C   UNL A   1      45.591  23.040  26.410  1.00  0.00     0.010 A 
ATOM     37  C   UNL A   1      43.861  23.788  24.836  1.00  0.00     0.010 A 
ATOM     38  C   UNL A   1      44.557  23.905  26.035  1.00  0.00    -0.014 A 
BRANCH  38  39
ATOM     39  C   UNL A   1      44.320  25.067  26.843  1.00  0.00     0.031 A 
ATOM     40  C   UNL A   1      45.400  26.045  26.637  1.00  0.00     0.074 A 
ATOM     41  C   UNL A   1      43.218  25.217  27.596  1.00  0.00     0.049 A 
ATOM     42  N   UNL A   1      46.376  26.283  27.445  1.00  0.00    -0.248 NA
ATOM     43  C   UNL A   1      45.582  26.602  25.286  1.00  0.00     0.031 C 
ATOM     44  C   UNL A   1      42.009  24.390  27.625  1.00  0.00     0.029 A 
ATOM     45  N   UNL A   1      42.919  26.227  28.451  1.00  0.00    -0.354 N 
ATOM     46  C   UNL A   1      47.158  27.221  26.787  1.00  0.00     0.074 A 
ATOM     47  C   UNL A   1      46.786  27.161  25.402  1.00  0.00     0.031 C 
ATOM     48  C   UNL A   1      41.031  25.058  28.281  1.00  0.00     0.029 A 
ATOM     49  C   UNL A   1      41.580  26.292  28.819  1.00  0.00     0.049 A 
ATOM     50  H   UNL A   1      43.594  26.862  28.783  1.00  0.00     0.167 HD
ATOM     51  C   UNL A   1      47.759  28.206  27.502  1.00  0.00     0.037 A 
ATOM     52  C   UNL A   1      40.993  27.347  29.439  1.00  0.00     0.037 A 
ATOM     53  C   UNL A   1      47.845  27.834  28.897  1.00  0.00     0.049 A 
ATOM     54  C   UNL A   1      42.084  28.154  30.054  1.00  0.00     0.074 A 
ATOM     55  C   UNL A   1      48.431  26.794  29.592  1.00  0.00     0.029 A 
ATOM     56  N   UNL A   1      46.911  28.378  29.743  1.00  0.00    -0.354 N 
ATOM     57  N   UNL A   1      42.800  27.747  31.066  1.00  0.00    -0.248 NA
ATOM     58  C   UNL A   1      42.692  29.199  29.244  1.00  0.00     0.031 C 
ATOM     59  C   UNL A   1      47.531  26.497  30.658  1.00  0.00     0.029 A 
ATOM     60  C   UNL A   1      46.476  27.408  30.606  1.00  0.00     0.049 A 
ATOM     61  H   UNL A   1      46.604  29.314  29.732  1.00  0.00     0.167 HD
ATOM     62  C   UNL A   1      44.096  28.140  30.760  1.00  0.00     0.074 A 
ATOM     63  C   UNL A   1      43.953  29.108  29.675  1.00  0.00     0.031 C 
ATOM     64  C   UNL A   1      45.162  27.414  31.208  1.00  0.00     0.037 A 
BRANCH  51  65
ATOM     65  C   UNL A   1      47.805  29.647  27.046  1.00  0.00     0.064 A 
ATOM     66  C   UNL A   1      49.020  30.344  27.189  1.00  0.00     0.173 A 
ATOM     67  C   UNL A   1      46.674  30.456  26.785  1.00  0.00     0.173 A 
ATOM     68  F   UNL A   1      50.159  29.682  27.445  1.00  0.00    -0.203 F 
ATOM     69  C   UNL A   1      49.076  31.738  27.186  1.00  0.00     0.198 A 
ATOM     70  C   UNL A   1      46.743  31.845  26.729  1.00  0.00     0.198 A 
ATOM     71  F   UNL A   1      45.434  29.969  26.683  1.00  0.00    -0.203 F 
ATOM     72  F   UNL A   1      50.230  32.355  27.474  1.00  0.00    -0.200 F 
ATOM     73  C   UNL A   1      47.936  32.488  26.967  1.00  0.00     0.200 A 
ATOM     74  F   UNL A   1      45.620  32.550  26.533  1.00  0.00    -0.200 F 
ATOM     75  F   UNL A   1      47.972  33.824  27.033  1.00  0.00    -0.200 F 
ENDBRANCH  51  65
BRANCH  52  76
ATOM     76  C   UNL A   1      39.627  27.894  29.253  1.00  0.00     0.064 A 
ATOM     77  C   UNL A   1      38.747  28.019  30.342  1.00  0.00     0.173 A 
ATOM     78  C   UNL A   1      39.259  28.572  28.074  1.00  0.00     0.173 A 
ATOM     79  F   UNL A   1      39.043  27.444  31.517  1.00  0.00    -0.203 F 
ATOM     80  C   UNL A   1      37.589  28.801  30.268  1.00  0.00     0.198 A 
ATOM     81  C   UNL A   1      38.098  29.345  27.999  1.00  0.00     0.198 A 
ATOM     82  F   UNL A   1      40.063  28.581  27.004  1.00  0.00    -0.203 F 
ATOM     83  F   UNL A   1      36.812  28.951  31.350  1.00  0.00    -0.200 F 
ATOM     84  C   UNL A   1      37.272  29.472  29.099  1.00  0.00     0.200 A 
ATOM     85  F   UNL A   1      37.823  30.020  26.874  1.00  0.00    -0.200 F 
ATOM     86  F   UNL A   1      36.199  30.273  29.046  1.00  0.00    -0.200 F 
ENDBRANCH  52  76
BRANCH  64  87
ATOM     87  C   UNL A   1      44.907  26.397  32.287  1.00  0.00     0.064 A 
ATOM     88  C   UNL A   1      44.535  25.062  32.053  1.00  0.00     0.173 A 
ATOM     89  C   UNL A   1      45.171  26.771  33.611  1.00  0.00     0.173 A 
ATOM     90  F   UNL A   1      44.361  24.601  30.807  1.00  0.00    -0.203 F 
ATOM     91  C   UNL A   1      44.386  24.160  33.108  1.00  0.00     0.198 A 
ATOM     92  C   UNL A   1      45.063  25.859  34.656  1.00  0.00     0.198 A 
ATOM     93  F   UNL A   1      45.581  28.019  33.887  1.00  0.00    -0.203 F 
ATOM     94  F   UNL A   1      44.009  22.896  32.864  1.00  0.00    -0.200 F 
ATOM     95  C   UNL A   1      44.658  24.558  34.405  1.00  0.00     0.200 A 
ATOM     96  F   UNL A   1      45.377  26.236  35.903  1.00  0.00    -0.200 F 
ATOM     97  F   UNL A   1      44.554  23.683  35.416  1.00  0.00    -0.200 F 
ENDBRANCH  64  87
ENDBRANCH  38  39
ENDBRANCH  31  33
ENDBRANCH  30  31
ENDBRANCH  29  30
ENDBRANCH  28  29
ENDBRANCH  27  28
ENDBRANCH  26  27
ENDBRANCH   1  26
TORSDOF 21
ENDMDL
MODEL 2
REMARK VINA RESULT:     -10.6      1.334      1.978
REMARK SMILES Cc1[nH]c(=O)sc1S(=O)(=O)NC1(CC(=O)OCCOCCOCCOC(=O)c2ccc(-c3c4nc(c(-c5c(F)c(F)c(F)c(F)c5F)c5ccc([nH]5)c(-c5c(F)c(F)c(F)c(F)c5F)c5nc(c(-c6c(F)c(F)c(F)c(F)c6F)c6ccc3[nH]6)C=C5)C=C4)cc2)CCC1
REMARK SMILES IDX 20 1 19 2 18 3 17 4 16 5 14 6 15 7 13 8 12 9 91 10 93 11
REMARK SMILES IDX 92 12 11 13 8 15 9 16 10 17 7 18 1 19 2 20 3 21 4 22 6 24
REMARK SMILES IDX 5 25 21 26 22 27 23 28 24 29 25 30 26 31 27 32 28 33 29 34
REMARK SMILES IDX 90 35 30 36 89 37 31 38 32 39 33 40 83 41 34 42 88 43 82 44
REMARK SMILES IDX 84 45 35 46 87 47 81 48 80 49 36 51 68 52 48 53 67 54 49 55
REMARK SMILES IDX 52 56 66 57 85 58 50 59 51 60 65 62 86 63 53 64 37 65 38 66
REMARK SMILES IDX 46 67 39 68 40 69 44 70 47 71 41 72 42 73 45 74 43 75 69 76
REMARK SMILES IDX 70 77 78 78 71 79 72 80 76 81 79 82 73 83 74 84 77 85 75 86
REMARK SMILES IDX 54 87 55 88 63 89 56 90 57 91 61 92 64 93 58 94 59 95 62 96
REMARK SMILES IDX 60 97
REMARK H PARENT 11 14 3 23 84 50 52 61
REMARK Flexibility Score: inf
ROOT
ATOM      1  C   UNL A   1      39.941  21.989  26.449  1.00  0.00     0.188 C 
ENDROOT
BRANCH   1   2
ATOM      2  O   UNL A   1      38.983  21.273  25.716  1.00  0.00    -0.376 OA
BRANCH   2   3
ATOM      3  C   UNL A   1      37.696  21.856  25.553  1.00  0.00     0.202 C 
BRANCH   3   4
ATOM      4  C   UNL A   1      36.571  21.223  24.643  1.00  0.00     0.261 C 
BRANCH   4   5
ATOM      5  O   UNL A   1      35.503  22.126  24.089  1.00  0.00    -0.463 OA
BRANCH   5   6
ATOM      6  C   UNL A   1      34.119  22.159  23.918  1.00  0.00     0.307 C 
ATOM      7  O   UNL A   1      33.450  22.576  22.984  1.00  0.00    -0.252 OA
BRANCH   6   8
ATOM      8  C   UNL A   1      33.362  21.579  25.084  1.00  0.00     0.146 C 
BRANCH   8   9
ATOM      9  C   UNL A   1      32.891  22.703  25.953  1.00  0.00     0.044 C 
ATOM     10  C   UNL A   1      33.960  23.715  26.526  1.00  0.00     0.024 C 
ATOM     11  C   UNL A   1      32.910  22.160  27.467  1.00  0.00     0.024 C 
ATOM     12  C   UNL A   1      34.379  22.608  27.537  1.00  0.00     0.004 C 
BRANCH   9  13
ATOM     13  N   UNL A   1      31.559  23.241  25.259  1.00  0.00    -0.204 NA
ATOM     14  H   UNL A   1      31.502  22.729  24.378  1.00  0.00     0.142 HD
BRANCH  13  15
ATOM     15  S   UNL A   1      31.117  24.993  24.809  1.00  0.00     0.252 S 
ATOM     16  O   UNL A   1      30.348  25.507  25.923  1.00  0.00    -0.206 OA
ATOM     17  O   UNL A   1      30.375  24.670  23.593  1.00  0.00    -0.206 OA
BRANCH  15  18
ATOM     18  C   UNL A   1      32.326  26.322  24.292  1.00  0.00     0.158 A 
ATOM     19  C   UNL A   1      33.578  27.993  26.136  1.00  0.00     0.067 C 
ATOM     20  C   UNL A   1      33.095  27.336  24.845  1.00  0.00     0.046 A 
ATOM     21  N   UNL A   1      33.801  28.037  23.861  1.00  0.00    -0.315 N 
ATOM     22  C   UNL A   1      33.650  27.729  22.568  1.00  0.00     0.305 A 
ATOM     23  H   UNL A   1      34.413  28.763  24.122  1.00  0.00     0.170 HD
ATOM     24  S   UNL A   1      32.470  26.477  22.456  1.00  0.00    -0.061 S 
ATOM     25  O   UNL A   1      34.274  28.250  21.637  1.00  0.00    -0.257 OA
ENDBRANCH  15  18
ENDBRANCH  13  15
ENDBRANCH   9  13
ENDBRANCH   8   9
ENDBRANCH   6   8
ENDBRANCH   5   6
ENDBRANCH   4   5
ENDBRANCH   3   4
ENDBRANCH   2   3
ENDBRANCH   1   2
BRANCH   1  26
ATOM     26  C   UNL A   1      41.181  21.151  26.729  1.00  0.00     0.188 C 
BRANCH  26  27
ATOM     27  O   UNL A   1      41.792  20.298  25.756  1.00  0.00    -0.376 OA
BRANCH  27  28
ATOM     28  C   UNL A   1      42.862  19.419  26.075  1.00  0.00     0.202 C 
BRANCH  28  29
ATOM     29  C   UNL A   1      43.860  19.138  24.965  1.00  0.00     0.261 C 
BRANCH  29  30
ATOM     30  O   UNL A   1      44.189  20.320  24.267  1.00  0.00    -0.460 OA
BRANCH  30  31
ATOM     31  C   UNL A   1      45.238  20.998  24.785  1.00  0.00     0.338 C 
ATOM     32  O   UNL A   1      46.066  20.599  25.585  1.00  0.00    -0.246 OA
BRANCH  31  33
ATOM     33  C   UNL A   1      45.176  22.381  24.271  1.00  0.00     0.060 A 
ATOM     34  C   UNL A   1      46.278  23.148  24.639  1.00  0.00     0.016 A 
ATOM     35  C   UNL A   1      43.884  22.913  24.174  1.00  0.00     0.016 A 
ATOM     36  C   UNL A   1      46.012  24.263  25.386  1.00  0.00     0.010 A 
ATOM     37  C   UNL A   1      43.607  23.968  24.987  1.00  0.00     0.010 A 
ATOM     38  C   UNL A   1      44.672  24.559  25.659  1.00  0.00    -0.014 A 
BRANCH  38  39
ATOM     39  C   UNL A   1      44.388  25.647  26.551  1.00  0.00     0.031 A 
ATOM     40  C   UNL A   1      45.383  26.714  26.369  1.00  0.00     0.074 A 
ATOM     41  C   UNL A   1      43.312  25.664  27.356  1.00  0.00     0.049 A 
ATOM     42  N   UNL A   1      46.374  26.974  27.150  1.00  0.00    -0.248 NA
ATOM     43  C   UNL A   1      45.463  27.368  25.051  1.00  0.00     0.031 C 
ATOM     44  C   UNL A   1      42.170  24.748  27.379  1.00  0.00     0.029 A 
ATOM     45  N   UNL A   1      42.980  26.593  28.288  1.00  0.00    -0.354 N 
ATOM     46  C   UNL A   1      47.055  28.008  26.526  1.00  0.00     0.074 A 
ATOM     47  C   UNL A   1      46.627  28.009  25.156  1.00  0.00     0.031 C 
ATOM     48  C   UNL A   1      41.175  25.298  28.117  1.00  0.00     0.029 A 
ATOM     49  C   UNL A   1      41.657  26.532  28.713  1.00  0.00     0.049 A 
ATOM     50  H   UNL A   1      43.621  27.255  28.634  1.00  0.00     0.167 HD
ATOM     51  C   UNL A   1      47.615  28.988  27.280  1.00  0.00     0.037 A 
ATOM     52  C   UNL A   1      41.023  27.499  29.425  1.00  0.00     0.037 A 
ATOM     53  C   UNL A   1      47.790  28.536  28.643  1.00  0.00     0.049 A 
ATOM     54  C   UNL A   1      42.079  28.345  30.049  1.00  0.00     0.074 A 
ATOM     55  C   UNL A   1      48.481  27.502  29.243  1.00  0.00     0.029 A 
ATOM     56  N   UNL A   1      46.858  28.953  29.560  1.00  0.00    -0.354 N 
ATOM     57  N   UNL A   1      42.867  27.930  31.002  1.00  0.00    -0.248 NA
ATOM     58  C   UNL A   1      42.572  29.483  29.286  1.00  0.00     0.031 C 
ATOM     59  C   UNL A   1      47.654  27.070  30.322  1.00  0.00     0.029 A 
ATOM     60  C   UNL A   1      46.534  27.900  30.373  1.00  0.00     0.049 A 
ATOM     61  H   UNL A   1      46.483  29.861  29.624  1.00  0.00     0.167 HD
ATOM     62  C   UNL A   1      44.116  28.439  30.671  1.00  0.00     0.074 A 
ATOM     63  C   UNL A   1      43.854  29.460  29.660  1.00  0.00     0.031 C 
ATOM     64  C   UNL A   1      45.252  27.768  31.026  1.00  0.00     0.037 A 
BRANCH  51  65
ATOM     65  C   UNL A   1      47.535  30.455  26.919  1.00  0.00     0.064 A 
ATOM     66  C   UNL A   1      48.701  31.231  27.062  1.00  0.00     0.173 A 
ATOM     67  C   UNL A   1      46.337  31.190  26.757  1.00  0.00     0.173 A 
ATOM     68  F   UNL A   1      49.895  30.643  27.228  1.00  0.00    -0.203 F 
ATOM     69  C   UNL A   1      48.654  32.624  27.149  1.00  0.00     0.198 A 
ATOM     70  C   UNL A   1      46.302  32.581  26.791  1.00  0.00     0.198 A 
ATOM     71  F   UNL A   1      45.133  30.618  26.671  1.00  0.00    -0.203 F 
ATOM     72  F   UNL A   1      49.771  33.306  27.433  1.00  0.00    -0.200 F 
ATOM     73  C   UNL A   1      47.454  33.296  27.025  1.00  0.00     0.200 A 
ATOM     74  F   UNL A   1      45.122  33.210  26.686  1.00  0.00    -0.200 F 
ATOM     75  F   UNL A   1      47.395  34.625  27.179  1.00  0.00    -0.200 F 
ENDBRANCH  51  65
BRANCH  52  76
ATOM     76  C   UNL A   1      39.614  27.951  29.331  1.00  0.00     0.064 A 
ATOM     77  C   UNL A   1      38.817  28.070  30.483  1.00  0.00     0.173 A 
ATOM     78  C   UNL A   1      39.110  28.553  28.161  1.00  0.00     0.173 A 
ATOM     79  F   UNL A   1      39.242  27.565  31.651  1.00  0.00    -0.203 F 
ATOM     80  C   UNL A   1      37.608  28.774  30.474  1.00  0.00     0.198 A 
ATOM     81  C   UNL A   1      37.899  29.249  28.151  1.00  0.00     0.198 A 
ATOM     82  F   UNL A   1      39.824  28.565  27.029  1.00  0.00    -0.203 F 
ATOM     83  F   UNL A   1      36.911  28.922  31.609  1.00  0.00    -0.200 F 
ATOM     84  C   UNL A   1      37.156  29.372  29.310  1.00  0.00     0.200 A 
ATOM     85  F   UNL A   1      37.492  29.855  27.027  1.00  0.00    -0.200 F 
ATOM     86  F   UNL A   1      36.032  30.102  29.315  1.00  0.00    -0.200 F 
ENDBRANCH  52  76
BRANCH  64  87
ATOM     87  C   UNL A   1      45.120  26.669  32.044  1.00  0.00     0.064 A 
ATOM     88  C   UNL A   1      45.113  26.867  33.437  1.00  0.00     0.173 A 
ATOM     89  C   UNL A   1      44.867  25.373  31.576  1.00  0.00     0.173 A 
ATOM     90  F   UNL A   1      45.248  28.093  33.960  1.00  0.00    -0.203 F 
ATOM     91  C   UNL A   1      44.914  25.802  34.315  1.00  0.00     0.198 A 
ATOM     92  C   UNL A   1      44.627  24.321  32.454  1.00  0.00     0.198 A 
ATOM     93  F   UNL A   1      44.808  25.135  30.257  1.00  0.00    -0.203 F 
ATOM     94  F   UNL A   1      44.934  26.010  35.640  1.00  0.00    -0.200 F 
ATOM     95  C   UNL A   1      44.663  24.533  33.822  1.00  0.00     0.200 A 
ATOM     96  F   UNL A   1      44.334  23.106  31.970  1.00  0.00    -0.200 F 
ATOM     97  F   UNL A   1      44.432  23.515  34.665  1.00  0.00    -0.200 F 
ENDBRANCH  64  87
ENDBRANCH  38  39
ENDBRANCH  31  33
ENDBRANCH  30  31
ENDBRANCH  29  30
ENDBRANCH  28  29
ENDBRANCH  27  28
ENDBRANCH  26  27
ENDBRANCH   1  26
TORSDOF 21
ENDMDL
MODEL 3
REMARK VINA RESULT:     -10.5      2.840      4.451
REMARK SMILES Cc1[nH]c(=O)sc1S(=O)(=O)NC1(CC(=O)OCCOCCOCCOC(=O)c2ccc(-c3c4nc(c(-c5c(F)c(F)c(F)c(F)c5F)c5ccc([nH]5)c(-c5c(F)c(F)c(F)c(F)c5F)c5nc(c(-c6c(F)c(F)c(F)c(F)c6F)c6ccc3[nH]6)C=C5)C=C4)cc2)CCC1
REMARK SMILES IDX 20 1 19 2 18 3 17 4 16 5 14 6 15 7 13 8 12 9 91 10 93 11
REMARK SMILES IDX 92 12 11 13 8 15 9 16 10 17 7 18 1 19 2 20 3 21 4 22 6 24
REMARK SMILES IDX 5 25 21 26 22 27 23 28 24 29 25 30 26 31 27 32 28 33 29 34
REMARK SMILES IDX 90 35 30 36 89 37 31 38 32 39 33 40 83 41 34 42 88 43 82 44
REMARK SMILES IDX 84 45 35 46 87 47 81 48 80 49 36 51 68 52 48 53 67 54 49 55
REMARK SMILES IDX 52 56 66 57 85 58 50 59 51 60 65 62 86 63 53 64 37 65 38 66
REMARK SMILES IDX 46 67 39 68 40 69 44 70 47 71 41 72 42 73 45 74 43 75 69 76
REMARK SMILES IDX 70 77 78 78 71 79 72 80 76 81 79 82 73 83 74 84 77 85 75 86
REMARK SMILES IDX 54 87 55 88 63 89 56 90 57 91 61 92 64 93 58 94 59 95 62 96
REMARK SMILES IDX 60 97
REMARK H PARENT 11 14 3 23 84 50 52 61
REMARK Flexibility Score: inf
ROOT
ATOM      1  C   UNL A   1      42.214  19.734  26.562  1.00  0.00     0.188 C 
ENDROOT
BRANCH   1   2
ATOM      2  O   UNL A   1      40.933  20.168  26.188  1.00  0.00    -0.376 OA
BRANCH   2   3
ATOM      3  C   UNL A   1      40.678  21.567  26.187  1.00  0.00     0.202 C 
BRANCH   3   4
ATOM      4  C   UNL A   1      39.250  22.183  26.467  1.00  0.00     0.261 C 
BRANCH   4   5
ATOM      5  O   UNL A   1      38.042  21.473  25.918  1.00  0.00    -0.463 OA
BRANCH   5   6
ATOM      6  C   UNL A   1      37.142  21.567  24.856  1.00  0.00     0.307 C 
ATOM      7  O   UNL A   1      37.216  22.199  23.813  1.00  0.00    -0.252 OA
BRANCH   6   8
ATOM      8  C   UNL A   1      35.898  20.742  25.058  1.00  0.00     0.146 C 
BRANCH   8   9
ATOM      9  C   UNL A   1      34.717  21.660  25.080  1.00  0.00     0.044 C 
ATOM     10  C   UNL A   1      34.604  22.720  26.245  1.00  0.00     0.024 C 
ATOM     11  C   UNL A   1      33.568  20.922  25.932  1.00  0.00     0.024 C 
ATOM     12  C   UNL A   1      34.190  21.552  27.188  1.00  0.00     0.004 C 
BRANCH   9  13
ATOM     13  N   UNL A   1      34.499  22.101  23.562  1.00  0.00    -0.204 NA
ATOM     14  H   UNL A   1      35.442  22.210  23.188  1.00  0.00     0.142 HD
BRANCH  13  15
ATOM     15  S   UNL A   1      33.565  23.573  22.909  1.00  0.00     0.252 S 
ATOM     16  O   UNL A   1      33.301  23.289  21.514  1.00  0.00    -0.206 OA
ATOM     17  O   UNL A   1      34.597  24.565  23.194  1.00  0.00    -0.206 OA
BRANCH  15  18
ATOM     18  C   UNL A   1      32.002  24.285  23.648  1.00  0.00     0.158 A 
ATOM     19  C   UNL A   1      30.685  23.083  25.788  1.00  0.00     0.067 C 
ATOM     20  C   UNL A   1      31.062  24.003  24.630  1.00  0.00     0.046 A 
ATOM     21  N   UNL A   1      30.054  24.972  24.667  1.00  0.00    -0.315 N 
ATOM     22  C   UNL A   1      30.052  25.983  23.791  1.00  0.00     0.305 A 
ATOM     23  H   UNL A   1      29.340  24.910  25.342  1.00  0.00     0.170 HD
ATOM     24  S   UNL A   1      31.382  25.757  22.717  1.00  0.00    -0.061 S 
ATOM     25  O   UNL A   1      29.240  26.916  23.784  1.00  0.00    -0.257 OA
ENDBRANCH  15  18
ENDBRANCH  13  15
ENDBRANCH   9  13
ENDBRANCH   8   9
ENDBRANCH   6   8
ENDBRANCH   5   6
ENDBRANCH   4   5
ENDBRANCH   3   4
ENDBRANCH   2   3
ENDBRANCH   1   2
BRANCH   1  26
ATOM     26  C   UNL A   1      43.039  19.300  25.358  1.00  0.00     0.188 C 
BRANCH  26  27
ATOM     27  O   UNL A   1      44.041  20.122  24.753  1.00  0.00    -0.376 OA
BRANCH  27  28
ATOM     28  C   UNL A   1      44.543  21.297  25.376  1.00  0.00     0.202 C 
BRANCH  28  29
ATOM     29  C   UNL A   1      44.476  22.576  24.560  1.00  0.00     0.261 C 
BRANCH  29  30
ATOM     30  O   UNL A   1      43.232  23.222  24.729  1.00  0.00    -0.460 OA
BRANCH  30  31
ATOM     31  C   UNL A   1      43.319  24.471  25.240  1.00  0.00     0.338 C 
ATOM     32  O   UNL A   1      44.152  25.324  24.995  1.00  0.00    -0.246 OA
BRANCH  31  33
ATOM     33  C   UNL A   1      42.248  24.618  26.247  1.00  0.00     0.060 A 
ATOM     34  C   UNL A   1      41.211  25.444  25.821  1.00  0.00     0.016 A 
ATOM     35  C   UNL A   1      42.683  24.578  27.577  1.00  0.00     0.016 A 
ATOM     36  C   UNL A   1      40.980  26.559  26.580  1.00  0.00     0.010 A 
ATOM     37  C   UNL A   1      42.526  25.723  28.294  1.00  0.00     0.010 A 
ATOM     38  C   UNL A   1      41.756  26.735  27.731  1.00  0.00    -0.014 A 
BRANCH  38  39
ATOM     39  C   UNL A   1      41.617  27.964  28.459  1.00  0.00     0.031 A 
ATOM     40  C   UNL A   1      42.760  28.845  28.173  1.00  0.00     0.074 A 
ATOM     41  C   UNL A   1      40.540  28.243  29.212  1.00  0.00     0.049 A 
ATOM     42  N   UNL A   1      43.763  29.067  28.950  1.00  0.00    -0.248 NA
ATOM     43  C   UNL A   1      42.957  29.293  26.784  1.00  0.00     0.031 C 
ATOM     44  C   UNL A   1      39.277  27.510  29.314  1.00  0.00     0.029 A 
ATOM     45  N   UNL A   1      40.329  29.329  29.999  1.00  0.00    -0.354 N 
ATOM     46  C   UNL A   1      44.599  29.899  28.219  1.00  0.00     0.074 A 
ATOM     47  C   UNL A   1      44.200  29.771  26.846  1.00  0.00     0.031 C 
ATOM     48  C   UNL A   1      38.359  28.291  29.933  1.00  0.00     0.029 A 
ATOM     49  C   UNL A   1      39.004  29.515  30.378  1.00  0.00     0.049 A 
ATOM     50  H   UNL A   1      41.053  29.935  30.277  1.00  0.00     0.167 HD
ATOM     51  C   UNL A   1      45.280  30.884  28.857  1.00  0.00     0.037 A 
ATOM     52  C   UNL A   1      38.504  30.650  30.930  1.00  0.00     0.037 A 
ATOM     53  C   UNL A   1      45.364  30.604  30.273  1.00  0.00     0.049 A 
ATOM     54  C   UNL A   1      39.660  31.417  31.474  1.00  0.00     0.074 A 
ATOM     55  C   UNL A   1      45.886  29.575  31.032  1.00  0.00     0.029 A 
ATOM     56  N   UNL A   1      44.485  31.270  31.090  1.00  0.00    -0.354 N 
ATOM     57  N   UNL A   1      40.362  31.030  32.503  1.00  0.00    -0.248 NA
ATOM     58  C   UNL A   1      40.327  32.357  30.586  1.00  0.00     0.031 C 
ATOM     59  C   UNL A   1      44.985  29.417  32.126  1.00  0.00     0.029 A 
ATOM     60  C   UNL A   1      43.997  30.396  32.024  1.00  0.00     0.049 A 
ATOM     61  H   UNL A   1      44.244  32.223  31.018  1.00  0.00     0.167 HD
ATOM     62  C   UNL A   1      41.677  31.307  32.155  1.00  0.00     0.074 A 
ATOM     63  C   UNL A   1      41.585  32.206  31.007  1.00  0.00     0.031 C 
ATOM     64  C   UNL A   1      42.697  30.537  32.640  1.00  0.00     0.037 A 
BRANCH  51  65
ATOM     65  C   UNL A   1      45.421  32.284  28.300  1.00  0.00     0.064 A 
ATOM     66  C   UNL A   1      44.243  32.979  27.965  1.00  0.00     0.173 A 
ATOM     67  C   UNL A   1      46.617  32.841  27.789  1.00  0.00     0.173 A 
ATOM     68  F   UNL A   1      43.048  32.540  28.389  1.00  0.00    -0.203 F 
ATOM     69  C   UNL A   1      44.253  34.072  27.097  1.00  0.00     0.198 A 
ATOM     70  C   UNL A   1      46.628  33.964  26.967  1.00  0.00     0.198 A 
ATOM     71  F   UNL A   1      47.817  32.279  27.956  1.00  0.00    -0.203 F 
ATOM     72  F   UNL A   1      43.094  34.607  26.693  1.00  0.00    -0.200 F 
ATOM     73  C   UNL A   1      45.444  34.557  26.591  1.00  0.00     0.200 A 
ATOM     74  F   UNL A   1      47.794  34.405  26.474  1.00  0.00    -0.200 F 
ATOM     75  F   UNL A   1      45.452  35.560  25.704  1.00  0.00    -0.200 F 
ENDBRANCH  51  65
BRANCH  52  76
ATOM     76  C   UNL A   1      37.177  31.280  30.722  1.00  0.00     0.064 A 
ATOM     77  C   UNL A   1      36.326  31.541  31.810  1.00  0.00     0.173 A 
ATOM     78  C   UNL A   1      36.839  31.902  29.504  1.00  0.00     0.173 A 
ATOM     79  F   UNL A   1      36.599  31.025  33.018  1.00  0.00    -0.203 F 
ATOM     80  C   UNL A   1      35.225  32.396  31.696  1.00  0.00     0.198 A 
ATOM     81  C   UNL A   1      35.735  32.750  29.389  1.00  0.00     0.198 A 
ATOM     82  F   UNL A   1      37.625  31.782  28.426  1.00  0.00    -0.203 F 
ATOM     83  F   UNL A   1      34.478  32.673  32.774  1.00  0.00    -0.200 F 
ATOM     84  C   UNL A   1      34.937  33.009  30.488  1.00  0.00     0.200 A 
ATOM     85  F   UNL A   1      35.491  33.366  28.224  1.00  0.00    -0.200 F 
ATOM     86  F   UNL A   1      33.923  33.879  30.393  1.00  0.00    -0.200 F 
ENDBRANCH  52  76
BRANCH  64  87
ATOM     87  C   UNL A   1      42.388  29.619  33.790  1.00  0.00     0.064 A 
ATOM     88  C   UNL A   1      41.894  28.309  33.655  1.00  0.00     0.173 A 
ATOM     89  C   UNL A   1      42.726  30.051  35.079  1.00  0.00     0.173 A 
ATOM     90  F   UNL A   1      41.641  27.788  32.447  1.00  0.00    -0.203 F 
ATOM     91  C   UNL A   1      41.700  27.494  34.770  1.00  0.00     0.198 A 
ATOM     92  C   UNL A   1      42.572  29.221  36.184  1.00  0.00     0.198 A 
ATOM     93  F   UNL A   1      43.252  31.273  35.261  1.00  0.00    -0.203 F 
ATOM     94  F   UNL A   1      41.207  26.255  34.620  1.00  0.00    -0.200 F 
ATOM     95  C   UNL A   1      42.047  27.948  36.031  1.00  0.00     0.200 A 
ATOM     96  F   UNL A   1      42.957  29.647  37.395  1.00  0.00    -0.200 F 
ATOM     97  F   UNL A   1      41.899  27.151  37.100  1.00  0.00    -0.200 F 
ENDBRANCH  64  87
ENDBRANCH  38  39
ENDBRANCH  31  33
ENDBRANCH  30  31
ENDBRANCH  29  30
ENDBRANCH  28  29
ENDBRANCH  27  28
ENDBRANCH  26  27
ENDBRANCH   1  26
TORSDOF 21
ENDMDL
