MODEL 1
REMARK VINA RESULT:     -12.0      0.000      0.000
REMARK SMILES Cc1ccc(C)c(/C=C2\SC(=S)N(CC(=O)OCCOCCOCCOC(=O)c3ccc(-c4c5nc(c(-c6c(F)c(F)c(F)c(F)c6F)c6ccc([nH]6)c(-c6c(F)c(F)c(F)c(F)c6F)c6nc(c(-c7c(F)c(F)c(F)c(F)c7F)c7ccc4[nH]7)C=C6)C=C5)cc3)C2=O)c1
REMARK SMILES IDX 21 1 20 2 19 3 18 4 17 5 15 6 16 7 14 8 13 9 8 10 9 11 10 12
REMARK SMILES IDX 92 13 11 14 93 15 12 16 7 17 1 18 2 19 3 20 94 21 4 22 5 23
REMARK SMILES IDX 6 24 22 25 23 26 24 27 25 28 26 29 27 30 28 31 29 32 30 33
REMARK SMILES IDX 91 34 31 35 90 36 32 37 33 38 34 39 84 40 35 41 89 42 83 43
REMARK SMILES IDX 85 44 36 45 88 46 82 47 81 48 37 50 69 51 49 52 68 53 50 54
REMARK SMILES IDX 53 55 67 56 86 57 51 58 52 59 66 61 87 62 54 63 38 64 39 65
REMARK SMILES IDX 47 66 40 67 41 68 45 69 48 70 42 71 43 72 46 73 44 74 70 75
REMARK SMILES IDX 71 76 79 77 72 78 73 79 77 80 80 81 74 82 75 83 78 84 76 85
REMARK SMILES IDX 55 86 56 87 64 88 57 89 58 90 62 91 65 92 59 93 60 94 63 95
REMARK SMILES IDX 61 96
REMARK H PARENT 85 49 53 60
REMARK Flexibility Score: inf
ROOT
ATOM      1  C   UNL A   1      31.955  30.588  26.158  1.00  0.00     0.188 C 
ENDROOT
BRANCH   1   2
ATOM      2  O   UNL A   1      31.180  29.493  25.668  1.00  0.00    -0.376 OA
BRANCH   2   3
ATOM      3  C   UNL A   1      31.015  29.446  24.249  1.00  0.00     0.202 C 
BRANCH   3   4
ATOM      4  C   UNL A   1      31.953  28.464  23.500  1.00  0.00     0.261 C 
BRANCH   4   5
ATOM      5  O   UNL A   1      32.131  27.120  24.076  1.00  0.00    -0.462 OA
BRANCH   5   6
ATOM      6  C   UNL A   1      33.377  26.964  24.629  1.00  0.00     0.326 C 
ATOM      7  O   UNL A   1      34.278  27.774  24.394  1.00  0.00    -0.250 OA
BRANCH   6   8
ATOM      8  C   UNL A   1      33.743  25.606  25.327  1.00  0.00     0.250 C 
BRANCH   8   9
ATOM      9  N   UNL A   1      33.292  24.187  25.139  1.00  0.00    -0.282 N 
ATOM     10  C   UNL A   1      34.260  20.716  24.560  1.00  0.00     0.029 C 
ATOM     11  C   UNL A   1      33.527  21.805  24.879  1.00  0.00     0.081 C 
ATOM     12  S   UNL A   1      31.858  22.003  25.174  1.00  0.00    -0.054 SA
ATOM     13  C   UNL A   1      34.184  23.135  25.143  1.00  0.00     0.266 C 
ATOM     14  C   UNL A   1      32.041  23.734  25.528  1.00  0.00     0.148 C 
ATOM     15  O   UNL A   1      35.322  23.193  25.585  1.00  0.00    -0.268 OA
ATOM     16  S   UNL A   1      30.842  24.558  26.354  1.00  0.00    -0.052 S 
BRANCH  10  17
ATOM     17  C   UNL A   1      34.010  19.249  24.344  1.00  0.00    -0.021 A 
ATOM     18  C   UNL A   1      35.446  15.827  25.373  1.00  0.00     0.044 C 
ATOM     19  C   UNL A   1      34.618  16.879  24.696  1.00  0.00    -0.051 A 
ATOM     20  C   UNL A   1      33.735  16.478  23.697  1.00  0.00     0.004 A 
ATOM     21  C   UNL A   1      34.759  18.254  25.002  1.00  0.00     0.011 A 
ATOM     22  C   UNL A   1      32.965  17.424  23.049  1.00  0.00     0.004 A 
ATOM     23  C   UNL A   1      33.073  18.793  23.369  1.00  0.00    -0.044 A 
ATOM     24  C   UNL A   1      32.156  19.668  22.564  1.00  0.00     0.045 C 
ENDBRANCH  10  17
ENDBRANCH   8   9
ENDBRANCH   6   8
ENDBRANCH   5   6
ENDBRANCH   4   5
ENDBRANCH   3   4
ENDBRANCH   2   3
ENDBRANCH   1   2
BRANCH   1  25
ATOM     25  C   UNL A   1      33.004  30.217  27.231  1.00  0.00     0.188 C 
BRANCH  25  26
ATOM     26  O   UNL A   1      34.047  31.180  27.266  1.00  0.00    -0.376 OA
BRANCH  26  27
ATOM     27  C   UNL A   1      33.798  32.398  27.947  1.00  0.00     0.202 C 
BRANCH  27  28
ATOM     28  C   UNL A   1      34.770  32.840  29.052  1.00  0.00     0.261 C 
BRANCH  28  29
ATOM     29  O   UNL A   1      36.068  32.219  29.205  1.00  0.00    -0.460 OA
BRANCH  29  30
ATOM     30  C   UNL A   1      36.483  31.323  30.114  1.00  0.00     0.338 C 
ATOM     31  O   UNL A   1      35.981  31.252  31.234  1.00  0.00    -0.246 OA
BRANCH  30  32
ATOM     32  C   UNL A   1      37.648  30.499  29.788  1.00  0.00     0.060 A 
ATOM     33  C   UNL A   1      37.426  29.140  29.905  1.00  0.00     0.016 A 
ATOM     34  C   UNL A   1      38.923  30.997  29.477  1.00  0.00     0.016 A 
ATOM     35  C   UNL A   1      38.519  28.307  29.917  1.00  0.00     0.010 A 
ATOM     36  C   UNL A   1      40.016  30.119  29.436  1.00  0.00     0.010 A 
ATOM     37  C   UNL A   1      39.808  28.773  29.716  1.00  0.00    -0.014 A 
BRANCH  37  38
ATOM     38  C   UNL A   1      40.805  27.708  29.831  1.00  0.00     0.031 A 
ATOM     39  C   UNL A   1      41.671  27.719  31.043  1.00  0.00     0.074 A 
ATOM     40  C   UNL A   1      41.046  26.883  28.792  1.00  0.00     0.049 A 
ATOM     41  N   UNL A   1      42.965  27.610  31.089  1.00  0.00    -0.248 NA
ATOM     42  C   UNL A   1      41.035  27.931  32.351  1.00  0.00     0.031 C 
ATOM     43  C   UNL A   1      40.242  26.801  27.575  1.00  0.00     0.029 A 
ATOM     44  N   UNL A   1      41.992  25.900  28.620  1.00  0.00    -0.354 N 
ATOM     45  C   UNL A   1      43.278  27.529  32.441  1.00  0.00     0.074 A 
ATOM     46  C   UNL A   1      42.077  27.835  33.176  1.00  0.00     0.031 C 
ATOM     47  C   UNL A   1      40.577  25.686  26.901  1.00  0.00     0.029 A 
ATOM     48  C   UNL A   1      41.662  25.017  27.603  1.00  0.00     0.049 A 
ATOM     49  H   UNL A   1      42.812  25.830  29.161  1.00  0.00     0.167 HD
ATOM     50  C   UNL A   1      44.397  26.897  32.874  1.00  0.00     0.037 A 
ATOM     51  C   UNL A   1      42.145  23.775  27.374  1.00  0.00     0.037 A 
ATOM     52  C   UNL A   1      45.476  26.882  31.934  1.00  0.00     0.049 A 
ATOM     53  C   UNL A   1      43.490  23.628  27.969  1.00  0.00     0.074 A 
ATOM     54  C   UNL A   1      46.578  27.656  31.650  1.00  0.00     0.029 A 
ATOM     55  N   UNL A   1      45.369  25.954  30.944  1.00  0.00    -0.354 N 
ATOM     56  N   UNL A   1      44.565  24.186  27.488  1.00  0.00    -0.248 NA
ATOM     57  C   UNL A   1      43.636  23.019  29.290  1.00  0.00     0.031 C 
ATOM     58  C   UNL A   1      47.117  27.175  30.420  1.00  0.00     0.029 A 
ATOM     59  C   UNL A   1      46.325  26.124  29.979  1.00  0.00     0.049 A 
ATOM     60  H   UNL A   1      44.685  25.245  30.923  1.00  0.00     0.167 HD
ATOM     61  C   UNL A   1      45.381  24.346  28.589  1.00  0.00     0.074 A 
ATOM     62  C   UNL A   1      44.850  23.466  29.616  1.00  0.00     0.031 C 
ATOM     63  C   UNL A   1      46.169  25.446  28.717  1.00  0.00     0.037 A 
BRANCH  50  64
ATOM     64  C   UNL A   1      44.302  25.834  33.941  1.00  0.00     0.064 A 
ATOM     65  C   UNL A   1      44.859  26.046  35.212  1.00  0.00     0.173 A 
ATOM     66  C   UNL A   1      43.958  24.498  33.629  1.00  0.00     0.173 A 
ATOM     67  F   UNL A   1      45.282  27.267  35.575  1.00  0.00    -0.203 F 
ATOM     68  C   UNL A   1      45.059  24.990  36.107  1.00  0.00     0.198 A 
ATOM     69  C   UNL A   1      44.110  23.459  34.540  1.00  0.00     0.198 A 
ATOM     70  F   UNL A   1      43.573  24.143  32.394  1.00  0.00    -0.203 F 
ATOM     71  F   UNL A   1      45.675  25.213  37.275  1.00  0.00    -0.200 F 
ATOM     72  C   UNL A   1      44.678  23.700  35.773  1.00  0.00     0.200 A 
ATOM     73  F   UNL A   1      43.772  22.212  34.181  1.00  0.00    -0.200 F 
ATOM     74  F   UNL A   1      44.904  22.683  36.613  1.00  0.00    -0.200 F 
ENDBRANCH  50  64
BRANCH  51  75
ATOM     75  C   UNL A   1      41.416  22.643  26.753  1.00  0.00     0.064 A 
ATOM     76  C   UNL A   1      42.080  21.477  26.341  1.00  0.00     0.173 A 
ATOM     77  C   UNL A   1      40.006  22.595  26.738  1.00  0.00     0.173 A 
ATOM     78  F   UNL A   1      43.418  21.409  26.387  1.00  0.00    -0.203 F 
ATOM     79  C   UNL A   1      41.376  20.343  25.927  1.00  0.00     0.198 A 
ATOM     80  C   UNL A   1      39.306  21.475  26.297  1.00  0.00     0.198 A 
ATOM     81  F   UNL A   1      39.273  23.607  27.225  1.00  0.00    -0.203 F 
ATOM     82  F   UNL A   1      42.043  19.230  25.592  1.00  0.00    -0.200 F 
ATOM     83  C   UNL A   1      39.991  20.345  25.901  1.00  0.00     0.200 A 
ATOM     84  F   UNL A   1      37.966  21.485  26.308  1.00  0.00    -0.200 F 
ATOM     85  F   UNL A   1      39.316  19.247  25.533  1.00  0.00    -0.200 F 
ENDBRANCH  51  75
BRANCH  63  86
ATOM     86  C   UNL A   1      46.673  26.092  27.475  1.00  0.00     0.064 A 
ATOM     87  C   UNL A   1      46.092  27.230  26.899  1.00  0.00     0.173 A 
ATOM     88  C   UNL A   1      47.823  25.562  26.874  1.00  0.00     0.173 A 
ATOM     89  F   UNL A   1      45.033  27.825  27.468  1.00  0.00    -0.203 F 
ATOM     90  C   UNL A   1      46.622  27.787  25.738  1.00  0.00     0.198 A 
ATOM     91  C   UNL A   1      48.368  26.140  25.733  1.00  0.00     0.198 A 
ATOM     92  F   UNL A   1      48.434  24.494  27.412  1.00  0.00    -0.203 F 
ATOM     93  F   UNL A   1      46.040  28.862  25.185  1.00  0.00    -0.200 F 
ATOM     94  C   UNL A   1      47.760  27.245  25.158  1.00  0.00     0.200 A 
ATOM     95  F   UNL A   1      49.487  25.633  25.196  1.00  0.00    -0.200 F 
ATOM     96  F   UNL A   1      48.282  27.797  24.054  1.00  0.00    -0.200 F 
ENDBRANCH  63  86
ENDBRANCH  37  38
ENDBRANCH  30  32
ENDBRANCH  29  30
ENDBRANCH  28  29
ENDBRANCH  27  28
ENDBRANCH  26  27
ENDBRANCH  25  26
ENDBRANCH   1  25
TORSDOF 19
ENDMDL
MODEL 2
REMARK VINA RESULT:     -11.7      1.094      2.053
REMARK SMILES Cc1ccc(C)c(/C=C2\SC(=S)N(CC(=O)OCCOCCOCCOC(=O)c3ccc(-c4c5nc(c(-c6c(F)c(F)c(F)c(F)c6F)c6ccc([nH]6)c(-c6c(F)c(F)c(F)c(F)c6F)c6nc(c(-c7c(F)c(F)c(F)c(F)c7F)c7ccc4[nH]7)C=C6)C=C5)cc3)C2=O)c1
REMARK SMILES IDX 21 1 20 2 19 3 18 4 17 5 15 6 16 7 14 8 13 9 8 10 9 11 10 12
REMARK SMILES IDX 92 13 11 14 93 15 12 16 7 17 1 18 2 19 3 20 94 21 4 22 5 23
REMARK SMILES IDX 6 24 22 25 23 26 24 27 25 28 26 29 27 30 28 31 29 32 30 33
REMARK SMILES IDX 91 34 31 35 90 36 32 37 33 38 34 39 84 40 35 41 89 42 83 43
REMARK SMILES IDX 85 44 36 45 88 46 82 47 81 48 37 50 69 51 49 52 68 53 50 54
REMARK SMILES IDX 53 55 67 56 86 57 51 58 52 59 66 61 87 62 54 63 38 64 39 65
REMARK SMILES IDX 47 66 40 67 41 68 45 69 48 70 42 71 43 72 46 73 44 74 70 75
REMARK SMILES IDX 71 76 79 77 72 78 73 79 77 80 80 81 74 82 75 83 78 84 76 85
REMARK SMILES IDX 55 86 56 87 64 88 57 89 58 90 62 91 65 92 59 93 60 94 63 95
REMARK SMILES IDX 61 96
REMARK H PARENT 85 49 53 60
REMARK Flexibility Score: inf
ROOT
ATOM      1  C   UNL A   1      31.550  29.588  25.270  1.00  0.00     0.188 C 
ENDROOT
BRANCH   1   2
ATOM      2  O   UNL A   1      32.451  28.731  24.568  1.00  0.00    -0.376 OA
BRANCH   2   3
ATOM      3  C   UNL A   1      32.185  28.574  23.172  1.00  0.00     0.202 C 
BRANCH   3   4
ATOM      4  C   UNL A   1      31.019  27.614  22.819  1.00  0.00     0.261 C 
BRANCH   4   5
ATOM      5  O   UNL A   1      31.349  26.387  22.073  1.00  0.00    -0.462 OA
BRANCH   5   6
ATOM      6  C   UNL A   1      32.200  25.576  22.778  1.00  0.00     0.326 C 
ATOM      7  O   UNL A   1      33.416  25.600  22.568  1.00  0.00    -0.250 OA
BRANCH   6   8
ATOM      8  C   UNL A   1      31.607  24.412  23.648  1.00  0.00     0.250 C 
BRANCH   8   9
ATOM      9  N   UNL A   1      32.193  23.178  24.271  1.00  0.00    -0.282 N 
ATOM     10  C   UNL A   1      32.956  19.628  23.903  1.00  0.00     0.029 C 
ATOM     11  C   UNL A   1      32.952  20.895  24.371  1.00  0.00     0.081 C 
ATOM     12  S   UNL A   1      33.573  21.576  25.806  1.00  0.00    -0.054 SA
ATOM     13  C   UNL A   1      32.414  22.030  23.539  1.00  0.00     0.266 C 
ATOM     14  C   UNL A   1      33.066  23.216  25.346  1.00  0.00     0.148 C 
ATOM     15  O   UNL A   1      32.456  21.984  22.318  1.00  0.00    -0.268 OA
ATOM     16  S   UNL A   1      33.739  24.550  26.100  1.00  0.00    -0.052 S 
BRANCH  10  17
ATOM     17  C   UNL A   1      33.484  18.293  24.351  1.00  0.00    -0.021 A 
ATOM     18  C   UNL A   1      32.204  14.847  25.500  1.00  0.00     0.044 C 
ATOM     19  C   UNL A   1      33.119  15.992  25.176  1.00  0.00    -0.051 A 
ATOM     20  C   UNL A   1      34.468  15.864  25.493  1.00  0.00     0.004 A 
ATOM     21  C   UNL A   1      32.636  17.202  24.624  1.00  0.00     0.011 A 
ATOM     22  C   UNL A   1      35.334  16.904  25.215  1.00  0.00     0.004 A 
ATOM     23  C   UNL A   1      34.870  18.101  24.633  1.00  0.00    -0.044 A 
ATOM     24  C   UNL A   1      35.955  19.113  24.403  1.00  0.00     0.045 C 
ENDBRANCH  10  17
ENDBRANCH   8   9
ENDBRANCH   6   8
ENDBRANCH   5   6
ENDBRANCH   4   5
ENDBRANCH   3   4
ENDBRANCH   2   3
ENDBRANCH   1   2
BRANCH   1  25
ATOM     25  C   UNL A   1      31.826  29.725  26.785  1.00  0.00     0.188 C 
BRANCH  25  26
ATOM     26  O   UNL A   1      33.215  29.896  27.027  1.00  0.00    -0.376 OA
BRANCH  26  27
ATOM     27  C   UNL A   1      33.685  31.210  27.274  1.00  0.00     0.202 C 
BRANCH  27  28
ATOM     28  C   UNL A   1      35.073  31.391  27.910  1.00  0.00     0.261 C 
BRANCH  28  29
ATOM     29  O   UNL A   1      35.257  31.334  29.343  1.00  0.00    -0.460 OA
BRANCH  29  30
ATOM     30  C   UNL A   1      36.387  31.426  30.063  1.00  0.00     0.338 C 
ATOM     31  O   UNL A   1      36.551  32.307  30.905  1.00  0.00    -0.246 OA
BRANCH  30  32
ATOM     32  C   UNL A   1      37.490  30.521  29.736  1.00  0.00     0.060 A 
ATOM     33  C   UNL A   1      37.286  29.217  30.145  1.00  0.00     0.016 A 
ATOM     34  C   UNL A   1      38.704  30.912  29.151  1.00  0.00     0.016 A 
ATOM     35  C   UNL A   1      38.368  28.369  30.160  1.00  0.00     0.010 A 
ATOM     36  C   UNL A   1      39.777  30.010  29.122  1.00  0.00     0.010 A 
ATOM     37  C   UNL A   1      39.612  28.749  29.685  1.00  0.00    -0.014 A 
BRANCH  37  38
ATOM     38  C   UNL A   1      40.615  27.697  29.858  1.00  0.00     0.031 A 
ATOM     39  C   UNL A   1      41.513  27.804  31.041  1.00  0.00     0.074 A 
ATOM     40  C   UNL A   1      40.830  26.792  28.881  1.00  0.00     0.049 A 
ATOM     41  N   UNL A   1      42.808  27.699  31.060  1.00  0.00    -0.248 NA
ATOM     42  C   UNL A   1      40.912  28.119  32.345  1.00  0.00     0.031 C 
ATOM     43  C   UNL A   1      39.994  26.614  27.696  1.00  0.00     0.029 A 
ATOM     44  N   UNL A   1      41.773  25.798  28.762  1.00  0.00    -0.354 N 
ATOM     45  C   UNL A   1      43.156  27.725  32.407  1.00  0.00     0.074 A 
ATOM     46  C   UNL A   1      41.975  28.089  33.147  1.00  0.00     0.031 C 
ATOM     47  C   UNL A   1      40.313  25.449  27.104  1.00  0.00     0.029 A 
ATOM     48  C   UNL A   1      41.418  24.838  27.827  1.00  0.00     0.049 A 
ATOM     49  H   UNL A   1      42.607  25.772  29.284  1.00  0.00     0.167 HD
ATOM     50  C   UNL A   1      44.288  27.130  32.858  1.00  0.00     0.037 A 
ATOM     51  C   UNL A   1      41.897  23.582  27.684  1.00  0.00     0.037 A 
ATOM     52  C   UNL A   1      45.342  27.040  31.894  1.00  0.00     0.049 A 
ATOM     53  C   UNL A   1      43.258  23.482  28.253  1.00  0.00     0.074 A 
ATOM     54  C   UNL A   1      46.434  27.790  31.520  1.00  0.00     0.029 A 
ATOM     55  N   UNL A   1      45.210  26.037  30.983  1.00  0.00    -0.354 N 
ATOM     56  N   UNL A   1      44.319  24.001  27.701  1.00  0.00    -0.248 NA
ATOM     57  C   UNL A   1      43.440  22.980  29.613  1.00  0.00     0.031 C 
ATOM     58  C   UNL A   1      46.941  27.212  30.317  1.00  0.00     0.029 A 
ATOM     59  C   UNL A   1      46.140  26.130  29.982  1.00  0.00     0.049 A 
ATOM     60  H   UNL A   1      44.528  25.329  31.036  1.00  0.00     0.167 HD
ATOM     61  C   UNL A   1      45.163  24.247  28.763  1.00  0.00     0.074 A 
ATOM     62  C   UNL A   1      44.662  23.451  29.871  1.00  0.00     0.031 C 
ATOM     63  C   UNL A   1      45.952  25.355  28.783  1.00  0.00     0.037 A 
BRANCH  50  64
ATOM     64  C   UNL A   1      44.225  26.155  34.008  1.00  0.00     0.064 A 
ATOM     65  C   UNL A   1      44.710  26.512  35.275  1.00  0.00     0.173 A 
ATOM     66  C   UNL A   1      43.990  24.776  33.799  1.00  0.00     0.173 A 
ATOM     67  F   UNL A   1      45.030  27.786  35.547  1.00  0.00    -0.203 F 
ATOM     68  C   UNL A   1      44.948  25.551  36.263  1.00  0.00     0.198 A 
ATOM     69  C   UNL A   1      44.176  23.829  34.801  1.00  0.00     0.198 A 
ATOM     70  F   UNL A   1      43.684  24.292  32.586  1.00  0.00    -0.203 F 
ATOM     71  F   UNL A   1      45.497  25.915  37.430  1.00  0.00    -0.200 F 
ATOM     72  C   UNL A   1      44.674  24.214  36.028  1.00  0.00     0.200 A 
ATOM     73  F   UNL A   1      43.943  22.535  34.537  1.00  0.00    -0.200 F 
ATOM     74  F   UNL A   1      44.936  23.289  36.960  1.00  0.00    -0.200 F 
ENDBRANCH  50  64
BRANCH  51  75
ATOM     75  C   UNL A   1      41.154  22.404  27.175  1.00  0.00     0.064 A 
ATOM     76  C   UNL A   1      39.779  22.460  26.906  1.00  0.00     0.173 A 
ATOM     77  C   UNL A   1      41.827  21.242  26.740  1.00  0.00     0.173 A 
ATOM     78  F   UNL A   1      39.072  23.555  27.223  1.00  0.00    -0.203 F 
ATOM     79  C   UNL A   1      39.118  21.414  26.257  1.00  0.00     0.198 A 
ATOM     80  C   UNL A   1      41.162  20.188  26.120  1.00  0.00     0.198 A 
ATOM     81  F   UNL A   1      43.161  21.137  26.835  1.00  0.00    -0.203 F 
ATOM     82  F   UNL A   1      37.813  21.527  25.969  1.00  0.00    -0.200 F 
ATOM     83  C   UNL A   1      39.808  20.278  25.869  1.00  0.00     0.200 A 
ATOM     84  F   UNL A   1      41.853  19.110  25.724  1.00  0.00    -0.200 F 
ATOM     85  F   UNL A   1      39.180  19.289  25.219  1.00  0.00    -0.200 F 
ENDBRANCH  51  75
BRANCH  63  86
ATOM     86  C   UNL A   1      46.421  25.900  27.481  1.00  0.00     0.064 A 
ATOM     87  C   UNL A   1      47.592  25.475  26.837  1.00  0.00     0.173 A 
ATOM     88  C   UNL A   1      45.624  26.857  26.837  1.00  0.00     0.173 A 
ATOM     89  F   UNL A   1      48.359  24.511  27.368  1.00  0.00    -0.203 F 
ATOM     90  C   UNL A   1      47.968  26.024  25.613  1.00  0.00     0.198 A 
ATOM     91  C   UNL A   1      45.986  27.379  25.601  1.00  0.00     0.198 A 
ATOM     92  F   UNL A   1      44.476  27.266  27.400  1.00  0.00    -0.203 F 
ATOM     93  F   UNL A   1      49.103  25.625  25.021  1.00  0.00    -0.200 F 
ATOM     94  C   UNL A   1      47.164  26.972  24.994  1.00  0.00     0.200 A 
ATOM     95  F   UNL A   1      45.189  28.269  24.992  1.00  0.00    -0.200 F 
ATOM     96  F   UNL A   1      47.516  27.481  23.806  1.00  0.00    -0.200 F 
ENDBRANCH  63  86
ENDBRANCH  37  38
ENDBRANCH  30  32
ENDBRANCH  29  30
ENDBRANCH  28  29
ENDBRANCH  27  28
ENDBRANCH  26  27
ENDBRANCH  25  26
ENDBRANCH   1  25
TORSDOF 19
ENDMDL
MODEL 3
REMARK VINA RESULT:     -11.7      3.557      9.172
REMARK SMILES Cc1ccc(C)c(/C=C2\SC(=S)N(CC(=O)OCCOCCOCCOC(=O)c3ccc(-c4c5nc(c(-c6c(F)c(F)c(F)c(F)c6F)c6ccc([nH]6)c(-c6c(F)c(F)c(F)c(F)c6F)c6nc(c(-c7c(F)c(F)c(F)c(F)c7F)c7ccc4[nH]7)C=C6)C=C5)cc3)C2=O)c1
REMARK SMILES IDX 21 1 20 2 19 3 18 4 17 5 15 6 16 7 14 8 13 9 8 10 9 11 10 12
REMARK SMILES IDX 92 13 11 14 93 15 12 16 7 17 1 18 2 19 3 20 94 21 4 22 5 23
REMARK SMILES IDX 6 24 22 25 23 26 24 27 25 28 26 29 27 30 28 31 29 32 30 33
REMARK SMILES IDX 91 34 31 35 90 36 32 37 33 38 34 39 84 40 35 41 89 42 83 43
REMARK SMILES IDX 85 44 36 45 88 46 82 47 81 48 37 50 69 51 49 52 68 53 50 54
REMARK SMILES IDX 53 55 67 56 86 57 51 58 52 59 66 61 87 62 54 63 38 64 39 65
REMARK SMILES IDX 47 66 40 67 41 68 45 69 48 70 42 71 43 72 46 73 44 74 70 75
REMARK SMILES IDX 71 76 79 77 72 78 73 79 77 80 80 81 74 82 75 83 78 84 76 85
REMARK SMILES IDX 55 86 56 87 64 88 57 89 58 90 62 91 65 92 59 93 60 94 63 95
REMARK SMILES IDX 61 96
REMARK H PARENT 85 49 53 60
REMARK Flexibility Score: inf
ROOT
ATOM      1  C   UNL A   1      36.682  22.847  25.997  1.00  0.00     0.188 C 
ENDROOT
BRANCH   1   2
ATOM      2  O   UNL A   1      36.237  21.496  26.121  1.00  0.00    -0.376 OA
BRANCH   2   3
ATOM      3  C   UNL A   1      34.891  21.254  25.705  1.00  0.00     0.202 C 
BRANCH   3   4
ATOM      4  C   UNL A   1      34.654  19.917  24.955  1.00  0.00     0.261 C 
BRANCH   4   5
ATOM      5  O   UNL A   1      33.558  19.873  23.972  1.00  0.00    -0.462 OA
BRANCH   5   6
ATOM      6  C   UNL A   1      32.544  20.736  24.301  1.00  0.00     0.326 C 
ATOM      7  O   UNL A   1      31.779  20.484  25.237  1.00  0.00    -0.250 OA
BRANCH   6   8
ATOM      8  C   UNL A   1      32.174  21.899  23.314  1.00  0.00     0.250 C 
BRANCH   8   9
ATOM      9  N   UNL A   1      32.355  23.389  23.351  1.00  0.00    -0.282 N 
ATOM     10  C   UNL A   1      31.044  26.607  24.468  1.00  0.00     0.029 C 
ATOM     11  C   UNL A   1      31.884  25.662  23.992  1.00  0.00     0.081 C 
ATOM     12  S   UNL A   1      33.420  25.773  23.260  1.00  0.00    -0.054 SA
ATOM     13  C   UNL A   1      31.576  24.195  24.154  1.00  0.00     0.266 C 
ATOM     14  C   UNL A   1      33.571  24.009  23.115  1.00  0.00     0.148 C 
ATOM     15  O   UNL A   1      30.912  23.797  25.100  1.00  0.00    -0.268 OA
ATOM     16  S   UNL A   1      35.070  23.308  22.864  1.00  0.00    -0.052 S 
BRANCH  10  17
ATOM     17  C   UNL A   1      31.042  28.105  24.606  1.00  0.00    -0.021 A 
ATOM     18  C   UNL A   1      32.406  30.858  26.926  1.00  0.00     0.044 C 
ATOM     19  C   UNL A   1      31.658  30.163  25.827  1.00  0.00    -0.051 A 
ATOM     20  C   UNL A   1      30.786  30.918  25.047  1.00  0.00     0.004 A 
ATOM     21  C   UNL A   1      31.769  28.769  25.612  1.00  0.00     0.011 A 
ATOM     22  C   UNL A   1      30.076  30.305  24.033  1.00  0.00     0.004 A 
ATOM     23  C   UNL A   1      30.205  28.922  23.788  1.00  0.00    -0.044 A 
ATOM     24  C   UNL A   1      29.359  28.437  22.645  1.00  0.00     0.045 C 
ENDBRANCH  10  17
ENDBRANCH   8   9
ENDBRANCH   6   8
ENDBRANCH   5   6
ENDBRANCH   4   5
ENDBRANCH   3   4
ENDBRANCH   2   3
ENDBRANCH   1   2
BRANCH   1  25
ATOM     25  C   UNL A   1      38.212  23.018  25.846  1.00  0.00     0.188 C 
BRANCH  25  26
ATOM     26  O   UNL A   1      38.852  21.754  25.763  1.00  0.00    -0.376 OA
BRANCH  26  27
ATOM     27  C   UNL A   1      39.976  21.528  26.596  1.00  0.00     0.202 C 
BRANCH  27  28
ATOM     28  C   UNL A   1      40.738  20.199  26.465  1.00  0.00     0.261 C 
BRANCH  28  29
ATOM     29  O   UNL A   1      41.829  20.047  25.528  1.00  0.00    -0.460 OA
BRANCH  29  30
ATOM     30  C   UNL A   1      43.097  20.481  25.616  1.00  0.00     0.338 C 
ATOM     31  O   UNL A   1      44.051  19.704  25.627  1.00  0.00    -0.246 OA
BRANCH  30  32
ATOM     32  C   UNL A   1      43.323  21.912  25.826  1.00  0.00     0.060 A 
ATOM     33  C   UNL A   1      43.795  22.226  27.086  1.00  0.00     0.016 A 
ATOM     34  C   UNL A   1      43.012  22.919  24.900  1.00  0.00     0.016 A 
ATOM     35  C   UNL A   1      43.752  23.543  27.481  1.00  0.00     0.010 A 
ATOM     36  C   UNL A   1      43.031  24.261  25.307  1.00  0.00     0.010 A 
ATOM     37  C   UNL A   1      43.351  24.558  26.628  1.00  0.00    -0.014 A 
BRANCH  37  38
ATOM     38  C   UNL A   1      43.334  25.863  27.291  1.00  0.00     0.031 A 
ATOM     39  C   UNL A   1      44.572  26.685  27.202  1.00  0.00     0.074 A 
ATOM     40  C   UNL A   1      42.311  26.202  28.102  1.00  0.00     0.049 A 
ATOM     41  N   UNL A   1      45.194  27.282  28.174  1.00  0.00    -0.248 NA
ATOM     42  C   UNL A   1      45.228  26.816  25.893  1.00  0.00     0.031 C 
ATOM     43  C   UNL A   1      41.060  25.459  28.240  1.00  0.00     0.029 A 
ATOM     44  N   UNL A   1      42.124  27.300  28.908  1.00  0.00    -0.354 N 
ATOM     45  C   UNL A   1      46.194  28.031  27.562  1.00  0.00     0.074 A 
ATOM     46  C   UNL A   1      46.241  27.632  26.179  1.00  0.00     0.031 C 
ATOM     47  C   UNL A   1      40.162  26.227  28.884  1.00  0.00     0.029 A 
ATOM     48  C   UNL A   1      40.796  27.482  29.260  1.00  0.00     0.049 A 
ATOM     49  H   UNL A   1      42.854  27.893  29.203  1.00  0.00     0.167 HD
ATOM     50  C   UNL A   1      46.689  29.156  28.136  1.00  0.00     0.037 A 
ATOM     51  C   UNL A   1      40.192  28.595  29.733  1.00  0.00     0.037 A 
ATOM     52  C   UNL A   1      46.609  29.183  29.565  1.00  0.00     0.049 A 
ATOM     53  C   UNL A   1      41.179  29.472  30.398  1.00  0.00     0.074 A 
ATOM     54  C   UNL A   1      47.413  28.840  30.627  1.00  0.00     0.029 A 
ATOM     55  N   UNL A   1      45.384  29.497  30.070  1.00  0.00    -0.354 N 
ATOM     56  N   UNL A   1      41.720  29.216  31.556  1.00  0.00    -0.248 NA
ATOM     57  C   UNL A   1      41.778  30.582  29.658  1.00  0.00     0.031 C 
ATOM     58  C   UNL A   1      46.608  28.928  31.802  1.00  0.00     0.029 A 
ATOM     59  C   UNL A   1      45.330  29.315  31.426  1.00  0.00     0.049 A 
ATOM     60  H   UNL A   1      44.628  29.817  29.527  1.00  0.00     0.167 HD
ATOM     61  C   UNL A   1      42.944  29.850  31.503  1.00  0.00     0.074 A 
ATOM     62  C   UNL A   1      42.856  30.806  30.412  1.00  0.00     0.031 C 
ATOM     63  C   UNL A   1      44.043  29.290  32.073  1.00  0.00     0.037 A 
BRANCH  50  64
ATOM     64  C   UNL A   1      46.745  30.444  27.352  1.00  0.00     0.064 A 
ATOM     65  C   UNL A   1      47.925  31.202  27.307  1.00  0.00     0.173 A 
ATOM     66  C   UNL A   1      45.569  31.099  26.917  1.00  0.00     0.173 A 
ATOM     67  F   UNL A   1      49.079  30.692  27.764  1.00  0.00    -0.203 F 
ATOM     68  C   UNL A   1      47.925  32.527  26.858  1.00  0.00     0.198 A 
ATOM     69  C   UNL A   1      45.582  32.399  26.421  1.00  0.00     0.198 A 
ATOM     70  F   UNL A   1      44.359  30.541  27.065  1.00  0.00    -0.203 F 
ATOM     71  F   UNL A   1      49.052  33.250  26.913  1.00  0.00    -0.200 F 
ATOM     72  C   UNL A   1      46.756  33.120  26.410  1.00  0.00     0.200 A 
ATOM     73  F   UNL A   1      44.432  32.967  26.031  1.00  0.00    -0.200 F 
ATOM     74  F   UNL A   1      46.748  34.400  26.016  1.00  0.00    -0.200 F 
ENDBRANCH  50  64
BRANCH  51  75
ATOM     75  C   UNL A   1      38.782  28.998  29.517  1.00  0.00     0.064 A 
ATOM     76  C   UNL A   1      37.919  29.265  30.591  1.00  0.00     0.173 A 
ATOM     77  C   UNL A   1      38.302  29.334  28.233  1.00  0.00     0.173 A 
ATOM     78  F   UNL A   1      38.318  29.040  31.851  1.00  0.00    -0.203 F 
ATOM     79  C   UNL A   1      36.652  29.818  30.389  1.00  0.00     0.198 A 
ATOM     80  C   UNL A   1      37.027  29.858  28.032  1.00  0.00     0.198 A 
ATOM     81  F   UNL A   1      39.088  29.236  27.151  1.00  0.00    -0.203 F 
ATOM     82  F   UNL A   1      35.877  30.109  31.443  1.00  0.00    -0.200 F 
ATOM     83  C   UNL A   1      36.206  30.110  29.111  1.00  0.00     0.200 A 
ATOM     84  F   UNL A   1      36.626  30.163  26.790  1.00  0.00    -0.200 F 
ATOM     85  F   UNL A   1      35.003  30.670  28.921  1.00  0.00    -0.200 F 
ENDBRANCH  51  75
BRANCH  63  86
ATOM     86  C   UNL A   1      43.845  28.428  33.270  1.00  0.00     0.064 A 
ATOM     87  C   UNL A   1      43.620  27.046  33.204  1.00  0.00     0.173 A 
ATOM     88  C   UNL A   1      43.938  29.022  34.537  1.00  0.00     0.173 A 
ATOM     89  F   UNL A   1      43.592  26.409  32.025  1.00  0.00    -0.203 F 
ATOM     90  C   UNL A   1      43.451  26.298  34.368  1.00  0.00     0.198 A 
ATOM     91  C   UNL A   1      43.801  28.267  35.696  1.00  0.00     0.198 A 
ATOM     92  F   UNL A   1      44.189  30.337  34.648  1.00  0.00    -0.203 F 
ATOM     93  F   UNL A   1      43.211  24.981  34.288  1.00  0.00    -0.200 F 
ATOM     94  C   UNL A   1      43.545  26.908  35.611  1.00  0.00     0.200 A 
ATOM     95  F   UNL A   1      43.926  28.855  36.895  1.00  0.00    -0.200 F 
ATOM     96  F   UNL A   1      43.405  26.182  36.729  1.00  0.00    -0.200 F 
ENDBRANCH  63  86
ENDBRANCH  37  38
ENDBRANCH  30  32
ENDBRANCH  29  30
ENDBRANCH  28  29
ENDBRANCH  27  28
ENDBRANCH  26  27
ENDBRANCH  25  26
ENDBRANCH   1  25
TORSDOF 19
ENDMDL
