MODEL 1
REMARK VINA RESULT:      -9.5      0.000      0.000
REMARK SMILES NS(=O)(=O)c1ccc(-n2nc(NC(=O)NCCCCCCCCCCC(=O)OCCOCCOCCOC(=O)c3ccc(-c4c5nc(c(-c6c(F)c(F)c(F)c(F)c6F)c6ccc([nH]6)c(-c6c(F)c(F)c(F)c(F)c6F)c6nc(c(-c7c(F)c(F)c(F)c(F)c7F)c7ccc4[nH]7)C=C6)C=C5)cc3)cc2-c2ccccc2)cc1
REMARK SMILES IDX 25 1 24 2 23 3 22 4 21 5 20 6 19 7 18 8 17 9 16 10 15 11
REMARK SMILES IDX 12 12 13 13 14 15 11 17 9 18 10 19 104 20 103 21 8 22 5 23
REMARK SMILES IDX 6 24 112 25 7 26 111 27 2 28 3 29 4 30 1 31 105 34 106 35
REMARK SMILES IDX 110 36 107 37 109 38 108 39 26 40 27 41 28 42 29 43 30 44
REMARK SMILES IDX 31 45 32 46 33 47 34 48 35 49 36 50 37 51 38 52 39 53 40 54
REMARK SMILES IDX 41 55 102 56 42 57 101 58 43 59 44 60 45 61 95 62 46 63
REMARK SMILES IDX 100 64 94 65 96 66 47 67 99 68 93 69 92 70 48 72 80 73 60 74
REMARK SMILES IDX 79 75 61 76 64 77 78 78 97 79 62 80 63 81 77 83 98 84 65 85
REMARK SMILES IDX 49 86 50 87 58 88 51 89 52 90 56 91 59 92 53 93 54 94 57 95
REMARK SMILES IDX 55 96 81 97 82 98 90 99 83 100 84 101 88 102 91 103 85 104
REMARK SMILES IDX 86 105 89 106 87 107 66 108 67 109 75 110 68 111 69 112
REMARK SMILES IDX 73 113 76 114 70 115 71 116 74 117 72 118
REMARK H PARENT 12 14 15 16 1 32 1 33 96 71 64 82
REMARK Flexibility Score: inf
ROOT
ATOM      1  C   UNL A   1      32.836  28.000  22.406  1.00  0.00     0.123 C 
ENDROOT
BRANCH   1   2
ATOM      2  C   UNL A   1      33.284  26.539  22.282  1.00  0.00     0.012 C 
BRANCH   2   3
ATOM      3  C   UNL A   1      33.886  25.914  23.541  1.00  0.00     0.001 C 
BRANCH   3   4
ATOM      4  C   UNL A   1      34.566  24.575  23.285  1.00  0.00     0.000 C 
BRANCH   4   5
ATOM      5  C   UNL A   1      34.028  23.877  22.043  1.00  0.00     0.000 C 
BRANCH   5   6
ATOM      6  C   UNL A   1      32.957  22.830  22.351  1.00  0.00     0.000 C 
BRANCH   6   7
ATOM      7  C   UNL A   1      31.524  23.235  21.990  1.00  0.00     0.000 C 
BRANCH   7   8
ATOM      8  C   UNL A   1      30.589  23.452  23.187  1.00  0.00     0.002 C 
BRANCH   8   9
ATOM      9  C   UNL A   1      30.200  24.903  23.462  1.00  0.00     0.021 C 
BRANCH   9  10
ATOM     10  C   UNL A   1      30.841  25.515  24.694  1.00  0.00     0.117 C 
BRANCH  10  11
ATOM     11  N   UNL A   1      29.946  25.706  25.811  1.00  0.00    -0.338 N 
ATOM     12  N   UNL A   1      30.031  23.559  26.838  1.00  0.00    -0.291 N 
ATOM     13  C   UNL A   1      29.549  24.820  26.750  1.00  0.00     0.320 C 
ATOM     14  H   UNL A   1      29.434  22.934  27.310  1.00  0.00     0.173 HD
ATOM     15  O   UNL A   1      28.619  25.150  27.492  1.00  0.00    -0.248 OA
ATOM     16  H   UNL A   1      29.571  26.611  25.901  1.00  0.00     0.165 HD
BRANCH  12  17
ATOM     17  C   UNL A   1      31.200  22.986  26.389  1.00  0.00     0.157 A 
ATOM     18  N   UNL A   1      32.554  21.525  25.669  1.00  0.00    -0.231 N 
ATOM     19  N   UNL A   1      31.290  21.975  25.524  1.00  0.00    -0.149 NA
ATOM     20  C   UNL A   1      33.369  22.506  26.219  1.00  0.00     0.076 A 
ATOM     21  C   UNL A   1      32.493  23.434  26.752  1.00  0.00     0.078 A 
BRANCH  18  22
ATOM     22  C   UNL A   1      32.881  20.175  25.359  1.00  0.00     0.065 A 
ATOM     23  C   UNL A   1      33.536  17.529  24.764  1.00  0.00     0.082 A 
ATOM     24  C   UNL A   1      32.872  17.822  25.957  1.00  0.00     0.024 A 
ATOM     25  C   UNL A   1      33.854  18.546  23.857  1.00  0.00     0.024 A 
ATOM     26  C   UNL A   1      32.554  19.148  26.258  1.00  0.00     0.030 A 
ATOM     27  C   UNL A   1      33.502  19.870  24.142  1.00  0.00     0.030 A 
BRANCH  23  28
ATOM     28  S   UNL A   1      34.010  15.863  24.415  1.00  0.00     0.238 S 
ATOM     29  O   UNL A   1      34.425  15.772  23.030  1.00  0.00    -0.207 OA
ATOM     30  O   UNL A   1      33.040  14.975  25.000  1.00  0.00    -0.207 OA
BRANCH  28  31
ATOM     31  N   UNL A   1      35.428  15.673  25.302  1.00  0.00    -0.225 NA
ATOM     32  H   UNL A   1      36.025  16.489  25.167  1.00  0.00     0.137 HD
ATOM     33  H   UNL A   1      35.918  14.837  24.983  1.00  0.00     0.137 HD
ENDBRANCH  28  31
ENDBRANCH  23  28
ENDBRANCH  18  22
BRANCH  20  34
ATOM     34  C   UNL A   1      34.825  22.468  26.152  1.00  0.00     0.000 A 
ATOM     35  C   UNL A   1      35.540  23.675  26.210  1.00  0.00     0.010 A 
ATOM     36  C   UNL A   1      35.516  21.270  25.958  1.00  0.00     0.010 A 
ATOM     37  C   UNL A   1      36.920  23.692  26.030  1.00  0.00     0.001 A 
ATOM     38  C   UNL A   1      36.903  21.289  25.781  1.00  0.00     0.001 A 
ATOM     39  C   UNL A   1      37.601  22.498  25.808  1.00  0.00     0.000 A 
ENDBRANCH  20  34
ENDBRANCH  12  17
ENDBRANCH  10  11
ENDBRANCH   9  10
ENDBRANCH   8   9
ENDBRANCH   7   8
ENDBRANCH   6   7
ENDBRANCH   5   6
ENDBRANCH   4   5
ENDBRANCH   3   4
ENDBRANCH   2   3
ENDBRANCH   1   2
BRANCH   1  40
ATOM     40  C   UNL A   1      33.596  28.922  23.348  1.00  0.00     0.305 C 
ATOM     41  O   UNL A   1      34.794  29.146  23.218  1.00  0.00    -0.252 OA
BRANCH  40  42
ATOM     42  O   UNL A   1      32.833  29.384  24.366  1.00  0.00    -0.463 OA
BRANCH  42  43
ATOM     43  C   UNL A   1      33.065  28.858  25.681  1.00  0.00     0.261 C 
BRANCH  43  44
ATOM     44  C   UNL A   1      33.980  29.769  26.508  1.00  0.00     0.202 C 
BRANCH  44  45
ATOM     45  O   UNL A   1      33.320  30.655  27.411  1.00  0.00    -0.376 OA
BRANCH  45  46
ATOM     46  C   UNL A   1      34.156  31.387  28.314  1.00  0.00     0.188 C 
BRANCH  46  47
ATOM     47  C   UNL A   1      34.952  32.524  27.668  1.00  0.00     0.188 C 
BRANCH  47  48
ATOM     48  O   UNL A   1      34.507  33.814  28.049  1.00  0.00    -0.376 OA
BRANCH  48  49
ATOM     49  C   UNL A   1      33.889  34.085  29.304  1.00  0.00     0.202 C 
BRANCH  49  50
ATOM     50  C   UNL A   1      33.592  35.475  29.884  1.00  0.00     0.261 C 
BRANCH  50  51
ATOM     51  O   UNL A   1      34.112  35.761  31.160  1.00  0.00    -0.460 OA
BRANCH  51  52
ATOM     52  C   UNL A   1      33.631  35.051  32.196  1.00  0.00     0.338 C 
ATOM     53  O   UNL A   1      32.495  35.044  32.631  1.00  0.00    -0.246 OA
BRANCH  52  54
ATOM     54  C   UNL A   1      34.771  34.269  32.709  1.00  0.00     0.060 A 
ATOM     55  C   UNL A   1      35.986  34.931  32.853  1.00  0.00     0.016 A 
ATOM     56  C   UNL A   1      34.667  32.871  32.862  1.00  0.00     0.016 A 
ATOM     57  C   UNL A   1      37.130  34.168  32.856  1.00  0.00     0.010 A 
ATOM     58  C   UNL A   1      35.806  32.111  32.859  1.00  0.00     0.010 A 
ATOM     59  C   UNL A   1      37.014  32.777  32.732  1.00  0.00    -0.014 A 
BRANCH  59  60
ATOM     60  C   UNL A   1      38.210  32.028  32.432  1.00  0.00     0.031 A 
ATOM     61  C   UNL A   1      39.050  31.778  33.613  1.00  0.00     0.074 A 
ATOM     62  C   UNL A   1      38.488  31.608  31.184  1.00  0.00     0.049 A 
ATOM     63  N   UNL A   1      40.185  32.326  33.886  1.00  0.00    -0.248 NA
ATOM     64  C   UNL A   1      38.490  30.957  34.695  1.00  0.00     0.031 C 
ATOM     65  C   UNL A   1      37.608  31.579  30.012  1.00  0.00     0.029 A 
ATOM     66  N   UNL A   1      39.631  31.037  30.721  1.00  0.00    -0.354 N 
ATOM     67  C   UNL A   1      40.582  31.767  35.092  1.00  0.00     0.074 A 
ATOM     68  C   UNL A   1      39.434  31.081  35.628  1.00  0.00     0.031 C 
ATOM     69  C   UNL A   1      38.176  30.821  29.046  1.00  0.00     0.029 A 
ATOM     70  C   UNL A   1      39.509  30.435  29.477  1.00  0.00     0.049 A 
ATOM     71  H   UNL A   1      40.476  31.049  31.226  1.00  0.00     0.167 HD
ATOM     72  C   UNL A   1      41.900  31.689  35.411  1.00  0.00     0.037 A 
ATOM     73  C   UNL A   1      40.425  29.621  28.895  1.00  0.00     0.037 A 
ATOM     74  C   UNL A   1      42.684  32.601  34.616  1.00  0.00     0.049 A 
ATOM     75  C   UNL A   1      41.731  29.886  29.553  1.00  0.00     0.074 A 
ATOM     76  C   UNL A   1      42.729  33.973  34.467  1.00  0.00     0.029 A 
ATOM     77  N   UNL A   1      43.348  32.083  33.532  1.00  0.00    -0.354 N 
ATOM     78  N   UNL A   1      42.401  30.997  29.420  1.00  0.00    -0.248 NA
ATOM     79  C   UNL A   1      42.082  29.084  30.716  1.00  0.00     0.031 C 
ATOM     80  C   UNL A   1      43.027  34.193  33.091  1.00  0.00     0.029 A 
ATOM     81  C   UNL A   1      43.198  32.950  32.481  1.00  0.00     0.049 A 
ATOM     82  H   UNL A   1      43.847  31.235  33.513  1.00  0.00     0.167 HD
ATOM     83  C   UNL A   1      42.920  31.248  30.681  1.00  0.00     0.074 A 
ATOM     84  C   UNL A   1      42.781  29.989  31.406  1.00  0.00     0.031 C 
ATOM     85  C   UNL A   1      43.143  32.528  31.100  1.00  0.00     0.037 A 
BRANCH  72  86
ATOM     86  C   UNL A   1      42.511  30.508  36.119  1.00  0.00     0.064 A 
ATOM     87  C   UNL A   1      43.411  30.742  37.175  1.00  0.00     0.173 A 
ATOM     88  C   UNL A   1      42.495  29.192  35.608  1.00  0.00     0.173 A 
ATOM     89  F   UNL A   1      43.525  31.964  37.717  1.00  0.00    -0.203 F 
ATOM     90  C   UNL A   1      44.286  29.752  37.627  1.00  0.00     0.198 A 
ATOM     91  C   UNL A   1      43.329  28.192  36.101  1.00  0.00     0.198 A 
ATOM     92  F   UNL A   1      41.769  28.845  34.539  1.00  0.00    -0.203 F 
ATOM     93  F   UNL A   1      45.218  30.055  38.540  1.00  0.00    -0.200 F 
ATOM     94  C   UNL A   1      44.247  28.480  37.086  1.00  0.00     0.200 A 
ATOM     95  F   UNL A   1      43.290  26.972  35.546  1.00  0.00    -0.200 F 
ATOM     96  F   UNL A   1      45.127  27.548  37.472  1.00  0.00    -0.200 F 
ENDBRANCH  72  86
BRANCH  73  97
ATOM     97  C   UNL A   1      40.186  28.404  28.082  1.00  0.00     0.064 A 
ATOM     98  C   UNL A   1      40.858  28.208  26.864  1.00  0.00     0.173 A 
ATOM     99  C   UNL A   1      39.528  27.281  28.621  1.00  0.00     0.173 A 
ATOM    100  F   UNL A   1      41.548  29.212  26.305  1.00  0.00    -0.203 F 
ATOM    101  C   UNL A   1      40.897  26.955  26.241  1.00  0.00     0.198 A 
ATOM    102  C   UNL A   1      39.562  26.034  27.994  1.00  0.00     0.198 A 
ATOM    103  F   UNL A   1      38.924  27.344  29.816  1.00  0.00    -0.203 F 
ATOM    104  F   UNL A   1      41.607  26.790  25.116  1.00  0.00    -0.200 F 
ATOM    105  C   UNL A   1      40.259  25.868  26.813  1.00  0.00     0.200 A 
ATOM    106  F   UNL A   1      38.973  24.981  28.579  1.00  0.00    -0.200 F 
ATOM    107  F   UNL A   1      40.351  24.654  26.252  1.00  0.00    -0.200 F 
ENDBRANCH  73  97
BRANCH  85 108
ATOM    108  C   UNL A   1      43.117  33.613  30.058  1.00  0.00     0.064 A 
ATOM    109  C   UNL A   1      41.945  34.232  29.589  1.00  0.00     0.173 A 
ATOM    110  C   UNL A   1      44.341  34.124  29.608  1.00  0.00     0.173 A 
ATOM    111  F   UNL A   1      40.740  33.869  30.046  1.00  0.00    -0.203 F 
ATOM    112  C   UNL A   1      42.002  35.283  28.673  1.00  0.00     0.198 A 
ATOM    113  C   UNL A   1      44.396  35.198  28.725  1.00  0.00     0.198 A 
ATOM    114  F   UNL A   1      45.493  33.606  30.062  1.00  0.00    -0.203 F 
ATOM    115  F   UNL A   1      40.870  35.846  28.225  1.00  0.00    -0.200 F 
ATOM    116  C   UNL A   1      43.228  35.769  28.249  1.00  0.00     0.200 A 
ATOM    117  F   UNL A   1      45.584  35.696  28.356  1.00  0.00    -0.200 F 
ATOM    118  F   UNL A   1      43.284  36.805  27.399  1.00  0.00    -0.200 F 
ENDBRANCH  85 108
ENDBRANCH  59  60
ENDBRANCH  52  54
ENDBRANCH  51  52
ENDBRANCH  50  51
ENDBRANCH  49  50
ENDBRANCH  48  49
ENDBRANCH  47  48
ENDBRANCH  46  47
ENDBRANCH  45  46
ENDBRANCH  44  45
ENDBRANCH  43  44
ENDBRANCH  42  43
ENDBRANCH  40  42
ENDBRANCH   1  40
TORSDOF 32
ENDMDL
MODEL 2
REMARK VINA RESULT:      -9.2      3.690      8.345
REMARK SMILES NS(=O)(=O)c1ccc(-n2nc(NC(=O)NCCCCCCCCCCC(=O)OCCOCCOCCOC(=O)c3ccc(-c4c5nc(c(-c6c(F)c(F)c(F)c(F)c6F)c6ccc([nH]6)c(-c6c(F)c(F)c(F)c(F)c6F)c6nc(c(-c7c(F)c(F)c(F)c(F)c7F)c7ccc4[nH]7)C=C6)C=C5)cc3)cc2-c2ccccc2)cc1
REMARK SMILES IDX 25 1 24 2 23 3 22 4 21 5 20 6 19 7 18 8 17 9 16 10 15 11
REMARK SMILES IDX 12 12 13 13 14 15 11 17 9 18 10 19 104 20 103 21 8 22 5 23
REMARK SMILES IDX 6 24 112 25 7 26 111 27 2 28 3 29 4 30 1 31 105 34 106 35
REMARK SMILES IDX 110 36 107 37 109 38 108 39 26 40 27 41 28 42 29 43 30 44
REMARK SMILES IDX 31 45 32 46 33 47 34 48 35 49 36 50 37 51 38 52 39 53 40 54
REMARK SMILES IDX 41 55 102 56 42 57 101 58 43 59 44 60 45 61 95 62 46 63
REMARK SMILES IDX 100 64 94 65 96 66 47 67 99 68 93 69 92 70 48 72 80 73 60 74
REMARK SMILES IDX 79 75 61 76 64 77 78 78 97 79 62 80 63 81 77 83 98 84 65 85
REMARK SMILES IDX 49 86 50 87 58 88 51 89 52 90 56 91 59 92 53 93 54 94 57 95
REMARK SMILES IDX 55 96 81 97 82 98 90 99 83 100 84 101 88 102 91 103 85 104
REMARK SMILES IDX 86 105 89 106 87 107 66 108 67 109 75 110 68 111 69 112
REMARK SMILES IDX 73 113 76 114 70 115 71 116 74 117 72 118
REMARK H PARENT 12 14 15 16 1 32 1 33 96 71 64 82
REMARK Flexibility Score: inf
ROOT
ATOM      1  C   UNL A   1      33.890  28.486  23.792  1.00  0.00     0.123 C 
ENDROOT
BRANCH   1   2
ATOM      2  C   UNL A   1      32.987  27.615  22.911  1.00  0.00     0.012 C 
BRANCH   2   3
ATOM      3  C   UNL A   1      33.494  26.201  22.625  1.00  0.00     0.001 C 
BRANCH   3   4
ATOM      4  C   UNL A   1      32.415  25.133  22.764  1.00  0.00     0.000 C 
BRANCH   4   5
ATOM      5  C   UNL A   1      32.575  24.010  21.747  1.00  0.00     0.000 C 
BRANCH   5   6
ATOM      6  C   UNL A   1      32.960  22.672  22.378  1.00  0.00     0.000 C 
BRANCH   6   7
ATOM      7  C   UNL A   1      32.166  21.460  21.878  1.00  0.00     0.000 C 
BRANCH   7   8
ATOM      8  C   UNL A   1      32.143  20.259  22.831  1.00  0.00     0.002 C 
BRANCH   8   9
ATOM      9  C   UNL A   1      32.222  18.889  22.163  1.00  0.00     0.021 C 
BRANCH   9  10
ATOM     10  C   UNL A   1      33.201  17.920  22.803  1.00  0.00     0.117 C 
BRANCH  10  11
ATOM     11  N   UNL A   1      32.590  16.815  23.502  1.00  0.00    -0.338 N 
ATOM     12  N   UNL A   1      33.395  17.170  25.714  1.00  0.00    -0.291 N 
ATOM     13  C   UNL A   1      32.707  16.452  24.798  1.00  0.00     0.320 C 
ATOM     14  H   UNL A   1      33.692  16.646  26.493  1.00  0.00     0.173 HD
ATOM     15  O   UNL A   1      32.255  15.352  25.128  1.00  0.00    -0.248 OA
ATOM     16  H   UNL A   1      32.004  16.242  22.956  1.00  0.00     0.165 HD
BRANCH  12  17
ATOM     17  C   UNL A   1      33.756  18.498  25.762  1.00  0.00     0.157 A 
ATOM     18  N   UNL A   1      33.590  20.603  25.927  1.00  0.00    -0.231 N 
ATOM     19  N   UNL A   1      33.135  19.451  26.460  1.00  0.00    -0.149 NA
ATOM     20  C   UNL A   1      34.802  20.406  25.278  1.00  0.00     0.076 A 
ATOM     21  C   UNL A   1      34.889  19.036  25.106  1.00  0.00     0.078 A 
BRANCH  18  22
ATOM     22  C   UNL A   1      32.806  21.789  25.993  1.00  0.00     0.065 A 
ATOM     23  C   UNL A   1      31.271  24.116  26.106  1.00  0.00     0.082 A 
ATOM     24  C   UNL A   1      30.675  22.916  25.710  1.00  0.00     0.024 A 
ATOM     25  C   UNL A   1      32.622  24.156  26.466  1.00  0.00     0.024 A 
ATOM     26  C   UNL A   1      31.447  21.755  25.645  1.00  0.00     0.030 A 
ATOM     27  C   UNL A   1      33.386  22.984  26.437  1.00  0.00     0.030 A 
BRANCH  23  28
ATOM     28  S   UNL A   1      30.317  25.604  26.114  1.00  0.00     0.238 S 
ATOM     29  O   UNL A   1      29.104  25.381  26.873  1.00  0.00    -0.207 OA
ATOM     30  O   UNL A   1      30.317  26.159  24.786  1.00  0.00    -0.207 OA
BRANCH  28  31
ATOM     31  N   UNL A   1      31.236  26.644  27.066  1.00  0.00    -0.225 NA
ATOM     32  H   UNL A   1      31.965  26.113  27.542  1.00  0.00     0.137 HD
ATOM     33  H   UNL A   1      30.633  27.091  27.758  1.00  0.00     0.137 HD
ENDBRANCH  28  31
ENDBRANCH  23  28
ENDBRANCH  18  22
BRANCH  20  34
ATOM     34  C   UNL A   1      35.715  21.490  24.936  1.00  0.00     0.000 A 
ATOM     35  C   UNL A   1      36.651  21.917  25.891  1.00  0.00     0.010 A 
ATOM     36  C   UNL A   1      35.629  22.159  23.713  1.00  0.00     0.010 A 
ATOM     37  C   UNL A   1      37.458  23.024  25.649  1.00  0.00     0.001 A 
ATOM     38  C   UNL A   1      36.442  23.269  23.471  1.00  0.00     0.001 A 
ATOM     39  C   UNL A   1      37.348  23.706  24.440  1.00  0.00     0.000 A 
ENDBRANCH  20  34
ENDBRANCH  12  17
ENDBRANCH  10  11
ENDBRANCH   9  10
ENDBRANCH   8   9
ENDBRANCH   7   8
ENDBRANCH   6   7
ENDBRANCH   5   6
ENDBRANCH   4   5
ENDBRANCH   3   4
ENDBRANCH   2   3
ENDBRANCH   1   2
BRANCH   1  40
ATOM     40  C   UNL A   1      33.412  28.858  25.188  1.00  0.00     0.305 C 
ATOM     41  O   UNL A   1      34.174  28.916  26.146  1.00  0.00    -0.252 OA
BRANCH  40  42
ATOM     42  O   UNL A   1      32.070  29.027  25.260  1.00  0.00    -0.463 OA
BRANCH  42  43
ATOM     43  C   UNL A   1      31.546  29.853  26.310  1.00  0.00     0.261 C 
BRANCH  43  44
ATOM     44  C   UNL A   1      31.026  31.193  25.777  1.00  0.00     0.202 C 
BRANCH  44  45
ATOM     45  O   UNL A   1      31.661  32.358  26.303  1.00  0.00    -0.376 OA
BRANCH  45  46
ATOM     46  C   UNL A   1      32.265  32.228  27.595  1.00  0.00     0.188 C 
BRANCH  46  47
ATOM     47  C   UNL A   1      33.745  32.617  27.650  1.00  0.00     0.188 C 
BRANCH  47  48
ATOM     48  O   UNL A   1      34.355  32.348  28.900  1.00  0.00    -0.376 OA
BRANCH  48  49
ATOM     49  C   UNL A   1      35.647  32.832  29.256  1.00  0.00     0.202 C 
BRANCH  49  50
ATOM     50  C   UNL A   1      36.458  32.418  30.491  1.00  0.00     0.261 C 
BRANCH  50  51
ATOM     51  O   UNL A   1      37.402  31.387  30.321  1.00  0.00    -0.460 OA
BRANCH  51  52
ATOM     52  C   UNL A   1      36.949  30.122  30.376  1.00  0.00     0.338 C 
ATOM     53  O   UNL A   1      35.914  29.722  30.873  1.00  0.00    -0.246 OA
BRANCH  52  54
ATOM     54  C   UNL A   1      37.973  29.301  29.703  1.00  0.00     0.060 A 
ATOM     55  C   UNL A   1      38.420  28.166  30.370  1.00  0.00     0.016 A 
ATOM     56  C   UNL A   1      38.597  29.763  28.526  1.00  0.00     0.016 A 
ATOM     57  C   UNL A   1      39.658  27.672  30.026  1.00  0.00     0.010 A 
ATOM     58  C   UNL A   1      39.832  29.276  28.187  1.00  0.00     0.010 A 
ATOM     59  C   UNL A   1      40.389  28.322  29.022  1.00  0.00    -0.014 A 
BRANCH  59  60
ATOM     60  C   UNL A   1      41.786  27.988  28.888  1.00  0.00     0.031 A 
ATOM     61  C   UNL A   1      42.016  26.741  28.144  1.00  0.00     0.074 A 
ATOM     62  C   UNL A   1      42.754  28.773  29.397  1.00  0.00     0.049 A 
ATOM     63  N   UNL A   1      42.413  25.613  28.626  1.00  0.00    -0.248 NA
ATOM     64  C   UNL A   1      41.597  26.692  26.737  1.00  0.00     0.031 C 
ATOM     65  C   UNL A   1      42.643  30.140  29.915  1.00  0.00     0.029 A 
ATOM     66  N   UNL A   1      44.086  28.520  29.487  1.00  0.00    -0.354 N 
ATOM     67  C   UNL A   1      42.483  24.753  27.540  1.00  0.00     0.074 A 
ATOM     68  C   UNL A   1      41.804  25.406  26.451  1.00  0.00     0.031 C 
ATOM     69  C   UNL A   1      43.882  30.665  30.055  1.00  0.00     0.029 A 
ATOM     70  C   UNL A   1      44.864  29.632  29.773  1.00  0.00     0.049 A 
ATOM     71  H   UNL A   1      44.467  27.621  29.360  1.00  0.00     0.167 HD
ATOM     72  C   UNL A   1      43.334  23.694  27.558  1.00  0.00     0.037 A 
ATOM     73  C   UNL A   1      46.217  29.693  29.704  1.00  0.00     0.037 A 
ATOM     74  C   UNL A   1      43.740  23.374  28.904  1.00  0.00     0.049 A 
ATOM     75  C   UNL A   1      46.726  28.299  29.771  1.00  0.00     0.074 A 
ATOM     76  C   UNL A   1      43.086  22.957  30.045  1.00  0.00     0.029 A 
ATOM     77  N   UNL A   1      44.968  23.828  29.317  1.00  0.00    -0.354 N 
ATOM     78  N   UNL A   1      46.655  27.548  30.835  1.00  0.00    -0.248 NA
ATOM     79  C   UNL A   1      46.915  27.583  28.518  1.00  0.00     0.031 C 
ATOM     80  C   UNL A   1      43.773  23.587  31.124  1.00  0.00     0.029 A 
ATOM     81  C   UNL A   1      44.839  24.313  30.592  1.00  0.00     0.049 A 
ATOM     82  H   UNL A   1      45.798  23.809  28.789  1.00  0.00     0.167 HD
ATOM     83  C   UNL A   1      46.347  26.284  30.354  1.00  0.00     0.074 A 
ATOM     84  C   UNL A   1      46.624  26.344  28.923  1.00  0.00     0.031 C 
ATOM     85  C   UNL A   1      45.626  25.408  31.114  1.00  0.00     0.037 A 
BRANCH  72  86
ATOM     86  C   UNL A   1      44.113  23.239  26.351  1.00  0.00     0.064 A 
ATOM     87  C   UNL A   1      44.019  21.894  25.952  1.00  0.00     0.173 A 
ATOM     88  C   UNL A   1      45.171  23.978  25.775  1.00  0.00     0.173 A 
ATOM     89  F   UNL A   1      43.068  21.096  26.458  1.00  0.00    -0.203 F 
ATOM     90  C   UNL A   1      44.964  21.312  25.103  1.00  0.00     0.198 A 
ATOM     91  C   UNL A   1      46.076  23.409  24.885  1.00  0.00     0.198 A 
ATOM     92  F   UNL A   1      45.448  25.235  26.136  1.00  0.00    -0.203 F 
ATOM     93  F   UNL A   1      44.915  19.997  24.857  1.00  0.00    -0.200 F 
ATOM     94  C   UNL A   1      45.994  22.069  24.575  1.00  0.00     0.200 A 
ATOM     95  F   UNL A   1      47.081  24.155  24.403  1.00  0.00    -0.200 F 
ATOM     96  F   UNL A   1      46.937  21.500  23.814  1.00  0.00    -0.200 F 
ENDBRANCH  72  86
BRANCH  73  97
ATOM     97  C   UNL A   1      47.062  30.817  29.233  1.00  0.00     0.064 A 
ATOM     98  C   UNL A   1      48.250  31.155  29.903  1.00  0.00     0.173 A 
ATOM     99  C   UNL A   1      46.881  31.384  27.957  1.00  0.00     0.173 A 
ATOM    100  F   UNL A   1      48.523  30.623  31.103  1.00  0.00    -0.203 F 
ATOM    101  C   UNL A   1      49.213  31.984  29.316  1.00  0.00     0.198 A 
ATOM    102  C   UNL A   1      47.840  32.216  27.376  1.00  0.00     0.198 A 
ATOM    103  F   UNL A   1      45.819  31.064  27.205  1.00  0.00    -0.203 F 
ATOM    104  F   UNL A   1      50.365  32.228  29.956  1.00  0.00    -0.200 F 
ATOM    105  C   UNL A   1      49.011  32.504  28.049  1.00  0.00     0.200 A 
ATOM    106  F   UNL A   1      47.648  32.681  26.132  1.00  0.00    -0.200 F 
ATOM    107  F   UNL A   1      49.961  33.242  27.458  1.00  0.00    -0.200 F 
ENDBRANCH  73  97
BRANCH  85 108
ATOM    108  C   UNL A   1      45.463  25.728  32.575  1.00  0.00     0.064 A 
ATOM    109  C   UNL A   1      44.362  26.413  33.118  1.00  0.00     0.173 A 
ATOM    110  C   UNL A   1      46.407  25.211  33.472  1.00  0.00     0.173 A 
ATOM    111  F   UNL A   1      43.366  26.851  32.336  1.00  0.00    -0.203 F 
ATOM    112  C   UNL A   1      44.242  26.610  34.493  1.00  0.00     0.198 A 
ATOM    113  C   UNL A   1      46.265  25.376  34.845  1.00  0.00     0.198 A 
ATOM    114  F   UNL A   1      47.452  24.503  33.013  1.00  0.00    -0.203 F 
ATOM    115  F   UNL A   1      43.193  27.284  34.987  1.00  0.00    -0.200 F 
ATOM    116  C   UNL A   1      45.191  26.085  35.355  1.00  0.00     0.200 A 
ATOM    117  F   UNL A   1      47.158  24.823  35.678  1.00  0.00    -0.200 F 
ATOM    118  F   UNL A   1      45.056  26.241  36.680  1.00  0.00    -0.200 F 
ENDBRANCH  85 108
ENDBRANCH  59  60
ENDBRANCH  52  54
ENDBRANCH  51  52
ENDBRANCH  50  51
ENDBRANCH  49  50
ENDBRANCH  48  49
ENDBRANCH  47  48
ENDBRANCH  46  47
ENDBRANCH  45  46
ENDBRANCH  44  45
ENDBRANCH  43  44
ENDBRANCH  42  43
ENDBRANCH  40  42
ENDBRANCH   1  40
TORSDOF 32
ENDMDL
MODEL 3
REMARK VINA RESULT:      -8.9      2.067      6.871
REMARK SMILES NS(=O)(=O)c1ccc(-n2nc(NC(=O)NCCCCCCCCCCC(=O)OCCOCCOCCOC(=O)c3ccc(-c4c5nc(c(-c6c(F)c(F)c(F)c(F)c6F)c6ccc([nH]6)c(-c6c(F)c(F)c(F)c(F)c6F)c6nc(c(-c7c(F)c(F)c(F)c(F)c7F)c7ccc4[nH]7)C=C6)C=C5)cc3)cc2-c2ccccc2)cc1
REMARK SMILES IDX 25 1 24 2 23 3 22 4 21 5 20 6 19 7 18 8 17 9 16 10 15 11
REMARK SMILES IDX 12 12 13 13 14 15 11 17 9 18 10 19 104 20 103 21 8 22 5 23
REMARK SMILES IDX 6 24 112 25 7 26 111 27 2 28 3 29 4 30 1 31 105 34 106 35
REMARK SMILES IDX 110 36 107 37 109 38 108 39 26 40 27 41 28 42 29 43 30 44
REMARK SMILES IDX 31 45 32 46 33 47 34 48 35 49 36 50 37 51 38 52 39 53 40 54
REMARK SMILES IDX 41 55 102 56 42 57 101 58 43 59 44 60 45 61 95 62 46 63
REMARK SMILES IDX 100 64 94 65 96 66 47 67 99 68 93 69 92 70 48 72 80 73 60 74
REMARK SMILES IDX 79 75 61 76 64 77 78 78 97 79 62 80 63 81 77 83 98 84 65 85
REMARK SMILES IDX 49 86 50 87 58 88 51 89 52 90 56 91 59 92 53 93 54 94 57 95
REMARK SMILES IDX 55 96 81 97 82 98 90 99 83 100 84 101 88 102 91 103 85 104
REMARK SMILES IDX 86 105 89 106 87 107 66 108 67 109 75 110 68 111 69 112
REMARK SMILES IDX 73 113 76 114 70 115 71 116 74 117 72 118
REMARK H PARENT 12 14 15 16 1 32 1 33 96 71 64 82
REMARK Flexibility Score: inf
ROOT
ATOM      1  C   UNL A   1      33.526  28.627  24.072  1.00  0.00     0.123 C 
ENDROOT
BRANCH   1   2
ATOM      2  C   UNL A   1      32.366  27.777  23.542  1.00  0.00     0.012 C 
BRANCH   2   3
ATOM      3  C   UNL A   1      32.704  26.822  22.397  1.00  0.00     0.001 C 
BRANCH   3   4
ATOM      4  C   UNL A   1      32.918  25.383  22.854  1.00  0.00     0.000 C 
BRANCH   4   5
ATOM      5  C   UNL A   1      32.890  24.395  21.696  1.00  0.00     0.000 C 
BRANCH   5   6
ATOM      6  C   UNL A   1      33.323  22.983  22.093  1.00  0.00     0.000 C 
BRANCH   6   7
ATOM      7  C   UNL A   1      32.316  21.875  21.765  1.00  0.00     0.000 C 
BRANCH   7   8
ATOM      8  C   UNL A   1      32.139  20.814  22.859  1.00  0.00     0.002 C 
BRANCH   8   9
ATOM      9  C   UNL A   1      31.863  19.397  22.361  1.00  0.00     0.021 C 
BRANCH   9  10
ATOM     10  C   UNL A   1      32.976  18.398  22.622  1.00  0.00     0.117 C 
BRANCH  10  11
ATOM     11  N   UNL A   1      32.552  17.168  23.247  1.00  0.00    -0.338 N 
ATOM     12  N   UNL A   1      33.627  17.335  25.364  1.00  0.00    -0.291 N 
ATOM     13  C   UNL A   1      32.874  16.669  24.460  1.00  0.00     0.320 C 
ATOM     14  H   UNL A   1      34.069  16.752  26.025  1.00  0.00     0.173 HD
ATOM     15  O   UNL A   1      32.556  15.501  24.702  1.00  0.00    -0.248 OA
ATOM     16  H   UNL A   1      31.940  16.613  22.712  1.00  0.00     0.165 HD
BRANCH  12  17
ATOM     17  C   UNL A   1      33.892  18.675  25.534  1.00  0.00     0.157 A 
ATOM     18  N   UNL A   1      33.569  20.751  25.804  1.00  0.00    -0.231 N 
ATOM     19  N   UNL A   1      33.133  19.541  26.209  1.00  0.00    -0.149 NA
ATOM     20  C   UNL A   1      34.858  20.669  25.293  1.00  0.00     0.076 A 
ATOM     21  C   UNL A   1      35.055  19.322  25.051  1.00  0.00     0.078 A 
BRANCH  18  22
ATOM     22  C   UNL A   1      32.706  21.882  25.848  1.00  0.00     0.065 A 
ATOM     23  C   UNL A   1      31.018  24.101  25.951  1.00  0.00     0.082 A 
ATOM     24  C   UNL A   1      32.402  24.290  25.923  1.00  0.00     0.024 A 
ATOM     25  C   UNL A   1      30.473  22.814  25.906  1.00  0.00     0.024 A 
ATOM     26  C   UNL A   1      33.245  23.178  25.881  1.00  0.00     0.030 A 
ATOM     27  C   UNL A   1      31.318  21.701  25.827  1.00  0.00     0.030 A 
BRANCH  23  28
ATOM     28  S   UNL A   1      29.949  25.502  26.083  1.00  0.00     0.238 S 
ATOM     29  O   UNL A   1      28.848  25.173  26.965  1.00  0.00    -0.207 OA
ATOM     30  O   UNL A   1      29.757  26.061  24.770  1.00  0.00    -0.207 OA
BRANCH  28  31
ATOM     31  N   UNL A   1      30.874  26.613  26.945  1.00  0.00    -0.225 NA
ATOM     32  H   UNL A   1      30.838  26.386  27.939  1.00  0.00     0.137 HD
ATOM     33  H   UNL A   1      30.502  27.551  26.796  1.00  0.00     0.137 HD
ENDBRANCH  28  31
ENDBRANCH  23  28
ENDBRANCH  18  22
BRANCH  20  34
ATOM     34  C   UNL A   1      35.730  21.826  25.128  1.00  0.00     0.000 A 
ATOM     35  C   UNL A   1      36.020  22.279  23.832  1.00  0.00     0.010 A 
ATOM     36  C   UNL A   1      36.340  22.442  26.223  1.00  0.00     0.010 A 
ATOM     37  C   UNL A   1      36.941  23.303  23.628  1.00  0.00     0.001 A 
ATOM     38  C   UNL A   1      37.262  23.472  26.016  1.00  0.00     0.001 A 
ATOM     39  C   UNL A   1      37.568  23.894  24.721  1.00  0.00     0.000 A 
ENDBRANCH  20  34
ENDBRANCH  12  17
ENDBRANCH  10  11
ENDBRANCH   9  10
ENDBRANCH   8   9
ENDBRANCH   7   8
ENDBRANCH   6   7
ENDBRANCH   5   6
ENDBRANCH   4   5
ENDBRANCH   3   4
ENDBRANCH   2   3
ENDBRANCH   1   2
BRANCH   1  40
ATOM     40  C   UNL A   1      33.719  28.746  25.576  1.00  0.00     0.305 C 
ATOM     41  O   UNL A   1      34.830  28.757  26.094  1.00  0.00    -0.252 OA
BRANCH  40  42
ATOM     42  O   UNL A   1      32.551  28.752  26.261  1.00  0.00    -0.463 OA
BRANCH  42  43
ATOM     43  C   UNL A   1      32.122  29.982  26.861  1.00  0.00     0.261 C 
BRANCH  43  44
ATOM     44  C   UNL A   1      31.338  30.856  25.875  1.00  0.00     0.202 C 
BRANCH  44  45
ATOM     45  O   UNL A   1      31.594  32.259  25.950  1.00  0.00    -0.376 OA
BRANCH  45  46
ATOM     46  C   UNL A   1      31.504  32.856  27.248  1.00  0.00     0.188 C 
BRANCH  46  47
ATOM     47  C   UNL A   1      32.583  33.900  27.548  1.00  0.00     0.188 C 
BRANCH  47  48
ATOM     48  O   UNL A   1      32.366  34.608  28.756  1.00  0.00    -0.376 OA
BRANCH  48  49
ATOM     49  C   UNL A   1      32.770  35.961  28.948  1.00  0.00     0.202 C 
BRANCH  49  50
ATOM     50  C   UNL A   1      32.999  36.653  30.299  1.00  0.00     0.261 C 
BRANCH  50  51
ATOM     51  O   UNL A   1      34.040  36.155  31.105  1.00  0.00    -0.460 OA
BRANCH  51  52
ATOM     52  C   UNL A   1      33.816  35.001  31.759  1.00  0.00     0.338 C 
ATOM     53  O   UNL A   1      33.066  34.810  32.698  1.00  0.00    -0.246 OA
BRANCH  52  54
ATOM     54  C   UNL A   1      34.675  33.997  31.104  1.00  0.00     0.060 A 
ATOM     55  C   UNL A   1      35.146  32.951  31.888  1.00  0.00     0.016 A 
ATOM     56  C   UNL A   1      35.140  34.206  29.789  1.00  0.00     0.016 A 
ATOM     57  C   UNL A   1      36.285  32.302  31.467  1.00  0.00     0.010 A 
ATOM     58  C   UNL A   1      36.277  33.566  29.372  1.00  0.00     0.010 A 
ATOM     59  C   UNL A   1      36.894  32.715  30.274  1.00  0.00    -0.014 A 
BRANCH  59  60
ATOM     60  C   UNL A   1      38.232  32.245  30.007  1.00  0.00     0.031 A 
ATOM     61  C   UNL A   1      38.265  30.917  29.375  1.00  0.00     0.074 A 
ATOM     62  C   UNL A   1      39.316  32.982  30.310  1.00  0.00     0.049 A 
ATOM     63  N   UNL A   1      38.632  29.808  29.922  1.00  0.00    -0.248 NA
ATOM     64  C   UNL A   1      37.664  30.774  28.043  1.00  0.00     0.031 C 
ATOM     65  C   UNL A   1      39.380  34.397  30.692  1.00  0.00     0.029 A 
ATOM     66  N   UNL A   1      40.624  32.619  30.264  1.00  0.00    -0.354 N 
ATOM     67  C   UNL A   1      38.493  28.847  28.931  1.00  0.00     0.074 A 
ATOM     68  C   UNL A   1      37.731  29.454  27.870  1.00  0.00     0.031 C 
ATOM     69  C   UNL A   1      40.664  34.818  30.624  1.00  0.00     0.029 A 
ATOM     70  C   UNL A   1      41.517  33.678  30.335  1.00  0.00     0.049 A 
ATOM     71  H   UNL A   1      40.914  31.681  30.187  1.00  0.00     0.167 HD
ATOM     72  C   UNL A   1      39.253  27.722  28.957  1.00  0.00     0.037 A 
ATOM     73  C   UNL A   1      42.851  33.609  30.097  1.00  0.00     0.037 A 
ATOM     74  C   UNL A   1      39.804  27.493  30.270  1.00  0.00     0.049 A 
ATOM     75  C   UNL A   1      43.253  32.186  30.247  1.00  0.00     0.074 A 
ATOM     76  C   UNL A   1      39.273  27.247  31.520  1.00  0.00     0.029 A 
ATOM     77  N   UNL A   1      41.106  27.871  30.482  1.00  0.00    -0.354 N 
ATOM     78  N   UNL A   1      43.263  31.548  31.385  1.00  0.00    -0.248 NA
ATOM     79  C   UNL A   1      43.221  31.341  29.063  1.00  0.00     0.031 C 
ATOM     80  C   UNL A   1      40.141  27.911  32.435  1.00  0.00     0.029 A 
ATOM     81  C   UNL A   1      41.182  28.484  31.705  1.00  0.00     0.049 A 
ATOM     82  H   UNL A   1      41.857  27.727  29.862  1.00  0.00     0.167 HD
ATOM     83  C   UNL A   1      42.796  30.278  31.081  1.00  0.00     0.074 A 
ATOM     84  C   UNL A   1      42.889  30.178  29.628  1.00  0.00     0.031 C 
ATOM     85  C   UNL A   1      42.114  29.547  32.010  1.00  0.00     0.037 A 
BRANCH  72  86
ATOM     86  C   UNL A   1      39.830  27.086  27.719  1.00  0.00     0.064 A 
ATOM     87  C   UNL A   1      39.784  25.686  27.592  1.00  0.00     0.173 A 
ATOM     88  C   UNL A   1      40.692  27.755  26.823  1.00  0.00     0.173 A 
ATOM     89  F   UNL A   1      39.018  24.950  28.411  1.00  0.00    -0.203 F 
ATOM     90  C   UNL A   1      40.602  25.003  26.688  1.00  0.00     0.198 A 
ATOM     91  C   UNL A   1      41.464  27.075  25.884  1.00  0.00     0.198 A 
ATOM     92  F   UNL A   1      40.919  29.071  26.892  1.00  0.00    -0.203 F 
ATOM     93  F   UNL A   1      40.625  23.664  26.694  1.00  0.00    -0.200 F 
ATOM     94  C   UNL A   1      41.444  25.699  25.840  1.00  0.00     0.200 A 
ATOM     95  F   UNL A   1      42.290  27.767  25.087  1.00  0.00    -0.200 F 
ATOM     96  F   UNL A   1      42.276  25.045  25.019  1.00  0.00    -0.200 F 
ENDBRANCH  72  86
BRANCH  73  97
ATOM     97  C   UNL A   1      43.713  34.601  29.412  1.00  0.00     0.064 A 
ATOM     98  C   UNL A   1      43.916  34.543  28.023  1.00  0.00     0.173 A 
ATOM     99  C   UNL A   1      44.111  35.792  30.052  1.00  0.00     0.173 A 
ATOM    100  F   UNL A   1      43.524  33.465  27.329  1.00  0.00    -0.203 F 
ATOM    101  C   UNL A   1      44.452  35.624  27.313  1.00  0.00     0.198 A 
ATOM    102  C   UNL A   1      44.653  36.866  29.344  1.00  0.00     0.198 A 
ATOM    103  F   UNL A   1      43.891  35.977  31.361  1.00  0.00    -0.203 F 
ATOM    104  F   UNL A   1      44.565  35.557  25.979  1.00  0.00    -0.200 F 
ATOM    105  C   UNL A   1      44.809  36.787  27.973  1.00  0.00     0.200 A 
ATOM    106  F   UNL A   1      44.958  38.000  29.990  1.00  0.00    -0.200 F 
ATOM    107  F   UNL A   1      45.260  37.846  27.287  1.00  0.00    -0.200 F 
ENDBRANCH  73  97
BRANCH  85 108
ATOM    108  C   UNL A   1      42.167  30.017  33.438  1.00  0.00     0.064 A 
ATOM    109  C   UNL A   1      41.299  30.975  33.989  1.00  0.00     0.173 A 
ATOM    110  C   UNL A   1      43.059  29.377  34.309  1.00  0.00     0.173 A 
ATOM    111  F   UNL A   1      40.352  31.560  33.245  1.00  0.00    -0.203 F 
ATOM    112  C   UNL A   1      41.360  31.309  35.342  1.00  0.00     0.198 A 
ATOM    113  C   UNL A   1      43.090  29.684  35.665  1.00  0.00     0.198 A 
ATOM    114  F   UNL A   1      43.875  28.415  33.848  1.00  0.00    -0.203 F 
ATOM    115  F   UNL A   1      40.536  32.242  35.842  1.00  0.00    -0.200 F 
ATOM    116  C   UNL A   1      42.251  30.658  36.179  1.00  0.00     0.200 A 
ATOM    117  F   UNL A   1      43.919  29.016  36.480  1.00  0.00    -0.200 F 
ATOM    118  F   UNL A   1      42.283  30.950  37.487  1.00  0.00    -0.200 F 
ENDBRANCH  85 108
ENDBRANCH  59  60
ENDBRANCH  52  54
ENDBRANCH  51  52
ENDBRANCH  50  51
ENDBRANCH  49  50
ENDBRANCH  48  49
ENDBRANCH  47  48
ENDBRANCH  46  47
ENDBRANCH  45  46
ENDBRANCH  44  45
ENDBRANCH  43  44
ENDBRANCH  42  43
ENDBRANCH  40  42
ENDBRANCH   1  40
TORSDOF 32
ENDMDL
