MODEL 1
REMARK VINA RESULT:     -10.5      0.000      0.000
REMARK SMILES CC[C@H](C)[C@H](NC(=O)N1CCCCC1)C(=O)OCCOCCOCCOC(=O)c1ccc(-c2c3nc(c(-c4c(F)c(F)c(F)c(F)c4F)c4ccc([nH]4)c(-c4c(F)c(F)c(F)c(F)c4F)c4nc(c(-c5c(F)c(F)c(F)c(F)c5F)c5ccc2[nH]5)C=C4)C=C3)cc1
REMARK SMILES IDX 21 1 20 2 19 3 18 4 17 5 15 6 16 7 5 8 3 9 4 10 2 11 1 12
REMARK SMILES IDX 6 13 7 14 8 16 9 17 10 18 14 19 11 20 13 21 12 22 22 23
REMARK SMILES IDX 23 24 24 25 25 26 26 27 27 28 28 29 29 30 30 31 91 32 31 33
REMARK SMILES IDX 90 34 32 35 33 36 34 37 84 38 35 39 89 40 83 41 85 42 36 43
REMARK SMILES IDX 88 44 82 45 81 46 37 48 69 49 49 50 68 51 50 52 53 53 67 54
REMARK SMILES IDX 86 55 51 56 52 57 66 59 87 60 54 61 38 62 39 63 47 64 40 65
REMARK SMILES IDX 41 66 45 67 48 68 42 69 43 70 46 71 44 72 70 73 71 74 79 75
REMARK SMILES IDX 72 76 73 77 77 78 80 79 74 80 75 81 78 82 76 83 55 84 56 85
REMARK SMILES IDX 64 86 57 87 58 88 62 89 65 90 59 91 60 92 63 93 61 94
REMARK H PARENT 6 15 85 47 53 58
REMARK Flexibility Score: inf
ROOT
ATOM      1  C   UNL A   1      39.739  21.336  26.150  1.00  0.00     0.188 C 
ENDROOT
BRANCH   1   2
ATOM      2  O   UNL A   1      39.057  22.544  26.105  1.00  0.00    -0.376 OA
BRANCH   2   3
ATOM      3  C   UNL A   1      37.763  22.258  25.538  1.00  0.00     0.202 C 
BRANCH   3   4
ATOM      4  C   UNL A   1      36.447  23.071  26.018  1.00  0.00     0.261 C 
BRANCH   4   5
ATOM      5  O   UNL A   1      35.106  22.786  25.415  1.00  0.00    -0.462 OA
BRANCH   5   6
ATOM      6  C   UNL A   1      34.176  21.973  26.077  1.00  0.00     0.329 C 
ATOM      7  O   UNL A   1      34.451  21.327  27.084  1.00  0.00    -0.250 OA
BRANCH   6   8
ATOM      8  C   UNL A   1      32.721  21.982  25.437  1.00  0.00     0.196 C 
BRANCH   8   9
ATOM      9  C   UNL A   1      32.974  21.286  24.006  1.00  0.00     0.019 C 
ATOM     10  C   UNL A   1      32.629  19.798  23.895  1.00  0.00     0.010 C 
BRANCH   9  11
ATOM     11  C   UNL A   1      32.385  22.012  22.742  1.00  0.00     0.002 C 
ATOM     12  C   UNL A   1      33.224  23.166  22.171  1.00  0.00     0.004 C 
ENDBRANCH   9  11
ENDBRANCH   8   9
BRANCH   8  13
ATOM     13  N   UNL A   1      31.835  23.283  25.494  1.00  0.00    -0.324 N 
ATOM     14  C   UNL A   1      31.844  24.471  26.219  1.00  0.00     0.318 C 
ATOM     15  H   UNL A   1      31.086  23.247  24.856  1.00  0.00     0.166 HD
ATOM     16  O   UNL A   1      31.152  24.464  27.247  1.00  0.00    -0.249 OA
ATOM     17  N   UNL A   1      32.282  25.757  25.703  1.00  0.00    -0.325 N 
ATOM     18  C   UNL A   1      31.501  27.181  26.702  1.00  0.00     0.121 C 
ATOM     19  C   UNL A   1      33.696  26.165  24.501  1.00  0.00     0.121 C 
ATOM     20  C   UNL A   1      31.730  29.040  26.042  1.00  0.00     0.022 C 
ATOM     21  C   UNL A   1      33.956  27.971  23.817  1.00  0.00     0.022 C 
ATOM     22  C   UNL A   1      32.715  29.344  24.380  1.00  0.00     0.004 C 
ENDBRANCH   8  13
ENDBRANCH   6   8
ENDBRANCH   5   6
ENDBRANCH   4   5
ENDBRANCH   3   4
ENDBRANCH   2   3
ENDBRANCH   1   2
BRANCH   1  23
ATOM     23  C   UNL A   1      41.269  21.336  26.155  1.00  0.00     0.188 C 
BRANCH  23  24
ATOM     24  O   UNL A   1      41.903  20.282  26.845  1.00  0.00    -0.376 OA
BRANCH  24  25
ATOM     25  C   UNL A   1      41.928  19.031  26.159  1.00  0.00     0.202 C 
BRANCH  25  26
ATOM     26  C   UNL A   1      43.274  18.293  26.018  1.00  0.00     0.261 C 
BRANCH  26  27
ATOM     27  O   UNL A   1      43.788  18.236  24.641  1.00  0.00    -0.460 OA
BRANCH  27  28
ATOM     28  C   UNL A   1      44.555  19.352  24.094  1.00  0.00     0.338 C 
ATOM     29  O   UNL A   1      45.043  18.846  23.051  1.00  0.00    -0.246 OA
BRANCH  28  30
ATOM     30  C   UNL A   1      44.811  21.235  24.907  1.00  0.00     0.060 A 
ATOM     31  C   UNL A   1      44.629  22.568  24.230  1.00  0.00     0.016 A 
ATOM     32  C   UNL A   1      45.211  21.659  26.276  1.00  0.00     0.016 A 
ATOM     33  C   UNL A   1      44.855  23.865  24.695  1.00  0.00     0.010 A 
ATOM     34  C   UNL A   1      45.321  22.961  26.815  1.00  0.00     0.010 A 
ATOM     35  C   UNL A   1      45.186  24.062  26.004  1.00  0.00    -0.014 A 
BRANCH  35  36
ATOM     36  C   UNL A   1      45.482  25.407  26.479  1.00  0.00     0.031 A 
ATOM     37  C   UNL A   1      44.371  26.184  27.104  1.00  0.00     0.074 A 
ATOM     38  C   UNL A   1      46.740  25.859  26.363  1.00  0.00     0.049 A 
ATOM     39  N   UNL A   1      44.350  27.431  27.474  1.00  0.00    -0.248 NA
ATOM     40  C   UNL A   1      43.096  25.470  27.310  1.00  0.00     0.031 C 
ATOM     41  C   UNL A   1      47.864  25.099  25.803  1.00  0.00     0.029 A 
ATOM     42  N   UNL A   1      47.289  27.055  26.713  1.00  0.00    -0.354 N 
ATOM     43  C   UNL A   1      43.054  27.664  27.909  1.00  0.00     0.074 A 
ATOM     44  C   UNL A   1      42.304  26.445  27.726  1.00  0.00     0.031 C 
ATOM     45  C   UNL A   1      48.975  25.844  25.871  1.00  0.00     0.029 A 
ATOM     46  C   UNL A   1      48.618  27.154  26.393  1.00  0.00     0.049 A 
ATOM     47  H   UNL A   1      46.782  27.777  27.151  1.00  0.00     0.167 HD
ATOM     48  C   UNL A   1      42.557  28.811  28.420  1.00  0.00     0.037 A 
ATOM     49  C   UNL A   1      49.434  28.216  26.476  1.00  0.00     0.037 A 
ATOM     50  C   UNL A   1      43.369  29.984  28.600  1.00  0.00     0.049 A 
ATOM     51  C   UNL A   1      48.839  29.489  27.008  1.00  0.00     0.074 A 
ATOM     52  C   UNL A   1      43.013  31.211  29.122  1.00  0.00     0.029 A 
ATOM     53  N   UNL A   1      44.715  30.064  28.255  1.00  0.00    -0.354 N 
ATOM     54  N   UNL A   1      47.611  29.720  27.415  1.00  0.00    -0.248 NA
ATOM     55  C   UNL A   1      49.732  30.645  27.092  1.00  0.00     0.031 C 
ATOM     56  C   UNL A   1      44.125  32.053  29.028  1.00  0.00     0.029 A 
ATOM     57  C   UNL A   1      45.199  31.330  28.526  1.00  0.00     0.049 A 
ATOM     58  H   UNL A   1      45.245  29.325  27.875  1.00  0.00     0.167 HD
ATOM     59  C   UNL A   1      47.588  31.040  27.831  1.00  0.00     0.074 A 
ATOM     60  C   UNL A   1      48.935  31.549  27.643  1.00  0.00     0.031 C 
ATOM     61  C   UNL A   1      46.557  31.775  28.321  1.00  0.00     0.037 A 
BRANCH  48  62
ATOM     62  C   UNL A   1      41.097  28.853  28.761  1.00  0.00     0.064 A 
ATOM     63  C   UNL A   1      40.617  28.573  30.050  1.00  0.00     0.173 A 
ATOM     64  C   UNL A   1      40.156  29.179  27.773  1.00  0.00     0.173 A 
ATOM     65  F   UNL A   1      41.467  28.227  31.029  1.00  0.00    -0.203 F 
ATOM     66  C   UNL A   1      39.252  28.594  30.329  1.00  0.00     0.198 A 
ATOM     67  C   UNL A   1      38.796  29.235  28.064  1.00  0.00     0.198 A 
ATOM     68  F   UNL A   1      40.554  29.440  26.519  1.00  0.00    -0.203 F 
ATOM     69  F   UNL A   1      38.815  28.264  31.552  1.00  0.00    -0.200 F 
ATOM     70  C   UNL A   1      38.343  28.935  29.338  1.00  0.00     0.200 A 
ATOM     71  F   UNL A   1      37.921  29.573  27.106  1.00  0.00    -0.200 F 
ATOM     72  F   UNL A   1      37.031  28.964  29.611  1.00  0.00    -0.200 F 
ENDBRANCH  48  62
BRANCH  49  73
ATOM     73  C   UNL A   1      50.848  28.112  26.039  1.00  0.00     0.064 A 
ATOM     74  C   UNL A   1      51.876  27.913  26.969  1.00  0.00     0.173 A 
ATOM     75  C   UNL A   1      51.203  28.181  24.682  1.00  0.00     0.173 A 
ATOM     76  F   UNL A   1      51.590  27.841  28.277  1.00  0.00    -0.203 F 
ATOM     77  C   UNL A   1      53.205  27.816  26.564  1.00  0.00     0.198 A 
ATOM     78  C   UNL A   1      52.529  28.047  24.274  1.00  0.00     0.198 A 
ATOM     79  F   UNL A   1      50.258  28.352  23.745  1.00  0.00    -0.203 F 
ATOM     80  F   UNL A   1      54.173  27.674  27.480  1.00  0.00    -0.200 F 
ATOM     81  C   UNL A   1      53.531  27.877  25.216  1.00  0.00     0.200 A 
ATOM     82  F   UNL A   1      52.833  28.079  22.970  1.00  0.00    -0.200 F 
ATOM     83  F   UNL A   1      54.808  27.777  24.828  1.00  0.00    -0.200 F 
ENDBRANCH  49  73
BRANCH  61  84
ATOM     84  C   UNL A   1      46.876  33.181  28.727  1.00  0.00     0.064 A 
ATOM     85  C   UNL A   1      47.329  33.493  30.015  1.00  0.00     0.173 A 
ATOM     86  C   UNL A   1      46.753  34.222  27.795  1.00  0.00     0.173 A 
ATOM     87  F   UNL A   1      47.446  32.531  30.943  1.00  0.00    -0.203 F 
ATOM     88  C   UNL A   1      47.613  34.808  30.369  1.00  0.00     0.198 A 
ATOM     89  C   UNL A   1      47.081  35.528  28.139  1.00  0.00     0.198 A 
ATOM     90  F   UNL A   1      46.332  33.970  26.546  1.00  0.00    -0.203 F 
ATOM     91  F   UNL A   1      47.977  35.095  31.625  1.00  0.00    -0.200 F 
ATOM     92  C   UNL A   1      47.498  35.821  29.429  1.00  0.00     0.200 A 
ATOM     93  F   UNL A   1      46.992  36.502  27.223  1.00  0.00    -0.200 F 
ATOM     94  F   UNL A   1      47.782  37.085  29.769  1.00  0.00    -0.200 F 
ENDBRANCH  61  84
ENDBRANCH  35  36
ENDBRANCH  28  30
ENDBRANCH  27  28
ENDBRANCH  26  27
ENDBRANCH  25  26
ENDBRANCH  24  25
ENDBRANCH  23  24
ENDBRANCH   1  23
TORSDOF 20
ENDMDL
MODEL 2
REMARK VINA RESULT:     -10.5      6.804     12.072
REMARK SMILES CC[C@H](C)[C@H](NC(=O)N1CCCCC1)C(=O)OCCOCCOCCOC(=O)c1ccc(-c2c3nc(c(-c4c(F)c(F)c(F)c(F)c4F)c4ccc([nH]4)c(-c4c(F)c(F)c(F)c(F)c4F)c4nc(c(-c5c(F)c(F)c(F)c(F)c5F)c5ccc2[nH]5)C=C4)C=C3)cc1
REMARK SMILES IDX 21 1 20 2 19 3 18 4 17 5 15 6 16 7 5 8 3 9 4 10 2 11 1 12
REMARK SMILES IDX 6 13 7 14 8 16 9 17 10 18 14 19 11 20 13 21 12 22 22 23
REMARK SMILES IDX 23 24 24 25 25 26 26 27 27 28 28 29 29 30 30 31 91 32 31 33
REMARK SMILES IDX 90 34 32 35 33 36 34 37 84 38 35 39 89 40 83 41 85 42 36 43
REMARK SMILES IDX 88 44 82 45 81 46 37 48 69 49 49 50 68 51 50 52 53 53 67 54
REMARK SMILES IDX 86 55 51 56 52 57 66 59 87 60 54 61 38 62 39 63 47 64 40 65
REMARK SMILES IDX 41 66 45 67 48 68 42 69 43 70 46 71 44 72 70 73 71 74 79 75
REMARK SMILES IDX 72 76 73 77 77 78 80 79 74 80 75 81 78 82 76 83 55 84 56 85
REMARK SMILES IDX 64 86 57 87 58 88 62 89 65 90 59 91 60 92 63 93 61 94
REMARK H PARENT 6 15 85 47 53 58
REMARK Flexibility Score: inf
ROOT
ATOM      1  C   UNL A   1      34.168  32.804  28.025  1.00  0.00     0.188 C 
ENDROOT
BRANCH   1   2
ATOM      2  O   UNL A   1      34.221  31.464  28.382  1.00  0.00    -0.376 OA
BRANCH   2   3
ATOM      3  C   UNL A   1      33.799  30.719  27.223  1.00  0.00     0.202 C 
BRANCH   3   4
ATOM      4  C   UNL A   1      32.226  30.475  26.918  1.00  0.00     0.261 C 
BRANCH   4   5
ATOM      5  O   UNL A   1      31.781  29.351  26.034  1.00  0.00    -0.462 OA
BRANCH   5   6
ATOM      6  C   UNL A   1      31.705  28.038  26.521  1.00  0.00     0.329 C 
ATOM      7  O   UNL A   1      31.415  27.773  27.684  1.00  0.00    -0.250 OA
BRANCH   6   8
ATOM      8  C   UNL A   1      31.991  26.917  25.431  1.00  0.00     0.196 C 
BRANCH   8   9
ATOM      9  C   UNL A   1      30.947  27.300  24.265  1.00  0.00     0.019 C 
ATOM     10  C   UNL A   1      31.484  27.294  22.831  1.00  0.00     0.010 C 
BRANCH   9  11
ATOM     11  C   UNL A   1      29.566  26.549  24.265  1.00  0.00     0.002 C 
ATOM     12  C   UNL A   1      28.394  27.285  23.595  1.00  0.00     0.004 C 
ENDBRANCH   9  11
ENDBRANCH   8   9
BRANCH   8  13
ATOM     13  N   UNL A   1      32.119  25.407  25.859  1.00  0.00    -0.324 N 
ATOM     14  C   UNL A   1      32.237  24.185  25.203  1.00  0.00     0.318 C 
ATOM     15  H   UNL A   1      32.115  25.300  26.838  1.00  0.00     0.166 HD
ATOM     16  O   UNL A   1      31.167  23.596  24.994  1.00  0.00    -0.249 OA
ATOM     17  N   UNL A   1      33.468  23.423  25.079  1.00  0.00    -0.325 N 
ATOM     18  C   UNL A   1      33.086  21.580  24.770  1.00  0.00     0.121 C 
ATOM     19  C   UNL A   1      35.253  24.030  24.838  1.00  0.00     0.121 C 
ATOM     20  C   UNL A   1      34.587  20.280  24.821  1.00  0.00     0.022 C 
ATOM     21  C   UNL A   1      36.759  22.795  24.890  1.00  0.00     0.022 C 
ATOM     22  C   UNL A   1      36.391  20.924  25.217  1.00  0.00     0.004 C 
ENDBRANCH   8  13
ENDBRANCH   6   8
ENDBRANCH   5   6
ENDBRANCH   4   5
ENDBRANCH   3   4
ENDBRANCH   2   3
ENDBRANCH   1   2
BRANCH   1  23
ATOM     23  C   UNL A   1      33.955  33.864  29.108  1.00  0.00     0.188 C 
BRANCH  23  24
ATOM     24  O   UNL A   1      33.031  34.889  28.821  1.00  0.00    -0.376 OA
BRANCH  24  25
ATOM     25  C   UNL A   1      33.571  36.210  28.797  1.00  0.00     0.202 C 
BRANCH  25  26
ATOM     26  C   UNL A   1      33.246  37.163  29.964  1.00  0.00     0.261 C 
BRANCH  26  27
ATOM     27  O   UNL A   1      32.080  36.757  30.765  1.00  0.00    -0.460 OA
BRANCH  27  28
ATOM     28  C   UNL A   1      32.265  36.047  32.028  1.00  0.00     0.338 C 
ATOM     29  O   UNL A   1      31.185  36.290  32.624  1.00  0.00    -0.246 OA
BRANCH  28  30
ATOM     30  C   UNL A   1      33.929  34.997  32.662  1.00  0.00     0.060 A 
ATOM     31  C   UNL A   1      35.374  35.414  32.580  1.00  0.00     0.016 A 
ATOM     32  C   UNL A   1      34.051  33.663  33.309  1.00  0.00     0.016 A 
ATOM     33  C   UNL A   1      36.542  34.728  32.918  1.00  0.00     0.010 A 
ATOM     34  C   UNL A   1      35.204  32.998  33.782  1.00  0.00     0.010 A 
ATOM     35  C   UNL A   1      36.453  33.518  33.541  1.00  0.00    -0.014 A 
BRANCH  35  36
ATOM     36  C   UNL A   1      37.668  32.770  33.842  1.00  0.00     0.031 A 
ATOM     37  C   UNL A   1      38.330  33.019  35.156  1.00  0.00     0.074 A 
ATOM     38  C   UNL A   1      38.102  31.876  32.940  1.00  0.00     0.049 A 
ATOM     39  N   UNL A   1      39.477  32.585  35.591  1.00  0.00    -0.248 NA
ATOM     40  C   UNL A   1      37.621  33.905  36.099  1.00  0.00     0.031 C 
ATOM     41  C   UNL A   1      37.443  31.572  31.664  1.00  0.00     0.029 A 
ATOM     42  N   UNL A   1      39.190  31.056  32.956  1.00  0.00    -0.354 N 
ATOM     43  C   UNL A   1      39.650  33.181  36.831  1.00  0.00     0.074 A 
ATOM     44  C   UNL A   1      38.511  34.036  37.069  1.00  0.00     0.031 C 
ATOM     45  C   UNL A   1      38.131  30.612  31.032  1.00  0.00     0.029 A 
ATOM     46  C   UNL A   1      39.317  30.306  31.817  1.00  0.00     0.049 A 
ATOM     47  H   UNL A   1      39.821  31.008  33.711  1.00  0.00     0.167 HD
ATOM     48  C   UNL A   1      40.682  33.009  37.684  1.00  0.00     0.037 A 
ATOM     49  C   UNL A   1      40.321  29.497  31.442  1.00  0.00     0.037 A 
ATOM     50  C   UNL A   1      41.774  32.120  37.394  1.00  0.00     0.049 A 
ATOM     51  C   UNL A   1      41.475  29.360  32.394  1.00  0.00     0.074 A 
ATOM     52  C   UNL A   1      42.879  31.826  38.167  1.00  0.00     0.029 A 
ATOM     53  N   UNL A   1      41.888  31.377  36.222  1.00  0.00    -0.354 N 
ATOM     54  N   UNL A   1      41.650  29.927  33.567  1.00  0.00    -0.248 NA
ATOM     55  C   UNL A   1      42.567  28.482  31.978  1.00  0.00     0.031 C 
ATOM     56  C   UNL A   1      43.695  30.960  37.433  1.00  0.00     0.029 A 
ATOM     57  C   UNL A   1      43.062  30.646  36.237  1.00  0.00     0.049 A 
ATOM     58  H   UNL A   1      41.229  31.373  35.491  1.00  0.00     0.167 HD
ATOM     59  C   UNL A   1      42.859  29.453  34.045  1.00  0.00     0.074 A 
ATOM     60  C   UNL A   1      43.361  28.535  33.038  1.00  0.00     0.031 C 
ATOM     61  C   UNL A   1      43.505  29.742  35.203  1.00  0.00     0.037 A 
BRANCH  48  62
ATOM     62  C   UNL A   1      40.691  33.816  38.948  1.00  0.00     0.064 A 
ATOM     63  C   UNL A   1      41.426  35.006  39.076  1.00  0.00     0.173 A 
ATOM     64  C   UNL A   1      39.948  33.388  40.058  1.00  0.00     0.173 A 
ATOM     65  F   UNL A   1      42.178  35.449  38.058  1.00  0.00    -0.203 F 
ATOM     66  C   UNL A   1      41.435  35.719  40.273  1.00  0.00     0.198 A 
ATOM     67  C   UNL A   1      39.930  34.123  41.240  1.00  0.00     0.198 A 
ATOM     68  F   UNL A   1      39.238  32.251  40.000  1.00  0.00    -0.203 F 
ATOM     69  F   UNL A   1      42.193  36.818  40.389  1.00  0.00    -0.200 F 
ATOM     70  C   UNL A   1      40.679  35.283  41.351  1.00  0.00     0.200 A 
ATOM     71  F   UNL A   1      39.191  33.703  42.277  1.00  0.00    -0.200 F 
ATOM     72  F   UNL A   1      40.681  35.976  42.498  1.00  0.00    -0.200 F 
ENDBRANCH  48  62
BRANCH  49  73
ATOM     73  C   UNL A   1      40.271  28.798  30.134  1.00  0.00     0.064 A 
ATOM     74  C   UNL A   1      40.877  29.351  28.999  1.00  0.00     0.173 A 
ATOM     75  C   UNL A   1      39.642  27.550  29.993  1.00  0.00     0.173 A 
ATOM     76  F   UNL A   1      41.489  30.541  29.081  1.00  0.00    -0.203 F 
ATOM     77  C   UNL A   1      40.832  28.699  27.769  1.00  0.00     0.198 A 
ATOM     78  C   UNL A   1      39.629  26.882  28.770  1.00  0.00     0.198 A 
ATOM     79  F   UNL A   1      39.061  26.964  31.051  1.00  0.00    -0.203 F 
ATOM     80  F   UNL A   1      41.377  29.275  26.689  1.00  0.00    -0.200 F 
ATOM     81  C   UNL A   1      40.213  27.463  27.656  1.00  0.00     0.200 A 
ATOM     82  F   UNL A   1      39.054  25.675  28.674  1.00  0.00    -0.200 F 
ATOM     83  F   UNL A   1      40.176  26.834  26.473  1.00  0.00    -0.200 F 
ENDBRANCH  49  73
BRANCH  61  84
ATOM     84  C   UNL A   1      44.792  29.016  35.446  1.00  0.00     0.064 A 
ATOM     85  C   UNL A   1      46.026  29.546  35.045  1.00  0.00     0.173 A 
ATOM     86  C   UNL A   1      44.785  27.785  36.117  1.00  0.00     0.173 A 
ATOM     87  F   UNL A   1      46.079  30.713  34.385  1.00  0.00    -0.203 F 
ATOM     88  C   UNL A   1      47.207  28.849  35.277  1.00  0.00     0.198 A 
ATOM     89  C   UNL A   1      45.971  27.114  36.387  1.00  0.00     0.198 A 
ATOM     90  F   UNL A   1      43.628  27.242  36.528  1.00  0.00    -0.203 F 
ATOM     91  F   UNL A   1      48.369  29.340  34.825  1.00  0.00    -0.200 F 
ATOM     92  C   UNL A   1      47.179  27.640  35.955  1.00  0.00     0.200 A 
ATOM     93  F   UNL A   1      45.944  25.957  37.063  1.00  0.00    -0.200 F 
ATOM     94  F   UNL A   1      48.319  26.975  36.186  1.00  0.00    -0.200 F 
ENDBRANCH  61  84
ENDBRANCH  35  36
ENDBRANCH  28  30
ENDBRANCH  27  28
ENDBRANCH  26  27
ENDBRANCH  25  26
ENDBRANCH  24  25
ENDBRANCH  23  24
ENDBRANCH   1  23
TORSDOF 20
ENDMDL
MODEL 3
REMARK VINA RESULT:     -10.3      5.720     10.945
REMARK SMILES CC[C@H](C)[C@H](NC(=O)N1CCCCC1)C(=O)OCCOCCOCCOC(=O)c1ccc(-c2c3nc(c(-c4c(F)c(F)c(F)c(F)c4F)c4ccc([nH]4)c(-c4c(F)c(F)c(F)c(F)c4F)c4nc(c(-c5c(F)c(F)c(F)c(F)c5F)c5ccc2[nH]5)C=C4)C=C3)cc1
REMARK SMILES IDX 21 1 20 2 19 3 18 4 17 5 15 6 16 7 5 8 3 9 4 10 2 11 1 12
REMARK SMILES IDX 6 13 7 14 8 16 9 17 10 18 14 19 11 20 13 21 12 22 22 23
REMARK SMILES IDX 23 24 24 25 25 26 26 27 27 28 28 29 29 30 30 31 91 32 31 33
REMARK SMILES IDX 90 34 32 35 33 36 34 37 84 38 35 39 89 40 83 41 85 42 36 43
REMARK SMILES IDX 88 44 82 45 81 46 37 48 69 49 49 50 68 51 50 52 53 53 67 54
REMARK SMILES IDX 86 55 51 56 52 57 66 59 87 60 54 61 38 62 39 63 47 64 40 65
REMARK SMILES IDX 41 66 45 67 48 68 42 69 43 70 46 71 44 72 70 73 71 74 79 75
REMARK SMILES IDX 72 76 73 77 77 78 80 79 74 80 75 81 78 82 76 83 55 84 56 85
REMARK SMILES IDX 64 86 57 87 58 88 62 89 65 90 59 91 60 92 63 93 61 94
REMARK H PARENT 6 15 85 47 53 58
REMARK Flexibility Score: inf
ROOT
ATOM      1  C   UNL A   1      30.288  26.358  23.615  1.00  0.00     0.188 C 
ENDROOT
BRANCH   1   2
ATOM      2  O   UNL A   1      29.183  25.948  24.349  1.00  0.00    -0.376 OA
BRANCH   2   3
ATOM      3  C   UNL A   1      29.635  25.788  25.708  1.00  0.00     0.202 C 
BRANCH   3   4
ATOM      4  C   UNL A   1      30.477  24.479  26.155  1.00  0.00     0.261 C 
BRANCH   4   5
ATOM      5  O   UNL A   1      31.751  24.614  26.932  1.00  0.00    -0.462 OA
BRANCH   5   6
ATOM      6  C   UNL A   1      32.965  24.882  26.284  1.00  0.00     0.329 C 
ATOM      7  O   UNL A   1      33.382  26.021  26.093  1.00  0.00    -0.250 OA
BRANCH   6   8
ATOM      8  C   UNL A   1      33.778  23.587  25.848  1.00  0.00     0.196 C 
BRANCH   8   9
ATOM      9  C   UNL A   1      34.160  23.924  24.320  1.00  0.00     0.019 C 
ATOM     10  C   UNL A   1      35.340  23.154  23.720  1.00  0.00     0.010 C 
BRANCH   9  11
ATOM     11  C   UNL A   1      32.991  23.907  23.269  1.00  0.00     0.002 C 
ATOM     12  C   UNL A   1      32.957  22.705  22.311  1.00  0.00     0.004 C 
ENDBRANCH   9  11
ENDBRANCH   8   9
BRANCH   8  13
ATOM     13  N   UNL A   1      33.228  22.152  26.188  1.00  0.00    -0.324 N 
ATOM     14  C   UNL A   1      32.770  21.055  25.462  1.00  0.00     0.318 C 
ATOM     15  H   UNL A   1      33.201  21.988  27.158  1.00  0.00     0.166 HD
ATOM     16  O   UNL A   1      31.545  21.021  25.281  1.00  0.00    -0.249 OA
ATOM     17  N   UNL A   1      33.527  19.837  25.231  1.00  0.00    -0.325 N 
ATOM     18  C   UNL A   1      32.353  18.384  24.846  1.00  0.00     0.121 C 
ATOM     19  C   UNL A   1      35.388  19.602  24.926  1.00  0.00     0.121 C 
ATOM     20  C   UNL A   1      33.115  16.552  24.745  1.00  0.00     0.022 C 
ATOM     21  C   UNL A   1      36.183  17.826  24.830  1.00  0.00     0.022 C 
ATOM     22  C   UNL A   1      35.026  16.296  25.076  1.00  0.00     0.004 C 
ENDBRANCH   8  13
ENDBRANCH   6   8
ENDBRANCH   5   6
ENDBRANCH   4   5
ENDBRANCH   3   4
ENDBRANCH   2   3
ENDBRANCH   1   2
BRANCH   1  23
ATOM     23  C   UNL A   1      30.847  27.767  23.821  1.00  0.00     0.188 C 
BRANCH  23  24
ATOM     24  O   UNL A   1      32.223  27.948  23.573  1.00  0.00    -0.376 OA
BRANCH  24  25
ATOM     25  C   UNL A   1      32.821  29.061  24.235  1.00  0.00     0.202 C 
BRANCH  25  26
ATOM     26  C   UNL A   1      32.378  29.391  25.674  1.00  0.00     0.261 C 
BRANCH  26  27
ATOM     27  O   UNL A   1      32.015  30.801  25.884  1.00  0.00    -0.460 OA
BRANCH  27  28
ATOM     28  C   UNL A   1      32.733  31.607  26.868  1.00  0.00     0.338 C 
ATOM     29  O   UNL A   1      31.999  32.625  26.956  1.00  0.00    -0.246 OA
BRANCH  28  30
ATOM     30  C   UNL A   1      34.533  31.180  27.789  1.00  0.00     0.060 A 
ATOM     31  C   UNL A   1      34.999  29.859  28.343  1.00  0.00     0.016 A 
ATOM     32  C   UNL A   1      35.705  32.047  28.089  1.00  0.00     0.016 A 
ATOM     33  C   UNL A   1      36.162  29.520  29.037  1.00  0.00     0.010 A 
ATOM     34  C   UNL A   1      36.946  31.707  28.672  1.00  0.00     0.010 A 
ATOM     35  C   UNL A   1      37.150  30.449  29.186  1.00  0.00    -0.014 A 
BRANCH  35  36
ATOM     36  C   UNL A   1      38.339  30.120  29.962  1.00  0.00     0.031 A 
ATOM     37  C   UNL A   1      39.348  29.215  29.338  1.00  0.00     0.074 A 
ATOM     38  C   UNL A   1      38.479  30.676  31.175  1.00  0.00     0.049 A 
ATOM     39  N   UNL A   1      40.406  28.675  29.871  1.00  0.00    -0.248 NA
ATOM     40  C   UNL A   1      39.120  28.837  27.930  1.00  0.00     0.031 C 
ATOM     41  C   UNL A   1      37.530  31.611  31.793  1.00  0.00     0.029 A 
ATOM     42  N   UNL A   1      39.468  30.545  32.103  1.00  0.00    -0.354 N 
ATOM     43  C   UNL A   1      40.939  27.859  28.884  1.00  0.00     0.074 A 
ATOM     44  C   UNL A   1      40.074  27.942  27.732  1.00  0.00     0.031 C 
ATOM     45  C   UNL A   1      38.000  31.988  32.989  1.00  0.00     0.029 A 
ATOM     46  C   UNL A   1      39.228  31.253  33.252  1.00  0.00     0.049 A 
ATOM     47  H   UNL A   1      40.274  29.998  31.962  1.00  0.00     0.167 HD
ATOM     48  C   UNL A   1      42.063  27.114  28.959  1.00  0.00     0.037 A 
ATOM     49  C   UNL A   1      39.915  31.256  34.405  1.00  0.00     0.037 A 
ATOM     50  C   UNL A   1      42.894  27.098  30.132  1.00  0.00     0.049 A 
ATOM     51  C   UNL A   1      41.136  30.384  34.470  1.00  0.00     0.074 A 
ATOM     52  C   UNL A   1      44.071  26.411  30.349  1.00  0.00     0.029 A 
ATOM     53  N   UNL A   1      42.621  27.816  31.293  1.00  0.00    -0.354 N 
ATOM     54  N   UNL A   1      41.643  29.602  33.544  1.00  0.00    -0.248 NA
ATOM     55  C   UNL A   1      41.878  30.388  35.731  1.00  0.00     0.031 C 
ATOM     56  C   UNL A   1      44.472  26.659  31.665  1.00  0.00     0.029 A 
ATOM     57  C   UNL A   1      43.593  27.565  32.243  1.00  0.00     0.049 A 
ATOM     58  H   UNL A   1      41.850  28.415  31.418  1.00  0.00     0.167 HD
ATOM     59  C   UNL A   1      42.781  29.041  34.097  1.00  0.00     0.074 A 
ATOM     60  C   UNL A   1      42.896  29.593  35.436  1.00  0.00     0.031 C 
ATOM     61  C   UNL A   1      43.655  28.152  33.561  1.00  0.00     0.037 A 
BRANCH  48  62
ATOM     62  C   UNL A   1      42.410  26.249  27.785  1.00  0.00     0.064 A 
ATOM     63  C   UNL A   1      41.906  24.947  27.633  1.00  0.00     0.173 A 
ATOM     64  C   UNL A   1      43.272  26.733  26.788  1.00  0.00     0.173 A 
ATOM     65  F   UNL A   1      41.102  24.420  28.568  1.00  0.00    -0.203 F 
ATOM     66  C   UNL A   1      42.270  24.158  26.544  1.00  0.00     0.198 A 
ATOM     67  C   UNL A   1      43.603  25.955  25.682  1.00  0.00     0.198 A 
ATOM     68  F   UNL A   1      43.797  27.963  26.886  1.00  0.00    -0.203 F 
ATOM     69  F   UNL A   1      41.823  22.897  26.454  1.00  0.00    -0.200 F 
ATOM     70  C   UNL A   1      43.110  24.666  25.564  1.00  0.00     0.200 A 
ATOM     71  F   UNL A   1      44.409  26.452  24.733  1.00  0.00    -0.200 F 
ATOM     72  F   UNL A   1      43.451  23.909  24.512  1.00  0.00    -0.200 F 
ENDBRANCH  48  62
BRANCH  49  73
ATOM     73  C   UNL A   1      39.454  32.080  35.549  1.00  0.00     0.064 A 
ATOM     74  C   UNL A   1      39.910  33.394  35.719  1.00  0.00     0.173 A 
ATOM     75  C   UNL A   1      38.530  31.586  36.484  1.00  0.00     0.173 A 
ATOM     76  F   UNL A   1      40.794  33.912  34.855  1.00  0.00    -0.203 F 
ATOM     77  C   UNL A   1      39.481  34.171  36.793  1.00  0.00     0.198 A 
ATOM     78  C   UNL A   1      38.075  32.377  37.537  1.00  0.00     0.198 A 
ATOM     79  F   UNL A   1      38.046  30.341  36.361  1.00  0.00    -0.203 F 
ATOM     80  F   UNL A   1      39.971  35.408  36.958  1.00  0.00    -0.200 F 
ATOM     81  C   UNL A   1      38.560  33.665  37.699  1.00  0.00     0.200 A 
ATOM     82  F   UNL A   1      37.163  31.892  38.392  1.00  0.00    -0.200 F 
ATOM     83  F   UNL A   1      38.144  34.416  38.727  1.00  0.00    -0.200 F 
ENDBRANCH  49  73
BRANCH  61  84
ATOM     84  C   UNL A   1      44.826  27.772  34.416  1.00  0.00     0.064 A 
ATOM     85  C   UNL A   1      44.773  26.686  35.299  1.00  0.00     0.173 A 
ATOM     86  C   UNL A   1      46.024  28.494  34.321  1.00  0.00     0.173 A 
ATOM     87  F   UNL A   1      43.642  25.977  35.434  1.00  0.00    -0.203 F 
ATOM     88  C   UNL A   1      45.871  26.357  36.087  1.00  0.00     0.198 A 
ATOM     89  C   UNL A   1      47.134  28.135  35.076  1.00  0.00     0.198 A 
ATOM     90  F   UNL A   1      46.125  29.537  33.482  1.00  0.00    -0.203 F 
ATOM     91  F   UNL A   1      45.779  25.359  36.974  1.00  0.00    -0.200 F 
ATOM     92  C   UNL A   1      47.052  27.075  35.967  1.00  0.00     0.200 A 
ATOM     93  F   UNL A   1      48.280  28.814  34.943  1.00  0.00    -0.200 F 
ATOM     94  F   UNL A   1      48.112  26.750  36.719  1.00  0.00    -0.200 F 
ENDBRANCH  61  84
ENDBRANCH  35  36
ENDBRANCH  28  30
ENDBRANCH  27  28
ENDBRANCH  26  27
ENDBRANCH  25  26
ENDBRANCH  24  25
ENDBRANCH  23  24
ENDBRANCH   1  23
TORSDOF 20
ENDMDL
