MODEL 1
REMARK VINA RESULT:     -10.8      0.000      0.000
REMARK SMILES CS(=O)(=O)c1ccc(N2N=C(C(=O)OCCOCCOCCOC(=O)c3ccc(-c4c5nc(c(-c6c(F)c(F)c(F)c(F)c6F)c6ccc([nH]6)c(-c6c(F)c(F)c(F)c(F)c6F)c6nc(c(-c7c(F)c(F)c(F)c(F)c7F)c7ccc4[nH]7)C=C6)C=C5)cc3)C[C@H]2c2ccco2)cc1
REMARK SMILES IDX 18 1 17 2 16 3 15 4 14 5 12 6 13 7 11 8 9 9 10 10 90 11
REMARK SMILES IDX 89 12 8 13 5 14 6 15 97 16 7 17 96 18 2 19 1 20 3 21 4 22
REMARK SMILES IDX 91 23 92 24 95 25 93 26 94 27 19 28 20 29 21 30 22 31 23 32
REMARK SMILES IDX 24 33 25 34 26 35 27 36 88 37 28 38 87 39 29 40 30 41 31 42
REMARK SMILES IDX 81 43 32 44 86 45 80 46 82 47 33 48 85 49 79 50 78 51 34 53
REMARK SMILES IDX 66 54 46 55 65 56 47 57 50 58 64 59 83 60 48 61 49 62 63 64
REMARK SMILES IDX 84 65 51 66 35 67 36 68 44 69 37 70 38 71 42 72 45 73 39 74
REMARK SMILES IDX 40 75 43 76 41 77 67 78 68 79 76 80 69 81 70 82 74 83 77 84
REMARK SMILES IDX 71 85 72 86 75 87 73 88 52 89 53 90 61 91 54 92 55 93 59 94
REMARK SMILES IDX 62 95 56 96 57 97 60 98 58 99
REMARK H PARENT 82 52 50 63
REMARK Flexibility Score: inf
ROOT
ATOM      1  C   UNL A   1      34.418  32.026  28.747  1.00  0.00     0.188 C 
ENDROOT
BRANCH   1   2
ATOM      2  O   UNL A   1      34.794  30.707  28.391  1.00  0.00    -0.376 OA
BRANCH   2   3
ATOM      3  C   UNL A   1      34.490  30.201  27.098  1.00  0.00     0.202 C 
BRANCH   3   4
ATOM      4  C   UNL A   1      33.122  29.571  26.788  1.00  0.00     0.261 C 
BRANCH   4   5
ATOM      5  O   UNL A   1      33.085  28.141  26.895  1.00  0.00    -0.459 OA
BRANCH   5   6
ATOM      6  C   UNL A   1      31.885  27.606  27.201  1.00  0.00     0.354 C 
ATOM      7  O   UNL A   1      31.068  28.011  28.006  1.00  0.00    -0.245 OA
BRANCH   6   8
ATOM      8  C   UNL A   1      31.597  26.456  26.266  1.00  0.00     0.148 C 
ATOM      9  N   UNL A   1      31.664  24.543  25.362  1.00  0.00    -0.254 N 
ATOM     10  N   UNL A   1      32.081  25.261  26.447  1.00  0.00    -0.169 NA
ATOM     11  C   UNL A   1      31.094  25.403  24.303  1.00  0.00     0.180 C 
ATOM     12  C   UNL A   1      30.639  26.615  25.129  1.00  0.00     0.101 C 
BRANCH   9  13
ATOM     13  C   UNL A   1      32.135  23.252  25.160  1.00  0.00     0.060 A 
ATOM     14  C   UNL A   1      32.920  20.552  24.904  1.00  0.00     0.067 A 
ATOM     15  C   UNL A   1      33.360  21.299  25.996  1.00  0.00     0.022 A 
ATOM     16  C   UNL A   1      32.155  21.159  23.906  1.00  0.00     0.022 A 
ATOM     17  C   UNL A   1      32.967  22.643  26.113  1.00  0.00     0.029 A 
ATOM     18  C   UNL A   1      31.785  22.500  24.033  1.00  0.00     0.029 A 
BRANCH  14  19
ATOM     19  S   UNL A   1      33.254  18.812  24.749  1.00  0.00     0.175 S 
ATOM     20  C   UNL A   1      32.525  18.261  23.236  1.00  0.00     0.163 C 
ATOM     21  O   UNL A   1      32.541  18.148  25.827  1.00  0.00    -0.224 OA
ATOM     22  O   UNL A   1      34.693  18.689  24.624  1.00  0.00    -0.224 OA
ENDBRANCH  14  19
ENDBRANCH   9  13
BRANCH  11  23
ATOM     23  C   UNL A   1      32.003  25.833  23.185  1.00  0.00     0.128 A 
ATOM     24  C   UNL A   1      33.248  26.432  23.154  1.00  0.00     0.048 A 
ATOM     25  O   UNL A   1      31.580  25.602  21.905  1.00  0.00    -0.467 OA
ATOM     26  C   UNL A   1      33.585  26.593  21.788  1.00  0.00     0.042 A 
ATOM     27  C   UNL A   1      32.546  26.053  21.070  1.00  0.00     0.195 A 
ENDBRANCH  11  23
ENDBRANCH   6   8
ENDBRANCH   5   6
ENDBRANCH   4   5
ENDBRANCH   3   4
ENDBRANCH   2   3
ENDBRANCH   1   2
BRANCH   1  28
ATOM     28  C   UNL A   1      35.118  33.232  28.087  1.00  0.00     0.188 C 
BRANCH  28  29
ATOM     29  O   UNL A   1      34.687  34.509  28.487  1.00  0.00    -0.376 OA
BRANCH  29  30
ATOM     30  C   UNL A   1      33.312  34.744  28.746  1.00  0.00     0.202 C 
BRANCH  30  31
ATOM     31  C   UNL A   1      32.701  36.034  29.340  1.00  0.00     0.261 C 
BRANCH  31  32
ATOM     32  O   UNL A   1      33.163  36.495  30.612  1.00  0.00    -0.460 OA
BRANCH  32  33
ATOM     33  C   UNL A   1      32.772  35.778  31.695  1.00  0.00     0.338 C 
ATOM     34  O   UNL A   1      31.645  35.668  32.148  1.00  0.00    -0.246 OA
BRANCH  33  35
ATOM     35  C   UNL A   1      33.927  34.981  32.151  1.00  0.00     0.060 A 
ATOM     36  C   UNL A   1      35.225  35.430  31.870  1.00  0.00     0.016 A 
ATOM     37  C   UNL A   1      33.722  33.807  32.874  1.00  0.00     0.016 A 
ATOM     38  C   UNL A   1      36.328  34.715  32.341  1.00  0.00     0.010 A 
ATOM     39  C   UNL A   1      34.828  33.076  33.315  1.00  0.00     0.010 A 
ATOM     40  C   UNL A   1      36.135  33.523  33.048  1.00  0.00    -0.014 A 
BRANCH  40  41
ATOM     41  C   UNL A   1      37.288  32.676  33.431  1.00  0.00     0.031 A 
ATOM     42  C   UNL A   1      38.007  32.968  34.715  1.00  0.00     0.074 A 
ATOM     43  C   UNL A   1      37.712  31.684  32.629  1.00  0.00     0.049 A 
ATOM     44  N   UNL A   1      39.118  32.458  35.183  1.00  0.00    -0.248 NA
ATOM     45  C   UNL A   1      37.386  33.972  35.593  1.00  0.00     0.031 C 
ATOM     46  C   UNL A   1      37.065  31.267  31.388  1.00  0.00     0.029 A 
ATOM     47  N   UNL A   1      38.810  30.864  32.732  1.00  0.00    -0.354 N 
ATOM     48  C   UNL A   1      39.339  33.090  36.398  1.00  0.00     0.074 A 
ATOM     49  C   UNL A   1      38.257  34.032  36.590  1.00  0.00     0.031 C 
ATOM     50  C   UNL A   1      37.793  30.287  30.825  1.00  0.00     0.029 A 
ATOM     51  C   UNL A   1      38.982  30.044  31.642  1.00  0.00     0.049 A 
ATOM     52  H   UNL A   1      39.413  30.863  33.508  1.00  0.00     0.167 HD
ATOM     53  C   UNL A   1      40.357  32.901  37.271  1.00  0.00     0.037 A 
ATOM     54  C   UNL A   1      40.003  29.226  31.323  1.00  0.00     0.037 A 
ATOM     55  C   UNL A   1      41.437  31.971  37.065  1.00  0.00     0.049 A 
ATOM     56  C   UNL A   1      41.181  29.113  32.261  1.00  0.00     0.074 A 
ATOM     57  C   UNL A   1      42.500  31.687  37.903  1.00  0.00     0.029 A 
ATOM     58  N   UNL A   1      41.601  31.188  35.931  1.00  0.00    -0.354 N 
ATOM     59  N   UNL A   1      41.373  29.688  33.424  1.00  0.00    -0.248 NA
ATOM     60  C   UNL A   1      42.286  28.240  31.838  1.00  0.00     0.031 C 
ATOM     61  C   UNL A   1      43.343  30.783  37.248  1.00  0.00     0.029 A 
ATOM     62  C   UNL A   1      42.770  30.452  36.030  1.00  0.00     0.049 A 
ATOM     63  H   UNL A   1      40.977  31.159  35.169  1.00  0.00     0.167 HD
ATOM     64  C   UNL A   1      42.604  29.230  33.879  1.00  0.00     0.074 A 
ATOM     65  C   UNL A   1      43.106  28.315  32.877  1.00  0.00     0.031 C 
ATOM     66  C   UNL A   1      43.259  29.541  35.026  1.00  0.00     0.037 A 
BRANCH  53  67
ATOM     67  C   UNL A   1      40.372  33.742  38.514  1.00  0.00     0.064 A 
ATOM     68  C   UNL A   1      39.618  33.402  39.647  1.00  0.00     0.173 A 
ATOM     69  C   UNL A   1      41.183  34.885  38.584  1.00  0.00     0.173 A 
ATOM     70  F   UNL A   1      38.815  32.327  39.626  1.00  0.00    -0.203 F 
ATOM     71  C   UNL A   1      39.656  34.189  40.794  1.00  0.00     0.198 A 
ATOM     72  C   UNL A   1      41.244  35.651  39.745  1.00  0.00     0.198 A 
ATOM     73  F   UNL A   1      41.928  35.253  37.531  1.00  0.00    -0.203 F 
ATOM     74  F   UNL A   1      38.889  33.873  41.847  1.00  0.00    -0.200 F 
ATOM     75  C   UNL A   1      40.474  35.308  40.846  1.00  0.00     0.200 A 
ATOM     76  F   UNL A   1      42.046  36.723  39.797  1.00  0.00    -0.200 F 
ATOM     77  F   UNL A   1      40.516  36.059  41.954  1.00  0.00    -0.200 F 
ENDBRANCH  53  67
BRANCH  54  78
ATOM     78  C   UNL A   1      39.984  28.474  30.039  1.00  0.00     0.064 A 
ATOM     79  C   UNL A   1      39.386  27.209  29.952  1.00  0.00     0.173 A 
ATOM     80  C   UNL A   1      40.589  28.990  28.883  1.00  0.00     0.173 A 
ATOM     81  F   UNL A   1      38.825  26.657  31.037  1.00  0.00    -0.203 F 
ATOM     82  C   UNL A   1      39.410  26.483  28.762  1.00  0.00     0.198 A 
ATOM     83  C   UNL A   1      40.583  28.276  27.686  1.00  0.00     0.198 A 
ATOM     84  F   UNL A   1      41.186  30.190  28.914  1.00  0.00    -0.203 F 
ATOM     85  F   UNL A   1      38.881  25.252  28.723  1.00  0.00    -0.200 F 
ATOM     86  C   UNL A   1      40.001  27.019  27.629  1.00  0.00     0.200 A 
ATOM     87  F   UNL A   1      41.150  28.803  26.592  1.00  0.00    -0.200 F 
ATOM     88  F   UNL A   1      40.025  26.319  26.487  1.00  0.00    -0.200 F 
ENDBRANCH  54  78
BRANCH  66  89
ATOM     89  C   UNL A   1      44.579  28.869  35.278  1.00  0.00     0.064 A 
ATOM     90  C   UNL A   1      44.668  27.665  35.994  1.00  0.00     0.173 A 
ATOM     91  C   UNL A   1      45.762  29.400  34.740  1.00  0.00     0.173 A 
ATOM     92  F   UNL A   1      43.570  27.121  36.540  1.00  0.00    -0.203 F 
ATOM     93  C   UNL A   1      45.895  27.031  36.178  1.00  0.00     0.198 A 
ATOM     94  C   UNL A   1      46.980  28.746  34.897  1.00  0.00     0.198 A 
ATOM     95  F   UNL A   1      45.732  30.544  34.040  1.00  0.00    -0.203 F 
ATOM     96  F   UNL A   1      45.962  25.904  36.900  1.00  0.00    -0.200 F 
ATOM     97  C   UNL A   1      47.047  27.565  35.621  1.00  0.00     0.200 A 
ATOM     98  F   UNL A   1      48.090  29.254  34.342  1.00  0.00    -0.200 F 
ATOM     99  F   UNL A   1      48.223  26.943  35.783  1.00  0.00    -0.200 F 
ENDBRANCH  66  89
ENDBRANCH  40  41
ENDBRANCH  33  35
ENDBRANCH  32  33
ENDBRANCH  31  32
ENDBRANCH  30  31
ENDBRANCH  29  30
ENDBRANCH  28  29
ENDBRANCH   1  28
TORSDOF 20
ENDMDL
MODEL 2
REMARK VINA RESULT:     -10.1      4.867      7.481
REMARK SMILES CS(=O)(=O)c1ccc(N2N=C(C(=O)OCCOCCOCCOC(=O)c3ccc(-c4c5nc(c(-c6c(F)c(F)c(F)c(F)c6F)c6ccc([nH]6)c(-c6c(F)c(F)c(F)c(F)c6F)c6nc(c(-c7c(F)c(F)c(F)c(F)c7F)c7ccc4[nH]7)C=C6)C=C5)cc3)C[C@H]2c2ccco2)cc1
REMARK SMILES IDX 18 1 17 2 16 3 15 4 14 5 12 6 13 7 11 8 9 9 10 10 90 11
REMARK SMILES IDX 89 12 8 13 5 14 6 15 97 16 7 17 96 18 2 19 1 20 3 21 4 22
REMARK SMILES IDX 91 23 92 24 95 25 93 26 94 27 19 28 20 29 21 30 22 31 23 32
REMARK SMILES IDX 24 33 25 34 26 35 27 36 88 37 28 38 87 39 29 40 30 41 31 42
REMARK SMILES IDX 81 43 32 44 86 45 80 46 82 47 33 48 85 49 79 50 78 51 34 53
REMARK SMILES IDX 66 54 46 55 65 56 47 57 50 58 64 59 83 60 48 61 49 62 63 64
REMARK SMILES IDX 84 65 51 66 35 67 36 68 44 69 37 70 38 71 42 72 45 73 39 74
REMARK SMILES IDX 40 75 43 76 41 77 67 78 68 79 76 80 69 81 70 82 74 83 77 84
REMARK SMILES IDX 71 85 72 86 75 87 73 88 52 89 53 90 61 91 54 92 55 93 59 94
REMARK SMILES IDX 62 95 56 96 57 97 60 98 58 99
REMARK H PARENT 82 52 50 63
REMARK Flexibility Score: inf
ROOT
ATOM      1  C   UNL A   1      35.337  31.470  28.384  1.00  0.00     0.188 C 
ENDROOT
BRANCH   1   2
ATOM      2  O   UNL A   1      35.873  30.447  27.562  1.00  0.00    -0.376 OA
BRANCH   2   3
ATOM      3  C   UNL A   1      35.006  29.545  26.887  1.00  0.00     0.202 C 
BRANCH   3   4
ATOM      4  C   UNL A   1      33.650  29.139  27.487  1.00  0.00     0.261 C 
BRANCH   4   5
ATOM      5  O   UNL A   1      33.242  27.797  27.186  1.00  0.00    -0.459 OA
BRANCH   5   6
ATOM      6  C   UNL A   1      31.913  27.566  27.224  1.00  0.00     0.354 C 
ATOM      7  O   UNL A   1      31.054  28.223  27.781  1.00  0.00    -0.245 OA
BRANCH   6   8
ATOM      8  C   UNL A   1      31.582  26.403  26.319  1.00  0.00     0.148 C 
ATOM      9  N   UNL A   1      31.616  24.482  25.430  1.00  0.00    -0.254 N 
ATOM     10  N   UNL A   1      32.090  25.215  26.481  1.00  0.00    -0.169 NA
ATOM     11  C   UNL A   1      30.973  25.326  24.400  1.00  0.00     0.180 C 
ATOM     12  C   UNL A   1      30.554  26.540  25.241  1.00  0.00     0.101 C 
BRANCH   9  13
ATOM     13  C   UNL A   1      32.088  23.194  25.212  1.00  0.00     0.060 A 
ATOM     14  C   UNL A   1      32.824  20.518  24.692  1.00  0.00     0.067 A 
ATOM     15  C   UNL A   1      32.165  20.835  25.879  1.00  0.00     0.022 A 
ATOM     16  C   UNL A   1      33.181  21.532  23.800  1.00  0.00     0.022 A 
ATOM     17  C   UNL A   1      31.806  22.170  26.131  1.00  0.00     0.029 A 
ATOM     18  C   UNL A   1      32.828  22.855  24.074  1.00  0.00     0.029 A 
BRANCH  14  19
ATOM     19  S   UNL A   1      33.191  18.841  24.229  1.00  0.00     0.175 S 
ATOM     20  C   UNL A   1      32.527  17.784  25.481  1.00  0.00     0.163 C 
ATOM     21  O   UNL A   1      34.635  18.696  24.277  1.00  0.00    -0.224 OA
ATOM     22  O   UNL A   1      32.459  18.594  23.002  1.00  0.00    -0.224 OA
ENDBRANCH  14  19
ENDBRANCH   9  13
BRANCH  11  23
ATOM     23  C   UNL A   1      31.807  25.754  23.225  1.00  0.00     0.128 A 
ATOM     24  C   UNL A   1      31.774  25.446  21.878  1.00  0.00     0.048 A 
ATOM     25  O   UNL A   1      32.818  26.645  23.461  1.00  0.00    -0.467 OA
ATOM     26  C   UNL A   1      32.832  26.166  21.273  1.00  0.00     0.042 A 
ATOM     27  C   UNL A   1      33.423  26.896  22.275  1.00  0.00     0.195 A 
ENDBRANCH  11  23
ENDBRANCH   6   8
ENDBRANCH   5   6
ENDBRANCH   4   5
ENDBRANCH   3   4
ENDBRANCH   2   3
ENDBRANCH   1   2
BRANCH   1  28
ATOM     28  C   UNL A   1      35.447  32.945  27.949  1.00  0.00     0.188 C 
BRANCH  28  29
ATOM     29  O   UNL A   1      35.131  33.915  28.917  1.00  0.00    -0.376 OA
BRANCH  29  30
ATOM     30  C   UNL A   1      34.342  33.562  30.042  1.00  0.00     0.202 C 
BRANCH  30  31
ATOM     31  C   UNL A   1      34.695  33.825  31.524  1.00  0.00     0.261 C 
BRANCH  31  32
ATOM     32  O   UNL A   1      36.068  33.803  31.922  1.00  0.00    -0.460 OA
BRANCH  32  33
ATOM     33  C   UNL A   1      36.474  32.725  32.639  1.00  0.00     0.338 C 
ATOM     34  O   UNL A   1      35.895  32.187  33.567  1.00  0.00    -0.246 OA
BRANCH  33  35
ATOM     35  C   UNL A   1      37.677  32.176  31.986  1.00  0.00     0.060 A 
ATOM     36  C   UNL A   1      37.874  32.391  30.615  1.00  0.00     0.016 A 
ATOM     37  C   UNL A   1      38.618  31.472  32.737  1.00  0.00     0.016 A 
ATOM     38  C   UNL A   1      39.034  31.924  29.994  1.00  0.00     0.010 A 
ATOM     39  C   UNL A   1      39.761  30.976  32.105  1.00  0.00     0.010 A 
ATOM     40  C   UNL A   1      39.974  31.196  30.732  1.00  0.00    -0.014 A 
BRANCH  40  41
ATOM     41  C   UNL A   1      41.138  30.569  30.064  1.00  0.00     0.031 A 
ATOM     42  C   UNL A   1      42.353  31.405  29.790  1.00  0.00     0.074 A 
ATOM     43  C   UNL A   1      41.100  29.283  29.674  1.00  0.00     0.049 A 
ATOM     44  N   UNL A   1      43.425  31.115  29.099  1.00  0.00    -0.248 NA
ATOM     45  C   UNL A   1      42.360  32.753  30.380  1.00  0.00     0.031 C 
ATOM     46  C   UNL A   1      40.002  28.355  29.933  1.00  0.00     0.029 A 
ATOM     47  N   UNL A   1      42.005  28.545  28.951  1.00  0.00    -0.354 N 
ATOM     48  C   UNL A   1      44.225  32.247  29.153  1.00  0.00     0.074 A 
ATOM     49  C   UNL A   1      43.511  33.235  29.933  1.00  0.00     0.031 C 
ATOM     50  C   UNL A   1      40.283  27.176  29.351  1.00  0.00     0.029 A 
ATOM     51  C   UNL A   1      41.555  27.284  28.639  1.00  0.00     0.049 A 
ATOM     52  H   UNL A   1      42.888  28.885  28.683  1.00  0.00     0.167 HD
ATOM     53  C   UNL A   1      45.446  32.442  28.600  1.00  0.00     0.037 A 
ATOM     54  C   UNL A   1      42.092  26.345  27.836  1.00  0.00     0.037 A 
ATOM     55  C   UNL A   1      46.144  31.457  27.813  1.00  0.00     0.049 A 
ATOM     56  C   UNL A   1      43.401  26.626  27.141  1.00  0.00     0.074 A 
ATOM     57  C   UNL A   1      47.395  31.549  27.232  1.00  0.00     0.029 A 
ATOM     58  N   UNL A   1      45.640  30.207  27.484  1.00  0.00    -0.354 N 
ATOM     59  N   UNL A   1      44.171  27.686  27.218  1.00  0.00    -0.248 NA
ATOM     60  C   UNL A   1      43.914  25.582  26.240  1.00  0.00     0.031 C 
ATOM     61  C   UNL A   1      47.621  30.383  26.494  1.00  0.00     0.029 A 
ATOM     62  C   UNL A   1      46.539  29.535  26.672  1.00  0.00     0.049 A 
ATOM     63  H   UNL A   1      44.772  29.850  27.783  1.00  0.00     0.167 HD
ATOM     64  C   UNL A   1      45.265  27.426  26.401  1.00  0.00     0.074 A 
ATOM     65  C   UNL A   1      45.069  26.102  25.849  1.00  0.00     0.031 C 
ATOM     66  C   UNL A   1      46.335  28.215  26.131  1.00  0.00     0.037 A 
BRANCH  53  67
ATOM     67  C   UNL A   1      46.091  33.783  28.792  1.00  0.00     0.064 A 
ATOM     68  C   UNL A   1      46.933  34.050  29.880  1.00  0.00     0.173 A 
ATOM     69  C   UNL A   1      45.891  34.805  27.850  1.00  0.00     0.173 A 
ATOM     70  F   UNL A   1      47.145  33.113  30.816  1.00  0.00    -0.203 F 
ATOM     71  C   UNL A   1      47.531  35.299  30.034  1.00  0.00     0.198 A 
ATOM     72  C   UNL A   1      46.517  36.041  27.989  1.00  0.00     0.198 A 
ATOM     73  F   UNL A   1      45.098  34.601  26.787  1.00  0.00    -0.203 F 
ATOM     74  F   UNL A   1      48.293  35.547  31.108  1.00  0.00    -0.200 F 
ATOM     75  C   UNL A   1      47.330  36.290  29.084  1.00  0.00     0.200 A 
ATOM     76  F   UNL A   1      46.331  36.992  27.063  1.00  0.00    -0.200 F 
ATOM     77  F   UNL A   1      47.913  37.486  29.229  1.00  0.00    -0.200 F 
ENDBRANCH  53  67
BRANCH  54  78
ATOM     78  C   UNL A   1      41.375  25.061  27.609  1.00  0.00     0.064 A 
ATOM     79  C   UNL A   1      41.851  23.861  28.155  1.00  0.00     0.173 A 
ATOM     80  C   UNL A   1      40.219  25.001  26.816  1.00  0.00     0.173 A 
ATOM     81  F   UNL A   1      42.972  23.859  28.891  1.00  0.00    -0.203 F 
ATOM     82  C   UNL A   1      41.209  22.650  27.903  1.00  0.00     0.198 A 
ATOM     83  C   UNL A   1      39.558  23.794  26.592  1.00  0.00     0.198 A 
ATOM     84  F   UNL A   1      39.727  26.117  26.258  1.00  0.00    -0.203 F 
ATOM     85  F   UNL A   1      41.720  21.511  28.391  1.00  0.00    -0.200 F 
ATOM     86  C   UNL A   1      40.060  22.618  27.128  1.00  0.00     0.200 A 
ATOM     87  F   UNL A   1      38.444  23.770  25.848  1.00  0.00    -0.200 F 
ATOM     88  F   UNL A   1      39.444  21.453  26.886  1.00  0.00    -0.200 F 
ENDBRANCH  54  78
BRANCH  66  89
ATOM     89  C   UNL A   1      47.395  27.663  25.220  1.00  0.00     0.064 A 
ATOM     90  C   UNL A   1      47.376  27.904  23.838  1.00  0.00     0.173 A 
ATOM     91  C   UNL A   1      48.478  26.941  25.744  1.00  0.00     0.173 A 
ATOM     92  F   UNL A   1      46.357  28.578  23.282  1.00  0.00    -0.203 F 
ATOM     93  C   UNL A   1      48.393  27.425  23.013  1.00  0.00     0.198 A 
ATOM     94  C   UNL A   1      49.508  26.493  24.923  1.00  0.00     0.198 A 
ATOM     95  F   UNL A   1      48.549  26.689  27.060  1.00  0.00    -0.203 F 
ATOM     96  F   UNL A   1      48.333  27.632  21.691  1.00  0.00    -0.200 F 
ATOM     97  C   UNL A   1      49.462  26.731  23.558  1.00  0.00     0.200 A 
ATOM     98  F   UNL A   1      50.551  25.838  25.453  1.00  0.00    -0.200 F 
ATOM     99  F   UNL A   1      50.448  26.287  22.765  1.00  0.00    -0.200 F 
ENDBRANCH  66  89
ENDBRANCH  40  41
ENDBRANCH  33  35
ENDBRANCH  32  33
ENDBRANCH  31  32
ENDBRANCH  30  31
ENDBRANCH  29  30
ENDBRANCH  28  29
ENDBRANCH   1  28
TORSDOF 20
ENDMDL
MODEL 3
REMARK VINA RESULT:      -9.6      5.481     11.164
REMARK SMILES CS(=O)(=O)c1ccc(N2N=C(C(=O)OCCOCCOCCOC(=O)c3ccc(-c4c5nc(c(-c6c(F)c(F)c(F)c(F)c6F)c6ccc([nH]6)c(-c6c(F)c(F)c(F)c(F)c6F)c6nc(c(-c7c(F)c(F)c(F)c(F)c7F)c7ccc4[nH]7)C=C6)C=C5)cc3)C[C@H]2c2ccco2)cc1
REMARK SMILES IDX 18 1 17 2 16 3 15 4 14 5 12 6 13 7 11 8 9 9 10 10 90 11
REMARK SMILES IDX 89 12 8 13 5 14 6 15 97 16 7 17 96 18 2 19 1 20 3 21 4 22
REMARK SMILES IDX 91 23 92 24 95 25 93 26 94 27 19 28 20 29 21 30 22 31 23 32
REMARK SMILES IDX 24 33 25 34 26 35 27 36 88 37 28 38 87 39 29 40 30 41 31 42
REMARK SMILES IDX 81 43 32 44 86 45 80 46 82 47 33 48 85 49 79 50 78 51 34 53
REMARK SMILES IDX 66 54 46 55 65 56 47 57 50 58 64 59 83 60 48 61 49 62 63 64
REMARK SMILES IDX 84 65 51 66 35 67 36 68 44 69 37 70 38 71 42 72 45 73 39 74
REMARK SMILES IDX 40 75 43 76 41 77 67 78 68 79 76 80 69 81 70 82 74 83 77 84
REMARK SMILES IDX 71 85 72 86 75 87 73 88 52 89 53 90 61 91 54 92 55 93 59 94
REMARK SMILES IDX 62 95 56 96 57 97 60 98 58 99
REMARK H PARENT 82 52 50 63
REMARK Flexibility Score: inf
ROOT
ATOM      1  C   UNL A   1      42.668  23.040  27.002  1.00  0.00     0.188 C 
ENDROOT
BRANCH   1   2
ATOM      2  O   UNL A   1      41.406  23.524  27.427  1.00  0.00    -0.376 OA
BRANCH   2   3
ATOM      3  C   UNL A   1      40.607  24.306  26.548  1.00  0.00     0.202 C 
BRANCH   3   4
ATOM      4  C   UNL A   1      40.566  25.839  26.657  1.00  0.00     0.261 C 
BRANCH   4   5
ATOM      5  O   UNL A   1      40.082  26.335  27.913  1.00  0.00    -0.459 OA
BRANCH   5   6
ATOM      6  C   UNL A   1      41.028  26.704  28.802  1.00  0.00     0.354 C 
ATOM      7  O   UNL A   1      42.072  26.138  29.062  1.00  0.00    -0.245 OA
BRANCH   6   8
ATOM      8  C   UNL A   1      40.682  28.062  29.365  1.00  0.00     0.148 C 
ATOM      9  N   UNL A   1      40.075  29.577  30.713  1.00  0.00    -0.254 N 
ATOM     10  N   UNL A   1      40.410  28.255  30.623  1.00  0.00    -0.169 NA
ATOM     11  C   UNL A   1      39.877  30.199  29.386  1.00  0.00     0.180 C 
ATOM     12  C   UNL A   1      40.743  29.285  28.507  1.00  0.00     0.101 C 
BRANCH   9  13
ATOM     13  C   UNL A   1      39.578  30.090  31.905  1.00  0.00     0.060 A 
ATOM     14  C   UNL A   1      38.675  30.943  34.440  1.00  0.00     0.067 A 
ATOM     15  C   UNL A   1      37.981  29.942  33.760  1.00  0.00     0.022 A 
ATOM     16  C   UNL A   1      39.767  31.568  33.836  1.00  0.00     0.022 A 
ATOM     17  C   UNL A   1      38.436  29.527  32.498  1.00  0.00     0.029 A 
ATOM     18  C   UNL A   1      40.197  31.151  32.574  1.00  0.00     0.029 A 
BRANCH  14  19
ATOM     19  S   UNL A   1      38.252  31.432  36.097  1.00  0.00     0.175 S 
ATOM     20  C   UNL A   1      39.634  32.310  36.763  1.00  0.00     0.163 C 
ATOM     21  O   UNL A   1      38.113  30.213  36.874  1.00  0.00    -0.224 OA
ATOM     22  O   UNL A   1      37.148  32.364  35.971  1.00  0.00    -0.224 OA
ENDBRANCH  14  19
ENDBRANCH   9  13
BRANCH  11  23
ATOM     23  C   UNL A   1      38.474  30.277  28.851  1.00  0.00     0.128 A 
ATOM     24  C   UNL A   1      37.819  29.637  27.815  1.00  0.00     0.048 A 
ATOM     25  O   UNL A   1      37.606  31.126  29.480  1.00  0.00    -0.467 OA
ATOM     26  C   UNL A   1      36.496  30.142  27.801  1.00  0.00     0.042 A 
ATOM     27  C   UNL A   1      36.412  31.029  28.847  1.00  0.00     0.195 A 
ENDBRANCH  11  23
ENDBRANCH   6   8
ENDBRANCH   5   6
ENDBRANCH   4   5
ENDBRANCH   3   4
ENDBRANCH   2   3
ENDBRANCH   1   2
BRANCH   1  28
ATOM     28  C   UNL A   1      42.775  22.182  25.724  1.00  0.00     0.188 C 
BRANCH  28  29
ATOM     29  O   UNL A   1      43.392  22.781  24.612  1.00  0.00    -0.376 OA
BRANCH  29  30
ATOM     30  C   UNL A   1      44.808  22.812  24.519  1.00  0.00     0.202 C 
BRANCH  30  31
ATOM     31  C   UNL A   1      45.700  24.072  24.588  1.00  0.00     0.261 C 
BRANCH  31  32
ATOM     32  O   UNL A   1      45.267  25.184  25.375  1.00  0.00    -0.460 OA
BRANCH  32  33
ATOM     33  C   UNL A   1      45.912  26.360  25.170  1.00  0.00     0.338 C 
ATOM     34  O   UNL A   1      46.594  26.678  24.211  1.00  0.00    -0.246 OA
BRANCH  33  35
ATOM     35  C   UNL A   1      45.501  27.292  26.236  1.00  0.00     0.060 A 
ATOM     36  C   UNL A   1      46.455  27.744  27.160  1.00  0.00     0.016 A 
ATOM     37  C   UNL A   1      44.181  27.736  26.305  1.00  0.00     0.016 A 
ATOM     38  C   UNL A   1      46.094  28.669  28.141  1.00  0.00     0.010 A 
ATOM     39  C   UNL A   1      43.815  28.635  27.309  1.00  0.00     0.010 A 
ATOM     40  C   UNL A   1      44.767  29.103  28.234  1.00  0.00    -0.014 A 
BRANCH  40  41
ATOM     41  C   UNL A   1      44.332  29.970  29.354  1.00  0.00     0.031 A 
ATOM     42  C   UNL A   1      44.275  31.454  29.142  1.00  0.00     0.074 A 
ATOM     43  C   UNL A   1      44.026  29.446  30.553  1.00  0.00     0.049 A 
ATOM     44  N   UNL A   1      44.062  32.412  30.007  1.00  0.00    -0.248 NA
ATOM     45  C   UNL A   1      44.484  31.921  27.762  1.00  0.00     0.031 C 
ATOM     46  C   UNL A   1      43.988  28.020  30.866  1.00  0.00     0.029 A 
ATOM     47  N   UNL A   1      43.714  30.063  31.741  1.00  0.00    -0.354 N 
ATOM     48  C   UNL A   1      44.132  33.594  29.284  1.00  0.00     0.074 A 
ATOM     49  C   UNL A   1      44.418  33.236  27.911  1.00  0.00     0.031 C 
ATOM     50  C   UNL A   1      43.700  27.868  32.171  1.00  0.00     0.029 A 
ATOM     51  C   UNL A   1      43.583  29.187  32.792  1.00  0.00     0.049 A 
ATOM     52  H   UNL A   1      43.598  31.035  31.830  1.00  0.00     0.167 HD
ATOM     53  C   UNL A   1      43.970  34.862  29.729  1.00  0.00     0.037 A 
ATOM     54  C   UNL A   1      43.429  29.428  34.109  1.00  0.00     0.037 A 
ATOM     55  C   UNL A   1      43.698  35.210  31.100  1.00  0.00     0.049 A 
ATOM     56  C   UNL A   1      43.362  30.854  34.597  1.00  0.00     0.074 A 
ATOM     57  C   UNL A   1      43.492  36.464  31.646  1.00  0.00     0.029 A 
ATOM     58  N   UNL A   1      43.612  34.300  32.145  1.00  0.00    -0.354 N 
ATOM     59  N   UNL A   1      43.396  31.969  33.908  1.00  0.00    -0.248 NA
ATOM     60  C   UNL A   1      43.241  31.055  36.049  1.00  0.00     0.031 C 
ATOM     61  C   UNL A   1      43.349  36.320  33.030  1.00  0.00     0.029 A 
ATOM     62  C   UNL A   1      43.398  34.970  33.338  1.00  0.00     0.049 A 
ATOM     63  H   UNL A   1      43.692  33.323  32.051  1.00  0.00     0.167 HD
ATOM     64  C   UNL A   1      43.276  32.998  34.836  1.00  0.00     0.074 A 
ATOM     65  C   UNL A   1      43.151  32.375  36.135  1.00  0.00     0.031 C 
ATOM     66  C   UNL A   1      43.272  34.338  34.628  1.00  0.00     0.037 A 
BRANCH  53  67
ATOM     67  C   UNL A   1      44.121  35.974  28.733  1.00  0.00     0.064 A 
ATOM     68  C   UNL A   1      43.017  36.528  28.069  1.00  0.00     0.173 A 
ATOM     69  C   UNL A   1      45.388  36.517  28.466  1.00  0.00     0.173 A 
ATOM     70  F   UNL A   1      41.787  36.036  28.278  1.00  0.00    -0.203 F 
ATOM     71  C   UNL A   1      43.178  37.567  27.156  1.00  0.00     0.198 A 
ATOM     72  C   UNL A   1      45.541  37.578  27.577  1.00  0.00     0.198 A 
ATOM     73  F   UNL A   1      46.478  36.027  29.076  1.00  0.00    -0.203 F 
ATOM     74  F   UNL A   1      42.115  38.048  26.498  1.00  0.00    -0.200 F 
ATOM     75  C   UNL A   1      44.437  38.097  26.917  1.00  0.00     0.200 A 
ATOM     76  F   UNL A   1      46.757  38.097  27.359  1.00  0.00    -0.200 F 
ATOM     77  F   UNL A   1      44.589  39.103  26.046  1.00  0.00    -0.200 F 
ENDBRANCH  53  67
BRANCH  54  78
ATOM     78  C   UNL A   1      43.368  28.295  35.072  1.00  0.00     0.064 A 
ATOM     79  C   UNL A   1      44.516  27.854  35.743  1.00  0.00     0.173 A 
ATOM     80  C   UNL A   1      42.168  27.611  35.317  1.00  0.00     0.173 A 
ATOM     81  F   UNL A   1      45.695  28.452  35.517  1.00  0.00    -0.203 F 
ATOM     82  C   UNL A   1      44.471  26.762  36.608  1.00  0.00     0.198 A 
ATOM     83  C   UNL A   1      42.116  26.539  36.207  1.00  0.00     0.198 A 
ATOM     84  F   UNL A   1      41.041  27.983  34.692  1.00  0.00    -0.203 F 
ATOM     85  F   UNL A   1      45.596  26.326  37.191  1.00  0.00    -0.200 F 
ATOM     86  C   UNL A   1      43.270  26.110  36.845  1.00  0.00     0.200 A 
ATOM     87  F   UNL A   1      40.952  25.917  36.437  1.00  0.00    -0.200 F 
ATOM     88  F   UNL A   1      43.227  25.060  37.675  1.00  0.00    -0.200 F 
ENDBRANCH  54  78
BRANCH  66  89
ATOM     89  C   UNL A   1      43.099  35.228  35.826  1.00  0.00     0.064 A 
ATOM     90  C   UNL A   1      41.831  35.644  36.258  1.00  0.00     0.173 A 
ATOM     91  C   UNL A   1      44.210  35.615  36.591  1.00  0.00     0.173 A 
ATOM     92  F   UNL A   1      40.736  35.313  35.556  1.00  0.00    -0.203 F 
ATOM     93  C   UNL A   1      41.685  36.431  37.399  1.00  0.00     0.198 A 
ATOM     94  C   UNL A   1      44.058  36.372  37.748  1.00  0.00     0.198 A 
ATOM     95  F   UNL A   1      45.446  35.239  36.227  1.00  0.00    -0.203 F 
ATOM     96  F   UNL A   1      40.467  36.850  37.769  1.00  0.00    -0.200 F 
ATOM     97  C   UNL A   1      42.796  36.784  38.149  1.00  0.00     0.200 A 
ATOM     98  F   UNL A   1      45.132  36.698  38.482  1.00  0.00    -0.200 F 
ATOM     99  F   UNL A   1      42.651  37.525  39.256  1.00  0.00    -0.200 F 
ENDBRANCH  66  89
ENDBRANCH  40  41
ENDBRANCH  33  35
ENDBRANCH  32  33
ENDBRANCH  31  32
ENDBRANCH  30  31
ENDBRANCH  29  30
ENDBRANCH  28  29
ENDBRANCH   1  28
TORSDOF 20
ENDMDL
