MODEL 1
REMARK VINA RESULT:     -14.6      0.000      0.000
REMARK SMILES Cc1ccc(-c2cc(Cl)cc3c2O[C@H](C(F)(F)F)C(C(=O)OCCOCCOCCOC(=O)c2ccc(-c4c5nc(c(-c6c(F)c(F)c(F)c(F)c6F)c6ccc([nH]6)c(-c6c(F)c(F)c(F)c(F)c6F)c6nc(c(-c7c(F)c(F)c(F)c(F)c7F)c7ccc4[nH]7)C=C6)C=C5)cc2)=C3)cc1F
REMARK SMILES IDX 27 1 26 2 25 3 24 4 23 5 22 6 20 7 21 8 19 9 6 10 7 11 12 12
REMARK SMILES IDX 8 13 11 14 13 15 9 16 10 17 97 18 14 19 5 20 1 21 2 22 3 23
REMARK SMILES IDX 99 24 4 25 98 26 100 27 15 28 16 29 17 30 18 31 28 32 29 33
REMARK SMILES IDX 30 34 31 35 32 36 33 37 34 38 35 39 96 40 36 41 95 42 37 43
REMARK SMILES IDX 38 44 39 45 89 46 40 47 94 48 88 49 90 50 41 51 93 52 87 53
REMARK SMILES IDX 86 54 42 56 74 57 54 58 73 59 55 60 58 61 72 62 91 63 56 64
REMARK SMILES IDX 57 65 71 67 92 68 59 69 43 70 44 71 52 72 45 73 46 74 50 75
REMARK SMILES IDX 53 76 47 77 48 78 51 79 49 80 75 81 76 82 84 83 77 84 78 85
REMARK SMILES IDX 82 86 85 87 79 88 80 89 83 90 81 91 60 92 61 93 69 94 62 95
REMARK SMILES IDX 63 96 67 97 70 98 64 99 65 100 68 101 66 102
REMARK H PARENT 90 55 58 66
REMARK Flexibility Score: inf
ROOT
ATOM      1  C   UNL A   1      38.584  20.053  25.373  1.00  0.00     0.188 C 
ENDROOT
BRANCH   1   2
ATOM      2  C   UNL A   1      37.363  21.333  25.264  1.00  0.00     0.188 C 
BRANCH   2   3
ATOM      3  O   UNL A   1      35.438  21.167  24.626  1.00  0.00    -0.376 OA
BRANCH   3   4
ATOM      4  C   UNL A   1      34.024  20.305  25.315  1.00  0.00     0.202 C 
BRANCH   4   5
ATOM      5  C   UNL A   1      32.259  20.734  25.079  1.00  0.00     0.261 C 
BRANCH   5   6
ATOM      6  O   UNL A   1      31.619  22.179  25.390  1.00  0.00    -0.460 OA
BRANCH   6   7
ATOM      7  C   UNL A   1      31.424  23.196  24.473  1.00  0.00     0.338 C 
ATOM      8  O   UNL A   1      31.436  23.027  23.255  1.00  0.00    -0.246 OA
BRANCH   7   9
ATOM      9  C   UNL A   1      31.109  24.612  24.958  1.00  0.00     0.087 C 
ATOM     10  C   UNL A   1      31.623  28.823  25.260  1.00  0.00     0.026 A 
ATOM     11  C   UNL A   1      30.970  29.684  24.364  1.00  0.00     0.033 A 
ATOM     12  C   UNL A   1      31.344  27.434  25.252  1.00  0.00     0.135 A 
ATOM     13  C   UNL A   1      30.070  29.157  23.455  1.00  0.00     0.042 A 
ATOM     14  C   UNL A   1      30.416  26.908  24.380  1.00  0.00     0.019 A 
ATOM     15  O   UNL A   1      31.969  26.618  26.166  1.00  0.00    -0.475 OA
ATOM     16  Cl  UNL A   1      29.281  30.192  22.322  1.00  0.00    -0.084 Cl
ATOM     17  C   UNL A   1      29.805  27.783  23.459  1.00  0.00     0.032 A 
ATOM     18  C   UNL A   1      30.180  25.453  24.447  1.00  0.00     0.027 C 
ATOM     19  C   UNL A   1      32.211  25.228  25.778  1.00  0.00     0.316 C 
BRANCH  10  20
ATOM     20  C   UNL A   1      32.623  29.336  26.184  1.00  0.00    -0.012 A 
ATOM     21  C   UNL A   1      35.822  31.375  28.171  1.00  0.00     0.047 C 
ATOM     22  C   UNL A   1      34.697  30.608  27.556  1.00  0.00    -0.015 A 
ATOM     23  C   UNL A   1      34.886  29.321  27.038  1.00  0.00     0.007 A 
ATOM     24  C   UNL A   1      33.446  31.212  27.444  1.00  0.00     0.126 A 
ATOM     25  C   UNL A   1      33.850  28.684  26.356  1.00  0.00     0.009 A 
ATOM     26  C   UNL A   1      32.409  30.579  26.788  1.00  0.00     0.048 A 
ATOM     27  F   UNL A   1      33.247  32.447  27.924  1.00  0.00    -0.207 F 
ENDBRANCH  10  20
BRANCH  19  28
ATOM     28  C   UNL A   1      33.614  25.079  25.183  1.00  0.00     0.430 C 
ATOM     29  F   UNL A   1      34.477  25.934  25.780  1.00  0.00    -0.167 F 
ATOM     30  F   UNL A   1      34.113  23.840  25.389  1.00  0.00    -0.167 F 
ATOM     31  F   UNL A   1      33.638  25.341  23.857  1.00  0.00    -0.167 F 
ENDBRANCH  19  28
ENDBRANCH   7   9
ENDBRANCH   6   7
ENDBRANCH   5   6
ENDBRANCH   4   5
ENDBRANCH   3   4
ENDBRANCH   2   3
ENDBRANCH   1   2
BRANCH   1  32
ATOM     32  O   UNL A   1      39.844  19.938  26.018  1.00  0.00    -0.376 OA
BRANCH  32  33
ATOM     33  C   UNL A   1      40.751  20.941  26.426  1.00  0.00     0.202 C 
BRANCH  33  34
ATOM     34  C   UNL A   1      40.290  22.203  27.161  1.00  0.00     0.261 C 
BRANCH  34  35
ATOM     35  O   UNL A   1      40.681  23.409  26.510  1.00  0.00    -0.460 OA
BRANCH  35  36
ATOM     36  C   UNL A   1      39.887  24.483  26.766  1.00  0.00     0.338 C 
ATOM     37  O   UNL A   1      38.682  24.482  26.951  1.00  0.00    -0.246 OA
BRANCH  36  38
ATOM     38  C   UNL A   1      40.792  25.584  27.180  1.00  0.00     0.060 A 
ATOM     39  C   UNL A   1      41.628  25.464  28.306  1.00  0.00     0.016 A 
ATOM     40  C   UNL A   1      40.419  26.844  26.699  1.00  0.00     0.016 A 
ATOM     41  C   UNL A   1      41.955  26.605  29.046  1.00  0.00     0.010 A 
ATOM     42  C   UNL A   1      40.702  27.961  27.469  1.00  0.00     0.010 A 
ATOM     43  C   UNL A   1      41.410  27.841  28.674  1.00  0.00    -0.014 A 
BRANCH  43  44
ATOM     44  C   UNL A   1      41.672  29.087  29.394  1.00  0.00     0.031 A 
ATOM     45  C   UNL A   1      40.488  29.919  29.644  1.00  0.00     0.074 A 
ATOM     46  C   UNL A   1      42.868  29.444  29.924  1.00  0.00     0.049 A 
ATOM     47  N   UNL A   1      40.524  31.189  29.806  1.00  0.00    -0.248 NA
ATOM     48  C   UNL A   1      39.141  29.360  29.720  1.00  0.00     0.031 C 
ATOM     49  C   UNL A   1      43.227  30.549  30.813  1.00  0.00     0.029 A 
ATOM     50  N   UNL A   1      44.123  28.925  29.650  1.00  0.00    -0.354 N 
ATOM     51  C   UNL A   1      39.331  31.534  30.393  1.00  0.00     0.074 A 
ATOM     52  C   UNL A   1      38.454  30.411  30.174  1.00  0.00     0.031 C 
ATOM     53  C   UNL A   1      44.518  30.883  30.590  1.00  0.00     0.029 A 
ATOM     54  C   UNL A   1      44.966  30.026  29.505  1.00  0.00     0.049 A 
ATOM     55  H   UNL A   1      44.369  27.975  29.574  1.00  0.00     0.167 HD
ATOM     56  C   UNL A   1      39.303  32.640  31.186  1.00  0.00     0.037 A 
ATOM     57  C   UNL A   1      45.510  30.296  28.297  1.00  0.00     0.037 A 
ATOM     58  C   UNL A   1      40.623  33.271  31.229  1.00  0.00     0.049 A 
ATOM     59  C   UNL A   1      45.222  31.743  28.044  1.00  0.00     0.074 A 
ATOM     60  C   UNL A   1      41.644  33.234  32.164  1.00  0.00     0.029 A 
ATOM     61  N   UNL A   1      41.191  33.741  30.048  1.00  0.00    -0.354 N 
ATOM     62  N   UNL A   1      44.060  32.274  28.349  1.00  0.00    -0.248 NA
ATOM     63  C   UNL A   1      46.257  32.743  27.778  1.00  0.00     0.031 C 
ATOM     64  C   UNL A   1      42.837  33.668  31.531  1.00  0.00     0.029 A 
ATOM     65  C   UNL A   1      42.551  33.920  30.197  1.00  0.00     0.049 A 
ATOM     66  H   UNL A   1      40.691  33.921  29.219  1.00  0.00     0.167 HD
ATOM     67  C   UNL A   1      44.237  33.626  28.501  1.00  0.00     0.074 A 
ATOM     68  C   UNL A   1      45.600  33.882  28.063  1.00  0.00     0.031 C 
ATOM     69  C   UNL A   1      43.349  34.462  29.116  1.00  0.00     0.037 A 
BRANCH  56  70
ATOM     70  C   UNL A   1      38.189  32.963  32.147  1.00  0.00     0.064 A 
ATOM     71  C   UNL A   1      37.025  33.630  31.707  1.00  0.00     0.173 A 
ATOM     72  C   UNL A   1      38.199  32.624  33.513  1.00  0.00     0.173 A 
ATOM     73  F   UNL A   1      36.851  33.978  30.427  1.00  0.00    -0.203 F 
ATOM     74  C   UNL A   1      35.980  33.969  32.566  1.00  0.00     0.198 A 
ATOM     75  C   UNL A   1      37.168  32.999  34.382  1.00  0.00     0.198 A 
ATOM     76  F   UNL A   1      39.178  31.875  34.036  1.00  0.00    -0.203 F 
ATOM     77  F   UNL A   1      34.896  34.588  32.077  1.00  0.00    -0.200 F 
ATOM     78  C   UNL A   1      36.057  33.666  33.908  1.00  0.00     0.200 A 
ATOM     79  F   UNL A   1      37.253  32.691  35.685  1.00  0.00    -0.200 F 
ATOM     80  F   UNL A   1      35.053  33.992  34.732  1.00  0.00    -0.200 F 
ENDBRANCH  56  70
BRANCH  57  81
ATOM     81  C   UNL A   1      45.609  29.041  27.453  1.00  0.00     0.064 A 
ATOM     82  C   UNL A   1      47.051  28.046  27.845  1.00  0.00     0.173 A 
ATOM     83  C   UNL A   1      44.481  28.385  26.337  1.00  0.00     0.173 A 
ATOM     84  F   UNL A   1      47.961  28.904  28.283  1.00  0.00    -0.203 F 
ATOM     85  C   UNL A   1      47.389  26.389  26.973  1.00  0.00     0.198 A 
ATOM     86  C   UNL A   1      44.732  26.860  25.483  1.00  0.00     0.198 A 
ATOM     87  F   UNL A   1      43.273  28.967  26.250  1.00  0.00    -0.203 F 
ATOM     88  F   UNL A   1      48.519  25.678  27.036  1.00  0.00    -0.200 F 
ATOM     89  C   UNL A   1      46.160  25.851  25.763  1.00  0.00     0.200 A 
ATOM     90  F   UNL A   1      43.660  26.287  24.906  1.00  0.00    -0.200 F 
ATOM     91  F   UNL A   1      46.236  24.654  25.171  1.00  0.00    -0.200 F 
ENDBRANCH  57  81
BRANCH  69  92
ATOM     92  C   UNL A   1      43.214  35.924  28.790  1.00  0.00     0.064 A 
ATOM     93  C   UNL A   1      42.406  36.389  27.741  1.00  0.00     0.173 A 
ATOM     94  C   UNL A   1      43.710  36.916  29.672  1.00  0.00     0.173 A 
ATOM     95  F   UNL A   1      41.771  35.547  26.916  1.00  0.00    -0.203 F 
ATOM     96  C   UNL A   1      42.165  37.746  27.547  1.00  0.00     0.198 A 
ATOM     97  C   UNL A   1      43.404  38.263  29.517  1.00  0.00     0.198 A 
ATOM     98  F   UNL A   1      44.456  36.610  30.743  1.00  0.00    -0.203 F 
ATOM     99  F   UNL A   1      41.421  38.139  26.504  1.00  0.00    -0.200 F 
ATOM    100  C   UNL A   1      42.649  38.680  28.442  1.00  0.00     0.200 A 
ATOM    101  F   UNL A   1      43.818  39.148  30.434  1.00  0.00    -0.200 F 
ATOM    102  F   UNL A   1      42.363  39.979  28.283  1.00  0.00    -0.200 F 
ENDBRANCH  69  92
ENDBRANCH  43  44
ENDBRANCH  36  38
ENDBRANCH  35  36
ENDBRANCH  34  35
ENDBRANCH  33  34
ENDBRANCH  32  33
ENDBRANCH   1  32
TORSDOF 19
ENDMDL
MODEL 2
REMARK VINA RESULT:     -14.1      4.167     10.629
REMARK SMILES Cc1ccc(-c2cc(Cl)cc3c2O[C@H](C(F)(F)F)C(C(=O)OCCOCCOCCOC(=O)c2ccc(-c4c5nc(c(-c6c(F)c(F)c(F)c(F)c6F)c6ccc([nH]6)c(-c6c(F)c(F)c(F)c(F)c6F)c6nc(c(-c7c(F)c(F)c(F)c(F)c7F)c7ccc4[nH]7)C=C6)C=C5)cc2)=C3)cc1F
REMARK SMILES IDX 27 1 26 2 25 3 24 4 23 5 22 6 20 7 21 8 19 9 6 10 7 11 12 12
REMARK SMILES IDX 8 13 11 14 13 15 9 16 10 17 97 18 14 19 5 20 1 21 2 22 3 23
REMARK SMILES IDX 99 24 4 25 98 26 100 27 15 28 16 29 17 30 18 31 28 32 29 33
REMARK SMILES IDX 30 34 31 35 32 36 33 37 34 38 35 39 96 40 36 41 95 42 37 43
REMARK SMILES IDX 38 44 39 45 89 46 40 47 94 48 88 49 90 50 41 51 93 52 87 53
REMARK SMILES IDX 86 54 42 56 74 57 54 58 73 59 55 60 58 61 72 62 91 63 56 64
REMARK SMILES IDX 57 65 71 67 92 68 59 69 43 70 44 71 52 72 45 73 46 74 50 75
REMARK SMILES IDX 53 76 47 77 48 78 51 79 49 80 75 81 76 82 84 83 77 84 78 85
REMARK SMILES IDX 82 86 85 87 79 88 80 89 83 90 81 91 60 92 61 93 69 94 62 95
REMARK SMILES IDX 63 96 67 97 70 98 64 99 65 100 68 101 66 102
REMARK H PARENT 90 55 58 66
REMARK Flexibility Score: inf
ROOT
ATOM      1  C   UNL A   1      33.867  34.775  32.448  1.00  0.00     0.188 C 
ENDROOT
BRANCH   1   2
ATOM      2  C   UNL A   1      33.133  35.810  31.210  1.00  0.00     0.188 C 
BRANCH   2   3
ATOM      3  O   UNL A   1      33.332  35.667  29.189  1.00  0.00    -0.376 OA
BRANCH   3   4
ATOM      4  C   UNL A   1      32.890  34.365  28.038  1.00  0.00     0.202 C 
BRANCH   4   5
ATOM      5  C   UNL A   1      33.447  32.621  28.091  1.00  0.00     0.261 C 
BRANCH   5   6
ATOM      6  O   UNL A   1      32.855  31.443  27.165  1.00  0.00    -0.460 OA
BRANCH   6   7
ATOM      7  C   UNL A   1      33.594  30.474  26.511  1.00  0.00     0.338 C 
ATOM      8  O   UNL A   1      34.777  30.241  26.752  1.00  0.00    -0.246 OA
BRANCH   7   9
ATOM      9  C   UNL A   1      32.925  29.578  25.468  1.00  0.00     0.087 C 
ATOM     10  C   UNL A   1      30.065  26.802  23.985  1.00  0.00     0.026 A 
ATOM     11  C   UNL A   1      28.864  27.254  23.416  1.00  0.00     0.033 A 
ATOM     12  C   UNL A   1      31.078  27.722  24.349  1.00  0.00     0.135 A 
ATOM     13  C   UNL A   1      28.671  28.613  23.240  1.00  0.00     0.042 A 
ATOM     14  C   UNL A   1      30.911  29.073  24.136  1.00  0.00     0.019 A 
ATOM     15  O   UNL A   1      32.260  27.249  24.869  1.00  0.00    -0.475 OA
ATOM     16  Cl  UNL A   1      27.189  29.195  22.575  1.00  0.00    -0.084 Cl
ATOM     17  C   UNL A   1      29.680  29.511  23.605  1.00  0.00     0.032 A 
ATOM     18  C   UNL A   1      32.021  29.959  24.535  1.00  0.00     0.027 C 
ATOM     19  C   UNL A   1      32.982  28.111  25.806  1.00  0.00     0.316 C 
BRANCH  10  20
ATOM     20  C   UNL A   1      30.273  25.385  24.245  1.00  0.00    -0.012 A 
ATOM     21  C   UNL A   1      31.752  21.493  25.247  1.00  0.00     0.047 C 
ATOM     22  C   UNL A   1      31.156  22.808  24.865  1.00  0.00    -0.015 A 
ATOM     23  C   UNL A   1      31.097  23.226  23.530  1.00  0.00     0.007 A 
ATOM     24  C   UNL A   1      30.700  23.662  25.868  1.00  0.00     0.126 A 
ATOM     25  C   UNL A   1      30.654  24.511  23.220  1.00  0.00     0.009 A 
ATOM     26  C   UNL A   1      30.241  24.929  25.567  1.00  0.00     0.048 A 
ATOM     27  F   UNL A   1      30.757  23.286  27.152  1.00  0.00    -0.207 F 
ENDBRANCH  10  20
BRANCH  19  28
ATOM     28  C   UNL A   1      32.595  27.771  27.247  1.00  0.00     0.430 C 
ATOM     29  F   UNL A   1      33.586  28.121  28.101  1.00  0.00    -0.167 F 
ATOM     30  F   UNL A   1      31.502  28.458  27.644  1.00  0.00    -0.167 F 
ATOM     31  F   UNL A   1      32.363  26.449  27.417  1.00  0.00    -0.167 F 
ENDBRANCH  19  28
ENDBRANCH   7   9
ENDBRANCH   6   7
ENDBRANCH   5   6
ENDBRANCH   4   5
ENDBRANCH   3   4
ENDBRANCH   2   3
ENDBRANCH   1   2
BRANCH   1  32
ATOM     32  O   UNL A   1      34.506  33.507  32.427  1.00  0.00    -0.376 OA
BRANCH  32  33
ATOM     33  C   UNL A   1      34.794  32.652  31.340  1.00  0.00     0.202 C 
BRANCH  33  34
ATOM     34  C   UNL A   1      36.121  31.894  31.231  1.00  0.00     0.261 C 
BRANCH  34  35
ATOM     35  O   UNL A   1      36.073  30.803  30.315  1.00  0.00    -0.460 OA
BRANCH  35  36
ATOM     36  C   UNL A   1      36.789  30.982  29.173  1.00  0.00     0.338 C 
ATOM     37  O   UNL A   1      36.924  32.014  28.539  1.00  0.00    -0.246 OA
BRANCH  36  38
ATOM     38  C   UNL A   1      37.699  29.814  29.064  1.00  0.00     0.060 A 
ATOM     39  C   UNL A   1      37.803  28.863  30.097  1.00  0.00     0.016 A 
ATOM     40  C   UNL A   1      38.737  29.981  28.141  1.00  0.00     0.016 A 
ATOM     41  C   UNL A   1      39.017  28.198  30.301  1.00  0.00     0.010 A 
ATOM     42  C   UNL A   1      39.951  29.359  28.385  1.00  0.00     0.010 A 
ATOM     43  C   UNL A   1      40.117  28.521  29.497  1.00  0.00    -0.014 A 
BRANCH  43  44
ATOM     44  C   UNL A   1      41.433  27.899  29.645  1.00  0.00     0.031 A 
ATOM     45  C   UNL A   1      41.535  26.532  29.120  1.00  0.00     0.074 A 
ATOM     46  C   UNL A   1      42.543  28.525  30.108  1.00  0.00     0.049 A 
ATOM     47  N   UNL A   1      42.375  25.661  29.541  1.00  0.00    -0.248 NA
ATOM     48  C   UNL A   1      40.663  26.034  28.059  1.00  0.00     0.031 C 
ATOM     49  C   UNL A   1      43.941  28.095  30.134  1.00  0.00     0.029 A 
ATOM     50  N   UNL A   1      42.632  29.712  30.818  1.00  0.00    -0.354 N 
ATOM     51  C   UNL A   1      42.434  24.687  28.575  1.00  0.00     0.074 A 
ATOM     52  C   UNL A   1      41.254  24.873  27.767  1.00  0.00     0.031 C 
ATOM     53  C   UNL A   1      44.560  28.697  31.175  1.00  0.00     0.029 A 
ATOM     54  C   UNL A   1      43.532  29.467  31.855  1.00  0.00     0.049 A 
ATOM     55  H   UNL A   1      42.159  30.554  30.628  1.00  0.00     0.167 HD
ATOM     56  C   UNL A   1      43.590  23.980  28.446  1.00  0.00     0.037 A 
ATOM     57  C   UNL A   1      43.093  29.470  33.134  1.00  0.00     0.037 A 
ATOM     58  C   UNL A   1      44.572  24.424  29.436  1.00  0.00     0.049 A 
ATOM     59  C   UNL A   1      43.598  28.195  33.732  1.00  0.00     0.074 A 
ATOM     60  C   UNL A   1      45.663  25.273  29.351  1.00  0.00     0.029 A 
ATOM     61  N   UNL A   1      44.275  24.304  30.790  1.00  0.00    -0.354 N 
ATOM     62  N   UNL A   1      43.579  27.067  33.059  1.00  0.00    -0.248 NA
ATOM     63  C   UNL A   1      44.444  28.135  34.925  1.00  0.00     0.031 C 
ATOM     64  C   UNL A   1      46.009  25.679  30.665  1.00  0.00     0.029 A 
ATOM     65  C   UNL A   1      45.096  25.116  31.545  1.00  0.00     0.049 A 
ATOM     66  H   UNL A   1      43.575  23.719  31.161  1.00  0.00     0.167 HD
ATOM     67  C   UNL A   1      44.522  26.231  33.602  1.00  0.00     0.074 A 
ATOM     68  C   UNL A   1      44.981  26.908  34.806  1.00  0.00     0.031 C 
ATOM     69  C   UNL A   1      45.013  25.113  32.992  1.00  0.00     0.037 A 
BRANCH  56  70
ATOM     70  C   UNL A   1      43.930  23.127  27.252  1.00  0.00     0.064 A 
ATOM     71  C   UNL A   1      43.207  21.946  26.976  1.00  0.00     0.173 A 
ATOM     72  C   UNL A   1      44.949  23.430  26.329  1.00  0.00     0.173 A 
ATOM     73  F   UNL A   1      42.182  21.551  27.740  1.00  0.00    -0.203 F 
ATOM     74  C   UNL A   1      43.503  21.116  25.896  1.00  0.00     0.198 A 
ATOM     75  C   UNL A   1      45.271  22.575  25.268  1.00  0.00     0.198 A 
ATOM     76  F   UNL A   1      45.625  24.583  26.392  1.00  0.00    -0.203 F 
ATOM     77  F   UNL A   1      42.764  20.018  25.684  1.00  0.00    -0.200 F 
ATOM     78  C   UNL A   1      44.545  21.422  25.048  1.00  0.00     0.200 A 
ATOM     79  F   UNL A   1      46.283  22.890  24.446  1.00  0.00    -0.200 F 
ATOM     80  F   UNL A   1      44.829  20.624  24.011  1.00  0.00    -0.200 F 
ENDBRANCH  56  70
BRANCH  57  81
ATOM     81  C   UNL A   1      41.851  30.325  33.279  1.00  0.00     0.064 A 
ATOM     82  C   UNL A   1      40.350  29.355  33.456  1.00  0.00     0.173 A 
ATOM     83  C   UNL A   1      41.712  32.028  33.462  1.00  0.00     0.173 A 
ATOM     84  F   UNL A   1      40.587  28.223  32.809  1.00  0.00    -0.203 F 
ATOM     85  C   UNL A   1      38.653  30.177  33.709  1.00  0.00     0.198 A 
ATOM     86  C   UNL A   1      40.171  32.859  33.691  1.00  0.00     0.198 A 
ATOM     87  F   UNL A   1      42.843  32.735  33.623  1.00  0.00    -0.203 F 
ATOM     88  F   UNL A   1      37.463  29.571  33.646  1.00  0.00    -0.200 F 
ATOM     89  C   UNL A   1      38.638  31.981  33.807  1.00  0.00     0.200 A 
ATOM     90  F   UNL A   1      40.209  34.123  34.151  1.00  0.00    -0.200 F 
ATOM     91  F   UNL A   1      37.522  32.659  34.094  1.00  0.00    -0.200 F 
ENDBRANCH  57  81
BRANCH  69  92
ATOM     92  C   UNL A   1      45.545  23.919  33.737  1.00  0.00     0.064 A 
ATOM     93  C   UNL A   1      44.786  22.756  33.934  1.00  0.00     0.173 A 
ATOM     94  C   UNL A   1      46.919  23.822  34.072  1.00  0.00     0.173 A 
ATOM     95  F   UNL A   1      43.509  22.675  33.538  1.00  0.00    -0.203 F 
ATOM     96  C   UNL A   1      45.339  21.604  34.486  1.00  0.00     0.198 A 
ATOM     97  C   UNL A   1      47.481  22.645  34.552  1.00  0.00     0.198 A 
ATOM     98  F   UNL A   1      47.771  24.842  33.892  1.00  0.00    -0.203 F 
ATOM     99  F   UNL A   1      44.558  20.535  34.692  1.00  0.00    -0.200 F 
ATOM    100  C   UNL A   1      46.686  21.543  34.778  1.00  0.00     0.200 A 
ATOM    101  F   UNL A   1      48.803  22.578  34.761  1.00  0.00    -0.200 F 
ATOM    102  F   UNL A   1      47.224  20.411  35.252  1.00  0.00    -0.200 F 
ENDBRANCH  69  92
ENDBRANCH  43  44
ENDBRANCH  36  38
ENDBRANCH  35  36
ENDBRANCH  34  35
ENDBRANCH  33  34
ENDBRANCH  32  33
ENDBRANCH   1  32
TORSDOF 19
ENDMDL
MODEL 3
REMARK VINA RESULT:     -13.6      5.098     12.867
REMARK SMILES Cc1ccc(-c2cc(Cl)cc3c2O[C@H](C(F)(F)F)C(C(=O)OCCOCCOCCOC(=O)c2ccc(-c4c5nc(c(-c6c(F)c(F)c(F)c(F)c6F)c6ccc([nH]6)c(-c6c(F)c(F)c(F)c(F)c6F)c6nc(c(-c7c(F)c(F)c(F)c(F)c7F)c7ccc4[nH]7)C=C6)C=C5)cc2)=C3)cc1F
REMARK SMILES IDX 27 1 26 2 25 3 24 4 23 5 22 6 20 7 21 8 19 9 6 10 7 11 12 12
REMARK SMILES IDX 8 13 11 14 13 15 9 16 10 17 97 18 14 19 5 20 1 21 2 22 3 23
REMARK SMILES IDX 99 24 4 25 98 26 100 27 15 28 16 29 17 30 18 31 28 32 29 33
REMARK SMILES IDX 30 34 31 35 32 36 33 37 34 38 35 39 96 40 36 41 95 42 37 43
REMARK SMILES IDX 38 44 39 45 89 46 40 47 94 48 88 49 90 50 41 51 93 52 87 53
REMARK SMILES IDX 86 54 42 56 74 57 54 58 73 59 55 60 58 61 72 62 91 63 56 64
REMARK SMILES IDX 57 65 71 67 92 68 59 69 43 70 44 71 52 72 45 73 46 74 50 75
REMARK SMILES IDX 53 76 47 77 48 78 51 79 49 80 75 81 76 82 84 83 77 84 78 85
REMARK SMILES IDX 82 86 85 87 79 88 80 89 83 90 81 91 60 92 61 93 69 94 62 95
REMARK SMILES IDX 63 96 67 97 70 98 64 99 65 100 68 101 66 102
REMARK H PARENT 90 55 58 66
REMARK Flexibility Score: inf
ROOT
ATOM      1  C   UNL A   1      40.385  34.854  29.275  1.00  0.00     0.188 C 
ENDROOT
BRANCH   1   2
ATOM      2  C   UNL A   1      41.060  35.756  27.907  1.00  0.00     0.188 C 
BRANCH   2   3
ATOM      3  O   UNL A   1      42.897  35.541  27.058  1.00  0.00    -0.376 OA
BRANCH   3   4
ATOM      4  C   UNL A   1      44.465  36.348  27.389  1.00  0.00     0.202 C 
BRANCH   4   5
ATOM      5  C   UNL A   1      45.701  35.860  28.649  1.00  0.00     0.261 C 
BRANCH   5   6
ATOM      6  O   UNL A   1      45.663  34.483  29.484  1.00  0.00    -0.460 OA
BRANCH   6   7
ATOM      7  C   UNL A   1      44.769  33.444  29.298  1.00  0.00     0.338 C 
ATOM      8  O   UNL A   1      43.748  33.295  29.967  1.00  0.00    -0.246 OA
BRANCH   7   9
ATOM      9  C   UNL A   1      44.992  32.439  28.167  1.00  0.00     0.087 C 
ATOM     10  C   UNL A   1      45.576  28.598  26.436  1.00  0.00     0.026 A 
ATOM     11  C   UNL A   1      44.477  27.828  26.028  1.00  0.00     0.033 A 
ATOM     12  C   UNL A   1      45.394  29.931  26.880  1.00  0.00     0.135 A 
ATOM     13  C   UNL A   1      43.208  28.376  26.091  1.00  0.00     0.042 A 
ATOM     14  C   UNL A   1      44.140  30.499  26.903  1.00  0.00     0.019 A 
ATOM     15  O   UNL A   1      46.493  30.676  27.238  1.00  0.00    -0.475 OA
ATOM     16  Cl  UNL A   1      41.837  27.436  25.628  1.00  0.00    -0.084 Cl
ATOM     17  C   UNL A   1      43.043  29.694  26.533  1.00  0.00     0.032 A 
ATOM     18  C   UNL A   1      44.041  31.895  27.370  1.00  0.00     0.027 C 
ATOM     19  C   UNL A   1      46.308  31.712  28.254  1.00  0.00     0.316 C 
BRANCH  10  20
ATOM     20  C   UNL A   1      46.916  28.030  26.445  1.00  0.00    -0.012 A 
ATOM     21  C   UNL A   1      50.413  25.569  26.212  1.00  0.00     0.047 C 
ATOM     22  C   UNL A   1      49.249  26.497  26.330  1.00  0.00    -0.015 A 
ATOM     23  C   UNL A   1      48.642  26.757  27.564  1.00  0.00     0.007 A 
ATOM     24  C   UNL A   1      48.720  27.072  25.175  1.00  0.00     0.126 A 
ATOM     25  C   UNL A   1      47.479  27.524  27.623  1.00  0.00     0.009 A 
ATOM     26  C   UNL A   1      47.581  27.849  25.227  1.00  0.00     0.048 A 
ATOM     27  F   UNL A   1      49.280  26.827  23.983  1.00  0.00    -0.207 F 
ENDBRANCH  10  20
BRANCH  19  28
ATOM     28  C   UNL A   1      46.644  31.161  29.642  1.00  0.00     0.430 C 
ATOM     29  F   UNL A   1      47.755  31.757  30.135  1.00  0.00    -0.167 F 
ATOM     30  F   UNL A   1      45.658  31.417  30.531  1.00  0.00    -0.167 F 
ATOM     31  F   UNL A   1      46.874  29.828  29.622  1.00  0.00    -0.167 F 
ENDBRANCH  19  28
ENDBRANCH   7   9
ENDBRANCH   6   7
ENDBRANCH   5   6
ENDBRANCH   4   5
ENDBRANCH   3   4
ENDBRANCH   2   3
ENDBRANCH   1   2
BRANCH   1  32
ATOM     32  O   UNL A   1      39.320  33.926  29.421  1.00  0.00    -0.376 OA
BRANCH  32  33
ATOM     33  C   UNL A   1      37.925  34.146  29.471  1.00  0.00     0.202 C 
BRANCH  33  34
ATOM     34  C   UNL A   1      36.922  32.989  29.521  1.00  0.00     0.261 C 
BRANCH  34  35
ATOM     35  O   UNL A   1      37.142  32.008  28.511  1.00  0.00    -0.460 OA
BRANCH  35  36
ATOM     36  C   UNL A   1      36.325  30.923  28.577  1.00  0.00     0.338 C 
ATOM     37  O   UNL A   1      35.132  30.882  28.332  1.00  0.00    -0.246 OA
BRANCH  36  38
ATOM     38  C   UNL A   1      37.211  29.733  28.599  1.00  0.00     0.060 A 
ATOM     39  C   UNL A   1      37.355  28.944  29.756  1.00  0.00     0.016 A 
ATOM     40  C   UNL A   1      38.201  29.738  27.610  1.00  0.00     0.016 A 
ATOM     41  C   UNL A   1      38.569  28.290  29.997  1.00  0.00     0.010 A 
ATOM     42  C   UNL A   1      39.417  29.132  27.884  1.00  0.00     0.010 A 
ATOM     43  C   UNL A   1      39.630  28.465  29.100  1.00  0.00    -0.014 A 
BRANCH  43  44
ATOM     44  C   UNL A   1      40.942  27.844  29.273  1.00  0.00     0.031 A 
ATOM     45  C   UNL A   1      41.020  26.436  28.866  1.00  0.00     0.074 A 
ATOM     46  C   UNL A   1      42.068  28.495  29.658  1.00  0.00     0.049 A 
ATOM     47  N   UNL A   1      41.861  25.595  29.343  1.00  0.00    -0.248 NA
ATOM     48  C   UNL A   1      40.121  25.859  27.870  1.00  0.00     0.031 C 
ATOM     49  C   UNL A   1      43.462  28.053  29.693  1.00  0.00     0.029 A 
ATOM     50  N   UNL A   1      42.184  29.737  30.261  1.00  0.00    -0.354 N 
ATOM     51  C   UNL A   1      41.889  24.541  28.463  1.00  0.00     0.074 A 
ATOM     52  C   UNL A   1      40.695  24.670  27.667  1.00  0.00     0.031 C 
ATOM     53  C   UNL A   1      44.109  28.735  30.665  1.00  0.00     0.029 A 
ATOM     54  C   UNL A   1      43.103  29.572  31.297  1.00  0.00     0.049 A 
ATOM     55  H   UNL A   1      41.714  30.565  30.010  1.00  0.00     0.167 HD
ATOM     56  C   UNL A   1      43.036  23.813  28.372  1.00  0.00     0.037 A 
ATOM     57  C   UNL A   1      42.692  29.690  32.580  1.00  0.00     0.037 A 
ATOM     58  C   UNL A   1      44.043  24.329  29.299  1.00  0.00     0.049 A 
ATOM     59  C   UNL A   1      43.197  28.465  33.275  1.00  0.00     0.074 A 
ATOM     60  C   UNL A   1      45.140  25.155  29.119  1.00  0.00     0.029 A 
ATOM     61  N   UNL A   1      43.775  24.328  30.665  1.00  0.00    -0.354 N 
ATOM     62  N   UNL A   1      43.154  27.284  32.702  1.00  0.00    -0.248 NA
ATOM     63  C   UNL A   1      44.069  28.499  34.451  1.00  0.00     0.031 C 
ATOM     64  C   UNL A   1      45.518  25.669  30.386  1.00  0.00     0.029 A 
ATOM     65  C   UNL A   1      44.619  25.193  31.330  1.00  0.00     0.049 A 
ATOM     66  H   UNL A   1      43.077  23.785  31.099  1.00  0.00     0.167 HD
ATOM     67  C   UNL A   1      44.100  26.487  33.295  1.00  0.00     0.074 A 
ATOM     68  C   UNL A   1      44.591  27.260  34.426  1.00  0.00     0.031 C 
ATOM     69  C   UNL A   1      44.568  25.315  32.773  1.00  0.00     0.037 A 
BRANCH  56  70
ATOM     70  C   UNL A   1      43.343  22.857  27.249  1.00  0.00     0.064 A 
ATOM     71  C   UNL A   1      42.667  21.621  27.145  1.00  0.00     0.173 A 
ATOM     72  C   UNL A   1      44.281  23.108  26.230  1.00  0.00     0.173 A 
ATOM     73  F   UNL A   1      41.717  21.260  28.015  1.00  0.00    -0.203 F 
ATOM     74  C   UNL A   1      42.936  20.697  26.136  1.00  0.00     0.198 A 
ATOM     75  C   UNL A   1      44.578  22.164  25.240  1.00  0.00     0.198 A 
ATOM     76  F   UNL A   1      44.897  24.292  26.129  1.00  0.00    -0.203 F 
ATOM     77  F   UNL A   1      42.244  19.550  26.088  1.00  0.00    -0.200 F 
ATOM     78  C   UNL A   1      43.902  20.962  25.190  1.00  0.00     0.200 A 
ATOM     79  F   UNL A   1      45.516  22.438  24.322  1.00  0.00    -0.200 F 
ATOM     80  F   UNL A   1      44.159  20.074  24.222  1.00  0.00    -0.200 F 
ENDBRANCH  56  70
BRANCH  57  81
ATOM     81  C   UNL A   1      41.461  30.568  32.676  1.00  0.00     0.064 A 
ATOM     82  C   UNL A   1      39.965  29.640  33.033  1.00  0.00     0.173 A 
ATOM     83  C   UNL A   1      41.338  32.282  32.661  1.00  0.00     0.173 A 
ATOM     84  F   UNL A   1      40.168  28.437  32.517  1.00  0.00    -0.203 F 
ATOM     85  C   UNL A   1      38.286  30.503  33.262  1.00  0.00     0.198 A 
ATOM     86  C   UNL A   1      39.813  33.149  32.856  1.00  0.00     0.198 A 
ATOM     87  F   UNL A   1      42.478  32.992  32.686  1.00  0.00    -0.203 F 
ATOM     88  F   UNL A   1      37.091  29.905  33.324  1.00  0.00    -0.200 F 
ATOM     89  C   UNL A   1      38.283  32.306  33.144  1.00  0.00     0.200 A 
ATOM     90  F   UNL A   1      39.877  34.458  33.160  1.00  0.00    -0.200 F 
ATOM     91  F   UNL A   1      37.183  33.024  33.397  1.00  0.00    -0.200 F 
ENDBRANCH  57  81
BRANCH  69  92
ATOM     92  C   UNL A   1      45.104  24.184  33.607  1.00  0.00     0.064 A 
ATOM     93  C   UNL A   1      44.365  23.018  33.858  1.00  0.00     0.173 A 
ATOM     94  C   UNL A   1      46.470  24.140  33.983  1.00  0.00     0.173 A 
ATOM     95  F   UNL A   1      43.101  22.883  33.435  1.00  0.00    -0.203 F 
ATOM     96  C   UNL A   1      44.926  21.917  34.497  1.00  0.00     0.198 A 
ATOM     97  C   UNL A   1      47.044  23.010  34.553  1.00  0.00     0.198 A 
ATOM     98  F   UNL A   1      47.304  25.166  33.761  1.00  0.00    -0.203 F 
ATOM     99  F   UNL A   1      44.163  20.845  34.751  1.00  0.00    -0.200 F 
ATOM    100  C   UNL A   1      46.267  21.905  34.828  1.00  0.00     0.200 A 
ATOM    101  F   UNL A   1      48.360  22.987  34.799  1.00  0.00    -0.200 F 
ATOM    102  F   UNL A   1      46.815  20.819  35.387  1.00  0.00    -0.200 F 
ENDBRANCH  69  92
ENDBRANCH  43  44
ENDBRANCH  36  38
ENDBRANCH  35  36
ENDBRANCH  34  35
ENDBRANCH  33  34
ENDBRANCH  32  33
ENDBRANCH   1  32
TORSDOF 19
ENDMDL
