MODEL 1
REMARK VINA RESULT:      -9.8      0.000      0.000
REMARK SMILES CCCSc1nc(=O)cc(CC(=O)OCCOCCOCCOC(=O)c2ccc(-c3c4nc(c(-c5c(F)c(F)c(F)c(F)c5F)c5ccc([nH]5)c(-c5c(F)c(F)c(F)c(F)c5F)c5nc(c(-c6c(F)c(F)c(F)c(F)c6F)c6ccc3[nH]6)C=C5)C=C4)cc2)[nH]1
REMARK SMILES IDX 18 1 17 2 16 3 15 4 14 5 12 6 13 7 11 8 10 9 5 10 6 11 89 12
REMARK SMILES IDX 7 13 8 15 9 16 4 17 3 18 2 19 1 20 19 21 20 22 21 23 22 24
REMARK SMILES IDX 23 25 24 26 25 27 26 28 27 29 88 30 28 31 87 32 29 33 30 34
REMARK SMILES IDX 31 35 81 36 32 37 86 38 80 39 82 40 33 41 85 42 79 43 78 44
REMARK SMILES IDX 34 46 66 47 46 48 65 49 47 50 50 51 64 52 83 53 48 54 49 55
REMARK SMILES IDX 63 57 84 58 51 59 35 60 36 61 44 62 37 63 38 64 42 65 45 66
REMARK SMILES IDX 39 67 40 68 43 69 41 70 67 71 68 72 76 73 69 74 70 75 74 76
REMARK SMILES IDX 77 77 71 78 72 79 75 80 73 81 52 82 53 83 61 84 54 85 55 86
REMARK SMILES IDX 59 87 62 88 56 89 57 90 60 91 58 92
REMARK H PARENT 89 14 82 45 50 56
REMARK Flexibility Score: inf
ROOT
ATOM      1  C   UNL A   1      33.704  29.289  26.427  1.00  0.00     0.188 C 
ENDROOT
BRANCH   1   2
ATOM      2  O   UNL A   1      33.082  28.753  25.260  1.00  0.00    -0.376 OA
BRANCH   2   3
ATOM      3  C   UNL A   1      33.690  28.957  23.992  1.00  0.00     0.202 C 
BRANCH   3   4
ATOM      4  C   UNL A   1      32.771  28.881  22.762  1.00  0.00     0.261 C 
BRANCH   4   5
ATOM      5  O   UNL A   1      32.010  27.651  22.620  1.00  0.00    -0.463 OA
BRANCH   5   6
ATOM      6  C   UNL A   1      30.675  27.735  22.840  1.00  0.00     0.311 C 
ATOM      7  O   UNL A   1      29.882  28.219  22.035  1.00  0.00    -0.252 OA
BRANCH   6   8
ATOM      8  C   UNL A   1      30.149  27.137  24.161  1.00  0.00     0.176 C 
BRANCH   8   9
ATOM      9  C   UNL A   1      30.804  26.015  24.936  1.00  0.00     0.034 A 
ATOM     10  C   UNL A   1      32.815  24.873  25.565  1.00  0.00     0.169 A 
ATOM     11  N   UNL A   1      32.225  24.017  26.334  1.00  0.00    -0.185 NA
ATOM     12  N   UNL A   1      32.170  25.891  24.929  1.00  0.00    -0.337 N 
ATOM     13  C   UNL A   1      30.874  24.159  26.546  1.00  0.00     0.273 A 
ATOM     14  H   UNL A   1      32.704  26.561  24.445  1.00  0.00     0.168 HD
ATOM     15  O   UNL A   1      30.224  23.462  27.318  1.00  0.00    -0.267 OA
ATOM     16  C   UNL A   1      30.140  25.214  25.783  1.00  0.00     0.095 A 
BRANCH  10  17
ATOM     17  S   UNL A   1      34.531  24.649  25.306  1.00  0.00    -0.088 SA
BRANCH  17  18
ATOM     18  C   UNL A   1      34.717  22.993  24.599  1.00  0.00     0.078 C 
BRANCH  18  19
ATOM     19  C   UNL A   1      36.005  22.267  25.010  1.00  0.00     0.008 C 
ATOM     20  C   UNL A   1      35.947  20.746  25.057  1.00  0.00     0.005 C 
ENDBRANCH  18  19
ENDBRANCH  17  18
ENDBRANCH  10  17
ENDBRANCH   8   9
ENDBRANCH   6   8
ENDBRANCH   5   6
ENDBRANCH   4   5
ENDBRANCH   3   4
ENDBRANCH   2   3
ENDBRANCH   1   2
BRANCH   1  21
ATOM     21  C   UNL A   1      32.971  30.360  27.257  1.00  0.00     0.188 C 
BRANCH  21  22
ATOM     22  O   UNL A   1      31.814  30.830  26.606  1.00  0.00    -0.376 OA
BRANCH  22  23
ATOM     23  C   UNL A   1      31.551  32.211  26.647  1.00  0.00     0.202 C 
BRANCH  23  24
ATOM     24  C   UNL A   1      32.627  33.092  27.296  1.00  0.00     0.261 C 
BRANCH  24  25
ATOM     25  O   UNL A   1      32.239  33.818  28.477  1.00  0.00    -0.460 OA
BRANCH  25  26
ATOM     26  C   UNL A   1      32.987  34.891  28.821  1.00  0.00     0.338 C 
ATOM     27  O   UNL A   1      32.668  36.067  28.727  1.00  0.00    -0.246 OA
BRANCH  26  28
ATOM     28  C   UNL A   1      34.206  34.396  29.496  1.00  0.00     0.060 A 
ATOM     29  C   UNL A   1      34.112  33.767  30.737  1.00  0.00     0.016 A 
ATOM     30  C   UNL A   1      35.456  34.567  28.889  1.00  0.00     0.016 A 
ATOM     31  C   UNL A   1      35.274  33.308  31.367  1.00  0.00     0.010 A 
ATOM     32  C   UNL A   1      36.622  34.129  29.530  1.00  0.00     0.010 A 
ATOM     33  C   UNL A   1      36.538  33.480  30.769  1.00  0.00    -0.014 A 
BRANCH  33  34
ATOM     34  C   UNL A   1      37.729  32.828  31.376  1.00  0.00     0.031 A 
ATOM     35  C   UNL A   1      38.274  33.237  32.711  1.00  0.00     0.074 A 
ATOM     36  C   UNL A   1      38.325  31.836  30.690  1.00  0.00     0.049 A 
ATOM     37  N   UNL A   1      39.208  32.662  33.429  1.00  0.00    -0.248 NA
ATOM     38  C   UNL A   1      37.715  34.454  33.312  1.00  0.00     0.031 C 
ATOM     39  C   UNL A   1      37.931  31.398  29.351  1.00  0.00     0.029 A 
ATOM     40  N   UNL A   1      39.367  31.007  31.022  1.00  0.00    -0.354 N 
ATOM     41  C   UNL A   1      39.333  33.429  34.578  1.00  0.00     0.074 A 
ATOM     42  C   UNL A   1      38.423  34.548  34.432  1.00  0.00     0.031 C 
ATOM     43  C   UNL A   1      38.687  30.350  28.995  1.00  0.00     0.029 A 
ATOM     44  C   UNL A   1      39.632  30.056  30.069  1.00  0.00     0.049 A 
ATOM     45  H   UNL A   1      39.874  31.086  31.863  1.00  0.00     0.167 HD
ATOM     46  C   UNL A   1      40.117  33.203  35.662  1.00  0.00     0.037 A 
ATOM     47  C   UNL A   1      40.522  29.045  30.062  1.00  0.00     0.037 A 
ATOM     48  C   UNL A   1      41.034  32.094  35.787  1.00  0.00     0.049 A 
ATOM     49  C   UNL A   1      41.391  28.819  31.266  1.00  0.00     0.074 A 
ATOM     50  C   UNL A   1      41.823  31.744  36.870  1.00  0.00     0.029 A 
ATOM     51  N   UNL A   1      41.303  31.169  34.787  1.00  0.00    -0.354 N 
ATOM     52  N   UNL A   1      41.420  29.481  32.398  1.00  0.00    -0.248 NA
ATOM     53  C   UNL A   1      42.342  27.703  31.198  1.00  0.00     0.031 C 
ATOM     54  C   UNL A   1      42.616  30.653  36.504  1.00  0.00     0.029 A 
ATOM     55  C   UNL A   1      42.276  30.275  35.214  1.00  0.00     0.049 A 
ATOM     56  H   UNL A   1      40.866  31.149  33.905  1.00  0.00     0.167 HD
ATOM     57  C   UNL A   1      42.382  28.857  33.181  1.00  0.00     0.074 A 
ATOM     58  C   UNL A   1      42.896  27.748  32.403  1.00  0.00     0.031 C 
ATOM     59  C   UNL A   1      42.800  29.183  34.429  1.00  0.00     0.037 A 
BRANCH  46  60
ATOM     60  C   UNL A   1      40.019  34.169  36.812  1.00  0.00     0.064 A 
ATOM     61  C   UNL A   1      39.149  33.941  37.889  1.00  0.00     0.173 A 
ATOM     62  C   UNL A   1      40.846  35.302  36.871  1.00  0.00     0.173 A 
ATOM     63  F   UNL A   1      38.338  32.872  37.888  1.00  0.00    -0.203 F 
ATOM     64  C   UNL A   1      39.086  34.825  38.964  1.00  0.00     0.198 A 
ATOM     65  C   UNL A   1      40.805  36.167  37.964  1.00  0.00     0.198 A 
ATOM     66  F   UNL A   1      41.709  35.565  35.878  1.00  0.00    -0.203 F 
ATOM     67  F   UNL A   1      38.213  34.609  39.957  1.00  0.00    -0.200 F 
ATOM     68  C   UNL A   1      39.919  35.933  39.005  1.00  0.00     0.200 A 
ATOM     69  F   UNL A   1      41.625  37.226  38.010  1.00  0.00    -0.200 F 
ATOM     70  F   UNL A   1      39.865  36.777  40.044  1.00  0.00    -0.200 F 
ENDBRANCH  46  60
BRANCH  47  71
ATOM     71  C   UNL A   1      40.571  28.142  28.884  1.00  0.00     0.064 A 
ATOM     72  C   UNL A   1      39.795  26.976  28.838  1.00  0.00     0.173 A 
ATOM     73  C   UNL A   1      41.330  28.468  27.749  1.00  0.00     0.173 A 
ATOM     74  F   UNL A   1      39.069  26.613  29.905  1.00  0.00    -0.203 F 
ATOM     75  C   UNL A   1      39.769  26.176  27.698  1.00  0.00     0.198 A 
ATOM     76  C   UNL A   1      41.280  27.682  26.601  1.00  0.00     0.198 A 
ATOM     77  F   UNL A   1      42.083  29.578  27.743  1.00  0.00    -0.203 F 
ATOM     78  F   UNL A   1      39.031  25.058  27.685  1.00  0.00    -0.200 F 
ATOM     79  C   UNL A   1      40.500  26.537  26.576  1.00  0.00     0.200 A 
ATOM     80  F   UNL A   1      41.972  28.047  25.513  1.00  0.00    -0.200 F 
ATOM     81  F   UNL A   1      40.452  25.782  25.470  1.00  0.00    -0.200 F 
ENDBRANCH  47  71
BRANCH  59  82
ATOM     82  C   UNL A   1      43.882  28.337  35.042  1.00  0.00     0.064 A 
ATOM     83  C   UNL A   1      43.583  27.168  35.757  1.00  0.00     0.173 A 
ATOM     84  C   UNL A   1      45.236  28.661  34.857  1.00  0.00     0.173 A 
ATOM     85  F   UNL A   1      42.307  26.818  35.976  1.00  0.00    -0.203 F 
ATOM     86  C   UNL A   1      44.595  26.364  36.277  1.00  0.00     0.198 A 
ATOM     87  C   UNL A   1      46.246  27.837  35.348  1.00  0.00     0.198 A 
ATOM     88  F   UNL A   1      45.580  29.764  34.176  1.00  0.00    -0.203 F 
ATOM     89  F   UNL A   1      44.283  25.273  36.990  1.00  0.00    -0.200 F 
ATOM     90  C   UNL A   1      45.925  26.692  36.062  1.00  0.00     0.200 A 
ATOM     91  F   UNL A   1      47.530  28.147  35.124  1.00  0.00    -0.200 F 
ATOM     92  F   UNL A   1      46.898  25.908  36.545  1.00  0.00    -0.200 F 
ENDBRANCH  59  82
ENDBRANCH  33  34
ENDBRANCH  26  28
ENDBRANCH  25  26
ENDBRANCH  24  25
ENDBRANCH  23  24
ENDBRANCH  22  23
ENDBRANCH  21  22
ENDBRANCH   1  21
TORSDOF 21
ENDMDL
MODEL 2
REMARK VINA RESULT:      -9.7      0.718      7.506
REMARK SMILES CCCSc1nc(=O)cc(CC(=O)OCCOCCOCCOC(=O)c2ccc(-c3c4nc(c(-c5c(F)c(F)c(F)c(F)c5F)c5ccc([nH]5)c(-c5c(F)c(F)c(F)c(F)c5F)c5nc(c(-c6c(F)c(F)c(F)c(F)c6F)c6ccc3[nH]6)C=C5)C=C4)cc2)[nH]1
REMARK SMILES IDX 18 1 17 2 16 3 15 4 14 5 12 6 13 7 11 8 10 9 5 10 6 11 89 12
REMARK SMILES IDX 7 13 8 15 9 16 4 17 3 18 2 19 1 20 19 21 20 22 21 23 22 24
REMARK SMILES IDX 23 25 24 26 25 27 26 28 27 29 88 30 28 31 87 32 29 33 30 34
REMARK SMILES IDX 31 35 81 36 32 37 86 38 80 39 82 40 33 41 85 42 79 43 78 44
REMARK SMILES IDX 34 46 66 47 46 48 65 49 47 50 50 51 64 52 83 53 48 54 49 55
REMARK SMILES IDX 63 57 84 58 51 59 35 60 36 61 44 62 37 63 38 64 42 65 45 66
REMARK SMILES IDX 39 67 40 68 43 69 41 70 67 71 68 72 76 73 69 74 70 75 74 76
REMARK SMILES IDX 77 77 71 78 72 79 75 80 73 81 52 82 53 83 61 84 54 85 55 86
REMARK SMILES IDX 59 87 62 88 56 89 57 90 60 91 58 92
REMARK H PARENT 89 14 82 45 50 56
REMARK Flexibility Score: inf
ROOT
ATOM      1  C   UNL A   1      33.854  29.581  26.456  1.00  0.00     0.188 C 
ENDROOT
BRANCH   1   2
ATOM      2  O   UNL A   1      33.137  28.993  25.373  1.00  0.00    -0.376 OA
BRANCH   2   3
ATOM      3  C   UNL A   1      33.768  28.872  24.105  1.00  0.00     0.202 C 
BRANCH   3   4
ATOM      4  C   UNL A   1      32.856  28.929  22.868  1.00  0.00     0.261 C 
BRANCH   4   5
ATOM      5  O   UNL A   1      32.049  27.745  22.627  1.00  0.00    -0.463 OA
BRANCH   5   6
ATOM      6  C   UNL A   1      30.709  27.883  22.781  1.00  0.00     0.311 C 
ATOM      7  O   UNL A   1      29.988  28.464  21.973  1.00  0.00    -0.252 OA
BRANCH   6   8
ATOM      8  C   UNL A   1      30.080  27.220  24.024  1.00  0.00     0.176 C 
BRANCH   8   9
ATOM      9  C   UNL A   1      30.447  25.857  24.569  1.00  0.00     0.034 A 
ATOM     10  C   UNL A   1      31.727  23.844  24.336  1.00  0.00     0.169 A 
ATOM     11  N   UNL A   1      31.298  23.309  25.432  1.00  0.00    -0.185 NA
ATOM     12  N   UNL A   1      31.390  25.098  23.924  1.00  0.00    -0.337 N 
ATOM     13  C   UNL A   1      30.479  24.058  26.243  1.00  0.00     0.273 A 
ATOM     14  H   UNL A   1      31.839  25.473  23.132  1.00  0.00     0.168 HD
ATOM     15  O   UNL A   1      30.079  23.689  27.343  1.00  0.00    -0.267 OA
ATOM     16  C   UNL A   1      30.029  25.398  25.759  1.00  0.00     0.095 A 
BRANCH  10  17
ATOM     17  S   UNL A   1      32.754  22.853  23.323  1.00  0.00    -0.088 SA
BRANCH  17  18
ATOM     18  C   UNL A   1      34.304  23.770  23.137  1.00  0.00     0.078 C 
BRANCH  18  19
ATOM     19  C   UNL A   1      35.569  22.941  23.396  1.00  0.00     0.008 C 
ATOM     20  C   UNL A   1      35.489  21.900  24.504  1.00  0.00     0.005 C 
ENDBRANCH  18  19
ENDBRANCH  17  18
ENDBRANCH  10  17
ENDBRANCH   8   9
ENDBRANCH   6   8
ENDBRANCH   5   6
ENDBRANCH   4   5
ENDBRANCH   3   4
ENDBRANCH   2   3
ENDBRANCH   1   2
BRANCH   1  21
ATOM     21  C   UNL A   1      33.176  30.663  27.319  1.00  0.00     0.188 C 
BRANCH  21  22
ATOM     22  O   UNL A   1      31.972  31.115  26.746  1.00  0.00    -0.376 OA
BRANCH  22  23
ATOM     23  C   UNL A   1      31.738  32.502  26.716  1.00  0.00     0.202 C 
BRANCH  23  24
ATOM     24  C   UNL A   1      32.783  33.386  27.410  1.00  0.00     0.261 C 
BRANCH  24  25
ATOM     25  O   UNL A   1      32.284  34.367  28.337  1.00  0.00    -0.460 OA
BRANCH  25  26
ATOM     26  C   UNL A   1      33.147  35.317  28.762  1.00  0.00     0.338 C 
ATOM     27  O   UNL A   1      32.997  36.529  28.693  1.00  0.00    -0.246 OA
BRANCH  26  28
ATOM     28  C   UNL A   1      34.245  34.641  29.486  1.00  0.00     0.060 A 
ATOM     29  C   UNL A   1      33.995  34.010  30.705  1.00  0.00     0.016 A 
ATOM     30  C   UNL A   1      35.538  34.643  28.950  1.00  0.00     0.016 A 
ATOM     31  C   UNL A   1      35.043  33.378  31.382  1.00  0.00     0.010 A 
ATOM     32  C   UNL A   1      36.593  34.031  29.640  1.00  0.00     0.010 A 
ATOM     33  C   UNL A   1      36.349  33.378  30.855  1.00  0.00    -0.014 A 
BRANCH  33  34
ATOM     34  C   UNL A   1      37.401  32.553  31.506  1.00  0.00     0.031 A 
ATOM     35  C   UNL A   1      38.056  31.395  30.815  1.00  0.00     0.074 A 
ATOM     36  C   UNL A   1      37.768  32.872  32.760  1.00  0.00     0.049 A 
ATOM     37  N   UNL A   1      39.087  30.684  31.200  1.00  0.00    -0.248 NA
ATOM     38  C   UNL A   1      37.473  30.968  29.538  1.00  0.00     0.031 C 
ATOM     39  C   UNL A   1      37.154  33.930  33.562  1.00  0.00     0.029 A 
ATOM     40  N   UNL A   1      38.749  32.361  33.574  1.00  0.00    -0.354 N 
ATOM     41  C   UNL A   1      39.296  29.742  30.203  1.00  0.00     0.074 A 
ATOM     42  C   UNL A   1      38.241  29.931  29.226  1.00  0.00     0.031 C 
ATOM     43  C   UNL A   1      37.802  34.024  34.732  1.00  0.00     0.029 A 
ATOM     44  C   UNL A   1      38.862  33.020  34.772  1.00  0.00     0.049 A 
ATOM     45  H   UNL A   1      39.316  31.596  33.320  1.00  0.00     0.167 HD
ATOM     46  C   UNL A   1      40.288  28.822  30.106  1.00  0.00     0.037 A 
ATOM     47  C   UNL A   1      39.732  32.852  35.786  1.00  0.00     0.037 A 
ATOM     48  C   UNL A   1      41.321  28.630  31.097  1.00  0.00     0.049 A 
ATOM     49  C   UNL A   1      40.816  31.819  35.665  1.00  0.00     0.074 A 
ATOM     50  C   UNL A   1      42.406  27.770  31.058  1.00  0.00     0.029 A 
ATOM     51  N   UNL A   1      41.386  29.292  32.316  1.00  0.00    -0.354 N 
ATOM     52  N   UNL A   1      41.077  31.010  34.666  1.00  0.00    -0.248 NA
ATOM     53  C   UNL A   1      41.733  31.682  36.804  1.00  0.00     0.031 C 
ATOM     54  C   UNL A   1      43.085  27.862  32.277  1.00  0.00     0.029 A 
ATOM     55  C   UNL A   1      42.466  28.828  33.054  1.00  0.00     0.049 A 
ATOM     56  H   UNL A   1      40.757  29.989  32.613  1.00  0.00     0.167 HD
ATOM     57  C   UNL A   1      42.191  30.276  35.049  1.00  0.00     0.074 A 
ATOM     58  C   UNL A   1      42.572  30.754  36.364  1.00  0.00     0.031 C 
ATOM     59  C   UNL A   1      42.832  29.292  34.371  1.00  0.00     0.037 A 
BRANCH  46  60
ATOM     60  C   UNL A   1      40.318  27.950  28.880  1.00  0.00     0.064 A 
ATOM     61  C   UNL A   1      41.045  28.314  27.737  1.00  0.00     0.173 A 
ATOM     62  C   UNL A   1      39.665  26.707  28.866  1.00  0.00     0.173 A 
ATOM     63  F   UNL A   1      41.693  29.489  27.695  1.00  0.00    -0.203 F 
ATOM     64  C   UNL A   1      41.092  27.487  26.617  1.00  0.00     0.198 A 
ATOM     65  C   UNL A   1      39.741  25.866  27.757  1.00  0.00     0.198 A 
ATOM     66  F   UNL A   1      38.965  26.296  29.935  1.00  0.00    -0.203 F 
ATOM     67  F   UNL A   1      41.755  27.881  25.522  1.00  0.00    -0.200 F 
ATOM     68  C   UNL A   1      40.445  26.260  26.631  1.00  0.00     0.200 A 
ATOM     69  F   UNL A   1      39.132  24.672  27.781  1.00  0.00    -0.200 F 
ATOM     70  F   UNL A   1      40.499  25.460  25.557  1.00  0.00    -0.200 F 
ENDBRANCH  46  60
BRANCH  47  71
ATOM     71  C   UNL A   1      39.630  33.741  36.971  1.00  0.00     0.064 A 
ATOM     72  C   UNL A   1      40.249  34.999  36.982  1.00  0.00     0.173 A 
ATOM     73  C   UNL A   1      38.847  33.387  38.081  1.00  0.00     0.173 A 
ATOM     74  F   UNL A   1      41.022  35.373  35.953  1.00  0.00    -0.203 F 
ATOM     75  C   UNL A   1      40.079  35.872  38.054  1.00  0.00     0.198 A 
ATOM     76  C   UNL A   1      38.657  34.273  39.138  1.00  0.00     0.198 A 
ATOM     77  F   UNL A   1      38.230  32.197  38.113  1.00  0.00    -0.203 F 
ATOM     78  F   UNL A   1      40.694  37.063  38.047  1.00  0.00    -0.200 F 
ATOM     79  C   UNL A   1      39.272  35.514  39.124  1.00  0.00     0.200 A 
ATOM     80  F   UNL A   1      37.859  33.931  40.159  1.00  0.00    -0.200 F 
ATOM     81  F   UNL A   1      39.087  36.367  40.141  1.00  0.00    -0.200 F 
ENDBRANCH  47  71
BRANCH  59  82
ATOM     82  C   UNL A   1      44.016  28.646  35.037  1.00  0.00     0.064 A 
ATOM     83  C   UNL A   1      45.309  29.173  34.906  1.00  0.00     0.173 A 
ATOM     84  C   UNL A   1      43.847  27.528  35.870  1.00  0.00     0.173 A 
ATOM     85  F   UNL A   1      45.530  30.232  34.113  1.00  0.00    -0.203 F 
ATOM     86  C   UNL A   1      46.390  28.598  35.570  1.00  0.00     0.198 A 
ATOM     87  C   UNL A   1      44.924  26.975  36.558  1.00  0.00     0.198 A 
ATOM     88  F   UNL A   1      42.631  26.987  36.037  1.00  0.00    -0.203 F 
ATOM     89  F   UNL A   1      47.623  29.096  35.398  1.00  0.00    -0.200 F 
ATOM     90  C   UNL A   1      46.195  27.507  36.404  1.00  0.00     0.200 A 
ATOM     91  F   UNL A   1      44.730  25.933  37.378  1.00  0.00    -0.200 F 
ATOM     92  F   UNL A   1      47.233  26.966  37.056  1.00  0.00    -0.200 F 
ENDBRANCH  59  82
ENDBRANCH  33  34
ENDBRANCH  26  28
ENDBRANCH  25  26
ENDBRANCH  24  25
ENDBRANCH  23  24
ENDBRANCH  22  23
ENDBRANCH  21  22
ENDBRANCH   1  21
TORSDOF 21
ENDMDL
MODEL 3
REMARK VINA RESULT:      -9.7      5.547     10.705
REMARK SMILES CCCSc1nc(=O)cc(CC(=O)OCCOCCOCCOC(=O)c2ccc(-c3c4nc(c(-c5c(F)c(F)c(F)c(F)c5F)c5ccc([nH]5)c(-c5c(F)c(F)c(F)c(F)c5F)c5nc(c(-c6c(F)c(F)c(F)c(F)c6F)c6ccc3[nH]6)C=C5)C=C4)cc2)[nH]1
REMARK SMILES IDX 18 1 17 2 16 3 15 4 14 5 12 6 13 7 11 8 10 9 5 10 6 11 89 12
REMARK SMILES IDX 7 13 8 15 9 16 4 17 3 18 2 19 1 20 19 21 20 22 21 23 22 24
REMARK SMILES IDX 23 25 24 26 25 27 26 28 27 29 88 30 28 31 87 32 29 33 30 34
REMARK SMILES IDX 31 35 81 36 32 37 86 38 80 39 82 40 33 41 85 42 79 43 78 44
REMARK SMILES IDX 34 46 66 47 46 48 65 49 47 50 50 51 64 52 83 53 48 54 49 55
REMARK SMILES IDX 63 57 84 58 51 59 35 60 36 61 44 62 37 63 38 64 42 65 45 66
REMARK SMILES IDX 39 67 40 68 43 69 41 70 67 71 68 72 76 73 69 74 70 75 74 76
REMARK SMILES IDX 77 77 71 78 72 79 75 80 73 81 52 82 53 83 61 84 54 85 55 86
REMARK SMILES IDX 59 87 62 88 56 89 57 90 60 91 58 92
REMARK H PARENT 89 14 82 45 50 56
REMARK Flexibility Score: inf
ROOT
ATOM      1  C   UNL A   1      36.709  23.322  25.696  1.00  0.00     0.188 C 
ENDROOT
BRANCH   1   2
ATOM      2  O   UNL A   1      35.588  24.071  26.160  1.00  0.00    -0.376 OA
BRANCH   2   3
ATOM      3  C   UNL A   1      34.371  24.031  25.426  1.00  0.00     0.202 C 
BRANCH   3   4
ATOM      4  C   UNL A   1      33.098  24.468  26.168  1.00  0.00     0.261 C 
BRANCH   4   5
ATOM      5  O   UNL A   1      31.887  23.746  25.819  1.00  0.00    -0.463 OA
BRANCH   5   6
ATOM      6  C   UNL A   1      30.758  24.484  25.682  1.00  0.00     0.311 C 
ATOM      7  O   UNL A   1      30.032  24.797  26.623  1.00  0.00    -0.252 OA
BRANCH   6   8
ATOM      8  C   UNL A   1      30.421  24.983  24.262  1.00  0.00     0.176 C 
BRANCH   8   9
ATOM      9  C   UNL A   1      31.414  25.566  23.281  1.00  0.00     0.034 A 
ATOM     10  C   UNL A   1      32.921  27.343  22.717  1.00  0.00     0.169 A 
ATOM     11  N   UNL A   1      33.319  26.808  21.610  1.00  0.00    -0.185 NA
ATOM     12  N   UNL A   1      32.055  26.742  23.580  1.00  0.00    -0.337 N 
ATOM     13  C   UNL A   1      32.867  25.547  21.298  1.00  0.00     0.273 A 
ATOM     14  H   UNL A   1      31.881  27.168  24.451  1.00  0.00     0.168 HD
ATOM     15  O   UNL A   1      33.239  24.907  20.321  1.00  0.00    -0.267 OA
ATOM     16  C   UNL A   1      31.847  24.916  22.190  1.00  0.00     0.095 A 
BRANCH  10  17
ATOM     17  S   UNL A   1      33.506  28.954  23.070  1.00  0.00    -0.088 SA
BRANCH  17  18
ATOM     18  C   UNL A   1      33.101  29.261  24.808  1.00  0.00     0.078 C 
BRANCH  18  19
ATOM     19  C   UNL A   1      34.027  28.559  25.811  1.00  0.00     0.008 C 
ATOM     20  C   UNL A   1      33.571  28.539  27.263  1.00  0.00     0.005 C 
ENDBRANCH  18  19
ENDBRANCH  17  18
ENDBRANCH  10  17
ENDBRANCH   8   9
ENDBRANCH   6   8
ENDBRANCH   5   6
ENDBRANCH   4   5
ENDBRANCH   3   4
ENDBRANCH   2   3
ENDBRANCH   1   2
BRANCH   1  21
ATOM     21  C   UNL A   1      38.129  23.728  26.131  1.00  0.00     0.188 C 
BRANCH  21  22
ATOM     22  O   UNL A   1      39.025  22.643  26.085  1.00  0.00    -0.376 OA
BRANCH  22  23
ATOM     23  C   UNL A   1      38.491  21.356  25.892  1.00  0.00     0.202 C 
BRANCH  23  24
ATOM     24  C   UNL A   1      39.444  20.301  25.315  1.00  0.00     0.261 C 
BRANCH  24  25
ATOM     25  O   UNL A   1      40.237  19.562  26.262  1.00  0.00    -0.460 OA
BRANCH  25  26
ATOM     26  C   UNL A   1      41.572  19.518  26.055  1.00  0.00     0.338 C 
ATOM     27  O   UNL A   1      42.197  18.639  25.479  1.00  0.00    -0.246 OA
BRANCH  26  28
ATOM     28  C   UNL A   1      42.143  20.808  26.498  1.00  0.00     0.060 A 
ATOM     29  C   UNL A   1      42.706  21.681  25.568  1.00  0.00     0.016 A 
ATOM     30  C   UNL A   1      42.122  21.149  27.856  1.00  0.00     0.016 A 
ATOM     31  C   UNL A   1      43.247  22.896  26.001  1.00  0.00     0.010 A 
ATOM     32  C   UNL A   1      42.684  22.355  28.293  1.00  0.00     0.010 A 
ATOM     33  C   UNL A   1      43.236  23.247  27.365  1.00  0.00    -0.014 A 
BRANCH  33  34
ATOM     34  C   UNL A   1      43.656  24.615  27.772  1.00  0.00     0.031 A 
ATOM     35  C   UNL A   1      45.092  25.043  27.785  1.00  0.00     0.074 A 
ATOM     36  C   UNL A   1      42.699  25.487  28.135  1.00  0.00     0.049 A 
ATOM     37  N   UNL A   1      45.592  26.241  27.970  1.00  0.00    -0.248 NA
ATOM     38  C   UNL A   1      46.100  23.995  27.581  1.00  0.00     0.031 C 
ATOM     39  C   UNL A   1      41.275  25.167  28.232  1.00  0.00     0.029 A 
ATOM     40  N   UNL A   1      42.768  26.816  28.471  1.00  0.00    -0.354 N 
ATOM     41  C   UNL A   1      46.969  26.098  27.880  1.00  0.00     0.074 A 
ATOM     42  C   UNL A   1      47.229  24.685  27.688  1.00  0.00     0.031 C 
ATOM     43  C   UNL A   1      40.598  26.278  28.554  1.00  0.00     0.029 A 
ATOM     44  C   UNL A   1      41.540  27.384  28.707  1.00  0.00     0.049 A 
ATOM     45  H   UNL A   1      43.615  27.314  28.536  1.00  0.00     0.167 HD
ATOM     46  C   UNL A   1      47.921  27.063  27.929  1.00  0.00     0.037 A 
ATOM     47  C   UNL A   1      41.203  28.655  28.997  1.00  0.00     0.037 A 
ATOM     48  C   UNL A   1      47.650  28.466  28.141  1.00  0.00     0.049 A 
ATOM     49  C   UNL A   1      42.274  29.706  29.060  1.00  0.00     0.074 A 
ATOM     50  C   UNL A   1      48.540  29.526  28.144  1.00  0.00     0.029 A 
ATOM     51  N   UNL A   1      46.398  29.001  28.411  1.00  0.00    -0.354 N 
ATOM     52  N   UNL A   1      43.563  29.583  28.858  1.00  0.00    -0.248 NA
ATOM     53  C   UNL A   1      41.844  31.073  29.381  1.00  0.00     0.031 C 
ATOM     54  C   UNL A   1      47.841  30.689  28.481  1.00  0.00     0.029 A 
ATOM     55  C   UNL A   1      46.500  30.369  28.624  1.00  0.00     0.049 A 
ATOM     56  H   UNL A   1      45.560  28.485  28.447  1.00  0.00     0.167 HD
ATOM     57  C   UNL A   1      44.099  30.854  29.017  1.00  0.00     0.074 A 
ATOM     58  C   UNL A   1      42.989  31.739  29.307  1.00  0.00     0.031 C 
ATOM     59  C   UNL A   1      45.395  31.245  28.932  1.00  0.00     0.037 A 
BRANCH  46  60
ATOM     60  C   UNL A   1      49.355  26.643  27.745  1.00  0.00     0.064 A 
ATOM     61  C   UNL A   1      49.914  26.483  26.468  1.00  0.00     0.173 A 
ATOM     62  C   UNL A   1      50.198  26.458  28.853  1.00  0.00     0.173 A 
ATOM     63  F   UNL A   1      49.157  26.651  25.374  1.00  0.00    -0.203 F 
ATOM     64  C   UNL A   1      51.251  26.123  26.306  1.00  0.00     0.198 A 
ATOM     65  C   UNL A   1      51.543  26.130  28.687  1.00  0.00     0.198 A 
ATOM     66  F   UNL A   1      49.725  26.611  30.099  1.00  0.00    -0.203 F 
ATOM     67  F   UNL A   1      51.747  25.931  25.077  1.00  0.00    -0.200 F 
ATOM     68  C   UNL A   1      52.066  25.954  27.415  1.00  0.00     0.200 A 
ATOM     69  F   UNL A   1      52.333  25.988  29.760  1.00  0.00    -0.200 F 
ATOM     70  F   UNL A   1      53.353  25.617  27.258  1.00  0.00    -0.200 F 
ENDBRANCH  46  60
BRANCH  47  71
ATOM     71  C   UNL A   1      39.768  28.991  29.181  1.00  0.00     0.064 A 
ATOM     72  C   UNL A   1      38.967  29.349  28.088  1.00  0.00     0.173 A 
ATOM     73  C   UNL A   1      39.151  28.880  30.436  1.00  0.00     0.173 A 
ATOM     74  F   UNL A   1      39.515  29.485  26.872  1.00  0.00    -0.203 F 
ATOM     75  C   UNL A   1      37.601  29.574  28.243  1.00  0.00     0.198 A 
ATOM     76  C   UNL A   1      37.781  29.079  30.584  1.00  0.00     0.198 A 
ATOM     77  F   UNL A   1      39.875  28.533  31.511  1.00  0.00    -0.203 F 
ATOM     78  F   UNL A   1      36.859  29.931  27.186  1.00  0.00    -0.200 F 
ATOM     79  C   UNL A   1      37.007  29.426  29.488  1.00  0.00     0.200 A 
ATOM     80  F   UNL A   1      37.209  28.913  31.785  1.00  0.00    -0.200 F 
ATOM     81  F   UNL A   1      35.688  29.615  29.630  1.00  0.00    -0.200 F 
ENDBRANCH  47  71
BRANCH  59  82
ATOM     82  C   UNL A   1      45.699  32.699  29.169  1.00  0.00     0.064 A 
ATOM     83  C   UNL A   1      46.038  33.180  30.442  1.00  0.00     0.173 A 
ATOM     84  C   UNL A   1      45.716  33.610  28.100  1.00  0.00     0.173 A 
ATOM     85  F   UNL A   1      46.025  32.356  31.501  1.00  0.00    -0.203 F 
ATOM     86  C   UNL A   1      46.369  34.519  30.640  1.00  0.00     0.198 A 
ATOM     87  C   UNL A   1      46.079  34.941  28.295  1.00  0.00     0.198 A 
ATOM     88  F   UNL A   1      45.406  33.204  26.860  1.00  0.00    -0.203 F 
ATOM     89  F   UNL A   1      46.652  34.962  31.873  1.00  0.00    -0.200 F 
ATOM     90  C   UNL A   1      46.400  35.395  29.566  1.00  0.00     0.200 A 
ATOM     91  F   UNL A   1      46.127  35.781  27.253  1.00  0.00    -0.200 F 
ATOM     92  F   UNL A   1      46.736  36.678  29.754  1.00  0.00    -0.200 F 
ENDBRANCH  59  82
ENDBRANCH  33  34
ENDBRANCH  26  28
ENDBRANCH  25  26
ENDBRANCH  24  25
ENDBRANCH  23  24
ENDBRANCH  22  23
ENDBRANCH  21  22
ENDBRANCH   1  21
TORSDOF 21
ENDMDL
