MODEL 1
REMARK VINA RESULT:     -11.4      0.000      0.000
REMARK SMILES Cc1c(Cl)cc2c(c1C)O[C@@H](C(F)(F)F)C(C(=O)OCCOCCOCCOC(=O)c1ccc(-c3c4nc(c(-c5c(F)c(F)c(F)c(F)c5F)c5ccc([nH]5)c(-c5c(F)c(F)c(F)c(F)c5F)c5nc(c(-c6c(F)c(F)c(F)c(F)c6F)c6ccc3[nH]6)C=C5)C=C4)cc1)=C2
REMARK SMILES IDX 24 1 23 2 22 3 21 4 20 5 19 6 17 7 18 8 16 9 1 10 2 11 3 12
REMARK SMILES IDX 8 13 4 14 5 15 7 16 9 17 6 18 10 19 94 20 11 21 12 22 13 23
REMARK SMILES IDX 14 24 15 25 25 26 26 27 27 28 28 29 29 30 30 31 31 32 32 33
REMARK SMILES IDX 93 34 33 35 92 36 34 37 35 38 36 39 86 40 37 41 91 42 85 43
REMARK SMILES IDX 87 44 38 45 90 46 84 47 83 48 39 50 71 51 51 52 70 53 52 54
REMARK SMILES IDX 55 55 69 56 88 57 53 58 54 59 68 61 89 62 56 63 40 64 41 65
REMARK SMILES IDX 49 66 42 67 43 68 47 69 50 70 44 71 45 72 48 73 46 74 72 75
REMARK SMILES IDX 73 76 81 77 74 78 75 79 79 80 82 81 76 82 77 83 80 84 78 85
REMARK SMILES IDX 57 86 58 87 66 88 59 89 60 90 64 91 67 92 61 93 62 94 65 95
REMARK SMILES IDX 63 96
REMARK H PARENT 87 49 55 60
REMARK Flexibility Score: inf
ROOT
ATOM      1  C   UNL A   1      36.401  21.863  24.455  1.00  0.00     0.188 C 
ENDROOT
BRANCH   1   2
ATOM      2  C   UNL A   1      35.463  21.482  25.616  1.00  0.00     0.188 C 
BRANCH   2   3
ATOM      3  O   UNL A   1      34.716  20.274  25.552  1.00  0.00    -0.376 OA
BRANCH   3   4
ATOM      4  C   UNL A   1      33.709  20.122  24.559  1.00  0.00     0.202 C 
BRANCH   4   5
ATOM      5  C   UNL A   1      32.315  20.728  24.795  1.00  0.00     0.261 C 
BRANCH   5   6
ATOM      6  O   UNL A   1      32.206  22.134  24.493  1.00  0.00    -0.460 OA
BRANCH   6   7
ATOM      7  C   UNL A   1      31.240  22.806  25.155  1.00  0.00     0.338 C 
ATOM      8  O   UNL A   1      30.488  22.342  25.999  1.00  0.00    -0.246 OA
BRANCH   7   9
ATOM      9  C   UNL A   1      31.289  24.250  24.853  1.00  0.00     0.087 C 
ATOM     10  C   UNL A   1      29.937  29.950  21.971  1.00  0.00     0.046 C 
ATOM     11  C   UNL A   1      30.015  28.677  22.780  1.00  0.00    -0.026 A 
ATOM     12  C   UNL A   1      28.830  28.059  23.233  1.00  0.00     0.045 A 
ATOM     13  C   UNL A   1      31.251  28.014  23.000  1.00  0.00    -0.004 A 
ATOM     14  Cl  UNL A   1      27.264  28.740  22.950  1.00  0.00    -0.084 Cl
ATOM     15  C   UNL A   1      28.862  26.830  23.899  1.00  0.00     0.032 A 
ATOM     16  C   UNL A   1      31.261  26.761  23.653  1.00  0.00     0.131 A 
ATOM     17  C   UNL A   1      32.581  28.594  22.582  1.00  0.00     0.049 C 
ATOM     18  C   UNL A   1      30.074  26.171  24.094  1.00  0.00     0.019 A 
ATOM     19  O   UNL A   1      32.468  26.110  23.736  1.00  0.00    -0.475 OA
ATOM     20  C   UNL A   1      30.096  24.818  24.622  1.00  0.00     0.027 C 
ATOM     21  C   UNL A   1      32.591  24.972  24.638  1.00  0.00     0.316 C 
BRANCH  21  22
ATOM     22  C   UNL A   1      33.328  25.445  25.905  1.00  0.00     0.430 C 
ATOM     23  F   UNL A   1      34.462  26.125  25.618  1.00  0.00    -0.167 F 
ATOM     24  F   UNL A   1      32.552  26.229  26.682  1.00  0.00    -0.167 F 
ATOM     25  F   UNL A   1      33.688  24.387  26.675  1.00  0.00    -0.167 F 
ENDBRANCH  21  22
ENDBRANCH   7   9
ENDBRANCH   6   7
ENDBRANCH   5   6
ENDBRANCH   4   5
ENDBRANCH   3   4
ENDBRANCH   2   3
ENDBRANCH   1   2
BRANCH   1  26
ATOM     26  O   UNL A   1      37.723  21.421  24.604  1.00  0.00    -0.376 OA
BRANCH  26  27
ATOM     27  C   UNL A   1      37.987  20.050  24.842  1.00  0.00     0.202 C 
BRANCH  27  28
ATOM     28  C   UNL A   1      39.238  19.522  25.574  1.00  0.00     0.261 C 
BRANCH  28  29
ATOM     29  O   UNL A   1      39.664  20.200  26.761  1.00  0.00    -0.460 OA
BRANCH  29  30
ATOM     30  C   UNL A   1      41.001  20.351  26.938  1.00  0.00     0.338 C 
ATOM     31  O   UNL A   1      41.876  19.550  26.699  1.00  0.00    -0.246 OA
BRANCH  30  32
ATOM     32  C   UNL A   1      41.234  21.769  27.289  1.00  0.00     0.060 A 
ATOM     33  C   UNL A   1      40.679  22.769  26.479  1.00  0.00     0.016 A 
ATOM     34  C   UNL A   1      41.967  22.106  28.429  1.00  0.00     0.016 A 
ATOM     35  C   UNL A   1      40.850  24.113  26.811  1.00  0.00     0.010 A 
ATOM     36  C   UNL A   1      42.168  23.454  28.742  1.00  0.00     0.010 A 
ATOM     37  C   UNL A   1      41.626  24.462  27.924  1.00  0.00    -0.014 A 
BRANCH  37  38
ATOM     38  C   UNL A   1      42.055  25.872  28.093  1.00  0.00     0.031 A 
ATOM     39  C   UNL A   1      43.387  26.274  27.527  1.00  0.00     0.074 A 
ATOM     40  C   UNL A   1      41.270  26.784  28.692  1.00  0.00     0.049 A 
ATOM     41  N   UNL A   1      43.983  27.438  27.545  1.00  0.00    -0.248 NA
ATOM     42  C   UNL A   1      44.152  25.217  26.844  1.00  0.00     0.031 C 
ATOM     43  C   UNL A   1      39.940  26.529  29.239  1.00  0.00     0.029 A 
ATOM     44  N   UNL A   1      41.484  28.120  28.936  1.00  0.00    -0.354 N 
ATOM     45  C   UNL A   1      45.181  27.254  26.869  1.00  0.00     0.074 A 
ATOM     46  C   UNL A   1      45.254  25.860  26.496  1.00  0.00     0.031 C 
ATOM     47  C   UNL A   1      39.455  27.673  29.755  1.00  0.00     0.029 A 
ATOM     48  C   UNL A   1      40.451  28.735  29.599  1.00  0.00     0.049 A 
ATOM     49  H   UNL A   1      42.302  28.592  28.659  1.00  0.00     0.167 HD
ATOM     50  C   UNL A   1      46.127  28.173  26.568  1.00  0.00     0.037 A 
ATOM     51  C   UNL A   1      40.333  30.004  30.041  1.00  0.00     0.037 A 
ATOM     52  C   UNL A   1      46.056  29.558  26.942  1.00  0.00     0.049 A 
ATOM     53  C   UNL A   1      41.456  30.983  29.792  1.00  0.00     0.074 A 
ATOM     54  C   UNL A   1      46.960  30.569  26.669  1.00  0.00     0.029 A 
ATOM     55  N   UNL A   1      45.025  30.125  27.676  1.00  0.00    -0.354 N 
ATOM     56  N   UNL A   1      42.567  30.814  29.118  1.00  0.00    -0.248 NA
ATOM     57  C   UNL A   1      41.311  32.328  30.371  1.00  0.00     0.031 C 
ATOM     58  C   UNL A   1      46.507  31.735  27.289  1.00  0.00     0.029 A 
ATOM     59  C   UNL A   1      45.293  31.465  27.902  1.00  0.00     0.049 A 
ATOM     60  H   UNL A   1      44.223  29.648  27.988  1.00  0.00     0.167 HD
ATOM     61  C   UNL A   1      43.243  32.028  29.176  1.00  0.00     0.074 A 
ATOM     62  C   UNL A   1      42.407  32.935  29.934  1.00  0.00     0.031 C 
ATOM     63  C   UNL A   1      44.450  32.358  28.655  1.00  0.00     0.037 A 
BRANCH  50  64
ATOM     64  C   UNL A   1      47.327  27.708  25.800  1.00  0.00     0.064 A 
ATOM     65  C   UNL A   1      47.330  27.676  24.397  1.00  0.00     0.173 A 
ATOM     66  C   UNL A   1      48.504  27.345  26.469  1.00  0.00     0.173 A 
ATOM     67  F   UNL A   1      46.223  27.998  23.712  1.00  0.00    -0.203 F 
ATOM     68  C   UNL A   1      48.464  27.281  23.694  1.00  0.00     0.198 A 
ATOM     69  C   UNL A   1      49.646  26.980  25.762  1.00  0.00     0.198 A 
ATOM     70  F   UNL A   1      48.553  27.361  27.810  1.00  0.00    -0.203 F 
ATOM     71  F   UNL A   1      48.432  27.220  22.355  1.00  0.00    -0.200 F 
ATOM     72  C   UNL A   1      49.624  26.944  24.375  1.00  0.00     0.200 A 
ATOM     73  F   UNL A   1      50.771  26.668  26.421  1.00  0.00    -0.200 F 
ATOM     74  F   UNL A   1      50.720  26.581  23.697  1.00  0.00    -0.200 F 
ENDBRANCH  50  64
BRANCH  51  75
ATOM     75  C   UNL A   1      39.106  30.429  30.767  1.00  0.00     0.064 A 
ATOM     76  C   UNL A   1      39.004  30.287  32.157  1.00  0.00     0.173 A 
ATOM     77  C   UNL A   1      38.005  30.974  30.087  1.00  0.00     0.173 A 
ATOM     78  F   UNL A   1      40.015  29.741  32.849  1.00  0.00    -0.203 F 
ATOM     79  C   UNL A   1      37.849  30.667  32.839  1.00  0.00     0.198 A 
ATOM     80  C   UNL A   1      36.862  31.381  30.774  1.00  0.00     0.198 A 
ATOM     81  F   UNL A   1      38.044  31.122  28.755  1.00  0.00    -0.203 F 
ATOM     82  F   UNL A   1      37.764  30.482  34.164  1.00  0.00    -0.200 F 
ATOM     83  C   UNL A   1      36.782  31.222  32.149  1.00  0.00     0.200 A 
ATOM     84  F   UNL A   1      35.836  31.922  30.102  1.00  0.00    -0.200 F 
ATOM     85  F   UNL A   1      35.676  31.594  32.806  1.00  0.00    -0.200 F 
ENDBRANCH  51  75
BRANCH  63  86
ATOM     86  C   UNL A   1      44.964  33.751  28.880  1.00  0.00     0.064 A 
ATOM     87  C   UNL A   1      44.603  34.803  28.028  1.00  0.00     0.173 A 
ATOM     88  C   UNL A   1      45.712  34.061  30.027  1.00  0.00     0.173 A 
ATOM     89  F   UNL A   1      43.896  34.558  26.914  1.00  0.00    -0.203 F 
ATOM     90  C   UNL A   1      44.969  36.116  28.316  1.00  0.00     0.198 A 
ATOM     91  C   UNL A   1      46.051  35.377  30.327  1.00  0.00     0.198 A 
ATOM     92  F   UNL A   1      46.074  33.092  30.882  1.00  0.00    -0.203 F 
ATOM     93  F   UNL A   1      44.625  37.105  27.479  1.00  0.00    -0.200 F 
ATOM     94  C   UNL A   1      45.678  36.403  29.472  1.00  0.00     0.200 A 
ATOM     95  F   UNL A   1      46.718  35.656  31.456  1.00  0.00    -0.200 F 
ATOM     96  F   UNL A   1      46.000  37.672  29.765  1.00  0.00    -0.200 F 
ENDBRANCH  63  86
ENDBRANCH  37  38
ENDBRANCH  30  32
ENDBRANCH  29  30
ENDBRANCH  28  29
ENDBRANCH  27  28
ENDBRANCH  26  27
ENDBRANCH   1  26
TORSDOF 18
ENDMDL
MODEL 2
REMARK VINA RESULT:     -11.3      2.354      4.009
REMARK SMILES Cc1c(Cl)cc2c(c1C)O[C@@H](C(F)(F)F)C(C(=O)OCCOCCOCCOC(=O)c1ccc(-c3c4nc(c(-c5c(F)c(F)c(F)c(F)c5F)c5ccc([nH]5)c(-c5c(F)c(F)c(F)c(F)c5F)c5nc(c(-c6c(F)c(F)c(F)c(F)c6F)c6ccc3[nH]6)C=C5)C=C4)cc1)=C2
REMARK SMILES IDX 24 1 23 2 22 3 21 4 20 5 19 6 17 7 18 8 16 9 1 10 2 11 3 12
REMARK SMILES IDX 8 13 4 14 5 15 7 16 9 17 6 18 10 19 94 20 11 21 12 22 13 23
REMARK SMILES IDX 14 24 15 25 25 26 26 27 27 28 28 29 29 30 30 31 31 32 32 33
REMARK SMILES IDX 93 34 33 35 92 36 34 37 35 38 36 39 86 40 37 41 91 42 85 43
REMARK SMILES IDX 87 44 38 45 90 46 84 47 83 48 39 50 71 51 51 52 70 53 52 54
REMARK SMILES IDX 55 55 69 56 88 57 53 58 54 59 68 61 89 62 56 63 40 64 41 65
REMARK SMILES IDX 49 66 42 67 43 68 47 69 50 70 44 71 45 72 48 73 46 74 72 75
REMARK SMILES IDX 73 76 81 77 74 78 75 79 79 80 82 81 76 82 77 83 80 84 78 85
REMARK SMILES IDX 57 86 58 87 66 88 59 89 60 90 64 91 67 92 61 93 62 94 65 95
REMARK SMILES IDX 63 96
REMARK H PARENT 87 49 55 60
REMARK Flexibility Score: inf
ROOT
ATOM      1  C   UNL A   1      41.767  21.337  26.936  1.00  0.00     0.188 C 
ENDROOT
BRANCH   1   2
ATOM      2  C   UNL A   1      40.391  21.925  27.305  1.00  0.00     0.188 C 
BRANCH   2   3
ATOM      3  O   UNL A   1      39.658  22.665  26.338  1.00  0.00    -0.376 OA
BRANCH   3   4
ATOM      4  C   UNL A   1      38.805  23.723  26.760  1.00  0.00     0.202 C 
BRANCH   4   5
ATOM      5  C   UNL A   1      37.418  23.880  26.115  1.00  0.00     0.261 C 
BRANCH   5   6
ATOM      6  O   UNL A   1      37.365  23.570  24.707  1.00  0.00    -0.460 OA
BRANCH   6   7
ATOM      7  C   UNL A   1      36.642  22.479  24.372  1.00  0.00     0.338 C 
ATOM      8  O   UNL A   1      37.080  21.354  24.186  1.00  0.00    -0.246 OA
BRANCH   7   9
ATOM      9  C   UNL A   1      35.194  22.766  24.403  1.00  0.00     0.087 C 
ATOM     10  C   UNL A   1      29.634  26.179  24.653  1.00  0.00     0.046 C 
ATOM     11  C   UNL A   1      30.920  25.457  24.325  1.00  0.00    -0.026 A 
ATOM     12  C   UNL A   1      31.742  25.927  23.278  1.00  0.00     0.045 A 
ATOM     13  C   UNL A   1      31.390  24.382  25.123  1.00  0.00    -0.004 A 
ATOM     14  Cl  UNL A   1      31.303  27.281  22.293  1.00  0.00    -0.084 Cl
ATOM     15  C   UNL A   1      32.984  25.343  23.013  1.00  0.00     0.032 A 
ATOM     16  C   UNL A   1      32.659  23.820  24.856  1.00  0.00     0.131 A 
ATOM     17  C   UNL A   1      30.586  23.782  26.252  1.00  0.00     0.049 C 
ATOM     18  C   UNL A   1      33.452  24.301  23.812  1.00  0.00     0.019 A 
ATOM     19  O   UNL A   1      33.114  22.862  25.730  1.00  0.00    -0.475 OA
ATOM     20  C   UNL A   1      34.811  23.812  23.656  1.00  0.00     0.027 C 
ATOM     21  C   UNL A   1      34.265  22.054  25.348  1.00  0.00     0.316 C 
BRANCH  21  22
ATOM     22  C   UNL A   1      33.749  20.676  24.891  1.00  0.00     0.430 C 
ATOM     23  F   UNL A   1      34.680  19.705  25.033  1.00  0.00    -0.167 F 
ATOM     24  F   UNL A   1      32.641  20.299  25.562  1.00  0.00    -0.167 F 
ATOM     25  F   UNL A   1      33.406  20.703  23.577  1.00  0.00    -0.167 F 
ENDBRANCH  21  22
ENDBRANCH   7   9
ENDBRANCH   6   7
ENDBRANCH   5   6
ENDBRANCH   4   5
ENDBRANCH   3   4
ENDBRANCH   2   3
ENDBRANCH   1   2
BRANCH   1  26
ATOM     26  O   UNL A   1      41.741  20.406  25.888  1.00  0.00    -0.376 OA
BRANCH  26  27
ATOM     27  C   UNL A   1      42.222  19.092  26.100  1.00  0.00     0.202 C 
BRANCH  27  28
ATOM     28  C   UNL A   1      43.487  18.513  25.433  1.00  0.00     0.261 C 
BRANCH  28  29
ATOM     29  O   UNL A   1      43.898  19.059  24.175  1.00  0.00    -0.460 OA
BRANCH  29  30
ATOM     30  C   UNL A   1      45.139  19.605  24.115  1.00  0.00     0.338 C 
ATOM     31  O   UNL A   1      46.113  19.171  23.543  1.00  0.00    -0.246 OA
BRANCH  30  32
ATOM     32  C   UNL A   1      45.046  20.958  24.707  1.00  0.00     0.060 A 
ATOM     33  C   UNL A   1      44.574  22.015  23.916  1.00  0.00     0.016 A 
ATOM     34  C   UNL A   1      45.390  21.171  26.043  1.00  0.00     0.016 A 
ATOM     35  C   UNL A   1      44.439  23.291  24.463  1.00  0.00     0.010 A 
ATOM     36  C   UNL A   1      45.288  22.458  26.581  1.00  0.00     0.010 A 
ATOM     37  C   UNL A   1      44.830  23.526  25.788  1.00  0.00    -0.014 A 
BRANCH  37  38
ATOM     38  C   UNL A   1      44.972  24.923  26.263  1.00  0.00     0.031 A 
ATOM     39  C   UNL A   1      46.328  25.563  26.167  1.00  0.00     0.074 A 
ATOM     40  C   UNL A   1      43.923  25.625  26.726  1.00  0.00     0.049 A 
ATOM     41  N   UNL A   1      46.709  26.765  26.515  1.00  0.00    -0.248 NA
ATOM     42  C   UNL A   1      47.403  24.732  25.599  1.00  0.00     0.031 C 
ATOM     43  C   UNL A   1      42.552  25.133  26.823  1.00  0.00     0.029 A 
ATOM     44  N   UNL A   1      43.853  26.913  27.199  1.00  0.00    -0.354 N 
ATOM     45  C   UNL A   1      48.057  26.836  26.197  1.00  0.00     0.074 A 
ATOM     46  C   UNL A   1      48.445  25.544  25.676  1.00  0.00     0.031 C 
ATOM     47  C   UNL A   1      41.774  26.109  27.325  1.00  0.00     0.029 A 
ATOM     48  C   UNL A   1      42.597  27.285  27.610  1.00  0.00     0.049 A 
ATOM     49  H   UNL A   1      44.631  27.515  27.238  1.00  0.00     0.167 HD
ATOM     50  C   UNL A   1      48.895  27.892  26.310  1.00  0.00     0.037 A 
ATOM     51  C   UNL A   1      42.168  28.438  28.166  1.00  0.00     0.037 A 
ATOM     52  C   UNL A   1      48.511  29.175  26.830  1.00  0.00     0.049 A 
ATOM     53  C   UNL A   1      43.151  29.564  28.387  1.00  0.00     0.074 A 
ATOM     54  C   UNL A   1      49.287  30.311  26.971  1.00  0.00     0.029 A 
ATOM     55  N   UNL A   1      47.246  29.488  27.303  1.00  0.00    -0.354 N 
ATOM     56  N   UNL A   1      44.415  29.639  28.049  1.00  0.00    -0.248 NA
ATOM     57  C   UNL A   1      42.648  30.763  29.075  1.00  0.00     0.031 C 
ATOM     58  C   UNL A   1      48.508  31.295  27.583  1.00  0.00     0.029 A 
ATOM     59  C   UNL A   1      47.231  30.790  27.776  1.00  0.00     0.049 A 
ATOM     60  H   UNL A   1      46.474  28.878  27.302  1.00  0.00     0.167 HD
ATOM     61  C   UNL A   1      44.852  30.892  28.464  1.00  0.00     0.074 A 
ATOM     62  C   UNL A   1      43.712  31.555  29.062  1.00  0.00     0.031 C 
ATOM     63  C   UNL A   1      46.088  31.439  28.365  1.00  0.00     0.037 A 
BRANCH  50  64
ATOM     64  C   UNL A   1      50.314  27.704  25.868  1.00  0.00     0.064 A 
ATOM     65  C   UNL A   1      50.678  27.797  24.516  1.00  0.00     0.173 A 
ATOM     66  C   UNL A   1      51.330  27.483  26.809  1.00  0.00     0.173 A 
ATOM     67  F   UNL A   1      49.741  27.991  23.576  1.00  0.00    -0.203 F 
ATOM     68  C   UNL A   1      52.006  27.661  24.122  1.00  0.00     0.198 A 
ATOM     69  C   UNL A   1      52.661  27.379  26.414  1.00  0.00     0.198 A 
ATOM     70  F   UNL A   1      51.035  27.388  28.114  1.00  0.00    -0.203 F 
ATOM     71  F   UNL A   1      52.325  27.715  22.821  1.00  0.00    -0.200 F 
ATOM     72  C   UNL A   1      52.997  27.463  25.071  1.00  0.00     0.200 A 
ATOM     73  F   UNL A   1      53.620  27.201  27.333  1.00  0.00    -0.200 F 
ATOM     74  F   UNL A   1      54.276  27.349  24.691  1.00  0.00    -0.200 F 
ENDBRANCH  50  64
BRANCH  51  75
ATOM     75  C   UNL A   1      40.741  28.592  28.555  1.00  0.00     0.064 A 
ATOM     76  C   UNL A   1      40.301  28.241  29.838  1.00  0.00     0.173 A 
ATOM     77  C   UNL A   1      39.785  29.081  27.651  1.00  0.00     0.173 A 
ATOM     78  F   UNL A   1      41.169  27.737  30.728  1.00  0.00    -0.203 F 
ATOM     79  C   UNL A   1      38.960  28.366  30.201  1.00  0.00     0.198 A 
ATOM     80  C   UNL A   1      38.450  29.233  28.024  1.00  0.00     0.198 A 
ATOM     81  F   UNL A   1      40.149  29.421  26.406  1.00  0.00    -0.203 F 
ATOM     82  F   UNL A   1      38.561  27.983  31.421  1.00  0.00    -0.200 F 
ATOM     83  C   UNL A   1      38.038  28.870  29.297  1.00  0.00     0.200 A 
ATOM     84  F   UNL A   1      37.563  29.727  27.149  1.00  0.00    -0.200 F 
ATOM     85  F   UNL A   1      36.751  28.997  29.649  1.00  0.00    -0.200 F 
ENDBRANCH  51  75
BRANCH  63  86
ATOM     86  C   UNL A   1      46.300  32.820  28.915  1.00  0.00     0.064 A 
ATOM     87  C   UNL A   1      46.781  33.015  30.218  1.00  0.00     0.173 A 
ATOM     88  C   UNL A   1      46.150  33.949  28.095  1.00  0.00     0.173 A 
ATOM     89  F   UNL A   1      46.933  31.969  31.044  1.00  0.00    -0.203 F 
ATOM     90  C   UNL A   1      47.105  34.289  30.679  1.00  0.00     0.198 A 
ATOM     91  C   UNL A   1      46.503  35.217  28.549  1.00  0.00     0.198 A 
ATOM     92  F   UNL A   1      45.705  33.816  26.836  1.00  0.00    -0.203 F 
ATOM     93  F   UNL A   1      47.549  34.453  31.932  1.00  0.00    -0.200 F 
ATOM     94  C   UNL A   1      46.982  35.385  29.839  1.00  0.00     0.200 A 
ATOM     95  F   UNL A   1      46.404  36.273  27.729  1.00  0.00    -0.200 F 
ATOM     96  F   UNL A   1      47.328  36.605  30.273  1.00  0.00    -0.200 F 
ENDBRANCH  63  86
ENDBRANCH  37  38
ENDBRANCH  30  32
ENDBRANCH  29  30
ENDBRANCH  28  29
ENDBRANCH  27  28
ENDBRANCH  26  27
ENDBRANCH   1  26
TORSDOF 18
ENDMDL
MODEL 3
REMARK VINA RESULT:     -11.3      1.736      2.734
REMARK SMILES Cc1c(Cl)cc2c(c1C)O[C@@H](C(F)(F)F)C(C(=O)OCCOCCOCCOC(=O)c1ccc(-c3c4nc(c(-c5c(F)c(F)c(F)c(F)c5F)c5ccc([nH]5)c(-c5c(F)c(F)c(F)c(F)c5F)c5nc(c(-c6c(F)c(F)c(F)c(F)c6F)c6ccc3[nH]6)C=C5)C=C4)cc1)=C2
REMARK SMILES IDX 24 1 23 2 22 3 21 4 20 5 19 6 17 7 18 8 16 9 1 10 2 11 3 12
REMARK SMILES IDX 8 13 4 14 5 15 7 16 9 17 6 18 10 19 94 20 11 21 12 22 13 23
REMARK SMILES IDX 14 24 15 25 25 26 26 27 27 28 28 29 29 30 30 31 31 32 32 33
REMARK SMILES IDX 93 34 33 35 92 36 34 37 35 38 36 39 86 40 37 41 91 42 85 43
REMARK SMILES IDX 87 44 38 45 90 46 84 47 83 48 39 50 71 51 51 52 70 53 52 54
REMARK SMILES IDX 55 55 69 56 88 57 53 58 54 59 68 61 89 62 56 63 40 64 41 65
REMARK SMILES IDX 49 66 42 67 43 68 47 69 50 70 44 71 45 72 48 73 46 74 72 75
REMARK SMILES IDX 73 76 81 77 74 78 75 79 79 80 82 81 76 82 77 83 80 84 78 85
REMARK SMILES IDX 57 86 58 87 66 88 59 89 60 90 64 91 67 92 61 93 62 94 65 95
REMARK SMILES IDX 63 96
REMARK H PARENT 87 49 55 60
REMARK Flexibility Score: inf
ROOT
ATOM      1  C   UNL A   1      37.112  21.816  24.293  1.00  0.00     0.188 C 
ENDROOT
BRANCH   1   2
ATOM      2  C   UNL A   1      35.639  21.774  24.742  1.00  0.00     0.188 C 
BRANCH   2   3
ATOM      3  O   UNL A   1      35.297  22.138  26.073  1.00  0.00    -0.376 OA
BRANCH   3   4
ATOM      4  C   UNL A   1      34.129  21.590  26.674  1.00  0.00     0.202 C 
BRANCH   4   5
ATOM      5  C   UNL A   1      32.952  21.156  25.783  1.00  0.00     0.261 C 
BRANCH   5   6
ATOM      6  O   UNL A   1      32.028  22.210  25.444  1.00  0.00    -0.460 OA
BRANCH   6   7
ATOM      7  C   UNL A   1      32.106  22.677  24.179  1.00  0.00     0.338 C 
ATOM      8  O   UNL A   1      32.169  22.000  23.164  1.00  0.00    -0.246 OA
BRANCH   7   9
ATOM      9  C   UNL A   1      31.947  24.144  24.140  1.00  0.00     0.087 C 
ATOM     10  C   UNL A   1      29.669  30.010  22.399  1.00  0.00     0.046 C 
ATOM     11  C   UNL A   1      29.969  28.640  22.961  1.00  0.00    -0.026 A 
ATOM     12  C   UNL A   1      28.909  27.794  23.352  1.00  0.00     0.045 A 
ATOM     13  C   UNL A   1      31.292  28.128  22.999  1.00  0.00    -0.004 A 
ATOM     14  Cl  UNL A   1      27.252  28.289  23.272  1.00  0.00    -0.084 Cl
ATOM     15  C   UNL A   1      29.146  26.486  23.783  1.00  0.00     0.032 A 
ATOM     16  C   UNL A   1      31.510  26.795  23.415  1.00  0.00     0.131 A 
ATOM     17  C   UNL A   1      32.503  28.950  22.628  1.00  0.00     0.049 C 
ATOM     18  C   UNL A   1      30.444  25.979  23.799  1.00  0.00     0.019 A 
ATOM     19  O   UNL A   1      32.794  26.314  23.321  1.00  0.00    -0.475 OA
ATOM     20  C   UNL A   1      30.677  24.571  24.073  1.00  0.00     0.027 C 
ATOM     21  C   UNL A   1      33.127  25.066  23.996  1.00  0.00     0.316 C 
BRANCH  21  22
ATOM     22  C   UNL A   1      33.886  25.413  25.291  1.00  0.00     0.430 C 
ATOM     23  F   UNL A   1      33.886  26.742  25.547  1.00  0.00    -0.167 F 
ATOM     24  F   UNL A   1      33.377  24.776  26.366  1.00  0.00    -0.167 F 
ATOM     25  F   UNL A   1      35.186  25.029  25.204  1.00  0.00    -0.167 F 
ENDBRANCH  21  22
ENDBRANCH   7   9
ENDBRANCH   6   7
ENDBRANCH   5   6
ENDBRANCH   4   5
ENDBRANCH   3   4
ENDBRANCH   2   3
ENDBRANCH   1   2
BRANCH   1  26
ATOM     26  O   UNL A   1      38.014  21.236  25.196  1.00  0.00    -0.376 OA
BRANCH  26  27
ATOM     27  C   UNL A   1      38.272  19.846  25.141  1.00  0.00     0.202 C 
BRANCH  27  28
ATOM     28  C   UNL A   1      39.515  19.169  25.755  1.00  0.00     0.261 C 
BRANCH  28  29
ATOM     29  O   UNL A   1      40.795  19.461  25.183  1.00  0.00    -0.460 OA
BRANCH  29  30
ATOM     30  C   UNL A   1      41.884  19.236  25.961  1.00  0.00     0.338 C 
ATOM     31  O   UNL A   1      42.463  18.188  26.141  1.00  0.00    -0.246 OA
BRANCH  30  32
ATOM     32  C   UNL A   1      42.383  20.558  26.400  1.00  0.00     0.060 A 
ATOM     33  C   UNL A   1      42.029  21.030  27.672  1.00  0.00     0.016 A 
ATOM     34  C   UNL A   1      43.221  21.309  25.573  1.00  0.00     0.016 A 
ATOM     35  C   UNL A   1      42.520  22.254  28.125  1.00  0.00     0.010 A 
ATOM     36  C   UNL A   1      43.684  22.552  26.014  1.00  0.00     0.010 A 
ATOM     37  C   UNL A   1      43.321  23.038  27.283  1.00  0.00    -0.014 A 
BRANCH  37  38
ATOM     38  C   UNL A   1      43.582  24.452  27.645  1.00  0.00     0.031 A 
ATOM     39  C   UNL A   1      45.010  24.916  27.679  1.00  0.00     0.074 A 
ATOM     40  C   UNL A   1      42.582  25.317  27.893  1.00  0.00     0.049 A 
ATOM     41  N   UNL A   1      45.497  26.096  27.965  1.00  0.00    -0.248 NA
ATOM     42  C   UNL A   1      46.032  23.910  27.342  1.00  0.00     0.031 C 
ATOM     43  C   UNL A   1      41.158  25.000  27.845  1.00  0.00     0.029 A 
ATOM     44  N   UNL A   1      42.621  26.648  28.233  1.00  0.00    -0.354 N 
ATOM     45  C   UNL A   1      46.872  25.975  27.831  1.00  0.00     0.074 A 
ATOM     46  C   UNL A   1      47.151  24.599  27.487  1.00  0.00     0.031 C 
ATOM     47  C   UNL A   1      40.456  26.108  28.145  1.00  0.00     0.029 A 
ATOM     48  C   UNL A   1      41.382  27.205  28.433  1.00  0.00     0.049 A 
ATOM     49  H   UNL A   1      43.460  27.155  28.325  1.00  0.00     0.167 HD
ATOM     50  C   UNL A   1      47.818  26.933  27.962  1.00  0.00     0.037 A 
ATOM     51  C   UNL A   1      41.040  28.452  28.818  1.00  0.00     0.037 A 
ATOM     52  C   UNL A   1      47.542  28.300  28.306  1.00  0.00     0.049 A 
ATOM     53  C   UNL A   1      42.124  29.473  29.069  1.00  0.00     0.074 A 
ATOM     54  C   UNL A   1      48.434  29.347  28.448  1.00  0.00     0.029 A 
ATOM     55  N   UNL A   1      46.279  28.807  28.570  1.00  0.00    -0.354 N 
ATOM     56  N   UNL A   1      43.420  29.364  28.902  1.00  0.00    -0.248 NA
ATOM     57  C   UNL A   1      41.698  30.790  29.570  1.00  0.00     0.031 C 
ATOM     58  C   UNL A   1      47.718  30.475  28.856  1.00  0.00     0.029 A 
ATOM     59  C   UNL A   1      46.373  30.144  28.916  1.00  0.00     0.049 A 
ATOM     60  H   UNL A   1      45.440  28.294  28.518  1.00  0.00     0.167 HD
ATOM     61  C   UNL A   1      43.960  30.595  29.258  1.00  0.00     0.074 A 
ATOM     62  C   UNL A   1      42.849  31.447  29.631  1.00  0.00     0.031 C 
ATOM     63  C   UNL A   1      45.259  30.981  29.281  1.00  0.00     0.037 A 
BRANCH  50  64
ATOM     64  C   UNL A   1      49.246  26.535  27.738  1.00  0.00     0.064 A 
ATOM     65  C   UNL A   1      49.776  26.406  26.445  1.00  0.00     0.173 A 
ATOM     66  C   UNL A   1      50.108  26.334  28.825  1.00  0.00     0.173 A 
ATOM     67  F   UNL A   1      48.987  26.572  25.373  1.00  0.00    -0.203 F 
ATOM     68  C   UNL A   1      51.113  26.076  26.250  1.00  0.00     0.198 A 
ATOM     69  C   UNL A   1      51.453  26.034  28.626  1.00  0.00     0.198 A 
ATOM     70  F   UNL A   1      49.651  26.447  30.081  1.00  0.00    -0.203 F 
ATOM     71  F   UNL A   1      51.588  25.921  25.006  1.00  0.00    -0.200 F 
ATOM     72  C   UNL A   1      51.953  25.901  27.339  1.00  0.00     0.200 A 
ATOM     73  F   UNL A   1      52.267  25.879  29.679  1.00  0.00    -0.200 F 
ATOM     74  F   UNL A   1      53.244  25.600  27.150  1.00  0.00    -0.200 F 
ENDBRANCH  50  64
BRANCH  51  75
ATOM     75  C   UNL A   1      39.607  28.812  28.991  1.00  0.00     0.064 A 
ATOM     76  C   UNL A   1      38.849  29.295  27.915  1.00  0.00     0.173 A 
ATOM     77  C   UNL A   1      38.967  28.693  30.234  1.00  0.00     0.173 A 
ATOM     78  F   UNL A   1      39.423  29.458  26.713  1.00  0.00    -0.203 F 
ATOM     79  C   UNL A   1      37.511  29.651  28.077  1.00  0.00     0.198 A 
ATOM     80  C   UNL A   1      37.621  29.022  30.388  1.00  0.00     0.198 A 
ATOM     81  F   UNL A   1      39.648  28.247  31.300  1.00  0.00    -0.203 F 
ATOM     82  F   UNL A   1      36.823  30.149  27.041  1.00  0.00    -0.200 F 
ATOM     83  C   UNL A   1      36.895  29.506  29.310  1.00  0.00     0.200 A 
ATOM     84  F   UNL A   1      37.029  28.873  31.582  1.00  0.00    -0.200 F 
ATOM     85  F   UNL A   1      35.608  29.841  29.463  1.00  0.00    -0.200 F 
ENDBRANCH  51  75
BRANCH  63  86
ATOM     86  C   UNL A   1      45.577  32.379  29.728  1.00  0.00     0.064 A 
ATOM     87  C   UNL A   1      45.944  32.650  31.054  1.00  0.00     0.173 A 
ATOM     88  C   UNL A   1      45.645  33.430  28.801  1.00  0.00     0.173 A 
ATOM     89  F   UNL A   1      45.886  31.682  31.981  1.00  0.00    -0.203 F 
ATOM     90  C   UNL A   1      46.369  33.920  31.435  1.00  0.00     0.198 A 
ATOM     91  C   UNL A   1      46.100  34.691  29.177  1.00  0.00     0.198 A 
ATOM     92  F   UNL A   1      45.316  33.221  27.516  1.00  0.00    -0.203 F 
ATOM     93  F   UNL A   1      46.701  34.160  32.711  1.00  0.00    -0.200 F 
ATOM     94  C   UNL A   1      46.462  34.934  30.493  1.00  0.00     0.200 A 
ATOM     95  F   UNL A   1      46.210  35.664  28.262  1.00  0.00    -0.200 F 
ATOM     96  F   UNL A   1      46.905  36.147  30.855  1.00  0.00    -0.200 F 
ENDBRANCH  63  86
ENDBRANCH  37  38
ENDBRANCH  30  32
ENDBRANCH  29  30
ENDBRANCH  28  29
ENDBRANCH  27  28
ENDBRANCH  26  27
ENDBRANCH   1  26
TORSDOF 18
ENDMDL
