MODEL 1
REMARK VINA RESULT:     -10.9      0.000      0.000
REMARK SMILES O=C(/C=C/c1ccc(C(=O)NC2CC2)cc1)NC1(C(=O)OCCOCCOCCOC(=O)c2ccc(-c3c4nc(c(-c5c(F)c(F)c(F)c(F)c5F)c5ccc([nH]5)c(-c5c(F)c(F)c(F)c(F)c5F)c5nc(c(-c6c(F)c(F)c(F)c(F)c6F)c6ccc3[nH]6)C=C5)C=C4)cc2)CCCC1
REMARK SMILES IDX 24 1 23 2 22 3 21 4 19 5 20 6 18 7 96 8 99 9 97 10 98 11
REMARK SMILES IDX 17 12 1 13 2 14 3 16 4 17 5 18 6 19 16 20 7 21 15 22 8 23
REMARK SMILES IDX 9 24 10 25 11 26 12 28 13 29 14 30 25 31 26 32 27 33 28 34
REMARK SMILES IDX 29 35 30 36 31 37 32 38 33 39 34 40 95 41 35 42 94 43 36 44
REMARK SMILES IDX 37 45 38 46 88 47 39 48 93 49 87 50 89 51 40 52 92 53 86 54
REMARK SMILES IDX 85 55 41 57 73 58 53 59 72 60 54 61 57 62 71 63 90 64 55 65
REMARK SMILES IDX 56 66 70 68 91 69 58 70 42 71 43 72 51 73 44 74 45 75 49 76
REMARK SMILES IDX 52 77 46 78 47 79 50 80 48 81 74 82 75 83 83 84 76 85 77 86
REMARK SMILES IDX 81 87 84 88 78 89 79 90 82 91 80 92 59 93 60 94 68 95 61 96
REMARK SMILES IDX 62 97 66 98 69 99 63 100 64 101 67 102 65 103
REMARK H PARENT 17 15 11 27 89 56 57 67
REMARK Flexibility Score: inf
ROOT
ATOM      1  O   UNL A   1      33.327  31.051  27.282  1.00  0.00    -0.376 OA
ENDROOT
BRANCH   1   2
ATOM      2  C   UNL A   1      33.861  29.747  27.137  1.00  0.00     0.202 C 
BRANCH   2   3
ATOM      3  C   UNL A   1      33.835  28.944  25.816  1.00  0.00     0.261 C 
BRANCH   3   4
ATOM      4  O   UNL A   1      33.119  29.496  24.702  1.00  0.00    -0.461 OA
BRANCH   4   5
ATOM      5  C   UNL A   1      31.774  29.261  24.698  1.00  0.00     0.331 C 
ATOM      6  O   UNL A   1      30.962  29.939  25.324  1.00  0.00    -0.249 OA
BRANCH   5   7
ATOM      7  C   UNL A   1      31.342  28.069  23.775  1.00  0.00     0.138 C 
ATOM      8  C   UNL A   1      31.591  28.533  22.321  1.00  0.00     0.040 C 
ATOM      9  C   UNL A   1      29.830  27.774  23.678  1.00  0.00     0.040 C 
ATOM     10  C   UNL A   1      30.408  29.443  22.014  1.00  0.00     0.003 C 
ATOM     11  C   UNL A   1      29.235  28.852  22.783  1.00  0.00     0.003 C 
BRANCH   7  12
ATOM     12  N   UNL A   1      32.087  26.813  23.988  1.00  0.00    -0.337 N 
ATOM     13  O   UNL A   1      30.808  25.794  25.620  1.00  0.00    -0.270 OA
ATOM     14  C   UNL A   1      31.823  25.872  24.945  1.00  0.00     0.244 C 
ATOM     15  H   UNL A   1      32.846  26.637  23.385  1.00  0.00     0.164 HD
BRANCH  14  16
ATOM     16  C   UNL A   1      32.814  24.782  25.012  1.00  0.00     0.072 C 
ATOM     17  C   UNL A   1      33.786  24.703  25.933  1.00  0.00     0.014 C 
BRANCH  17  18
ATOM     18  C   UNL A   1      34.847  23.716  25.779  1.00  0.00    -0.025 A 
ATOM     19  C   UNL A   1      34.758  22.420  26.290  1.00  0.00     0.009 A 
ATOM     20  C   UNL A   1      36.029  24.132  25.182  1.00  0.00     0.009 A 
ATOM     21  C   UNL A   1      35.824  21.525  26.133  1.00  0.00     0.014 A 
ATOM     22  C   UNL A   1      37.099  23.262  25.094  1.00  0.00     0.014 A 
ATOM     23  C   UNL A   1      37.008  21.930  25.511  1.00  0.00     0.039 A 
BRANCH  23  24
ATOM     24  C   UNL A   1      38.083  20.899  25.336  1.00  0.00     0.251 C 
ATOM     25  O   UNL A   1      37.929  19.963  24.554  1.00  0.00    -0.269 OA
ATOM     26  N   UNL A   1      39.274  21.012  26.003  1.00  0.00    -0.349 N 
ATOM     27  H   UNL A   1      39.933  20.296  25.856  1.00  0.00     0.164 HD
BRANCH  26  28
ATOM     28  C   UNL A   1      39.652  22.045  26.874  1.00  0.00     0.082 C 
ATOM     29  C   UNL A   1      41.009  22.044  27.557  1.00  0.00     0.027 C 
ATOM     30  C   UNL A   1      40.671  23.020  26.501  1.00  0.00     0.027 C 
ENDBRANCH  26  28
ENDBRANCH  23  24
ENDBRANCH  17  18
ENDBRANCH  14  16
ENDBRANCH   7  12
ENDBRANCH   5   7
ENDBRANCH   4   5
ENDBRANCH   3   4
ENDBRANCH   2   3
ENDBRANCH   1   2
BRANCH   1  31
ATOM     31  C   UNL A   1      34.062  31.981  28.038  1.00  0.00     0.188 C 
BRANCH  31  32
ATOM     32  C   UNL A   1      33.758  33.436  27.667  1.00  0.00     0.188 C 
BRANCH  32  33
ATOM     33  O   UNL A   1      32.931  34.254  28.485  1.00  0.00    -0.376 OA
BRANCH  33  34
ATOM     34  C   UNL A   1      33.533  35.088  29.467  1.00  0.00     0.202 C 
BRANCH  34  35
ATOM     35  C   UNL A   1      32.790  36.331  29.989  1.00  0.00     0.261 C 
BRANCH  35  36
ATOM     36  O   UNL A   1      32.923  36.618  31.391  1.00  0.00    -0.460 OA
BRANCH  36  37
ATOM     37  C   UNL A   1      32.570  35.608  32.225  1.00  0.00     0.338 C 
ATOM     38  O   UNL A   1      31.449  35.145  32.392  1.00  0.00    -0.246 OA
BRANCH  37  39
ATOM     39  C   UNL A   1      33.787  34.985  32.803  1.00  0.00     0.060 A 
ATOM     40  C   UNL A   1      34.965  35.746  32.873  1.00  0.00     0.016 A 
ATOM     41  C   UNL A   1      33.790  33.660  33.235  1.00  0.00     0.016 A 
ATOM     42  C   UNL A   1      36.152  35.175  33.347  1.00  0.00     0.010 A 
ATOM     43  C   UNL A   1      34.988  33.079  33.679  1.00  0.00     0.010 A 
ATOM     44  C   UNL A   1      36.186  33.820  33.709  1.00  0.00    -0.014 A 
BRANCH  44  45
ATOM     45  C   UNL A   1      37.492  33.129  33.949  1.00  0.00     0.031 A 
ATOM     46  C   UNL A   1      38.137  33.273  35.319  1.00  0.00     0.074 A 
ATOM     47  C   UNL A   1      38.032  32.337  33.001  1.00  0.00     0.049 A 
ATOM     48  N   UNL A   1      39.235  32.750  35.813  1.00  0.00    -0.248 NA
ATOM     49  C   UNL A   1      37.394  34.096  36.284  1.00  0.00     0.031 C 
ATOM     50  C   UNL A   1      37.383  31.977  31.740  1.00  0.00     0.029 A 
ATOM     51  N   UNL A   1      39.216  31.636  32.973  1.00  0.00    -0.354 N 
ATOM     52  C   UNL A   1      39.321  33.181  37.142  1.00  0.00     0.074 A 
ATOM     53  C   UNL A   1      38.152  34.011  37.368  1.00  0.00     0.031 C 
ATOM     54  C   UNL A   1      38.133  31.055  31.109  1.00  0.00     0.029 A 
ATOM     55  C   UNL A   1      39.334  30.777  31.901  1.00  0.00     0.049 A 
ATOM     56  H   UNL A   1      39.917  31.739  33.657  1.00  0.00     0.167 HD
ATOM     57  C   UNL A   1      40.283  32.930  38.080  1.00  0.00     0.037 A 
ATOM     58  C   UNL A   1      40.255  29.817  31.643  1.00  0.00     0.037 A 
ATOM     59  C   UNL A   1      41.481  32.151  37.829  1.00  0.00     0.049 A 
ATOM     60  C   UNL A   1      41.330  29.525  32.691  1.00  0.00     0.074 A 
ATOM     61  C   UNL A   1      42.710  32.050  38.459  1.00  0.00     0.029 A 
ATOM     62  N   UNL A   1      41.527  31.223  36.819  1.00  0.00    -0.354 N 
ATOM     63  N   UNL A   1      41.606  30.157  33.812  1.00  0.00    -0.248 NA
ATOM     64  C   UNL A   1      42.157  28.328  32.487  1.00  0.00     0.031 C 
ATOM     65  C   UNL A   1      43.492  31.097  37.758  1.00  0.00     0.029 A 
ATOM     66  C   UNL A   1      42.739  30.583  36.711  1.00  0.00     0.049 A 
ATOM     67  H   UNL A   1      40.763  31.033  36.227  1.00  0.00     0.167 HD
ATOM     68  C   UNL A   1      42.520  29.368  34.514  1.00  0.00     0.074 A 
ATOM     69  C   UNL A   1      42.809  28.243  33.640  1.00  0.00     0.031 C 
ATOM     70  C   UNL A   1      43.033  29.512  35.773  1.00  0.00     0.037 A 
BRANCH  57  71
ATOM     71  C   UNL A   1      40.121  33.592  39.417  1.00  0.00     0.064 A 
ATOM     72  C   UNL A   1      39.291  33.077  40.426  1.00  0.00     0.173 A 
ATOM     73  C   UNL A   1      40.799  34.791  39.682  1.00  0.00     0.173 A 
ATOM     74  F   UNL A   1      38.585  31.953  40.216  1.00  0.00    -0.203 F 
ATOM     75  C   UNL A   1      39.128  33.751  41.635  1.00  0.00     0.198 A 
ATOM     76  C   UNL A   1      40.669  35.437  40.906  1.00  0.00     0.198 A 
ATOM     77  F   UNL A   1      41.581  35.345  38.745  1.00  0.00    -0.203 F 
ATOM     78  F   UNL A   1      38.274  33.280  42.555  1.00  0.00    -0.200 F 
ATOM     79  C   UNL A   1      39.826  34.924  41.878  1.00  0.00     0.200 A 
ATOM     80  F   UNL A   1      41.355  36.565  41.137  1.00  0.00    -0.200 F 
ATOM     81  F   UNL A   1      39.676  35.570  43.042  1.00  0.00    -0.200 F 
ENDBRANCH  57  71
BRANCH  58  82
ATOM     82  C   UNL A   1      40.048  28.909  30.463  1.00  0.00     0.064 A 
ATOM     83  C   UNL A   1      39.354  27.693  30.597  1.00  0.00     0.173 A 
ATOM     84  C   UNL A   1      40.479  29.246  29.171  1.00  0.00     0.173 A 
ATOM     85  F   UNL A   1      38.903  27.313  31.800  1.00  0.00    -0.203 F 
ATOM     86  C   UNL A   1      39.144  26.839  29.513  1.00  0.00     0.198 A 
ATOM     87  C   UNL A   1      40.237  28.409  28.077  1.00  0.00     0.198 A 
ATOM     88  F   UNL A   1      41.113  30.409  28.958  1.00  0.00    -0.203 F 
ATOM     89  F   UNL A   1      38.528  25.663  29.697  1.00  0.00    -0.200 F 
ATOM     90  C   UNL A   1      39.582  27.200  28.250  1.00  0.00     0.200 A 
ATOM     91  F   UNL A   1      40.631  28.780  26.851  1.00  0.00    -0.200 F 
ATOM     92  F   UNL A   1      39.373  26.386  27.206  1.00  0.00    -0.200 F 
ENDBRANCH  58  82
BRANCH  70  93
ATOM     93  C   UNL A   1      44.032  28.476  36.215  1.00  0.00     0.064 A 
ATOM     94  C   UNL A   1      45.408  28.681  36.029  1.00  0.00     0.173 A 
ATOM     95  C   UNL A   1      43.629  27.291  36.851  1.00  0.00     0.173 A 
ATOM     96  F   UNL A   1      45.843  29.787  35.407  1.00  0.00    -0.203 F 
ATOM     97  C   UNL A   1      46.342  27.733  36.438  1.00  0.00     0.198 A 
ATOM     98  C   UNL A   1      44.570  26.355  37.286  1.00  0.00     0.198 A 
ATOM     99  F   UNL A   1      42.326  27.032  37.041  1.00  0.00    -0.203 F 
ATOM    100  F   UNL A   1      47.645  27.938  36.202  1.00  0.00    -0.200 F 
ATOM    101  C   UNL A   1      45.923  26.576  37.074  1.00  0.00     0.200 A 
ATOM    102  F   UNL A   1      44.168  25.235  37.901  1.00  0.00    -0.200 F 
ATOM    103  F   UNL A   1      46.826  25.670  37.478  1.00  0.00    -0.200 F 
ENDBRANCH  70  93
ENDBRANCH  44  45
ENDBRANCH  37  39
ENDBRANCH  36  37
ENDBRANCH  35  36
ENDBRANCH  34  35
ENDBRANCH  33  34
ENDBRANCH  32  33
ENDBRANCH  31  32
ENDBRANCH   1  31
TORSDOF 22
ENDMDL
MODEL 2
REMARK VINA RESULT:     -10.7      6.865     13.178
REMARK SMILES O=C(/C=C/c1ccc(C(=O)NC2CC2)cc1)NC1(C(=O)OCCOCCOCCOC(=O)c2ccc(-c3c4nc(c(-c5c(F)c(F)c(F)c(F)c5F)c5ccc([nH]5)c(-c5c(F)c(F)c(F)c(F)c5F)c5nc(c(-c6c(F)c(F)c(F)c(F)c6F)c6ccc3[nH]6)C=C5)C=C4)cc2)CCCC1
REMARK SMILES IDX 24 1 23 2 22 3 21 4 19 5 20 6 18 7 96 8 99 9 97 10 98 11
REMARK SMILES IDX 17 12 1 13 2 14 3 16 4 17 5 18 6 19 16 20 7 21 15 22 8 23
REMARK SMILES IDX 9 24 10 25 11 26 12 28 13 29 14 30 25 31 26 32 27 33 28 34
REMARK SMILES IDX 29 35 30 36 31 37 32 38 33 39 34 40 95 41 35 42 94 43 36 44
REMARK SMILES IDX 37 45 38 46 88 47 39 48 93 49 87 50 89 51 40 52 92 53 86 54
REMARK SMILES IDX 85 55 41 57 73 58 53 59 72 60 54 61 57 62 71 63 90 64 55 65
REMARK SMILES IDX 56 66 70 68 91 69 58 70 42 71 43 72 51 73 44 74 45 75 49 76
REMARK SMILES IDX 52 77 46 78 47 79 50 80 48 81 74 82 75 83 83 84 76 85 77 86
REMARK SMILES IDX 81 87 84 88 78 89 79 90 82 91 80 92 59 93 60 94 68 95 61 96
REMARK SMILES IDX 62 97 66 98 69 99 63 100 64 101 67 102 65 103
REMARK H PARENT 17 15 11 27 89 56 57 67
REMARK Flexibility Score: inf
ROOT
ATOM      1  O   UNL A   1      38.310  22.841  26.013  1.00  0.00    -0.376 OA
ENDROOT
BRANCH   1   2
ATOM      2  C   UNL A   1      37.783  21.719  25.328  1.00  0.00     0.202 C 
BRANCH   2   3
ATOM      3  C   UNL A   1      36.383  21.120  25.597  1.00  0.00     0.261 C 
BRANCH   3   4
ATOM      4  O   UNL A   1      35.569  20.769  24.468  1.00  0.00    -0.461 OA
BRANCH   4   5
ATOM      5  C   UNL A   1      34.884  19.594  24.585  1.00  0.00     0.331 C 
ATOM      6  O   UNL A   1      35.425  18.504  24.760  1.00  0.00    -0.249 OA
BRANCH   5   7
ATOM      7  C   UNL A   1      33.325  19.761  24.527  1.00  0.00     0.138 C 
ATOM      8  C   UNL A   1      32.780  19.211  25.865  1.00  0.00     0.040 C 
ATOM      9  C   UNL A   1      32.560  18.837  23.557  1.00  0.00     0.040 C 
ATOM     10  C   UNL A   1      32.810  17.698  25.685  1.00  0.00     0.003 C 
ATOM     11  C   UNL A   1      32.517  17.463  24.210  1.00  0.00     0.003 C 
BRANCH   7  12
ATOM     12  N   UNL A   1      32.852  21.151  24.378  1.00  0.00    -0.337 N 
ATOM     13  O   UNL A   1      31.850  21.071  22.297  1.00  0.00    -0.270 OA
ATOM     14  C   UNL A   1      32.277  21.690  23.260  1.00  0.00     0.244 C 
ATOM     15  H   UNL A   1      32.962  21.746  25.155  1.00  0.00     0.164 HD
BRANCH  14  16
ATOM     16  C   UNL A   1      32.025  23.140  23.347  1.00  0.00     0.072 C 
ATOM     17  C   UNL A   1      30.811  23.687  23.504  1.00  0.00     0.014 C 
BRANCH  17  18
ATOM     18  C   UNL A   1      30.642  25.127  23.352  1.00  0.00    -0.025 A 
ATOM     19  C   UNL A   1      29.479  25.799  23.730  1.00  0.00     0.009 A 
ATOM     20  C   UNL A   1      31.654  25.827  22.709  1.00  0.00     0.009 A 
ATOM     21  C   UNL A   1      29.367  27.181  23.533  1.00  0.00     0.014 A 
ATOM     22  C   UNL A   1      31.504  27.177  22.459  1.00  0.00     0.014 A 
ATOM     23  C   UNL A   1      30.392  27.897  22.910  1.00  0.00     0.039 A 
BRANCH  23  24
ATOM     24  C   UNL A   1      30.219  29.380  22.780  1.00  0.00     0.251 C 
ATOM     25  O   UNL A   1      29.701  29.862  21.775  1.00  0.00    -0.269 OA
ATOM     26  N   UNL A   1      30.582  30.218  23.801  1.00  0.00    -0.349 N 
ATOM     27  H   UNL A   1      30.455  31.183  23.649  1.00  0.00     0.164 HD
BRANCH  26  28
ATOM     28  C   UNL A   1      31.118  29.843  25.043  1.00  0.00     0.082 C 
ATOM     29  C   UNL A   1      32.606  29.957  25.326  1.00  0.00     0.027 C 
ATOM     30  C   UNL A   1      31.620  30.835  25.986  1.00  0.00     0.027 C 
ENDBRANCH  26  28
ENDBRANCH  23  24
ENDBRANCH  17  18
ENDBRANCH  14  16
ENDBRANCH   7  12
ENDBRANCH   5   7
ENDBRANCH   4   5
ENDBRANCH   3   4
ENDBRANCH   2   3
ENDBRANCH   1   2
BRANCH   1  31
ATOM     31  C   UNL A   1      39.598  22.726  26.566  1.00  0.00     0.188 C 
BRANCH  31  32
ATOM     32  C   UNL A   1      40.214  21.336  26.378  1.00  0.00     0.188 C 
BRANCH  32  33
ATOM     33  O   UNL A   1      41.514  21.027  26.865  1.00  0.00    -0.376 OA
BRANCH  33  34
ATOM     34  C   UNL A   1      41.870  19.667  27.079  1.00  0.00     0.202 C 
BRANCH  34  35
ATOM     35  C   UNL A   1      42.656  18.894  26.003  1.00  0.00     0.261 C 
BRANCH  35  36
ATOM     36  O   UNL A   1      42.926  19.595  24.778  1.00  0.00    -0.460 OA
BRANCH  36  37
ATOM     37  C   UNL A   1      44.239  19.724  24.461  1.00  0.00     0.338 C 
ATOM     38  O   UNL A   1      44.925  18.937  23.821  1.00  0.00    -0.246 OA
BRANCH  37  39
ATOM     39  C   UNL A   1      44.718  21.075  24.845  1.00  0.00     0.060 A 
ATOM     40  C   UNL A   1      45.383  21.231  26.072  1.00  0.00     0.016 A 
ATOM     41  C   UNL A   1      44.489  22.185  24.034  1.00  0.00     0.016 A 
ATOM     42  C   UNL A   1      45.790  22.499  26.503  1.00  0.00     0.010 A 
ATOM     43  C   UNL A   1      44.868  23.460  24.482  1.00  0.00     0.010 A 
ATOM     44  C   UNL A   1      45.492  23.633  25.734  1.00  0.00    -0.014 A 
BRANCH  44  45
ATOM     45  C   UNL A   1      45.669  25.006  26.302  1.00  0.00     0.031 A 
ATOM     46  C   UNL A   1      46.978  25.731  26.030  1.00  0.00     0.074 A 
ATOM     47  C   UNL A   1      44.661  25.608  26.964  1.00  0.00     0.049 A 
ATOM     48  N   UNL A   1      47.380  26.936  26.359  1.00  0.00    -0.248 NA
ATOM     49  C   UNL A   1      47.956  24.988  25.221  1.00  0.00     0.031 C 
ATOM     50  C   UNL A   1      43.305  25.073  27.092  1.00  0.00     0.029 A 
ATOM     51  N   UNL A   1      44.593  26.829  27.596  1.00  0.00    -0.354 N 
ATOM     52  C   UNL A   1      48.655  27.099  25.805  1.00  0.00     0.074 A 
ATOM     53  C   UNL A   1      48.951  25.857  25.115  1.00  0.00     0.031 C 
ATOM     54  C   UNL A   1      42.522  25.998  27.678  1.00  0.00     0.029 A 
ATOM     55  C   UNL A   1      43.322  27.183  27.997  1.00  0.00     0.049 A 
ATOM     56  H   UNL A   1      45.382  27.399  27.748  1.00  0.00     0.167 HD
ATOM     57  C   UNL A   1      49.507  28.166  25.873  1.00  0.00     0.037 A 
ATOM     58  C   UNL A   1      42.850  28.359  28.478  1.00  0.00     0.037 A 
ATOM     59  C   UNL A   1      49.231  29.381  26.617  1.00  0.00     0.049 A 
ATOM     60  C   UNL A   1      43.795  29.559  28.551  1.00  0.00     0.074 A 
ATOM     61  C   UNL A   1      50.022  30.403  27.114  1.00  0.00     0.029 A 
ATOM     62  N   UNL A   1      47.944  29.761  26.905  1.00  0.00    -0.354 N 
ATOM     63  N   UNL A   1      45.091  29.626  28.328  1.00  0.00    -0.248 NA
ATOM     64  C   UNL A   1      43.195  30.867  28.846  1.00  0.00     0.031 C 
ATOM     65  C   UNL A   1      49.179  31.348  27.752  1.00  0.00     0.029 A 
ATOM     66  C   UNL A   1      47.861  30.929  27.626  1.00  0.00     0.049 A 
ATOM     67  H   UNL A   1      47.154  29.246  26.623  1.00  0.00     0.167 HD
ATOM     68  C   UNL A   1      45.434  30.979  28.307  1.00  0.00     0.074 A 
ATOM     69  C   UNL A   1      44.210  31.694  28.623  1.00  0.00     0.031 C 
ATOM     70  C   UNL A   1      46.621  31.588  28.002  1.00  0.00     0.037 A 
BRANCH  57  71
ATOM     71  C   UNL A   1      50.847  28.013  25.216  1.00  0.00     0.064 A 
ATOM     72  C   UNL A   1      51.026  28.097  23.825  1.00  0.00     0.173 A 
ATOM     73  C   UNL A   1      51.977  27.749  26.003  1.00  0.00     0.173 A 
ATOM     74  F   UNL A   1      49.974  28.308  23.017  1.00  0.00    -0.203 F 
ATOM     75  C   UNL A   1      52.280  27.895  23.250  1.00  0.00     0.198 A 
ATOM     76  C   UNL A   1      53.234  27.594  25.430  1.00  0.00     0.198 A 
ATOM     77  F   UNL A   1      51.860  27.628  27.333  1.00  0.00    -0.203 F 
ATOM     78  F   UNL A   1      52.415  27.907  21.916  1.00  0.00    -0.200 F 
ATOM     79  C   UNL A   1      53.384  27.656  24.054  1.00  0.00     0.200 A 
ATOM     80  F   UNL A   1      54.299  27.373  26.213  1.00  0.00    -0.200 F 
ATOM     81  F   UNL A   1      54.591  27.470  23.503  1.00  0.00    -0.200 F 
ENDBRANCH  57  71
BRANCH  58  82
ATOM     82  C   UNL A   1      41.370  28.517  28.686  1.00  0.00     0.064 A 
ATOM     83  C   UNL A   1      40.535  28.964  27.647  1.00  0.00     0.173 A 
ATOM     84  C   UNL A   1      40.741  28.178  29.895  1.00  0.00     0.173 A 
ATOM     85  F   UNL A   1      41.065  29.293  26.462  1.00  0.00    -0.203 F 
ATOM     86  C   UNL A   1      39.157  29.109  27.817  1.00  0.00     0.198 A 
ATOM     87  C   UNL A   1      39.356  28.288  30.055  1.00  0.00     0.198 A 
ATOM     88  F   UNL A   1      41.468  27.707  30.919  1.00  0.00    -0.203 F 
ATOM     89  F   UNL A   1      38.406  29.593  26.817  1.00  0.00    -0.200 F 
ATOM     90  C   UNL A   1      38.566  28.767  29.021  1.00  0.00     0.200 A 
ATOM     91  F   UNL A   1      38.785  27.922  31.210  1.00  0.00    -0.200 F 
ATOM     92  F   UNL A   1      37.242  28.897  29.183  1.00  0.00    -0.200 F 
ENDBRANCH  58  82
BRANCH  70  93
ATOM     93  C   UNL A   1      46.652  33.090  28.106  1.00  0.00     0.064 A 
ATOM     94  C   UNL A   1      46.318  33.892  27.004  1.00  0.00     0.173 A 
ATOM     95  C   UNL A   1      46.985  33.737  29.306  1.00  0.00     0.173 A 
ATOM     96  F   UNL A   1      46.013  33.322  25.827  1.00  0.00    -0.203 F 
ATOM     97  C   UNL A   1      46.337  35.281  27.088  1.00  0.00     0.198 A 
ATOM     98  C   UNL A   1      46.978  35.130  29.395  1.00  0.00     0.198 A 
ATOM     99  F   UNL A   1      47.331  33.023  30.388  1.00  0.00    -0.203 F 
ATOM    100  F   UNL A   1      46.059  36.018  26.003  1.00  0.00    -0.200 F 
ATOM    101  C   UNL A   1      46.658  35.899  28.286  1.00  0.00     0.200 A 
ATOM    102  F   UNL A   1      47.287  35.730  30.553  1.00  0.00    -0.200 F 
ATOM    103  F   UNL A   1      46.665  37.237  28.367  1.00  0.00    -0.200 F 
ENDBRANCH  70  93
ENDBRANCH  44  45
ENDBRANCH  37  39
ENDBRANCH  36  37
ENDBRANCH  35  36
ENDBRANCH  34  35
ENDBRANCH  33  34
ENDBRANCH  32  33
ENDBRANCH  31  32
ENDBRANCH   1  31
TORSDOF 22
ENDMDL
MODEL 3
REMARK VINA RESULT:     -10.6      3.042      9.839
REMARK SMILES O=C(/C=C/c1ccc(C(=O)NC2CC2)cc1)NC1(C(=O)OCCOCCOCCOC(=O)c2ccc(-c3c4nc(c(-c5c(F)c(F)c(F)c(F)c5F)c5ccc([nH]5)c(-c5c(F)c(F)c(F)c(F)c5F)c5nc(c(-c6c(F)c(F)c(F)c(F)c6F)c6ccc3[nH]6)C=C5)C=C4)cc2)CCCC1
REMARK SMILES IDX 24 1 23 2 22 3 21 4 19 5 20 6 18 7 96 8 99 9 97 10 98 11
REMARK SMILES IDX 17 12 1 13 2 14 3 16 4 17 5 18 6 19 16 20 7 21 15 22 8 23
REMARK SMILES IDX 9 24 10 25 11 26 12 28 13 29 14 30 25 31 26 32 27 33 28 34
REMARK SMILES IDX 29 35 30 36 31 37 32 38 33 39 34 40 95 41 35 42 94 43 36 44
REMARK SMILES IDX 37 45 38 46 88 47 39 48 93 49 87 50 89 51 40 52 92 53 86 54
REMARK SMILES IDX 85 55 41 57 73 58 53 59 72 60 54 61 57 62 71 63 90 64 55 65
REMARK SMILES IDX 56 66 70 68 91 69 58 70 42 71 43 72 51 73 44 74 45 75 49 76
REMARK SMILES IDX 52 77 46 78 47 79 50 80 48 81 74 82 75 83 83 84 76 85 77 86
REMARK SMILES IDX 81 87 84 88 78 89 79 90 82 91 80 92 59 93 60 94 68 95 61 96
REMARK SMILES IDX 62 97 66 98 69 99 63 100 64 101 67 102 65 103
REMARK H PARENT 17 15 11 27 89 56 57 67
REMARK Flexibility Score: inf
ROOT
ATOM      1  O   UNL A   1      38.483  22.555  25.820  1.00  0.00    -0.376 OA
ENDROOT
BRANCH   1   2
ATOM      2  C   UNL A   1      37.826  21.378  25.385  1.00  0.00     0.202 C 
BRANCH   2   3
ATOM      3  C   UNL A   1      36.353  21.038  25.710  1.00  0.00     0.261 C 
BRANCH   3   4
ATOM      4  O   UNL A   1      35.452  20.816  24.616  1.00  0.00    -0.461 OA
BRANCH   4   5
ATOM      5  C   UNL A   1      34.845  19.594  24.599  1.00  0.00     0.331 C 
ATOM      6  O   UNL A   1      35.455  18.528  24.650  1.00  0.00    -0.249 OA
BRANCH   5   7
ATOM      7  C   UNL A   1      33.278  19.665  24.561  1.00  0.00     0.138 C 
ATOM      8  C   UNL A   1      32.778  18.936  25.828  1.00  0.00     0.040 C 
ATOM      9  C   UNL A   1      32.566  18.809  23.493  1.00  0.00     0.040 C 
ATOM     10  C   UNL A   1      32.904  17.458  25.479  1.00  0.00     0.003 C 
ATOM     11  C   UNL A   1      32.616  17.370  23.988  1.00  0.00     0.003 C 
BRANCH   7  12
ATOM     12  N   UNL A   1      32.716  21.030  24.568  1.00  0.00    -0.337 N 
ATOM     13  O   UNL A   1      32.024  21.251  22.375  1.00  0.00    -0.270 OA
ATOM     14  C   UNL A   1      32.259  21.719  23.478  1.00  0.00     0.244 C 
ATOM     15  H   UNL A   1      32.667  21.488  25.439  1.00  0.00     0.164 HD
BRANCH  14  16
ATOM     16  C   UNL A   1      31.878  23.115  23.760  1.00  0.00     0.072 C 
ATOM     17  C   UNL A   1      31.405  23.969  22.840  1.00  0.00     0.014 C 
BRANCH  17  18
ATOM     18  C   UNL A   1      31.273  25.383  23.167  1.00  0.00    -0.025 A 
ATOM     19  C   UNL A   1      32.284  26.315  22.929  1.00  0.00     0.009 A 
ATOM     20  C   UNL A   1      30.123  25.782  23.835  1.00  0.00     0.009 A 
ATOM     21  C   UNL A   1      32.106  27.656  23.291  1.00  0.00     0.014 A 
ATOM     22  C   UNL A   1      29.988  27.094  24.249  1.00  0.00     0.014 A 
ATOM     23  C   UNL A   1      30.941  28.070  23.941  1.00  0.00     0.039 A 
BRANCH  23  24
ATOM     24  C   UNL A   1      30.805  29.531  24.250  1.00  0.00     0.251 C 
ATOM     25  O   UNL A   1      31.340  30.009  25.249  1.00  0.00    -0.269 OA
ATOM     26  N   UNL A   1      30.131  30.367  23.399  1.00  0.00    -0.349 N 
ATOM     27  H   UNL A   1      30.066  31.312  23.666  1.00  0.00     0.164 HD
BRANCH  26  28
ATOM     28  C   UNL A   1      29.523  30.012  22.185  1.00  0.00     0.082 C 
ATOM     29  C   UNL A   1      28.014  29.886  22.067  1.00  0.00     0.027 C 
ATOM     30  C   UNL A   1      28.756  30.979  21.408  1.00  0.00     0.027 C 
ENDBRANCH  26  28
ENDBRANCH  23  24
ENDBRANCH  17  18
ENDBRANCH  14  16
ENDBRANCH   7  12
ENDBRANCH   5   7
ENDBRANCH   4   5
ENDBRANCH   3   4
ENDBRANCH   2   3
ENDBRANCH   1   2
BRANCH   1  31
ATOM     31  C   UNL A   1      39.589  22.410  26.676  1.00  0.00     0.188 C 
BRANCH  31  32
ATOM     32  C   UNL A   1      40.604  21.374  26.182  1.00  0.00     0.188 C 
BRANCH  32  33
ATOM     33  O   UNL A   1      41.944  21.359  26.660  1.00  0.00    -0.376 OA
BRANCH  33  34
ATOM     34  C   UNL A   1      43.004  21.111  25.746  1.00  0.00     0.202 C 
BRANCH  34  35
ATOM     35  C   UNL A   1      43.899  22.269  25.265  1.00  0.00     0.261 C 
BRANCH  35  36
ATOM     36  O   UNL A   1      43.229  23.476  24.868  1.00  0.00    -0.460 OA
BRANCH  36  37
ATOM     37  C   UNL A   1      43.883  24.627  25.164  1.00  0.00     0.338 C 
ATOM     38  O   UNL A   1      44.891  25.064  24.623  1.00  0.00    -0.246 OA
BRANCH  37  39
ATOM     39  C   UNL A   1      43.095  25.416  26.143  1.00  0.00     0.060 A 
ATOM     40  C   UNL A   1      43.438  26.761  26.357  1.00  0.00     0.016 A 
ATOM     41  C   UNL A   1      42.057  24.841  26.874  1.00  0.00     0.016 A 
ATOM     42  C   UNL A   1      42.764  27.521  27.321  1.00  0.00     0.010 A 
ATOM     43  C   UNL A   1      41.405  25.594  27.862  1.00  0.00     0.010 A 
ATOM     44  C   UNL A   1      41.774  26.930  28.117  1.00  0.00    -0.014 A 
BRANCH  44  45
ATOM     45  C   UNL A   1      41.244  27.638  29.325  1.00  0.00     0.031 A 
ATOM     46  C   UNL A   1      42.093  27.636  30.587  1.00  0.00     0.074 A 
ATOM     47  C   UNL A   1      40.086  28.326  29.262  1.00  0.00     0.049 A 
ATOM     48  N   UNL A   1      41.902  28.203  31.755  1.00  0.00    -0.248 NA
ATOM     49  C   UNL A   1      43.373  26.919  30.487  1.00  0.00     0.031 C 
ATOM     50  C   UNL A   1      39.313  28.556  28.041  1.00  0.00     0.029 A 
ATOM     51  N   UNL A   1      39.390  29.017  30.227  1.00  0.00    -0.354 N 
ATOM     52  C   UNL A   1      43.029  27.912  32.531  1.00  0.00     0.074 A 
ATOM     53  C   UNL A   1      43.899  27.114  31.687  1.00  0.00     0.031 C 
ATOM     54  C   UNL A   1      38.305  29.405  28.314  1.00  0.00     0.029 A 
ATOM     55  C   UNL A   1      38.337  29.760  29.735  1.00  0.00     0.049 A 
ATOM     56  H   UNL A   1      39.621  28.984  31.184  1.00  0.00     0.167 HD
ATOM     57  C   UNL A   1      43.312  28.256  33.823  1.00  0.00     0.037 A 
ATOM     58  C   UNL A   1      37.557  30.685  30.344  1.00  0.00     0.037 A 
ATOM     59  C   UNL A   1      42.411  29.002  34.682  1.00  0.00     0.049 A 
ATOM     60  C   UNL A   1      37.871  31.081  31.787  1.00  0.00     0.074 A 
ATOM     61  C   UNL A   1      42.306  29.164  36.054  1.00  0.00     0.029 A 
ATOM     62  N   UNL A   1      41.442  29.820  34.157  1.00  0.00    -0.354 N 
ATOM     63  N   UNL A   1      38.741  30.568  32.630  1.00  0.00    -0.248 NA
ATOM     64  C   UNL A   1      37.163  32.248  32.331  1.00  0.00     0.031 C 
ATOM     65  C   UNL A   1      41.219  30.037  36.316  1.00  0.00     0.029 A 
ATOM     66  C   UNL A   1      40.668  30.441  35.108  1.00  0.00     0.049 A 
ATOM     67  H   UNL A   1      41.313  29.949  33.189  1.00  0.00     0.167 HD
ATOM     68  C   UNL A   1      38.798  31.424  33.733  1.00  0.00     0.074 A 
ATOM     69  C   UNL A   1      37.802  32.451  33.476  1.00  0.00     0.031 C 
ATOM     70  C   UNL A   1      39.620  31.409  34.825  1.00  0.00     0.037 A 
BRANCH  57  71
ATOM     71  C   UNL A   1      44.594  27.737  34.404  1.00  0.00     0.064 A 
ATOM     72  C   UNL A   1      45.794  28.467  34.374  1.00  0.00     0.173 A 
ATOM     73  C   UNL A   1      44.624  26.460  34.982  1.00  0.00     0.173 A 
ATOM     74  F   UNL A   1      45.836  29.679  33.796  1.00  0.00    -0.203 F 
ATOM     75  C   UNL A   1      46.976  27.926  34.877  1.00  0.00     0.198 A 
ATOM     76  C   UNL A   1      45.795  25.942  35.524  1.00  0.00     0.198 A 
ATOM     77  F   UNL A   1      43.517  25.706  35.011  1.00  0.00    -0.203 F 
ATOM     78  F   UNL A   1      48.124  28.610  34.771  1.00  0.00    -0.200 F 
ATOM     79  C   UNL A   1      46.973  26.669  35.462  1.00  0.00     0.200 A 
ATOM     80  F   UNL A   1      45.782  24.730  36.096  1.00  0.00    -0.200 F 
ATOM     81  F   UNL A   1      48.106  26.150  35.952  1.00  0.00    -0.200 F 
ENDBRANCH  57  71
BRANCH  58  82
ATOM     82  C   UNL A   1      36.576  31.467  29.515  1.00  0.00     0.064 A 
ATOM     83  C   UNL A   1      35.423  30.856  28.988  1.00  0.00     0.173 A 
ATOM     84  C   UNL A   1      36.724  32.841  29.273  1.00  0.00     0.173 A 
ATOM     85  F   UNL A   1      35.211  29.549  29.190  1.00  0.00    -0.203 F 
ATOM     86  C   UNL A   1      34.496  31.565  28.223  1.00  0.00     0.198 A 
ATOM     87  C   UNL A   1      35.776  33.561  28.538  1.00  0.00     0.198 A 
ATOM     88  F   UNL A   1      37.777  33.501  29.778  1.00  0.00    -0.203 F 
ATOM     89  F   UNL A   1      33.441  30.931  27.692  1.00  0.00    -0.200 F 
ATOM     90  C   UNL A   1      34.670  32.921  28.002  1.00  0.00     0.200 A 
ATOM     91  F   UNL A   1      35.931  34.880  28.357  1.00  0.00    -0.200 F 
ATOM     92  F   UNL A   1      33.776  33.606  27.276  1.00  0.00    -0.200 F 
ENDBRANCH  58  82
BRANCH  70  93
ATOM     93  C   UNL A   1      39.390  32.483  35.856  1.00  0.00     0.064 A 
ATOM     94  C   UNL A   1      40.085  33.700  35.792  1.00  0.00     0.173 A 
ATOM     95  C   UNL A   1      38.457  32.318  36.892  1.00  0.00     0.173 A 
ATOM     96  F   UNL A   1      41.004  33.898  34.833  1.00  0.00    -0.203 F 
ATOM     97  C   UNL A   1      39.877  34.702  36.735  1.00  0.00     0.198 A 
ATOM     98  C   UNL A   1      38.230  33.336  37.820  1.00  0.00     0.198 A 
ATOM     99  F   UNL A   1      37.774  31.169  37.014  1.00  0.00    -0.203 F 
ATOM    100  F   UNL A   1      40.592  35.834  36.673  1.00  0.00    -0.200 F 
ATOM    101  C   UNL A   1      38.943  34.523  37.742  1.00  0.00     0.200 A 
ATOM    102  F   UNL A   1      37.327  33.166  38.795  1.00  0.00    -0.200 F 
ATOM    103  F   UNL A   1      38.736  35.496  38.643  1.00  0.00    -0.200 F 
ENDBRANCH  70  93
ENDBRANCH  44  45
ENDBRANCH  37  39
ENDBRANCH  36  37
ENDBRANCH  35  36
ENDBRANCH  34  35
ENDBRANCH  33  34
ENDBRANCH  32  33
ENDBRANCH  31  32
ENDBRANCH   1  31
TORSDOF 22
ENDMDL
