MODEL 1
REMARK VINA RESULT:      -9.6      0.000      0.000
REMARK SMILES C[C@H]([N@H+](CCC(=O)OCCOCCOCCOC(=O)c1ccc(-c2c3nc(c(-c4c(F)c(F)c(F)c(F)c4F)c4ccc([nH]4)c(-c4c(F)c(F)c(F)c(F)c4F)c4nc(c(-c5c(F)c(F)c(F)c(F)c5F)c5ccc2[nH]5)C=C4)C=C3)cc1)C(C)(C)C)C1(C)CC1
REMARK SMILES IDX 12 1 11 2 10 3 9 4 8 5 6 6 7 7 5 8 4 9 3 10 2 12 1 13 87 14
REMARK SMILES IDX 88 15 89 16 90 17 83 18 84 19 85 20 86 21 13 22 14 23 15 24
REMARK SMILES IDX 16 25 17 26 18 27 19 28 20 29 21 30 82 31 22 32 81 33 23 34
REMARK SMILES IDX 24 35 25 36 75 37 26 38 80 39 74 40 76 41 27 42 79 43 73 44
REMARK SMILES IDX 72 45 28 47 60 48 40 49 59 50 41 51 44 52 58 53 77 54 42 55
REMARK SMILES IDX 43 56 57 58 78 59 45 60 29 61 30 62 38 63 31 64 32 65 36 66
REMARK SMILES IDX 39 67 33 68 34 69 37 70 35 71 61 72 62 73 70 74 63 75 64 76
REMARK SMILES IDX 68 77 71 78 65 79 66 80 69 81 67 82 46 83 47 84 55 85 48 86
REMARK SMILES IDX 49 87 53 88 56 89 50 90 51 91 54 92 52 93
REMARK H PARENT 3 11 76 46 44 57
REMARK Flexibility Score: inf
ROOT
ATOM      1  C   UNL A   1      40.120  21.715  26.703  1.00  0.00     0.188 C 
ENDROOT
BRANCH   1   2
ATOM      2  O   UNL A   1      39.331  20.986  25.769  1.00  0.00    -0.376 OA
BRANCH   2   3
ATOM      3  C   UNL A   1      37.999  21.493  25.657  1.00  0.00     0.202 C 
BRANCH   3   4
ATOM      4  C   UNL A   1      37.915  22.992  26.016  1.00  0.00     0.261 C 
BRANCH   4   5
ATOM      5  O   UNL A   1      37.428  23.830  24.939  1.00  0.00    -0.463 OA
BRANCH   5   6
ATOM      6  C   UNL A   1      36.167  23.703  24.456  1.00  0.00     0.311 C 
ATOM      7  O   UNL A   1      35.879  23.197  23.379  1.00  0.00    -0.252 OA
BRANCH   6   8
ATOM      8  C   UNL A   1      35.141  24.260  25.441  1.00  0.00     0.184 C 
BRANCH   8   9
ATOM      9  C   UNL A   1      33.697  23.710  25.290  1.00  0.00     0.274 C 
BRANCH   9  10
ATOM     10  N   UNL A   1      32.554  24.469  24.627  1.00  0.00    -0.328 N 
ATOM     11  H   UNL A   1      31.684  24.285  25.126  1.00  0.00     0.348 HD
BRANCH  10  12
ATOM     12  C   UNL A   1      32.793  25.972  24.782  1.00  0.00     0.187 C 
ATOM     13  C   UNL A   1      33.617  26.641  23.650  1.00  0.00     0.076 C 
BRANCH  12  14
ATOM     14  C   UNL A   1      31.610  26.863  25.254  1.00  0.00     0.019 C 
ATOM     15  C   UNL A   1      31.071  27.799  24.184  1.00  0.00     0.018 C 
ATOM     16  C   UNL A   1      30.466  26.322  26.126  1.00  0.00     0.013 C 
ATOM     17  C   UNL A   1      31.479  27.212  26.745  1.00  0.00     0.013 C 
ENDBRANCH  12  14
ENDBRANCH  10  12
BRANCH  10  18
ATOM     18  C   UNL A   1      32.127  23.940  23.286  1.00  0.00     0.089 C 
ATOM     19  C   UNL A   1      30.607  24.119  23.126  1.00  0.00     0.078 C 
ATOM     20  C   UNL A   1      32.604  24.670  22.009  1.00  0.00     0.078 C 
ATOM     21  C   UNL A   1      32.470  22.450  23.135  1.00  0.00     0.078 C 
ENDBRANCH  10  18
ENDBRANCH   9  10
ENDBRANCH   8   9
ENDBRANCH   6   8
ENDBRANCH   5   6
ENDBRANCH   4   5
ENDBRANCH   3   4
ENDBRANCH   2   3
ENDBRANCH   1   2
BRANCH   1  22
ATOM     22  C   UNL A   1      41.607  21.498  26.462  1.00  0.00     0.188 C 
BRANCH  22  23
ATOM     23  O   UNL A   1      41.847  20.351  25.645  1.00  0.00    -0.376 OA
BRANCH  23  24
ATOM     24  C   UNL A   1      42.318  19.211  26.371  1.00  0.00     0.202 C 
BRANCH  24  25
ATOM     25  C   UNL A   1      43.461  18.434  25.698  1.00  0.00     0.261 C 
BRANCH  25  26
ATOM     26  O   UNL A   1      43.703  18.941  24.375  1.00  0.00    -0.460 OA
BRANCH  26  27
ATOM     27  C   UNL A   1      44.965  19.391  24.130  1.00  0.00     0.338 C 
ATOM     28  O   UNL A   1      45.837  18.828  23.510  1.00  0.00    -0.246 OA
BRANCH  27  29
ATOM     29  C   UNL A   1      45.034  20.820  24.547  1.00  0.00     0.060 A 
ATOM     30  C   UNL A   1      44.524  21.787  23.668  1.00  0.00     0.016 A 
ATOM     31  C   UNL A   1      45.461  21.194  25.826  1.00  0.00     0.016 A 
ATOM     32  C   UNL A   1      44.448  23.126  24.060  1.00  0.00     0.010 A 
ATOM     33  C   UNL A   1      45.386  22.531  26.216  1.00  0.00     0.010 A 
ATOM     34  C   UNL A   1      44.894  23.507  25.333  1.00  0.00    -0.014 A 
BRANCH  34  35
ATOM     35  C   UNL A   1      45.003  24.935  25.715  1.00  0.00     0.031 A 
ATOM     36  C   UNL A   1      46.357  25.582  25.648  1.00  0.00     0.074 A 
ATOM     37  C   UNL A   1      43.942  25.623  26.174  1.00  0.00     0.049 A 
ATOM     38  N   UNL A   1      46.742  26.754  26.081  1.00  0.00    -0.248 NA
ATOM     39  C   UNL A   1      47.426  24.789  25.020  1.00  0.00     0.031 C 
ATOM     40  C   UNL A   1      42.575  25.120  26.261  1.00  0.00     0.029 A 
ATOM     41  N   UNL A   1      43.867  26.896  26.687  1.00  0.00    -0.354 N 
ATOM     42  C   UNL A   1      48.098  26.832  25.793  1.00  0.00     0.074 A 
ATOM     43  C   UNL A   1      48.475  25.584  25.166  1.00  0.00     0.031 C 
ATOM     44  C   UNL A   1      41.798  26.062  26.826  1.00  0.00     0.029 A 
ATOM     45  C   UNL A   1      42.622  27.218  27.174  1.00  0.00     0.049 A 
ATOM     46  H   UNL A   1      44.629  27.518  26.704  1.00  0.00     0.167 HD
ATOM     47  C   UNL A   1      48.951  27.855  26.028  1.00  0.00     0.037 A 
ATOM     48  C   UNL A   1      42.212  28.307  27.855  1.00  0.00     0.037 A 
ATOM     49  C   UNL A   1      48.573  29.098  26.642  1.00  0.00     0.049 A 
ATOM     50  C   UNL A   1      43.202  29.404  28.167  1.00  0.00     0.074 A 
ATOM     51  C   UNL A   1      49.355  30.215  26.875  1.00  0.00     0.029 A 
ATOM     52  N   UNL A   1      47.308  29.383  27.129  1.00  0.00    -0.354 N 
ATOM     53  N   UNL A   1      44.470  29.493  27.849  1.00  0.00    -0.248 NA
ATOM     54  C   UNL A   1      42.702  30.550  28.943  1.00  0.00     0.031 C 
ATOM     55  C   UNL A   1      48.576  31.158  27.554  1.00  0.00     0.029 A 
ATOM     56  C   UNL A   1      47.297  30.646  27.697  1.00  0.00     0.049 A 
ATOM     57  H   UNL A   1      46.533  28.778  27.079  1.00  0.00     0.167 HD
ATOM     58  C   UNL A   1      44.911  30.707  28.363  1.00  0.00     0.074 A 
ATOM     59  C   UNL A   1      43.771  31.332  28.999  1.00  0.00     0.031 C 
ATOM     60  C   UNL A   1      46.150  31.255  28.319  1.00  0.00     0.037 A 
BRANCH  47  61
ATOM     61  C   UNL A   1      50.385  27.669  25.640  1.00  0.00     0.064 A 
ATOM     62  C   UNL A   1      51.356  27.288  26.577  1.00  0.00     0.173 A 
ATOM     63  C   UNL A   1      50.779  27.817  24.302  1.00  0.00     0.173 A 
ATOM     64  F   UNL A   1      51.030  27.150  27.871  1.00  0.00    -0.203 F 
ATOM     65  C   UNL A   1      52.675  27.072  26.189  1.00  0.00     0.198 A 
ATOM     66  C   UNL A   1      52.094  27.576  23.914  1.00  0.00     0.198 A 
ATOM     67  F   UNL A   1      49.887  28.181  23.370  1.00  0.00    -0.203 F 
ATOM     68  F   UNL A   1      53.595  26.738  27.105  1.00  0.00    -0.200 F 
ATOM     69  C   UNL A   1      53.041  27.206  24.857  1.00  0.00     0.200 A 
ATOM     70  F   UNL A   1      52.443  27.697  22.625  1.00  0.00    -0.200 F 
ATOM     71  F   UNL A   1      54.308  26.984  24.483  1.00  0.00    -0.200 F 
ENDBRANCH  47  61
BRANCH  48  72
ATOM     72  C   UNL A   1      40.808  28.410  28.338  1.00  0.00     0.064 A 
ATOM     73  C   UNL A   1      39.798  28.937  27.520  1.00  0.00     0.173 A 
ATOM     74  C   UNL A   1      40.461  28.051  29.649  1.00  0.00     0.173 A 
ATOM     75  F   UNL A   1      40.086  29.329  26.270  1.00  0.00    -0.203 F 
ATOM     76  C   UNL A   1      38.504  29.125  28.002  1.00  0.00     0.198 A 
ATOM     77  C   UNL A   1      39.160  28.212  30.121  1.00  0.00     0.198 A 
ATOM     78  F   UNL A   1      41.391  27.555  30.478  1.00  0.00    -0.203 F 
ATOM     79  F   UNL A   1      37.575  29.692  27.220  1.00  0.00    -0.200 F 
ATOM     80  C   UNL A   1      38.185  28.760  29.302  1.00  0.00     0.200 A 
ATOM     81  F   UNL A   1      38.856  27.855  31.377  1.00  0.00    -0.200 F 
ATOM     82  F   UNL A   1      36.944  28.953  29.770  1.00  0.00    -0.200 F 
ENDBRANCH  48  72
BRANCH  60  83
ATOM     83  C   UNL A   1      46.337  32.602  28.953  1.00  0.00     0.064 A 
ATOM     84  C   UNL A   1      46.764  32.735  30.282  1.00  0.00     0.173 A 
ATOM     85  C   UNL A   1      46.143  33.774  28.204  1.00  0.00     0.173 A 
ATOM     86  F   UNL A   1      46.950  31.645  31.042  1.00  0.00    -0.203 F 
ATOM     87  C   UNL A   1      46.973  33.991  30.845  1.00  0.00     0.198 A 
ATOM     88  C   UNL A   1      46.382  35.028  28.761  1.00  0.00     0.198 A 
ATOM     89  F   UNL A   1      45.744  33.702  26.926  1.00  0.00    -0.203 F 
ATOM     90  F   UNL A   1      47.343  34.095  32.129  1.00  0.00    -0.200 F 
ATOM     91  C   UNL A   1      46.790  35.135  30.082  1.00  0.00     0.200 A 
ATOM     92  F   UNL A   1      46.220  36.131  28.018  1.00  0.00    -0.200 F 
ATOM     93  F   UNL A   1      47.005  36.343  30.622  1.00  0.00    -0.200 F 
ENDBRANCH  60  83
ENDBRANCH  34  35
ENDBRANCH  27  29
ENDBRANCH  26  27
ENDBRANCH  25  26
ENDBRANCH  24  25
ENDBRANCH  23  24
ENDBRANCH  22  23
ENDBRANCH   1  22
TORSDOF 22
ENDMDL
MODEL 2
REMARK VINA RESULT:      -9.1      5.679      9.612
REMARK SMILES C[C@H]([N@H+](CCC(=O)OCCOCCOCCOC(=O)c1ccc(-c2c3nc(c(-c4c(F)c(F)c(F)c(F)c4F)c4ccc([nH]4)c(-c4c(F)c(F)c(F)c(F)c4F)c4nc(c(-c5c(F)c(F)c(F)c(F)c5F)c5ccc2[nH]5)C=C4)C=C3)cc1)C(C)(C)C)C1(C)CC1
REMARK SMILES IDX 12 1 11 2 10 3 9 4 8 5 6 6 7 7 5 8 4 9 3 10 2 12 1 13 87 14
REMARK SMILES IDX 88 15 89 16 90 17 83 18 84 19 85 20 86 21 13 22 14 23 15 24
REMARK SMILES IDX 16 25 17 26 18 27 19 28 20 29 21 30 82 31 22 32 81 33 23 34
REMARK SMILES IDX 24 35 25 36 75 37 26 38 80 39 74 40 76 41 27 42 79 43 73 44
REMARK SMILES IDX 72 45 28 47 60 48 40 49 59 50 41 51 44 52 58 53 77 54 42 55
REMARK SMILES IDX 43 56 57 58 78 59 45 60 29 61 30 62 38 63 31 64 32 65 36 66
REMARK SMILES IDX 39 67 33 68 34 69 37 70 35 71 61 72 62 73 70 74 63 75 64 76
REMARK SMILES IDX 68 77 71 78 65 79 66 80 69 81 67 82 46 83 47 84 55 85 48 86
REMARK SMILES IDX 49 87 53 88 56 89 50 90 51 91 54 92 52 93
REMARK H PARENT 3 11 76 46 44 57
REMARK Flexibility Score: inf
ROOT
ATOM      1  C   UNL A   1      32.550  27.337  23.540  1.00  0.00     0.188 C 
ENDROOT
BRANCH   1   2
ATOM      2  O   UNL A   1      31.565  26.319  23.397  1.00  0.00    -0.376 OA
BRANCH   2   3
ATOM      3  C   UNL A   1      31.800  25.199  24.254  1.00  0.00     0.202 C 
BRANCH   3   4
ATOM      4  C   UNL A   1      30.679  24.143  24.151  1.00  0.00     0.261 C 
BRANCH   4   5
ATOM      5  O   UNL A   1      30.807  23.054  25.098  1.00  0.00    -0.463 OA
BRANCH   5   6
ATOM      6  C   UNL A   1      30.956  23.282  26.427  1.00  0.00     0.311 C 
ATOM      7  O   UNL A   1      30.281  24.066  27.080  1.00  0.00    -0.252 OA
BRANCH   6   8
ATOM      8  C   UNL A   1      32.069  22.416  27.013  1.00  0.00     0.184 C 
BRANCH   8   9
ATOM      9  C   UNL A   1      33.347  22.284  26.141  1.00  0.00     0.274 C 
BRANCH   9  10
ATOM     10  N   UNL A   1      33.400  21.564  24.798  1.00  0.00    -0.328 N 
ATOM     11  H   UNL A   1      32.514  21.683  24.308  1.00  0.00     0.348 HD
BRANCH  10  12
ATOM     12  C   UNL A   1      34.444  22.240  23.908  1.00  0.00     0.187 C 
ATOM     13  C   UNL A   1      33.879  23.071  22.724  1.00  0.00     0.076 C 
BRANCH  12  14
ATOM     14  C   UNL A   1      35.656  22.935  24.588  1.00  0.00     0.019 C 
ATOM     15  C   UNL A   1      35.409  24.385  24.970  1.00  0.00     0.018 C 
ATOM     16  C   UNL A   1      36.519  22.235  25.650  1.00  0.00     0.013 C 
ATOM     17  C   UNL A   1      37.077  22.430  24.289  1.00  0.00     0.013 C 
ENDBRANCH  12  14
ENDBRANCH  10  12
BRANCH  10  18
ATOM     18  C   UNL A   1      33.380  20.062  24.876  1.00  0.00     0.089 C 
ATOM     19  C   UNL A   1      32.477  19.504  23.763  1.00  0.00     0.078 C 
ATOM     20  C   UNL A   1      34.678  19.281  24.564  1.00  0.00     0.078 C 
ATOM     21  C   UNL A   1      32.852  19.577  26.235  1.00  0.00     0.078 C 
ENDBRANCH  10  18
ENDBRANCH   9  10
ENDBRANCH   8   9
ENDBRANCH   6   8
ENDBRANCH   5   6
ENDBRANCH   4   5
ENDBRANCH   3   4
ENDBRANCH   2   3
ENDBRANCH   1   2
BRANCH   1  22
ATOM     22  C   UNL A   1      32.803  27.664  25.004  1.00  0.00     0.188 C 
BRANCH  22  23
ATOM     23  O   UNL A   1      31.687  28.330  25.597  1.00  0.00    -0.376 OA
BRANCH  23  24
ATOM     24  C   UNL A   1      31.406  29.612  25.024  1.00  0.00     0.202 C 
BRANCH  24  25
ATOM     25  C   UNL A   1      31.587  30.805  25.975  1.00  0.00     0.261 C 
BRANCH  25  26
ATOM     26  O   UNL A   1      32.862  30.735  26.633  1.00  0.00    -0.460 OA
BRANCH  26  27
ATOM     27  C   UNL A   1      33.303  31.891  27.206  1.00  0.00     0.338 C 
ATOM     28  O   UNL A   1      32.711  32.942  27.285  1.00  0.00    -0.246 OA
BRANCH  27  29
ATOM     29  C   UNL A   1      34.559  31.588  27.948  1.00  0.00     0.060 A 
ATOM     30  C   UNL A   1      34.776  30.265  28.361  1.00  0.00     0.016 A 
ATOM     31  C   UNL A   1      35.564  32.546  28.116  1.00  0.00     0.016 A 
ATOM     32  C   UNL A   1      35.990  29.899  28.948  1.00  0.00     0.010 A 
ATOM     33  C   UNL A   1      36.776  32.181  28.703  1.00  0.00     0.010 A 
ATOM     34  C   UNL A   1      36.992  30.861  29.136  1.00  0.00    -0.014 A 
BRANCH  34  35
ATOM     35  C   UNL A   1      38.213  30.558  29.919  1.00  0.00     0.031 A 
ATOM     36  C   UNL A   1      39.196  29.579  29.344  1.00  0.00     0.074 A 
ATOM     37  C   UNL A   1      38.414  31.086  31.141  1.00  0.00     0.049 A 
ATOM     38  N   UNL A   1      40.244  29.028  29.898  1.00  0.00    -0.248 NA
ATOM     39  C   UNL A   1      38.952  29.153  27.956  1.00  0.00     0.031 C 
ATOM     40  C   UNL A   1      37.552  32.065  31.796  1.00  0.00     0.029 A 
ATOM     41  N   UNL A   1      39.404  30.837  32.061  1.00  0.00    -0.354 N 
ATOM     42  C   UNL A   1      40.773  28.180  28.935  1.00  0.00     0.074 A 
ATOM     43  C   UNL A   1      39.923  28.272  27.769  1.00  0.00     0.031 C 
ATOM     44  C   UNL A   1      38.032  32.312  33.028  1.00  0.00     0.029 A 
ATOM     45  C   UNL A   1      39.211  31.481  33.261  1.00  0.00     0.049 A 
ATOM     46  H   UNL A   1      40.176  30.256  31.880  1.00  0.00     0.167 HD
ATOM     47  C   UNL A   1      41.873  27.397  29.017  1.00  0.00     0.037 A 
ATOM     48  C   UNL A   1      39.891  31.376  34.420  1.00  0.00     0.037 A 
ATOM     49  C   UNL A   1      42.723  27.313  30.172  1.00  0.00     0.049 A 
ATOM     50  C   UNL A   1      41.073  30.439  34.506  1.00  0.00     0.074 A 
ATOM     51  C   UNL A   1      43.889  26.587  30.333  1.00  0.00     0.029 A 
ATOM     52  N   UNL A   1      42.490  27.971  31.370  1.00  0.00    -0.354 N 
ATOM     53  N   UNL A   1      41.597  29.676  33.578  1.00  0.00    -0.248 NA
ATOM     54  C   UNL A   1      41.752  30.342  35.808  1.00  0.00     0.031 C 
ATOM     55  C   UNL A   1      44.335  26.762  31.647  1.00  0.00     0.029 A 
ATOM     56  C   UNL A   1      43.473  27.637  32.287  1.00  0.00     0.049 A 
ATOM     57  H   UNL A   1      41.740  28.584  31.542  1.00  0.00     0.167 HD
ATOM     58  C   UNL A   1      42.675  29.032  34.174  1.00  0.00     0.074 A 
ATOM     59  C   UNL A   1      42.743  29.505  35.539  1.00  0.00     0.031 C 
ATOM     60  C   UNL A   1      43.529  28.124  33.641  1.00  0.00     0.037 A 
BRANCH  47  61
ATOM     61  C   UNL A   1      42.212  26.548  27.831  1.00  0.00     0.064 A 
ATOM     62  C   UNL A   1      43.145  26.965  26.870  1.00  0.00     0.173 A 
ATOM     63  C   UNL A   1      41.639  25.276  27.687  1.00  0.00     0.173 A 
ATOM     64  F   UNL A   1      43.706  28.180  26.957  1.00  0.00    -0.203 F 
ATOM     65  C   UNL A   1      43.484  26.141  25.801  1.00  0.00     0.198 A 
ATOM     66  C   UNL A   1      41.998  24.445  26.629  1.00  0.00     0.198 A 
ATOM     67  F   UNL A   1      40.741  24.833  28.580  1.00  0.00    -0.203 F 
ATOM     68  F   UNL A   1      44.354  26.571  24.876  1.00  0.00    -0.200 F 
ATOM     69  C   UNL A   1      42.918  24.879  25.687  1.00  0.00     0.200 A 
ATOM     70  F   UNL A   1      41.459  23.223  26.526  1.00  0.00    -0.200 F 
ATOM     71  F   UNL A   1      43.256  24.082  24.664  1.00  0.00    -0.200 F 
ENDBRANCH  47  61
BRANCH  48  72
ATOM     72  C   UNL A   1      39.456  32.139  35.622  1.00  0.00     0.064 A 
ATOM     73  C   UNL A   1      40.001  33.396  35.917  1.00  0.00     0.173 A 
ATOM     74  C   UNL A   1      38.540  31.597  36.535  1.00  0.00     0.173 A 
ATOM     75  F   UNL A   1      40.909  33.941  35.094  1.00  0.00    -0.203 F 
ATOM     76  C   UNL A   1      39.669  34.069  37.091  1.00  0.00     0.198 A 
ATOM     77  C   UNL A   1      38.185  32.283  37.695  1.00  0.00     0.198 A 
ATOM     78  F   UNL A   1      37.998  30.391  36.308  1.00  0.00    -0.203 F 
ATOM     79  F   UNL A   1      40.256  35.238  37.380  1.00  0.00    -0.200 F 
ATOM     80  C   UNL A   1      38.759  33.513  37.978  1.00  0.00     0.200 A 
ATOM     81  F   UNL A   1      37.302  31.744  38.547  1.00  0.00    -0.200 F 
ATOM     82  F   UNL A   1      38.448  34.154  39.114  1.00  0.00    -0.200 F 
ENDBRANCH  48  72
BRANCH  60  83
ATOM     83  C   UNL A   1      44.623  27.598  34.524  1.00  0.00     0.064 A 
ATOM     84  C   UNL A   1      45.847  28.271  34.655  1.00  0.00     0.173 A 
ATOM     85  C   UNL A   1      44.423  26.441  35.294  1.00  0.00     0.173 A 
ATOM     86  F   UNL A   1      46.090  29.373  33.930  1.00  0.00    -0.203 F 
ATOM     87  C   UNL A   1      46.837  27.794  35.508  1.00  0.00     0.198 A 
ATOM     88  C   UNL A   1      45.404  25.985  36.169  1.00  0.00     0.198 A 
ATOM     89  F   UNL A   1      43.267  25.766  35.212  1.00  0.00    -0.203 F 
ATOM     90  F   UNL A   1      48.014  28.431  35.587  1.00  0.00    -0.200 F 
ATOM     91  C   UNL A   1      46.613  26.658  36.271  1.00  0.00     0.200 A 
ATOM     92  F   UNL A   1      45.179  24.896  36.916  1.00  0.00    -0.200 F 
ATOM     93  F   UNL A   1      47.562  26.209  37.103  1.00  0.00    -0.200 F 
ENDBRANCH  60  83
ENDBRANCH  34  35
ENDBRANCH  27  29
ENDBRANCH  26  27
ENDBRANCH  25  26
ENDBRANCH  24  25
ENDBRANCH  23  24
ENDBRANCH  22  23
ENDBRANCH   1  22
TORSDOF 22
ENDMDL
MODEL 3
REMARK VINA RESULT:      -9.0      6.930     12.494
REMARK SMILES C[C@H]([N@H+](CCC(=O)OCCOCCOCCOC(=O)c1ccc(-c2c3nc(c(-c4c(F)c(F)c(F)c(F)c4F)c4ccc([nH]4)c(-c4c(F)c(F)c(F)c(F)c4F)c4nc(c(-c5c(F)c(F)c(F)c(F)c5F)c5ccc2[nH]5)C=C4)C=C3)cc1)C(C)(C)C)C1(C)CC1
REMARK SMILES IDX 12 1 11 2 10 3 9 4 8 5 6 6 7 7 5 8 4 9 3 10 2 12 1 13 87 14
REMARK SMILES IDX 88 15 89 16 90 17 83 18 84 19 85 20 86 21 13 22 14 23 15 24
REMARK SMILES IDX 16 25 17 26 18 27 19 28 20 29 21 30 82 31 22 32 81 33 23 34
REMARK SMILES IDX 24 35 25 36 75 37 26 38 80 39 74 40 76 41 27 42 79 43 73 44
REMARK SMILES IDX 72 45 28 47 60 48 40 49 59 50 41 51 44 52 58 53 77 54 42 55
REMARK SMILES IDX 43 56 57 58 78 59 45 60 29 61 30 62 38 63 31 64 32 65 36 66
REMARK SMILES IDX 39 67 33 68 34 69 37 70 35 71 61 72 62 73 70 74 63 75 64 76
REMARK SMILES IDX 68 77 71 78 65 79 66 80 69 81 67 82 46 83 47 84 55 85 48 86
REMARK SMILES IDX 49 87 53 88 56 89 50 90 51 91 54 92 52 93
REMARK H PARENT 3 11 76 46 44 57
REMARK Flexibility Score: inf
ROOT
ATOM      1  C   UNL A   1      32.872  33.005  27.484  1.00  0.00     0.188 C 
ENDROOT
BRANCH   1   2
ATOM      2  O   UNL A   1      32.525  31.626  27.417  1.00  0.00    -0.376 OA
BRANCH   2   3
ATOM      3  C   UNL A   1      33.667  30.775  27.290  1.00  0.00     0.202 C 
BRANCH   3   4
ATOM      4  C   UNL A   1      33.381  29.549  26.398  1.00  0.00     0.261 C 
BRANCH   4   5
ATOM      5  O   UNL A   1      33.242  28.306  27.131  1.00  0.00    -0.463 OA
BRANCH   5   6
ATOM      6  C   UNL A   1      32.217  27.451  26.890  1.00  0.00     0.311 C 
ATOM      7  O   UNL A   1      31.151  27.452  27.491  1.00  0.00    -0.252 OA
BRANCH   6   8
ATOM      8  C   UNL A   1      32.557  26.490  25.752  1.00  0.00     0.184 C 
BRANCH   8   9
ATOM      9  C   UNL A   1      32.517  24.981  26.113  1.00  0.00     0.274 C 
BRANCH   9  10
ATOM     10  N   UNL A   1      33.308  23.902  25.384  1.00  0.00    -0.328 N 
ATOM     11  H   UNL A   1      33.786  24.309  24.580  1.00  0.00     0.348 HD
BRANCH  10  12
ATOM     12  C   UNL A   1      34.424  23.394  26.298  1.00  0.00     0.187 C 
ATOM     13  C   UNL A   1      33.962  22.548  27.515  1.00  0.00     0.076 C 
BRANCH  12  14
ATOM     14  C   UNL A   1      35.714  22.825  25.643  1.00  0.00     0.019 C 
ATOM     15  C   UNL A   1      35.837  21.312  25.721  1.00  0.00     0.018 C 
ATOM     16  C   UNL A   1      36.255  23.344  24.302  1.00  0.00     0.013 C 
ATOM     17  C   UNL A   1      36.964  23.714  25.552  1.00  0.00     0.013 C 
ENDBRANCH  12  14
ENDBRANCH  10  12
BRANCH  10  18
ATOM     18  C   UNL A   1      32.478  22.898  24.630  1.00  0.00     0.089 C 
ATOM     19  C   UNL A   1      31.071  23.474  24.394  1.00  0.00     0.078 C 
ATOM     20  C   UNL A   1      32.860  22.559  23.170  1.00  0.00     0.078 C 
ATOM     21  C   UNL A   1      32.352  21.578  25.405  1.00  0.00     0.078 C 
ENDBRANCH  10  18
ENDBRANCH   9  10
ENDBRANCH   8   9
ENDBRANCH   6   8
ENDBRANCH   5   6
ENDBRANCH   4   5
ENDBRANCH   3   4
ENDBRANCH   2   3
ENDBRANCH   1   2
BRANCH   1  22
ATOM     22  C   UNL A   1      34.218  33.207  28.164  1.00  0.00     0.188 C 
BRANCH  22  23
ATOM     23  O   UNL A   1      34.114  34.074  29.294  1.00  0.00    -0.376 OA
BRANCH  23  24
ATOM     24  C   UNL A   1      33.769  35.423  28.959  1.00  0.00     0.202 C 
BRANCH  24  25
ATOM     25  C   UNL A   1      32.595  36.014  29.757  1.00  0.00     0.261 C 
BRANCH  25  26
ATOM     26  O   UNL A   1      33.064  36.594  30.985  1.00  0.00    -0.460 OA
BRANCH  26  27
ATOM     27  C   UNL A   1      32.742  35.919  32.125  1.00  0.00     0.338 C 
ATOM     28  O   UNL A   1      31.659  35.856  32.659  1.00  0.00    -0.246 OA
BRANCH  27  29
ATOM     29  C   UNL A   1      33.900  35.056  32.490  1.00  0.00     0.060 A 
ATOM     30  C   UNL A   1      35.188  35.601  32.382  1.00  0.00     0.016 A 
ATOM     31  C   UNL A   1      33.724  33.789  33.058  1.00  0.00     0.016 A 
ATOM     32  C   UNL A   1      36.299  34.882  32.830  1.00  0.00     0.010 A 
ATOM     33  C   UNL A   1      34.833  33.071  33.505  1.00  0.00     0.010 A 
ATOM     34  C   UNL A   1      36.128  33.604  33.380  1.00  0.00    -0.014 A 
BRANCH  34  35
ATOM     35  C   UNL A   1      37.289  32.738  33.692  1.00  0.00     0.031 A 
ATOM     36  C   UNL A   1      38.060  33.018  34.951  1.00  0.00     0.074 A 
ATOM     37  C   UNL A   1      37.692  31.771  32.849  1.00  0.00     0.049 A 
ATOM     38  N   UNL A   1      39.196  32.519  35.360  1.00  0.00    -0.248 NA
ATOM     39  C   UNL A   1      37.472  34.011  35.866  1.00  0.00     0.031 C 
ATOM     40  C   UNL A   1      37.016  31.383  31.614  1.00  0.00     0.029 A 
ATOM     41  N   UNL A   1      38.798  30.957  32.898  1.00  0.00    -0.354 N 
ATOM     42  C   UNL A   1      39.468  33.146  36.568  1.00  0.00     0.074 A 
ATOM     43  C   UNL A   1      38.389  34.077  36.818  1.00  0.00     0.031 C 
ATOM     44  C   UNL A   1      37.739  30.428  31.003  1.00  0.00     0.029 A 
ATOM     45  C   UNL A   1      38.946  30.164  31.784  1.00  0.00     0.049 A 
ATOM     46  H   UNL A   1      39.425  30.942  33.656  1.00  0.00     0.167 HD
ATOM     47  C   UNL A   1      40.522  32.959  37.395  1.00  0.00     0.037 A 
ATOM     48  C   UNL A   1      39.959  29.351  31.427  1.00  0.00     0.037 A 
ATOM     49  C   UNL A   1      41.588  32.028  37.149  1.00  0.00     0.049 A 
ATOM     50  C   UNL A   1      41.159  29.215  32.335  1.00  0.00     0.074 A 
ATOM     51  C   UNL A   1      42.673  31.730  37.953  1.00  0.00     0.029 A 
ATOM     52  N   UNL A   1      41.707  31.251  36.008  1.00  0.00    -0.354 N 
ATOM     53  N   UNL A   1      41.386  29.774  33.498  1.00  0.00    -0.248 NA
ATOM     54  C   UNL A   1      42.247  28.340  31.873  1.00  0.00     0.031 C 
ATOM     55  C   UNL A   1      43.480  30.811  37.274  1.00  0.00     0.029 A 
ATOM     56  C   UNL A   1      42.870  30.501  36.071  1.00  0.00     0.049 A 
ATOM     57  H   UNL A   1      41.062  31.234  35.265  1.00  0.00     0.167 HD
ATOM     58  C   UNL A   1      42.626  29.303  33.915  1.00  0.00     0.074 A 
ATOM     59  C   UNL A   1      43.096  28.397  32.890  1.00  0.00     0.031 C 
ATOM     60  C   UNL A   1      43.318  29.598  35.043  1.00  0.00     0.037 A 
BRANCH  47  61
ATOM     61  C   UNL A   1      40.589  33.795  38.636  1.00  0.00     0.064 A 
ATOM     62  C   UNL A   1      41.302  35.002  38.671  1.00  0.00     0.173 A 
ATOM     63  C   UNL A   1      39.883  33.410  39.785  1.00  0.00     0.173 A 
ATOM     64  F   UNL A   1      42.006  35.403  37.602  1.00  0.00    -0.203 F 
ATOM     65  C   UNL A   1      41.313  35.790  39.819  1.00  0.00     0.198 A 
ATOM     66  C   UNL A   1      39.876  34.212  40.922  1.00  0.00     0.198 A 
ATOM     67  F   UNL A   1      39.187  32.263  39.799  1.00  0.00    -0.203 F 
ATOM     68  F   UNL A   1      42.025  36.925  39.843  1.00  0.00    -0.200 F 
ATOM     69  C   UNL A   1      40.593  35.400  40.939  1.00  0.00     0.200 A 
ATOM     70  F   UNL A   1      39.172  33.839  42.000  1.00  0.00    -0.200 F 
ATOM     71  F   UNL A   1      40.593  36.167  42.038  1.00  0.00    -0.200 F 
ENDBRANCH  47  61
BRANCH  48  72
ATOM     72  C   UNL A   1      39.924  28.627  30.126  1.00  0.00     0.064 A 
ATOM     73  C   UNL A   1      39.373  27.341  30.029  1.00  0.00     0.173 A 
ATOM     74  C   UNL A   1      40.501  29.176  28.972  1.00  0.00     0.173 A 
ATOM     75  F   UNL A   1      38.842  26.757  31.114  1.00  0.00    -0.203 F 
ATOM     76  C   UNL A   1      39.426  26.622  28.837  1.00  0.00     0.198 A 
ATOM     77  C   UNL A   1      40.526  28.469  27.772  1.00  0.00     0.198 A 
ATOM     78  F   UNL A   1      41.053  30.397  29.013  1.00  0.00    -0.203 F 
ATOM     79  F   UNL A   1      38.952  25.370  28.790  1.00  0.00    -0.200 F 
ATOM     80  C   UNL A   1      40.000  27.188  27.708  1.00  0.00     0.200 A 
ATOM     81  F   UNL A   1      41.079  29.020  26.682  1.00  0.00    -0.200 F 
ATOM     82  F   UNL A   1      40.062  26.492  26.564  1.00  0.00    -0.200 F 
ENDBRANCH  48  72
BRANCH  60  83
ATOM     83  C   UNL A   1      44.643  28.921  35.242  1.00  0.00     0.064 A 
ATOM     84  C   UNL A   1      44.741  27.669  35.865  1.00  0.00     0.173 A 
ATOM     85  C   UNL A   1      45.821  29.504  34.748  1.00  0.00     0.173 A 
ATOM     86  F   UNL A   1      43.645  27.077  36.365  1.00  0.00    -0.203 F 
ATOM     87  C   UNL A   1      45.972  27.034  36.006  1.00  0.00     0.198 A 
ATOM     88  C   UNL A   1      47.046  28.852  34.864  1.00  0.00     0.198 A 
ATOM     89  F   UNL A   1      45.781  30.697  34.135  1.00  0.00    -0.203 F 
ATOM     90  F   UNL A   1      46.047  25.856  36.641  1.00  0.00    -0.200 F 
ATOM     91  C   UNL A   1      47.121  27.621  35.498  1.00  0.00     0.200 A 
ATOM     92  F   UNL A   1      48.152  29.415  34.359  1.00  0.00    -0.200 F 
ATOM     93  F   UNL A   1      48.303  27.002  35.623  1.00  0.00    -0.200 F 
ENDBRANCH  60  83
ENDBRANCH  34  35
ENDBRANCH  27  29
ENDBRANCH  26  27
ENDBRANCH  25  26
ENDBRANCH  24  25
ENDBRANCH  23  24
ENDBRANCH  22  23
ENDBRANCH   1  22
TORSDOF 22
ENDMDL
