MODEL 1
REMARK VINA RESULT:     -10.5      0.000      0.000
REMARK SMILES NS(=O)(=O)c1ccc(-n2nc(C(F)(F)F)cc2-c2ccc(CC(=O)OCCOCCOCCOC(=O)c3ccc(-c4c5nc(c(-c6c(F)c(F)c(F)c(F)c6F)c6ccc([nH]6)c(-c6c(F)c(F)c(F)c(F)c6F)c6nc(c(-c7c(F)c(F)c(F)c(F)c7F)c7ccc4[nH]7)C=C6)C=C5)cc3)cc2)cc1
REMARK SMILES IDX 28 1 27 2 26 3 25 4 23 5 24 6 22 7 21 8 18 9 19 10 101 11
REMARK SMILES IDX 20 12 100 13 17 14 9 15 10 16 11 17 16 18 8 19 5 20 6 21
REMARK SMILES IDX 103 22 7 23 102 24 2 25 3 26 4 27 1 28 12 31 13 32 14 33
REMARK SMILES IDX 15 34 29 35 30 36 31 37 32 38 33 39 34 40 35 41 36 42 37 43
REMARK SMILES IDX 38 44 99 45 39 46 98 47 40 48 41 49 42 50 92 51 43 52 97 53
REMARK SMILES IDX 91 54 93 55 44 56 96 57 90 58 89 59 45 61 77 62 57 63 76 64
REMARK SMILES IDX 58 65 61 66 75 67 94 68 59 69 60 70 74 72 95 73 62 74 46 75
REMARK SMILES IDX 47 76 55 77 48 78 49 79 53 80 56 81 50 82 51 83 54 84 52 85
REMARK SMILES IDX 78 86 79 87 87 88 80 89 81 90 85 91 88 92 82 93 83 94 86 95
REMARK SMILES IDX 84 96 63 97 64 98 72 99 65 100 66 101 70 102 73 103 67 104
REMARK SMILES IDX 68 105 71 106 69 107
REMARK H PARENT 1 29 1 30 93 60 61 71
REMARK Flexibility Score: inf
ROOT
ATOM      1  O   UNL A   1      41.799  28.802  35.763  1.00  0.00    -0.376 OA
ENDROOT
BRANCH   1   2
ATOM      2  C   UNL A   1      41.176  30.072  35.768  1.00  0.00     0.202 C 
BRANCH   2   3
ATOM      3  C   UNL A   1      40.010  30.329  34.808  1.00  0.00     0.261 C 
BRANCH   3   4
ATOM      4  O   UNL A   1      40.300  30.141  33.407  1.00  0.00    -0.463 OA
BRANCH   4   5
ATOM      5  C   UNL A   1      39.823  29.005  32.841  1.00  0.00     0.310 C 
ATOM      6  O   UNL A   1      39.842  27.911  33.402  1.00  0.00    -0.252 OA
BRANCH   5   7
ATOM      7  C   UNL A   1      39.286  29.127  31.426  1.00  0.00     0.158 C 
BRANCH   7   8
ATOM      8  C   UNL A   1      38.236  30.151  31.034  1.00  0.00    -0.037 A 
ATOM      9  C   UNL A   1      36.207  31.964  30.204  1.00  0.00     0.000 A 
ATOM     10  C   UNL A   1      35.953  31.018  31.204  1.00  0.00     0.010 A 
ATOM     11  C   UNL A   1      37.474  31.986  29.613  1.00  0.00     0.010 A 
ATOM     12  C   UNL A   1      36.946  30.107  31.595  1.00  0.00     0.005 A 
ATOM     13  C   UNL A   1      38.485  31.107  30.041  1.00  0.00     0.005 A 
BRANCH   9  14
ATOM     14  C   UNL A   1      35.121  32.821  29.719  1.00  0.00     0.075 A 
ATOM     15  N   UNL A   1      34.333  32.609  28.590  1.00  0.00    -0.233 N 
ATOM     16  N   UNL A   1      33.674  33.745  28.224  1.00  0.00    -0.163 NA
ATOM     17  C   UNL A   1      33.830  34.595  29.253  1.00  0.00     0.167 A 
ATOM     18  C   UNL A   1      34.762  34.075  30.184  1.00  0.00     0.064 A 
BRANCH  15  19
ATOM     19  C   UNL A   1      34.022  31.410  27.891  1.00  0.00     0.065 A 
ATOM     20  C   UNL A   1      33.246  28.976  26.752  1.00  0.00     0.082 A 
ATOM     21  C   UNL A   1      34.521  29.109  27.314  1.00  0.00     0.024 A 
ATOM     22  C   UNL A   1      32.365  30.061  26.734  1.00  0.00     0.024 A 
ATOM     23  C   UNL A   1      34.919  30.335  27.863  1.00  0.00     0.030 A 
ATOM     24  C   UNL A   1      32.741  31.265  27.331  1.00  0.00     0.030 A 
BRANCH  20  25
ATOM     25  S   UNL A   1      32.743  27.481  25.952  1.00  0.00     0.238 S 
ATOM     26  O   UNL A   1      33.776  26.488  26.135  1.00  0.00    -0.207 OA
ATOM     27  O   UNL A   1      32.184  27.806  24.661  1.00  0.00    -0.207 OA
BRANCH  25  28
ATOM     28  N   UNL A   1      31.453  26.904  26.871  1.00  0.00    -0.225 NA
ATOM     29  H   UNL A   1      31.353  25.900  26.723  1.00  0.00     0.137 HD
ATOM     30  H   UNL A   1      30.595  27.377  26.587  1.00  0.00     0.137 HD
ENDBRANCH  25  28
ENDBRANCH  20  25
ENDBRANCH  15  19
BRANCH  17  31
ATOM     31  C   UNL A   1      33.098  35.908  29.337  1.00  0.00     0.435 C 
ATOM     32  F   UNL A   1      32.097  36.025  28.426  1.00  0.00    -0.164 F 
ATOM     33  F   UNL A   1      32.542  36.100  30.565  1.00  0.00    -0.164 F 
ATOM     34  F   UNL A   1      33.932  36.965  29.131  1.00  0.00    -0.164 F 
ENDBRANCH  17  31
ENDBRANCH   9  14
ENDBRANCH   7   8
ENDBRANCH   5   7
ENDBRANCH   4   5
ENDBRANCH   3   4
ENDBRANCH   2   3
ENDBRANCH   1   2
BRANCH   1  35
ATOM     35  C   UNL A   1      43.210  28.699  35.691  1.00  0.00     0.188 C 
BRANCH  35  36
ATOM     36  C   UNL A   1      44.098  28.791  36.939  1.00  0.00     0.188 C 
BRANCH  36  37
ATOM     37  O   UNL A   1      45.029  27.784  37.285  1.00  0.00    -0.376 OA
BRANCH  37  38
ATOM     38  C   UNL A   1      44.918  27.122  38.530  1.00  0.00     0.202 C 
BRANCH  38  39
ATOM     39  C   UNL A   1      45.463  25.718  38.587  1.00  0.00     0.261 C 
BRANCH  39  40
ATOM     40  O   UNL A   1      44.714  24.879  37.734  1.00  0.00    -0.460 OA
BRANCH  40  41
ATOM     41  C   UNL A   1      45.444  24.012  37.004  1.00  0.00     0.338 C 
ATOM     42  O   UNL A   1      46.453  23.411  37.322  1.00  0.00    -0.246 OA
BRANCH  41  43
ATOM     43  C   UNL A   1      44.871  24.004  35.661  1.00  0.00     0.060 A 
ATOM     44  C   UNL A   1      45.375  23.038  34.795  1.00  0.00     0.016 A 
ATOM     45  C   UNL A   1      44.122  25.108  35.220  1.00  0.00     0.016 A 
ATOM     46  C   UNL A   1      45.337  23.310  33.452  1.00  0.00     0.010 A 
ATOM     47  C   UNL A   1      44.099  25.386  33.880  1.00  0.00     0.010 A 
ATOM     48  C   UNL A   1      44.789  24.528  33.033  1.00  0.00    -0.014 A 
BRANCH  48  49
ATOM     49  C   UNL A   1      44.998  24.894  31.659  1.00  0.00     0.031 A 
ATOM     50  C   UNL A   1      46.032  25.918  31.442  1.00  0.00     0.074 A 
ATOM     51  C   UNL A   1      44.330  24.298  30.658  1.00  0.00     0.049 A 
ATOM     52  N   UNL A   1      45.886  27.089  30.921  1.00  0.00    -0.248 NA
ATOM     53  C   UNL A   1      47.379  25.635  31.955  1.00  0.00     0.031 C 
ATOM     54  C   UNL A   1      43.503  23.092  30.694  1.00  0.00     0.029 A 
ATOM     55  N   UNL A   1      44.356  24.627  29.343  1.00  0.00    -0.354 N 
ATOM     56  C   UNL A   1      47.155  27.647  30.900  1.00  0.00     0.074 A 
ATOM     57  C   UNL A   1      48.016  26.762  31.644  1.00  0.00     0.031 C 
ATOM     58  C   UNL A   1      43.287  22.675  29.425  1.00  0.00     0.029 A 
ATOM     59  C   UNL A   1      43.859  23.647  28.506  1.00  0.00     0.049 A 
ATOM     60  H   UNL A   1      44.699  25.490  29.013  1.00  0.00     0.167 HD
ATOM     61  C   UNL A   1      47.451  28.707  30.107  1.00  0.00     0.037 A 
ATOM     62  C   UNL A   1      44.010  23.616  27.161  1.00  0.00     0.037 A 
ATOM     63  C   UNL A   1      46.276  29.434  29.707  1.00  0.00     0.049 A 
ATOM     64  C   UNL A   1      44.339  24.996  26.713  1.00  0.00     0.074 A 
ATOM     65  C   UNL A   1      45.272  30.085  30.401  1.00  0.00     0.029 A 
ATOM     66  N   UNL A   1      45.794  29.279  28.432  1.00  0.00    -0.354 N 
ATOM     67  N   UNL A   1      43.494  25.990  26.714  1.00  0.00    -0.248 NA
ATOM     68  C   UNL A   1      45.745  25.378  26.647  1.00  0.00     0.031 C 
ATOM     69  C   UNL A   1      44.081  29.841  29.656  1.00  0.00     0.029 A 
ATOM     70  C   UNL A   1      44.441  29.078  28.545  1.00  0.00     0.049 A 
ATOM     71  H   UNL A   1      46.317  29.306  27.598  1.00  0.00     0.167 HD
ATOM     72  C   UNL A   1      44.250  27.100  27.064  1.00  0.00     0.074 A 
ATOM     73  C   UNL A   1      45.638  26.683  26.908  1.00  0.00     0.031 C 
ATOM     74  C   UNL A   1      43.693  28.162  27.718  1.00  0.00     0.037 A 
BRANCH  61  75
ATOM     75  C   UNL A   1      48.793  28.887  29.467  1.00  0.00     0.064 A 
ATOM     76  C   UNL A   1      49.481  30.102  29.615  1.00  0.00     0.173 A 
ATOM     77  C   UNL A   1      49.305  27.998  28.496  1.00  0.00     0.173 A 
ATOM     78  F   UNL A   1      49.046  31.030  30.479  1.00  0.00    -0.203 F 
ATOM     79  C   UNL A   1      50.585  30.418  28.819  1.00  0.00     0.198 A 
ATOM     80  C   UNL A   1      50.439  28.292  27.745  1.00  0.00     0.198 A 
ATOM     81  F   UNL A   1      48.666  26.867  28.167  1.00  0.00    -0.203 F 
ATOM     82  F   UNL A   1      51.148  31.629  28.916  1.00  0.00    -0.200 F 
ATOM     83  C   UNL A   1      51.064  29.512  27.888  1.00  0.00     0.200 A 
ATOM     84  F   UNL A   1      50.872  27.410  26.833  1.00  0.00    -0.200 F 
ATOM     85  F   UNL A   1      52.093  29.834  27.094  1.00  0.00    -0.200 F 
ENDBRANCH  61  75
BRANCH  62  86
ATOM     86  C   UNL A   1      44.158  22.431  26.289  1.00  0.00     0.064 A 
ATOM     87  C   UNL A   1      45.422  22.044  25.817  1.00  0.00     0.173 A 
ATOM     88  C   UNL A   1      43.111  21.506  26.101  1.00  0.00     0.173 A 
ATOM     89  F   UNL A   1      46.484  22.843  25.997  1.00  0.00    -0.203 F 
ATOM     90  C   UNL A   1      45.630  20.800  25.215  1.00  0.00     0.198 A 
ATOM     91  C   UNL A   1      43.316  20.272  25.484  1.00  0.00     0.198 A 
ATOM     92  F   UNL A   1      41.887  21.733  26.597  1.00  0.00    -0.203 F 
ATOM     93  F   UNL A   1      46.865  20.439  24.840  1.00  0.00    -0.200 F 
ATOM     94  C   UNL A   1      44.579  19.913  25.055  1.00  0.00     0.200 A 
ATOM     95  F   UNL A   1      42.295  19.411  25.366  1.00  0.00    -0.200 F 
ATOM     96  F   UNL A   1      44.788  18.699  24.526  1.00  0.00    -0.200 F 
ENDBRANCH  62  86
BRANCH  74  97
ATOM     97  C   UNL A   1      42.195  28.213  27.820  1.00  0.00     0.064 A 
ATOM     98  C   UNL A   1      41.381  28.934  26.929  1.00  0.00     0.173 A 
ATOM     99  C   UNL A   1      41.554  27.400  28.764  1.00  0.00     0.173 A 
ATOM    100  F   UNL A   1      41.917  29.639  25.924  1.00  0.00    -0.203 F 
ATOM    101  C   UNL A   1      39.992  28.893  27.023  1.00  0.00     0.198 A 
ATOM    102  C   UNL A   1      40.164  27.330  28.831  1.00  0.00     0.198 A 
ATOM    103  F   UNL A   1      42.277  26.636  29.598  1.00  0.00    -0.203 F 
ATOM    104  F   UNL A   1      39.239  29.608  26.174  1.00  0.00    -0.200 F 
ATOM    105  C   UNL A   1      39.384  28.087  27.971  1.00  0.00     0.200 A 
ATOM    106  F   UNL A   1      39.580  26.508  29.714  1.00  0.00    -0.200 F 
ATOM    107  F   UNL A   1      38.048  28.018  28.039  1.00  0.00    -0.200 F 
ENDBRANCH  74  97
ENDBRANCH  48  49
ENDBRANCH  41  43
ENDBRANCH  40  41
ENDBRANCH  39  40
ENDBRANCH  38  39
ENDBRANCH  37  38
ENDBRANCH  36  37
ENDBRANCH  35  36
ENDBRANCH   1  35
TORSDOF 23
ENDMDL
MODEL 2
REMARK VINA RESULT:     -10.4      4.680     12.364
REMARK SMILES NS(=O)(=O)c1ccc(-n2nc(C(F)(F)F)cc2-c2ccc(CC(=O)OCCOCCOCCOC(=O)c3ccc(-c4c5nc(c(-c6c(F)c(F)c(F)c(F)c6F)c6ccc([nH]6)c(-c6c(F)c(F)c(F)c(F)c6F)c6nc(c(-c7c(F)c(F)c(F)c(F)c7F)c7ccc4[nH]7)C=C6)C=C5)cc3)cc2)cc1
REMARK SMILES IDX 28 1 27 2 26 3 25 4 23 5 24 6 22 7 21 8 18 9 19 10 101 11
REMARK SMILES IDX 20 12 100 13 17 14 9 15 10 16 11 17 16 18 8 19 5 20 6 21
REMARK SMILES IDX 103 22 7 23 102 24 2 25 3 26 4 27 1 28 12 31 13 32 14 33
REMARK SMILES IDX 15 34 29 35 30 36 31 37 32 38 33 39 34 40 35 41 36 42 37 43
REMARK SMILES IDX 38 44 99 45 39 46 98 47 40 48 41 49 42 50 92 51 43 52 97 53
REMARK SMILES IDX 91 54 93 55 44 56 96 57 90 58 89 59 45 61 77 62 57 63 76 64
REMARK SMILES IDX 58 65 61 66 75 67 94 68 59 69 60 70 74 72 95 73 62 74 46 75
REMARK SMILES IDX 47 76 55 77 48 78 49 79 53 80 56 81 50 82 51 83 54 84 52 85
REMARK SMILES IDX 78 86 79 87 87 88 80 89 81 90 85 91 88 92 82 93 83 94 86 95
REMARK SMILES IDX 84 96 63 97 64 98 72 99 65 100 66 101 70 102 73 103 67 104
REMARK SMILES IDX 68 105 71 106 69 107
REMARK H PARENT 1 29 1 30 93 60 61 71
REMARK Flexibility Score: inf
ROOT
ATOM      1  O   UNL A   1      33.005  27.541  23.169  1.00  0.00    -0.376 OA
ENDROOT
BRANCH   1   2
ATOM      2  C   UNL A   1      32.580  26.439  23.948  1.00  0.00     0.202 C 
BRANCH   2   3
ATOM      3  C   UNL A   1      33.587  25.333  24.278  1.00  0.00     0.261 C 
BRANCH   3   4
ATOM      4  O   UNL A   1      33.366  24.637  25.522  1.00  0.00    -0.463 OA
BRANCH   4   5
ATOM      5  C   UNL A   1      34.426  23.963  26.033  1.00  0.00     0.310 C 
ATOM      6  O   UNL A   1      34.350  23.229  27.017  1.00  0.00    -0.252 OA
BRANCH   5   7
ATOM      7  C   UNL A   1      35.764  24.186  25.350  1.00  0.00     0.158 C 
BRANCH   7   8
ATOM      8  C   UNL A   1      36.996  23.362  25.674  1.00  0.00    -0.037 A 
ATOM      9  C   UNL A   1      39.378  21.883  26.162  1.00  0.00     0.000 A 
ATOM     10  C   UNL A   1      39.237  23.190  26.645  1.00  0.00     0.010 A 
ATOM     11  C   UNL A   1      38.328  21.330  25.422  1.00  0.00     0.010 A 
ATOM     12  C   UNL A   1      38.073  23.927  26.382  1.00  0.00     0.005 A 
ATOM     13  C   UNL A   1      37.141  22.051  25.202  1.00  0.00     0.005 A 
BRANCH   9  14
ATOM     14  C   UNL A   1      40.650  21.176  26.335  1.00  0.00     0.075 A 
ATOM     15  N   UNL A   1      41.928  21.707  26.174  1.00  0.00    -0.233 N 
ATOM     16  N   UNL A   1      42.863  20.722  26.057  1.00  0.00    -0.163 NA
ATOM     17  C   UNL A   1      42.231  19.587  26.401  1.00  0.00     0.167 A 
ATOM     18  C   UNL A   1      40.841  19.820  26.537  1.00  0.00     0.064 A 
BRANCH  15  19
ATOM     19  C   UNL A   1      42.388  23.050  26.257  1.00  0.00     0.065 A 
ATOM     20  C   UNL A   1      43.569  25.581  26.417  1.00  0.00     0.082 A 
ATOM     21  C   UNL A   1      43.018  24.993  27.562  1.00  0.00     0.024 A 
ATOM     22  C   UNL A   1      43.510  24.921  25.186  1.00  0.00     0.024 A 
ATOM     23  C   UNL A   1      42.406  23.736  27.477  1.00  0.00     0.030 A 
ATOM     24  C   UNL A   1      42.950  23.645  25.113  1.00  0.00     0.030 A 
BRANCH  20  25
ATOM     25  S   UNL A   1      44.254  27.211  26.456  1.00  0.00     0.238 S 
ATOM     26  O   UNL A   1      45.694  27.105  26.508  1.00  0.00    -0.207 OA
ATOM     27  O   UNL A   1      43.490  28.018  27.377  1.00  0.00    -0.207 OA
BRANCH  25  28
ATOM     28  N   UNL A   1      43.946  27.853  24.929  1.00  0.00    -0.225 NA
ATOM     29  H   UNL A   1      44.685  27.571  24.286  1.00  0.00     0.137 HD
ATOM     30  H   UNL A   1      43.915  28.870  24.987  1.00  0.00     0.137 HD
ENDBRANCH  25  28
ENDBRANCH  20  25
ENDBRANCH  15  19
BRANCH  17  31
ATOM     31  C   UNL A   1      42.956  18.280  26.586  1.00  0.00     0.435 C 
ATOM     32  F   UNL A   1      43.042  17.892  27.885  1.00  0.00    -0.164 F 
ATOM     33  F   UNL A   1      42.352  17.267  25.907  1.00  0.00    -0.164 F 
ATOM     34  F   UNL A   1      44.234  18.341  26.117  1.00  0.00    -0.164 F 
ENDBRANCH  17  31
ENDBRANCH   9  14
ENDBRANCH   7   8
ENDBRANCH   5   7
ENDBRANCH   4   5
ENDBRANCH   3   4
ENDBRANCH   2   3
ENDBRANCH   1   2
BRANCH   1  35
ATOM     35  C   UNL A   1      32.117  28.615  22.908  1.00  0.00     0.188 C 
BRANCH  35  36
ATOM     36  C   UNL A   1      30.949  28.951  23.844  1.00  0.00     0.188 C 
BRANCH  36  37
ATOM     37  O   UNL A   1      31.089  29.817  24.953  1.00  0.00    -0.376 OA
BRANCH  37  38
ATOM     38  C   UNL A   1      32.028  29.513  25.967  1.00  0.00     0.202 C 
BRANCH  38  39
ATOM     39  C   UNL A   1      32.427  30.655  26.867  1.00  0.00     0.261 C 
BRANCH  39  40
ATOM     40  O   UNL A   1      33.801  30.566  27.175  1.00  0.00    -0.460 OA
BRANCH  40  41
ATOM     41  C   UNL A   1      34.271  31.545  27.973  1.00  0.00     0.338 C 
ATOM     42  O   UNL A   1      33.880  32.693  28.080  1.00  0.00    -0.246 OA
BRANCH  41  43
ATOM     43  C   UNL A   1      35.462  31.018  28.632  1.00  0.00     0.060 A 
ATOM     44  C   UNL A   1      35.641  31.403  29.958  1.00  0.00     0.016 A 
ATOM     45  C   UNL A   1      36.488  30.448  27.859  1.00  0.00     0.016 A 
ATOM     46  C   UNL A   1      36.923  31.445  30.438  1.00  0.00     0.010 A 
ATOM     47  C   UNL A   1      37.770  30.505  28.334  1.00  0.00     0.010 A 
ATOM     48  C   UNL A   1      37.969  31.090  29.578  1.00  0.00    -0.014 A 
BRANCH  48  49
ATOM     49  C   UNL A   1      39.304  31.391  30.021  1.00  0.00     0.031 A 
ATOM     50  C   UNL A   1      40.114  30.217  30.381  1.00  0.00     0.074 A 
ATOM     51  C   UNL A   1      39.775  32.647  30.046  1.00  0.00     0.049 A 
ATOM     52  N   UNL A   1      40.631  29.938  31.530  1.00  0.00    -0.248 NA
ATOM     53  C   UNL A   1      40.293  29.181  29.356  1.00  0.00     0.031 C 
ATOM     54  C   UNL A   1      39.200  33.858  29.459  1.00  0.00     0.029 A 
ATOM     55  N   UNL A   1      40.965  33.069  30.543  1.00  0.00    -0.354 N 
ATOM     56  C   UNL A   1      41.332  28.756  31.344  1.00  0.00     0.074 A 
ATOM     57  C   UNL A   1      41.004  28.275  30.025  1.00  0.00     0.031 C 
ATOM     58  C   UNL A   1      40.146  34.827  29.448  1.00  0.00     0.029 A 
ATOM     59  C   UNL A   1      41.333  34.334  30.129  1.00  0.00     0.049 A 
ATOM     60  H   UNL A   1      41.517  32.521  31.146  1.00  0.00     0.167 HD
ATOM     61  C   UNL A   1      42.287  28.352  32.220  1.00  0.00     0.037 A 
ATOM     62  C   UNL A   1      42.567  34.874  30.265  1.00  0.00     0.037 A 
ATOM     63  C   UNL A   1      42.145  28.977  33.507  1.00  0.00     0.049 A 
ATOM     64  C   UNL A   1      43.276  34.114  31.330  1.00  0.00     0.074 A 
ATOM     65  C   UNL A   1      41.131  29.010  34.448  1.00  0.00     0.029 A 
ATOM     66  N   UNL A   1      42.996  29.995  33.854  1.00  0.00    -0.354 N 
ATOM     67  N   UNL A   1      42.980  34.177  32.599  1.00  0.00    -0.248 NA
ATOM     68  C   UNL A   1      44.062  32.952  30.934  1.00  0.00     0.031 C 
ATOM     69  C   UNL A   1      41.168  30.327  34.992  1.00  0.00     0.029 A 
ATOM     70  C   UNL A   1      42.215  31.002  34.366  1.00  0.00     0.049 A 
ATOM     71  H   UNL A   1      43.976  30.003  33.755  1.00  0.00     0.167 HD
ATOM     72  C   UNL A   1      43.173  32.887  33.074  1.00  0.00     0.074 A 
ATOM     73  C   UNL A   1      43.937  32.207  32.035  1.00  0.00     0.031 C 
ATOM     74  C   UNL A   1      42.460  32.405  34.134  1.00  0.00     0.037 A 
BRANCH  61  75
ATOM     75  C   UNL A   1      43.515  27.611  31.790  1.00  0.00     0.064 A 
ATOM     76  C   UNL A   1      43.933  26.476  32.503  1.00  0.00     0.173 A 
ATOM     77  C   UNL A   1      44.440  28.134  30.859  1.00  0.00     0.173 A 
ATOM     78  F   UNL A   1      43.144  25.933  33.441  1.00  0.00    -0.203 F 
ATOM     79  C   UNL A   1      45.204  25.926  32.321  1.00  0.00     0.198 A 
ATOM     80  C   UNL A   1      45.683  27.549  30.639  1.00  0.00     0.198 A 
ATOM     81  F   UNL A   1      44.215  29.285  30.211  1.00  0.00    -0.203 F 
ATOM     82  F   UNL A   1      45.604  24.910  33.097  1.00  0.00    -0.200 F 
ATOM     83  C   UNL A   1      46.076  26.461  31.388  1.00  0.00     0.200 A 
ATOM     84  F   UNL A   1      46.520  28.096  29.747  1.00  0.00    -0.200 F 
ATOM     85  F   UNL A   1      47.310  25.962  31.247  1.00  0.00    -0.200 F 
ENDBRANCH  61  75
BRANCH  62  86
ATOM     86  C   UNL A   1      43.256  35.812  29.352  1.00  0.00     0.064 A 
ATOM     87  C   UNL A   1      43.774  37.025  29.831  1.00  0.00     0.173 A 
ATOM     88  C   UNL A   1      43.645  35.436  28.050  1.00  0.00     0.173 A 
ATOM     89  F   UNL A   1      43.493  37.435  31.077  1.00  0.00    -0.203 F 
ATOM     90  C   UNL A   1      44.646  37.802  29.063  1.00  0.00     0.198 A 
ATOM     91  C   UNL A   1      44.500  36.222  27.279  1.00  0.00     0.198 A 
ATOM     92  F   UNL A   1      43.284  34.254  27.533  1.00  0.00    -0.203 F 
ATOM     93  F   UNL A   1      45.174  38.920  29.582  1.00  0.00    -0.200 F 
ATOM     94  C   UNL A   1      45.012  37.397  27.791  1.00  0.00     0.200 A 
ATOM     95  F   UNL A   1      44.872  35.800  26.061  1.00  0.00    -0.200 F 
ATOM     96  F   UNL A   1      45.890  38.115  27.076  1.00  0.00    -0.200 F 
ENDBRANCH  62  86
BRANCH  74  97
ATOM     97  C   UNL A   1      41.649  33.384  34.934  1.00  0.00     0.064 A 
ATOM     98  C   UNL A   1      40.316  33.714  34.635  1.00  0.00     0.173 A 
ATOM     99  C   UNL A   1      42.191  33.903  36.117  1.00  0.00     0.173 A 
ATOM    100  F   UNL A   1      39.689  33.163  33.587  1.00  0.00    -0.203 F 
ATOM    101  C   UNL A   1      39.583  34.575  35.449  1.00  0.00     0.198 A 
ATOM    102  C   UNL A   1      41.444  34.734  36.950  1.00  0.00     0.198 A 
ATOM    103  F   UNL A   1      43.437  33.570  36.490  1.00  0.00    -0.203 F 
ATOM    104  F   UNL A   1      38.320  34.891  35.128  1.00  0.00    -0.200 F 
ATOM    105  C   UNL A   1      40.147  35.081  36.609  1.00  0.00     0.200 A 
ATOM    106  F   UNL A   1      41.974  35.177  38.099  1.00  0.00    -0.200 F 
ATOM    107  F   UNL A   1      39.431  35.880  37.412  1.00  0.00    -0.200 F 
ENDBRANCH  74  97
ENDBRANCH  48  49
ENDBRANCH  41  43
ENDBRANCH  40  41
ENDBRANCH  39  40
ENDBRANCH  38  39
ENDBRANCH  37  38
ENDBRANCH  36  37
ENDBRANCH  35  36
ENDBRANCH   1  35
TORSDOF 23
ENDMDL
MODEL 3
REMARK VINA RESULT:     -10.3      5.042     12.911
REMARK SMILES NS(=O)(=O)c1ccc(-n2nc(C(F)(F)F)cc2-c2ccc(CC(=O)OCCOCCOCCOC(=O)c3ccc(-c4c5nc(c(-c6c(F)c(F)c(F)c(F)c6F)c6ccc([nH]6)c(-c6c(F)c(F)c(F)c(F)c6F)c6nc(c(-c7c(F)c(F)c(F)c(F)c7F)c7ccc4[nH]7)C=C6)C=C5)cc3)cc2)cc1
REMARK SMILES IDX 28 1 27 2 26 3 25 4 23 5 24 6 22 7 21 8 18 9 19 10 101 11
REMARK SMILES IDX 20 12 100 13 17 14 9 15 10 16 11 17 16 18 8 19 5 20 6 21
REMARK SMILES IDX 103 22 7 23 102 24 2 25 3 26 4 27 1 28 12 31 13 32 14 33
REMARK SMILES IDX 15 34 29 35 30 36 31 37 32 38 33 39 34 40 35 41 36 42 37 43
REMARK SMILES IDX 38 44 99 45 39 46 98 47 40 48 41 49 42 50 92 51 43 52 97 53
REMARK SMILES IDX 91 54 93 55 44 56 96 57 90 58 89 59 45 61 77 62 57 63 76 64
REMARK SMILES IDX 58 65 61 66 75 67 94 68 59 69 60 70 74 72 95 73 62 74 46 75
REMARK SMILES IDX 47 76 55 77 48 78 49 79 53 80 56 81 50 82 51 83 54 84 52 85
REMARK SMILES IDX 78 86 79 87 87 88 80 89 81 90 85 91 88 92 82 93 83 94 86 95
REMARK SMILES IDX 84 96 63 97 64 98 72 99 65 100 66 101 70 102 73 103 67 104
REMARK SMILES IDX 68 105 71 106 69 107
REMARK H PARENT 1 29 1 30 93 60 61 71
REMARK Flexibility Score: inf
ROOT
ATOM      1  O   UNL A   1      32.654  26.289  24.620  1.00  0.00    -0.376 OA
ENDROOT
BRANCH   1   2
ATOM      2  C   UNL A   1      32.384  26.083  25.993  1.00  0.00     0.202 C 
BRANCH   2   3
ATOM      3  C   UNL A   1      32.142  24.656  26.495  1.00  0.00     0.261 C 
BRANCH   3   4
ATOM      4  O   UNL A   1      32.873  23.619  25.807  1.00  0.00    -0.463 OA
BRANCH   4   5
ATOM      5  C   UNL A   1      34.102  23.323  26.296  1.00  0.00     0.310 C 
ATOM      6  O   UNL A   1      34.283  22.749  27.369  1.00  0.00    -0.252 OA
BRANCH   5   7
ATOM      7  C   UNL A   1      35.290  23.778  25.466  1.00  0.00     0.158 C 
BRANCH   7   8
ATOM      8  C   UNL A   1      36.672  23.168  25.612  1.00  0.00    -0.037 A 
ATOM      9  C   UNL A   1      39.211  21.947  26.009  1.00  0.00     0.000 A 
ATOM     10  C   UNL A   1      38.192  21.270  25.330  1.00  0.00     0.010 A 
ATOM     11  C   UNL A   1      38.946  23.229  26.501  1.00  0.00     0.010 A 
ATOM     12  C   UNL A   1      36.932  21.862  25.156  1.00  0.00     0.005 A 
ATOM     13  C   UNL A   1      37.700  23.843  26.283  1.00  0.00     0.005 A 
BRANCH   9  14
ATOM     14  C   UNL A   1      40.477  21.264  26.293  1.00  0.00     0.075 A 
ATOM     15  N   UNL A   1      41.721  21.861  26.487  1.00  0.00    -0.233 N 
ATOM     16  N   UNL A   1      42.730  20.952  26.374  1.00  0.00    -0.163 NA
ATOM     17  C   UNL A   1      42.129  19.750  26.371  1.00  0.00     0.167 A 
ATOM     18  C   UNL A   1      40.725  19.903  26.273  1.00  0.00     0.064 A 
BRANCH  15  19
ATOM     19  C   UNL A   1      42.060  23.177  26.907  1.00  0.00     0.065 A 
ATOM     20  C   UNL A   1      42.437  25.807  27.781  1.00  0.00     0.082 A 
ATOM     21  C   UNL A   1      42.464  25.515  26.412  1.00  0.00     0.024 A 
ATOM     22  C   UNL A   1      42.248  24.786  28.717  1.00  0.00     0.024 A 
ATOM     23  C   UNL A   1      42.299  24.194  25.975  1.00  0.00     0.030 A 
ATOM     24  C   UNL A   1      42.027  23.480  28.279  1.00  0.00     0.030 A 
BRANCH  20  25
ATOM     25  S   UNL A   1      42.748  27.441  28.382  1.00  0.00     0.238 S 
ATOM     26  O   UNL A   1      42.030  28.383  27.554  1.00  0.00    -0.207 OA
ATOM     27  O   UNL A   1      44.154  27.569  28.681  1.00  0.00    -0.207 OA
BRANCH  25  28
ATOM     28  N   UNL A   1      41.960  27.519  29.870  1.00  0.00    -0.225 NA
ATOM     29  H   UNL A   1      42.621  27.809  30.590  1.00  0.00     0.137 HD
ATOM     30  H   UNL A   1      41.584  26.601  30.103  1.00  0.00     0.137 HD
ENDBRANCH  25  28
ENDBRANCH  20  25
ENDBRANCH  15  19
BRANCH  17  31
ATOM     31  C   UNL A   1      42.900  18.458  26.447  1.00  0.00     0.435 C 
ATOM     32  F   UNL A   1      44.155  18.551  25.935  1.00  0.00    -0.164 F 
ATOM     33  F   UNL A   1      43.025  18.019  27.729  1.00  0.00    -0.164 F 
ATOM     34  F   UNL A   1      42.278  17.458  25.763  1.00  0.00    -0.164 F 
ENDBRANCH  17  31
ENDBRANCH   9  14
ENDBRANCH   7   8
ENDBRANCH   5   7
ENDBRANCH   4   5
ENDBRANCH   3   4
ENDBRANCH   2   3
ENDBRANCH   1   2
BRANCH   1  35
ATOM     35  C   UNL A   1      32.306  27.515  24.000  1.00  0.00     0.188 C 
BRANCH  35  36
ATOM     36  C   UNL A   1      33.207  28.754  24.085  1.00  0.00     0.188 C 
BRANCH  36  37
ATOM     37  O   UNL A   1      33.555  29.357  25.316  1.00  0.00    -0.376 OA
BRANCH  37  38
ATOM     38  C   UNL A   1      32.636  30.217  25.962  1.00  0.00     0.202 C 
BRANCH  38  39
ATOM     39  C   UNL A   1      32.922  30.527  27.410  1.00  0.00     0.261 C 
BRANCH  39  40
ATOM     40  O   UNL A   1      34.135  31.240  27.516  1.00  0.00    -0.460 OA
BRANCH  40  41
ATOM     41  C   UNL A   1      34.072  32.362  28.262  1.00  0.00     0.338 C 
ATOM     42  O   UNL A   1      33.528  33.419  28.001  1.00  0.00    -0.246 OA
BRANCH  41  43
ATOM     43  C   UNL A   1      34.907  32.136  29.437  1.00  0.00     0.060 A 
ATOM     44  C   UNL A   1      34.870  33.134  30.407  1.00  0.00     0.016 A 
ATOM     45  C   UNL A   1      35.905  31.146  29.399  1.00  0.00     0.016 A 
ATOM     46  C   UNL A   1      35.976  33.288  31.200  1.00  0.00     0.010 A 
ATOM     47  C   UNL A   1      37.016  31.311  30.180  1.00  0.00     0.010 A 
ATOM     48  C   UNL A   1      37.067  32.433  30.997  1.00  0.00    -0.014 A 
BRANCH  48  49
ATOM     49  C   UNL A   1      38.296  32.783  31.657  1.00  0.00     0.031 A 
ATOM     50  C   UNL A   1      39.292  33.443  30.798  1.00  0.00     0.074 A 
ATOM     51  C   UNL A   1      38.481  32.567  32.969  1.00  0.00     0.049 A 
ATOM     52  N   UNL A   1      40.476  33.027  30.503  1.00  0.00    -0.248 NA
ATOM     53  C   UNL A   1      38.881  34.675  30.112  1.00  0.00     0.031 C 
ATOM     54  C   UNL A   1      37.499  32.195  33.988  1.00  0.00     0.029 A 
ATOM     55  N   UNL A   1      39.623  32.748  33.678  1.00  0.00    -0.354 N 
ATOM     56  C   UNL A   1      41.028  34.017  29.704  1.00  0.00     0.074 A 
ATOM     57  C   UNL A   1      39.974  34.953  29.405  1.00  0.00     0.031 C 
ATOM     58  C   UNL A   1      38.047  32.390  35.210  1.00  0.00     0.029 A 
ATOM     59  C   UNL A   1      39.437  32.783  35.046  1.00  0.00     0.049 A 
ATOM     60  H   UNL A   1      40.506  32.846  33.254  1.00  0.00     0.167 HD
ATOM     61  C   UNL A   1      42.368  34.101  29.502  1.00  0.00     0.037 A 
ATOM     62  C   UNL A   1      40.354  33.204  35.950  1.00  0.00     0.037 A 
ATOM     63  C   UNL A   1      43.039  32.859  29.774  1.00  0.00     0.049 A 
ATOM     64  C   UNL A   1      41.690  33.143  35.298  1.00  0.00     0.074 A 
ATOM     65  C   UNL A   1      42.924  31.578  29.265  1.00  0.00     0.029 A 
ATOM     66  N   UNL A   1      43.751  32.724  30.940  1.00  0.00    -0.354 N 
ATOM     67  N   UNL A   1      42.314  32.035  35.005  1.00  0.00    -0.248 NA
ATOM     68  C   UNL A   1      42.160  34.326  34.588  1.00  0.00     0.031 C 
ATOM     69  C   UNL A   1      43.132  30.711  30.378  1.00  0.00     0.029 A 
ATOM     70  C   UNL A   1      43.383  31.519  31.486  1.00  0.00     0.049 A 
ATOM     71  H   UNL A   1      44.398  33.365  31.312  1.00  0.00     0.167 HD
ATOM     72  C   UNL A   1      42.954  32.295  33.801  1.00  0.00     0.074 A 
ATOM     73  C   UNL A   1      42.910  33.744  33.648  1.00  0.00     0.031 C 
ATOM     74  C   UNL A   1      43.210  31.299  32.902  1.00  0.00     0.037 A 
BRANCH  61  75
ATOM     75  C   UNL A   1      43.080  35.408  29.340  1.00  0.00     0.064 A 
ATOM     76  C   UNL A   1      43.698  35.722  28.119  1.00  0.00     0.173 A 
ATOM     77  C   UNL A   1      43.399  36.248  30.431  1.00  0.00     0.173 A 
ATOM     78  F   UNL A   1      43.494  34.958  27.036  1.00  0.00    -0.203 F 
ATOM     79  C   UNL A   1      44.600  36.783  28.008  1.00  0.00     0.198 A 
ATOM     80  C   UNL A   1      44.253  37.338  30.302  1.00  0.00     0.198 A 
ATOM     81  F   UNL A   1      42.980  35.979  31.675  1.00  0.00    -0.203 F 
ATOM     82  F   UNL A   1      45.249  36.984  26.854  1.00  0.00    -0.200 F 
ATOM     83  C   UNL A   1      44.874  37.591  29.098  1.00  0.00     0.200 A 
ATOM     84  F   UNL A   1      44.523  38.094  31.377  1.00  0.00    -0.200 F 
ATOM     85  F   UNL A   1      45.774  38.578  29.003  1.00  0.00    -0.200 F 
ENDBRANCH  61  75
BRANCH  62  86
ATOM     86  C   UNL A   1      40.114  33.908  37.228  1.00  0.00     0.064 A 
ATOM     87  C   UNL A   1      40.578  33.370  38.438  1.00  0.00     0.173 A 
ATOM     88  C   UNL A   1      39.652  35.239  37.272  1.00  0.00     0.173 A 
ATOM     89  F   UNL A   1      41.080  32.127  38.477  1.00  0.00    -0.203 F 
ATOM     90  C   UNL A   1      40.598  34.124  39.615  1.00  0.00     0.198 A 
ATOM     91  C   UNL A   1      39.656  35.984  38.451  1.00  0.00     0.198 A 
ATOM     92  F   UNL A   1      39.277  35.880  36.157  1.00  0.00    -0.203 F 
ATOM     93  F   UNL A   1      41.112  33.598  40.735  1.00  0.00    -0.200 F 
ATOM     94  C   UNL A   1      40.143  35.431  39.619  1.00  0.00     0.200 A 
ATOM     95  F   UNL A   1      39.243  37.260  38.431  1.00  0.00    -0.200 F 
ATOM     96  F   UNL A   1      40.212  36.172  40.734  1.00  0.00    -0.200 F 
ENDBRANCH  62  86
BRANCH  74  97
ATOM     97  C   UNL A   1      43.017  29.881  33.357  1.00  0.00     0.064 A 
ATOM     98  C   UNL A   1      41.783  29.209  33.303  1.00  0.00     0.173 A 
ATOM     99  C   UNL A   1      44.140  29.132  33.734  1.00  0.00     0.173 A 
ATOM    100  F   UNL A   1      40.686  29.822  32.838  1.00  0.00    -0.203 F 
ATOM    101  C   UNL A   1      41.670  27.871  33.671  1.00  0.00     0.198 A 
ATOM    102  C   UNL A   1      44.032  27.784  34.065  1.00  0.00     0.198 A 
ATOM    103  F   UNL A   1      45.357  29.701  33.741  1.00  0.00    -0.203 F 
ATOM    104  F   UNL A   1      40.476  27.261  33.631  1.00  0.00    -0.200 F 
ATOM    105  C   UNL A   1      42.796  27.157  34.048  1.00  0.00     0.200 A 
ATOM    106  F   UNL A   1      45.132  27.083  34.377  1.00  0.00    -0.200 F 
ATOM    107  F   UNL A   1      42.695  25.860  34.368  1.00  0.00    -0.200 F 
ENDBRANCH  74  97
ENDBRANCH  48  49
ENDBRANCH  41  43
ENDBRANCH  40  41
ENDBRANCH  39  40
ENDBRANCH  38  39
ENDBRANCH  37  38
ENDBRANCH  36  37
ENDBRANCH  35  36
ENDBRANCH   1  35
TORSDOF 23
ENDMDL
