MODEL 1
REMARK VINA RESULT:      -8.8      0.000      0.000
REMARK SMILES O=C(C[C@H]1S/C(=[NH+]\N=C\c2cc(Br)ccc2OCc2ccccc2)NC1=O)OCCOCCOCCOC(=O)c1ccc(-c2c3nc(c(-c4c(F)c(F)c(F)c(F)c4F)c4ccc([nH]4)c(-c4c(F)c(F)c(F)c(F)c4F)c4nc(c(-c5c(F)c(F)c(F)c(F)c5F)c5ccc2[nH]5)C=C4)C=C3)cc1
REMARK SMILES IDX 30 1 29 2 28 3 2 4 1 5 3 6 4 7 5 8 26 9 6 10 25 11 27 12
REMARK SMILES IDX 7 13 8 16 9 17 10 18 11 19 16 20 12 21 15 22 13 23 14 24
REMARK SMILES IDX 17 25 18 26 19 27 20 28 24 29 21 30 23 31 22 32 31 33 32 34
REMARK SMILES IDX 33 35 34 36 35 37 36 38 37 39 38 40 39 41 40 42 41 43 102 44
REMARK SMILES IDX 42 45 101 46 43 47 44 48 45 49 95 50 46 51 100 52 94 53
REMARK SMILES IDX 96 54 47 55 99 56 93 57 92 58 48 60 80 61 60 62 79 63 61 64
REMARK SMILES IDX 64 65 78 66 97 67 62 68 63 69 77 71 98 72 65 73 49 74 50 75
REMARK SMILES IDX 58 76 51 77 52 78 56 79 59 80 53 81 54 82 57 83 55 84 81 85
REMARK SMILES IDX 82 86 90 87 83 88 84 89 88 90 91 91 85 92 86 93 89 94 87 95
REMARK SMILES IDX 66 96 67 97 75 98 68 99 69 100 73 101 76 102 70 103 71 104
REMARK SMILES IDX 74 105 72 106
REMARK H PARENT 25 14 7 15 96 59 64 70
REMARK Flexibility Score: inf
ROOT
ATOM      1  C   UNL A   1      38.485  31.162  36.088  1.00  0.00     0.202 C 
ENDROOT
BRANCH   1   2
ATOM      2  C   UNL A   1      39.786  30.666  35.459  1.00  0.00     0.261 C 
BRANCH   2   3
ATOM      3  O   UNL A   1      40.241  29.344  35.812  1.00  0.00    -0.463 OA
BRANCH   3   4
ATOM      4  C   UNL A   1      40.912  28.454  35.061  1.00  0.00     0.307 C 
ATOM      5  O   UNL A   1      40.552  28.221  33.910  1.00  0.00    -0.252 OA
BRANCH   4   6
ATOM      6  C   UNL A   1      42.024  27.646  35.672  1.00  0.00     0.150 C 
BRANCH   6   7
ATOM      7  C   UNL A   1      42.108  26.217  35.173  1.00  0.00     0.184 C 
ATOM      8  S   UNL A   1      43.826  25.686  35.407  1.00  0.00    -0.020 SA
ATOM      9  C   UNL A   1      41.320  25.297  36.071  1.00  0.00     0.322 C 
ATOM     10  C   UNL A   1      43.414  25.153  37.019  1.00  0.00     0.337 C 
ATOM     11  N   UNL A   1      42.092  24.885  37.111  1.00  0.00    -0.202 N 
ATOM     12  O   UNL A   1      40.134  25.042  35.924  1.00  0.00    -0.246 OA
ATOM     13  N   UNL A   1      44.186  25.006  38.032  1.00  0.00    -0.142 N 
ATOM     14  H   UNL A   1      41.710  24.418  37.889  1.00  0.00     0.316 HD
ATOM     15  H   UNL A   1      43.874  24.632  38.888  1.00  0.00     0.343 HD
BRANCH  13  16
ATOM     16  N   UNL A   1      45.498  25.417  37.830  1.00  0.00    -0.093 NA
ATOM     17  C   UNL A   1      46.203  24.441  37.360  1.00  0.00     0.170 C 
BRANCH  17  18
ATOM     18  C   UNL A   1      47.647  24.546  37.224  1.00  0.00     0.040 A 
ATOM     19  C   UNL A   1      48.117  25.758  36.699  1.00  0.00     0.029 A 
ATOM     20  C   UNL A   1      48.516  23.499  37.543  1.00  0.00     0.128 A 
ATOM     21  C   UNL A   1      49.456  25.886  36.370  1.00  0.00     0.018 A 
ATOM     22  C   UNL A   1      49.873  23.673  37.230  1.00  0.00     0.048 A 
ATOM     23  Br  UNL A   1      50.008  27.433  35.442  1.00  0.00    -0.051 Br
ATOM     24  C   UNL A   1      50.344  24.851  36.636  1.00  0.00     0.019 A 
BRANCH  20  25
ATOM     25  O   UNL A   1      48.282  22.316  38.176  1.00  0.00    -0.488 OA
BRANCH  25  26
ATOM     26  C   UNL A   1      48.721  21.036  37.725  1.00  0.00     0.265 C 
BRANCH  26  27
ATOM     27  C   UNL A   1      48.512  20.712  36.258  1.00  0.00    -0.011 A 
ATOM     28  C   UNL A   1      47.243  20.288  35.830  1.00  0.00     0.007 A 
ATOM     29  C   UNL A   1      49.553  20.690  35.321  1.00  0.00     0.007 A 
ATOM     30  C   UNL A   1      47.036  19.839  34.521  1.00  0.00     0.000 A 
ATOM     31  C   UNL A   1      49.359  20.201  34.027  1.00  0.00     0.000 A 
ATOM     32  C   UNL A   1      48.099  19.775  33.626  1.00  0.00     0.000 A 
ENDBRANCH  26  27
ENDBRANCH  25  26
ENDBRANCH  20  25
ENDBRANCH  17  18
ENDBRANCH  13  16
ENDBRANCH   6   7
ENDBRANCH   4   6
ENDBRANCH   3   4
ENDBRANCH   2   3
ENDBRANCH   1   2
BRANCH   1  33
ATOM     33  O   UNL A   1      37.466  31.623  35.227  1.00  0.00    -0.376 OA
BRANCH  33  34
ATOM     34  C   UNL A   1      37.635  31.565  33.827  1.00  0.00     0.188 C 
BRANCH  34  35
ATOM     35  C   UNL A   1      36.857  32.619  33.026  1.00  0.00     0.188 C 
BRANCH  35  36
ATOM     36  O   UNL A   1      35.491  32.401  32.721  1.00  0.00    -0.376 OA
BRANCH  36  37
ATOM     37  C   UNL A   1      34.721  33.459  32.166  1.00  0.00     0.202 C 
BRANCH  37  38
ATOM     38  C   UNL A   1      34.400  33.463  30.658  1.00  0.00     0.261 C 
BRANCH  38  39
ATOM     39  O   UNL A   1      35.415  32.931  29.776  1.00  0.00    -0.460 OA
BRANCH  39  40
ATOM     40  C   UNL A   1      35.093  31.805  29.098  1.00  0.00     0.338 C 
ATOM     41  O   UNL A   1      34.069  31.605  28.451  1.00  0.00    -0.246 OA
BRANCH  40  42
ATOM     42  C   UNL A   1      36.210  30.831  29.096  1.00  0.00     0.060 A 
ATOM     43  C   UNL A   1      36.447  30.073  30.254  1.00  0.00     0.016 A 
ATOM     44  C   UNL A   1      37.093  30.743  28.019  1.00  0.00     0.016 A 
ATOM     45  C   UNL A   1      37.585  29.265  30.357  1.00  0.00     0.010 A 
ATOM     46  C   UNL A   1      38.249  29.954  28.135  1.00  0.00     0.010 A 
ATOM     47  C   UNL A   1      38.527  29.245  29.321  1.00  0.00    -0.014 A 
BRANCH  47  48
ATOM     48  C   UNL A   1      39.899  28.714  29.577  1.00  0.00     0.031 A 
ATOM     49  C   UNL A   1      40.816  29.518  30.472  1.00  0.00     0.074 A 
ATOM     50  C   UNL A   1      40.341  27.550  29.063  1.00  0.00     0.049 A 
ATOM     51  N   UNL A   1      42.070  29.310  30.798  1.00  0.00    -0.248 NA
ATOM     52  C   UNL A   1      40.236  30.730  31.071  1.00  0.00     0.031 C 
ATOM     53  C   UNL A   1      39.577  26.638  28.215  1.00  0.00     0.029 A 
ATOM     54  N   UNL A   1      41.570  26.943  29.181  1.00  0.00    -0.354 N 
ATOM     55  C   UNL A   1      42.429  30.373  31.621  1.00  0.00     0.074 A 
ATOM     56  C   UNL A   1      41.274  31.239  31.718  1.00  0.00     0.031 C 
ATOM     57  C   UNL A   1      40.361  25.596  27.873  1.00  0.00     0.029 A 
ATOM     58  C   UNL A   1      41.684  25.775  28.467  1.00  0.00     0.049 A 
ATOM     59  H   UNL A   1      42.301  27.313  29.728  1.00  0.00     0.167 HD
ATOM     60  C   UNL A   1      43.610  30.610  32.245  1.00  0.00     0.037 A 
ATOM     61  C   UNL A   1      42.745  24.962  28.302  1.00  0.00     0.037 A 
ATOM     62  C   UNL A   1      44.766  29.758  32.159  1.00  0.00     0.049 A 
ATOM     63  C   UNL A   1      44.064  25.284  28.953  1.00  0.00     0.074 A 
ATOM     64  C   UNL A   1      45.993  29.899  32.787  1.00  0.00     0.029 A 
ATOM     65  N   UNL A   1      44.848  28.613  31.384  1.00  0.00    -0.354 N 
ATOM     66  N   UNL A   1      44.397  26.293  29.715  1.00  0.00    -0.248 NA
ATOM     67  C   UNL A   1      45.157  24.327  28.712  1.00  0.00     0.031 C 
ATOM     68  C   UNL A   1      46.838  28.878  32.340  1.00  0.00     0.029 A 
ATOM     69  C   UNL A   1      46.114  28.057  31.492  1.00  0.00     0.049 A 
ATOM     70  H   UNL A   1      44.115  28.247  30.837  1.00  0.00     0.167 HD
ATOM     71  C   UNL A   1      45.728  26.087  30.055  1.00  0.00     0.074 A 
ATOM     72  C   UNL A   1      46.142  24.854  29.423  1.00  0.00     0.031 C 
ATOM     73  C   UNL A   1      46.533  26.847  30.836  1.00  0.00     0.037 A 
BRANCH  60  74
ATOM     74  C   UNL A   1      43.724  31.875  33.050  1.00  0.00     0.064 A 
ATOM     75  C   UNL A   1      44.058  33.106  32.463  1.00  0.00     0.173 A 
ATOM     76  C   UNL A   1      43.475  31.857  34.432  1.00  0.00     0.173 A 
ATOM     77  F   UNL A   1      44.314  33.180  31.149  1.00  0.00    -0.203 F 
ATOM     78  C   UNL A   1      44.181  34.259  33.235  1.00  0.00     0.198 A 
ATOM     79  C   UNL A   1      43.560  33.019  35.193  1.00  0.00     0.198 A 
ATOM     80  F   UNL A   1      43.141  30.711  35.044  1.00  0.00    -0.203 F 
ATOM     81  F   UNL A   1      44.565  35.409  32.663  1.00  0.00    -0.200 F 
ATOM     82  C   UNL A   1      43.926  34.216  34.597  1.00  0.00     0.200 A 
ATOM     83  F   UNL A   1      43.294  32.978  36.506  1.00  0.00    -0.200 F 
ATOM     84  F   UNL A   1      44.042  35.326  35.338  1.00  0.00    -0.200 F 
ENDBRANCH  60  74
BRANCH  61  85
ATOM     85  C   UNL A   1      42.669  23.752  27.449  1.00  0.00     0.064 A 
ATOM     86  C   UNL A   1      42.366  22.498  27.994  1.00  0.00     0.173 A 
ATOM     87  C   UNL A   1      43.087  23.807  26.114  1.00  0.00     0.173 A 
ATOM     88  F   UNL A   1      42.050  22.392  29.292  1.00  0.00    -0.203 F 
ATOM     89  C   UNL A   1      42.473  21.339  27.226  1.00  0.00     0.198 A 
ATOM     90  C   UNL A   1      43.196  22.647  25.349  1.00  0.00     0.198 A 
ATOM     91  F   UNL A   1      43.441  24.982  25.573  1.00  0.00    -0.203 F 
ATOM     92  F   UNL A   1      42.231  20.144  27.782  1.00  0.00    -0.200 F 
ATOM     93  C   UNL A   1      42.882  21.416  25.903  1.00  0.00     0.200 A 
ATOM     94  F   UNL A   1      43.624  22.718  24.081  1.00  0.00    -0.200 F 
ATOM     95  F   UNL A   1      43.004  20.302  25.168  1.00  0.00    -0.200 F 
ENDBRANCH  61  85
BRANCH  73  96
ATOM     96  C   UNL A   1      47.928  26.346  31.077  1.00  0.00     0.064 A 
ATOM     97  C   UNL A   1      48.989  26.647  30.208  1.00  0.00     0.173 A 
ATOM     98  C   UNL A   1      48.206  25.543  32.194  1.00  0.00     0.173 A 
ATOM     99  F   UNL A   1      48.773  27.391  29.113  1.00  0.00    -0.203 F 
ATOM    100  C   UNL A   1      50.264  26.132  30.430  1.00  0.00     0.198 A 
ATOM    101  C   UNL A   1      49.490  25.060  32.432  1.00  0.00     0.198 A 
ATOM    102  F   UNL A   1      47.230  25.222  33.056  1.00  0.00    -0.203 F 
ATOM    103  F   UNL A   1      51.245  26.378  29.550  1.00  0.00    -0.200 F 
ATOM    104  C   UNL A   1      50.514  25.345  31.543  1.00  0.00     0.200 A 
ATOM    105  F   UNL A   1      49.732  24.308  33.514  1.00  0.00    -0.200 F 
ATOM    106  F   UNL A   1      51.742  24.850  31.754  1.00  0.00    -0.200 F 
ENDBRANCH  73  96
ENDBRANCH  47  48
ENDBRANCH  40  42
ENDBRANCH  39  40
ENDBRANCH  38  39
ENDBRANCH  37  38
ENDBRANCH  36  37
ENDBRANCH  35  36
ENDBRANCH  34  35
ENDBRANCH  33  34
ENDBRANCH   1  33
TORSDOF 23
ENDMDL
MODEL 2
REMARK VINA RESULT:      -8.3      2.168      3.222
REMARK SMILES O=C(C[C@H]1S/C(=[NH+]\N=C\c2cc(Br)ccc2OCc2ccccc2)NC1=O)OCCOCCOCCOC(=O)c1ccc(-c2c3nc(c(-c4c(F)c(F)c(F)c(F)c4F)c4ccc([nH]4)c(-c4c(F)c(F)c(F)c(F)c4F)c4nc(c(-c5c(F)c(F)c(F)c(F)c5F)c5ccc2[nH]5)C=C4)C=C3)cc1
REMARK SMILES IDX 30 1 29 2 28 3 2 4 1 5 3 6 4 7 5 8 26 9 6 10 25 11 27 12
REMARK SMILES IDX 7 13 8 16 9 17 10 18 11 19 16 20 12 21 15 22 13 23 14 24
REMARK SMILES IDX 17 25 18 26 19 27 20 28 24 29 21 30 23 31 22 32 31 33 32 34
REMARK SMILES IDX 33 35 34 36 35 37 36 38 37 39 38 40 39 41 40 42 41 43 102 44
REMARK SMILES IDX 42 45 101 46 43 47 44 48 45 49 95 50 46 51 100 52 94 53
REMARK SMILES IDX 96 54 47 55 99 56 93 57 92 58 48 60 80 61 60 62 79 63 61 64
REMARK SMILES IDX 64 65 78 66 97 67 62 68 63 69 77 71 98 72 65 73 49 74 50 75
REMARK SMILES IDX 58 76 51 77 52 78 56 79 59 80 53 81 54 82 57 83 55 84 81 85
REMARK SMILES IDX 82 86 90 87 83 88 84 89 88 90 91 91 85 92 86 93 89 94 87 95
REMARK SMILES IDX 66 96 67 97 75 98 68 99 69 100 73 101 76 102 70 103 71 104
REMARK SMILES IDX 74 105 72 106
REMARK H PARENT 25 14 7 15 96 59 64 70
REMARK Flexibility Score: inf
ROOT
ATOM      1  C   UNL A   1      37.371  33.051  36.055  1.00  0.00     0.202 C 
ENDROOT
BRANCH   1   2
ATOM      2  C   UNL A   1      38.789  33.280  35.532  1.00  0.00     0.261 C 
BRANCH   2   3
ATOM      3  O   UNL A   1      39.631  32.123  35.348  1.00  0.00    -0.463 OA
BRANCH   3   4
ATOM      4  C   UNL A   1      40.757  32.006  34.625  1.00  0.00     0.307 C 
ATOM      5  O   UNL A   1      41.150  32.945  33.936  1.00  0.00    -0.252 OA
BRANCH   4   6
ATOM      6  C   UNL A   1      41.469  30.683  34.556  1.00  0.00     0.150 C 
BRANCH   6   7
ATOM      7  C   UNL A   1      41.303  29.950  33.239  1.00  0.00     0.184 C 
ATOM      8  S   UNL A   1      42.407  28.512  33.304  1.00  0.00    -0.020 SA
ATOM      9  C   UNL A   1      39.926  29.344  33.141  1.00  0.00     0.322 C 
ATOM     10  C   UNL A   1      41.117  27.589  34.037  1.00  0.00     0.337 C 
ATOM     11  N   UNL A   1      39.913  28.117  33.723  1.00  0.00    -0.202 N 
ATOM     12  O   UNL A   1      38.952  29.923  32.684  1.00  0.00    -0.246 OA
ATOM     13  N   UNL A   1      41.205  26.548  34.781  1.00  0.00    -0.142 N 
ATOM     14  H   UNL A   1      39.073  27.638  33.908  1.00  0.00     0.316 HD
ATOM     15  H   UNL A   1      40.414  26.051  35.095  1.00  0.00     0.343 HD
BRANCH  13  16
ATOM     16  N   UNL A   1      42.502  26.175  35.112  1.00  0.00    -0.093 NA
ATOM     17  C   UNL A   1      42.554  24.906  35.350  1.00  0.00     0.170 C 
BRANCH  17  18
ATOM     18  C   UNL A   1      43.752  24.284  35.890  1.00  0.00     0.040 A 
ATOM     19  C   UNL A   1      44.148  23.095  35.262  1.00  0.00     0.029 A 
ATOM     20  C   UNL A   1      44.441  24.796  36.991  1.00  0.00     0.128 A 
ATOM     21  C   UNL A   1      45.169  22.339  35.814  1.00  0.00     0.018 A 
ATOM     22  C   UNL A   1      45.494  24.024  37.506  1.00  0.00     0.048 A 
ATOM     23  Br  UNL A   1      45.514  20.631  35.091  1.00  0.00    -0.051 Br
ATOM     24  C   UNL A   1      45.853  22.798  36.934  1.00  0.00     0.019 A 
BRANCH  20  25
ATOM     25  O   UNL A   1      44.304  25.982  37.648  1.00  0.00    -0.488 OA
BRANCH  25  26
ATOM     26  C   UNL A   1      45.171  27.107  37.512  1.00  0.00     0.265 C 
BRANCH  26  27
ATOM     27  C   UNL A   1      45.960  27.218  36.222  1.00  0.00    -0.011 A 
ATOM     28  C   UNL A   1      47.294  26.776  36.200  1.00  0.00     0.007 A 
ATOM     29  C   UNL A   1      45.471  27.858  35.076  1.00  0.00     0.007 A 
ATOM     30  C   UNL A   1      48.106  26.990  35.081  1.00  0.00     0.000 A 
ATOM     31  C   UNL A   1      46.292  28.112  33.976  1.00  0.00     0.000 A 
ATOM     32  C   UNL A   1      47.611  27.677  33.978  1.00  0.00     0.000 A 
ENDBRANCH  26  27
ENDBRANCH  25  26
ENDBRANCH  20  25
ENDBRANCH  17  18
ENDBRANCH  13  16
ENDBRANCH   6   7
ENDBRANCH   4   6
ENDBRANCH   3   4
ENDBRANCH   2   3
ENDBRANCH   1   2
BRANCH   1  33
ATOM     33  O   UNL A   1      36.300  33.195  35.148  1.00  0.00    -0.376 OA
BRANCH  33  34
ATOM     34  C   UNL A   1      36.425  32.742  33.818  1.00  0.00     0.188 C 
BRANCH  34  35
ATOM     35  C   UNL A   1      35.824  33.665  32.748  1.00  0.00     0.188 C 
BRANCH  35  36
ATOM     36  O   UNL A   1      34.759  33.198  31.938  1.00  0.00    -0.376 OA
BRANCH  36  37
ATOM     37  C   UNL A   1      34.313  33.991  30.846  1.00  0.00     0.202 C 
BRANCH  37  38
ATOM     38  C   UNL A   1      34.330  33.408  29.419  1.00  0.00     0.261 C 
BRANCH  38  39
ATOM     39  O   UNL A   1      35.437  32.539  29.085  1.00  0.00    -0.460 OA
BRANCH  39  40
ATOM     40  C   UNL A   1      35.120  31.343  28.537  1.00  0.00     0.338 C 
ATOM     41  O   UNL A   1      34.047  31.029  28.030  1.00  0.00    -0.246 OA
BRANCH  40  42
ATOM     42  C   UNL A   1      36.295  30.441  28.478  1.00  0.00     0.060 A 
ATOM     43  C   UNL A   1      36.674  29.751  29.640  1.00  0.00     0.016 A 
ATOM     44  C   UNL A   1      37.090  30.361  27.335  1.00  0.00     0.016 A 
ATOM     45  C   UNL A   1      37.868  29.020  29.679  1.00  0.00     0.010 A 
ATOM     46  C   UNL A   1      38.301  29.651  27.384  1.00  0.00     0.010 A 
ATOM     47  C   UNL A   1      38.721  29.013  28.569  1.00  0.00    -0.014 A 
BRANCH  47  48
ATOM     48  C   UNL A   1      40.141  28.580  28.728  1.00  0.00     0.031 A 
ATOM     49  C   UNL A   1      41.114  29.554  29.356  1.00  0.00     0.074 A 
ATOM     50  C   UNL A   1      40.580  27.363  28.357  1.00  0.00     0.049 A 
ATOM     51  N   UNL A   1      42.407  29.447  29.547  1.00  0.00    -0.248 NA
ATOM     52  C   UNL A   1      40.545  30.829  29.821  1.00  0.00     0.031 C 
ATOM     53  C   UNL A   1      39.771  26.295  27.773  1.00  0.00     0.029 A 
ATOM     54  N   UNL A   1      41.847  26.827  28.413  1.00  0.00    -0.354 N 
ATOM     55  C   UNL A   1      42.805  30.644  30.134  1.00  0.00     0.074 A 
ATOM     56  C   UNL A   1      41.623  31.474  30.238  1.00  0.00     0.031 C 
ATOM     57  C   UNL A   1      40.564  25.239  27.506  1.00  0.00     0.029 A 
ATOM     58  C   UNL A   1      41.938  25.560  27.889  1.00  0.00     0.049 A 
ATOM     59  H   UNL A   1      42.617  27.308  28.794  1.00  0.00     0.167 HD
ATOM     60  C   UNL A   1      44.037  31.023  30.554  1.00  0.00     0.037 A 
ATOM     61  C   UNL A   1      43.014  24.768  27.722  1.00  0.00     0.037 A 
ATOM     62  C   UNL A   1      45.220  30.209  30.460  1.00  0.00     0.049 A 
ATOM     63  C   UNL A   1      44.382  25.239  28.137  1.00  0.00     0.074 A 
ATOM     64  C   UNL A   1      46.504  30.494  30.894  1.00  0.00     0.029 A 
ATOM     65  N   UNL A   1      45.270  28.953  29.876  1.00  0.00    -0.354 N 
ATOM     66  N   UNL A   1      44.750  26.372  28.677  1.00  0.00    -0.248 NA
ATOM     67  C   UNL A   1      45.490  24.294  27.915  1.00  0.00     0.031 C 
ATOM     68  C   UNL A   1      47.344  29.443  30.512  1.00  0.00     0.029 A 
ATOM     69  C   UNL A   1      46.569  28.467  29.909  1.00  0.00     0.049 A 
ATOM     70  H   UNL A   1      44.498  28.475  29.495  1.00  0.00     0.167 HD
ATOM     71  C   UNL A   1      46.121  26.273  28.871  1.00  0.00     0.074 A 
ATOM     72  C   UNL A   1      46.522  24.966  28.399  1.00  0.00     0.031 C 
ATOM     73  C   UNL A   1      46.971  27.179  29.409  1.00  0.00     0.037 A 
BRANCH  60  74
ATOM     74  C   UNL A   1      44.178  32.408  31.123  1.00  0.00     0.064 A 
ATOM     75  C   UNL A   1      44.226  33.548  30.306  1.00  0.00     0.173 A 
ATOM     76  C   UNL A   1      44.247  32.597  32.513  1.00  0.00     0.173 A 
ATOM     77  F   UNL A   1      44.172  33.426  28.972  1.00  0.00    -0.203 F 
ATOM     78  C   UNL A   1      44.381  34.819  30.856  1.00  0.00     0.198 A 
ATOM     79  C   UNL A   1      44.363  33.871  33.060  1.00  0.00     0.198 A 
ATOM     80  F   UNL A   1      44.195  31.544  33.342  1.00  0.00    -0.203 F 
ATOM     81  F   UNL A   1      44.491  35.887  30.053  1.00  0.00    -0.200 F 
ATOM     82  C   UNL A   1      44.443  34.980  32.232  1.00  0.00     0.200 A 
ATOM     83  F   UNL A   1      44.402  34.024  34.391  1.00  0.00    -0.200 F 
ATOM     84  F   UNL A   1      44.589  36.202  32.760  1.00  0.00    -0.200 F 
ENDBRANCH  60  74
BRANCH  61  85
ATOM     85  C   UNL A   1      42.902  23.429  27.092  1.00  0.00     0.064 A 
ATOM     86  C   UNL A   1      42.442  22.323  27.818  1.00  0.00     0.173 A 
ATOM     87  C   UNL A   1      43.434  23.208  25.817  1.00  0.00     0.173 A 
ATOM     88  F   UNL A   1      42.010  22.482  29.077  1.00  0.00    -0.203 F 
ATOM     89  C   UNL A   1      42.509  21.038  27.281  1.00  0.00     0.198 A 
ATOM     90  C   UNL A   1      43.503  21.921  25.284  1.00  0.00     0.198 A 
ATOM     91  F   UNL A   1      43.937  24.234  25.115  1.00  0.00    -0.203 F 
ATOM     92  F   UNL A   1      42.116  19.987  28.012  1.00  0.00    -0.200 F 
ATOM     93  C   UNL A   1      43.034  20.840  26.013  1.00  0.00     0.200 A 
ATOM     94  F   UNL A   1      44.042  21.726  24.073  1.00  0.00    -0.200 F 
ATOM     95  F   UNL A   1      43.117  19.604  25.502  1.00  0.00    -0.200 F 
ENDBRANCH  61  85
BRANCH  73  96
ATOM     96  C   UNL A   1      48.411  26.774  29.546  1.00  0.00     0.064 A 
ATOM     97  C   UNL A   1      49.381  27.137  28.599  1.00  0.00     0.173 A 
ATOM     98  C   UNL A   1      48.824  26.000  30.642  1.00  0.00     0.173 A 
ATOM     99  F   UNL A   1      49.036  27.856  27.521  1.00  0.00    -0.203 F 
ATOM    100  C   UNL A   1      50.702  26.710  28.726  1.00  0.00     0.198 A 
ATOM    101  C   UNL A   1      50.152  25.606  30.784  1.00  0.00     0.198 A 
ATOM    102  F   UNL A   1      47.938  25.623  31.576  1.00  0.00    -0.203 F 
ATOM    103  F   UNL A   1      51.595  27.013  27.775  1.00  0.00    -0.200 F 
ATOM    104  C   UNL A   1      51.086  25.951  29.821  1.00  0.00     0.200 A 
ATOM    105  F   UNL A   1      50.523  24.880  31.848  1.00  0.00    -0.200 F 
ATOM    106  F   UNL A   1      52.356  25.540  29.940  1.00  0.00    -0.200 F 
ENDBRANCH  73  96
ENDBRANCH  47  48
ENDBRANCH  40  42
ENDBRANCH  39  40
ENDBRANCH  38  39
ENDBRANCH  37  38
ENDBRANCH  36  37
ENDBRANCH  35  36
ENDBRANCH  34  35
ENDBRANCH  33  34
ENDBRANCH   1  33
TORSDOF 23
ENDMDL
MODEL 3
REMARK VINA RESULT:      -8.1      5.138     10.407
REMARK SMILES O=C(C[C@H]1S/C(=[NH+]\N=C\c2cc(Br)ccc2OCc2ccccc2)NC1=O)OCCOCCOCCOC(=O)c1ccc(-c2c3nc(c(-c4c(F)c(F)c(F)c(F)c4F)c4ccc([nH]4)c(-c4c(F)c(F)c(F)c(F)c4F)c4nc(c(-c5c(F)c(F)c(F)c(F)c5F)c5ccc2[nH]5)C=C4)C=C3)cc1
REMARK SMILES IDX 30 1 29 2 28 3 2 4 1 5 3 6 4 7 5 8 26 9 6 10 25 11 27 12
REMARK SMILES IDX 7 13 8 16 9 17 10 18 11 19 16 20 12 21 15 22 13 23 14 24
REMARK SMILES IDX 17 25 18 26 19 27 20 28 24 29 21 30 23 31 22 32 31 33 32 34
REMARK SMILES IDX 33 35 34 36 35 37 36 38 37 39 38 40 39 41 40 42 41 43 102 44
REMARK SMILES IDX 42 45 101 46 43 47 44 48 45 49 95 50 46 51 100 52 94 53
REMARK SMILES IDX 96 54 47 55 99 56 93 57 92 58 48 60 80 61 60 62 79 63 61 64
REMARK SMILES IDX 64 65 78 66 97 67 62 68 63 69 77 71 98 72 65 73 49 74 50 75
REMARK SMILES IDX 58 76 51 77 52 78 56 79 59 80 53 81 54 82 57 83 55 84 81 85
REMARK SMILES IDX 82 86 90 87 83 88 84 89 88 90 91 91 85 92 86 93 89 94 87 95
REMARK SMILES IDX 66 96 67 97 75 98 68 99 69 100 73 101 76 102 70 103 71 104
REMARK SMILES IDX 74 105 72 106
REMARK H PARENT 25 14 7 15 96 59 64 70
REMARK Flexibility Score: inf
ROOT
ATOM      1  C   UNL A   1      36.976  32.210  45.691  1.00  0.00     0.202 C 
ENDROOT
BRANCH   1   2
ATOM      2  C   UNL A   1      36.232  33.454  45.206  1.00  0.00     0.261 C 
BRANCH   2   3
ATOM      3  O   UNL A   1      35.998  33.585  43.788  1.00  0.00    -0.463 OA
BRANCH   3   4
ATOM      4  C   UNL A   1      36.739  34.221  42.866  1.00  0.00     0.307 C 
ATOM      5  O   UNL A   1      37.405  35.205  43.180  1.00  0.00    -0.252 OA
BRANCH   4   6
ATOM      6  C   UNL A   1      36.653  33.810  41.422  1.00  0.00     0.150 C 
BRANCH   6   7
ATOM      7  C   UNL A   1      35.963  32.479  41.189  1.00  0.00     0.184 C 
ATOM      8  S   UNL A   1      35.599  32.388  39.415  1.00  0.00    -0.020 SA
ATOM      9  C   UNL A   1      36.923  31.339  41.421  1.00  0.00     0.322 C 
ATOM     10  C   UNL A   1      37.173  31.675  39.156  1.00  0.00     0.337 C 
ATOM     11  N   UNL A   1      37.619  31.077  40.283  1.00  0.00    -0.202 N 
ATOM     12  O   UNL A   1      37.103  30.802  42.503  1.00  0.00    -0.246 OA
ATOM     13  N   UNL A   1      37.880  31.670  38.086  1.00  0.00    -0.142 N 
ATOM     14  H   UNL A   1      38.404  30.484  40.281  1.00  0.00     0.316 HD
ATOM     15  H   UNL A   1      38.732  31.179  38.014  1.00  0.00     0.343 HD
BRANCH  13  16
ATOM     16  N   UNL A   1      37.354  32.410  37.035  1.00  0.00    -0.093 NA
ATOM     17  C   UNL A   1      37.781  31.949  35.906  1.00  0.00     0.170 C 
BRANCH  17  18
ATOM     18  C   UNL A   1      37.526  32.647  34.656  1.00  0.00     0.040 A 
ATOM     19  C   UNL A   1      36.539  33.640  34.712  1.00  0.00     0.029 A 
ATOM     20  C   UNL A   1      38.177  32.325  33.463  1.00  0.00     0.128 A 
ATOM     21  C   UNL A   1      36.103  34.236  33.540  1.00  0.00     0.018 A 
ATOM     22  C   UNL A   1      37.737  32.973  32.298  1.00  0.00     0.048 A 
ATOM     23  Br  UNL A   1      34.610  35.386  33.618  1.00  0.00    -0.051 Br
ATOM     24  C   UNL A   1      36.700  33.913  32.327  1.00  0.00     0.019 A 
BRANCH  20  25
ATOM     25  O   UNL A   1      39.238  31.504  33.226  1.00  0.00    -0.488 OA
BRANCH  25  26
ATOM     26  C   UNL A   1      39.158  30.102  32.976  1.00  0.00     0.265 C 
BRANCH  26  27
ATOM     27  C   UNL A   1      39.774  29.594  31.688  1.00  0.00    -0.011 A 
ATOM     28  C   UNL A   1      40.224  30.525  30.735  1.00  0.00     0.007 A 
ATOM     29  C   UNL A   1      39.807  28.239  31.335  1.00  0.00     0.007 A 
ATOM     30  C   UNL A   1      40.665  30.110  29.474  1.00  0.00     0.000 A 
ATOM     31  C   UNL A   1      40.205  27.826  30.061  1.00  0.00     0.000 A 
ATOM     32  C   UNL A   1      40.635  28.762  29.130  1.00  0.00     0.000 A 
ENDBRANCH  26  27
ENDBRANCH  25  26
ENDBRANCH  20  25
ENDBRANCH  17  18
ENDBRANCH  13  16
ENDBRANCH   6   7
ENDBRANCH   4   6
ENDBRANCH   3   4
ENDBRANCH   2   3
ENDBRANCH   1   2
BRANCH   1  33
ATOM     33  O   UNL A   1      38.189  31.874  45.054  1.00  0.00    -0.376 OA
BRANCH  33  34
ATOM     34  C   UNL A   1      39.267  32.784  45.044  1.00  0.00     0.188 C 
BRANCH  34  35
ATOM     35  C   UNL A   1      40.292  32.579  43.920  1.00  0.00     0.188 C 
BRANCH  35  36
ATOM     36  O   UNL A   1      39.959  32.945  42.592  1.00  0.00    -0.376 OA
BRANCH  36  37
ATOM     37  C   UNL A   1      40.946  33.546  41.765  1.00  0.00     0.202 C 
BRANCH  37  38
ATOM     38  C   UNL A   1      40.846  35.045  41.420  1.00  0.00     0.261 C 
BRANCH  38  39
ATOM     39  O   UNL A   1      41.198  35.426  40.070  1.00  0.00    -0.460 OA
BRANCH  39  40
ATOM     40  C   UNL A   1      40.229  35.292  39.135  1.00  0.00     0.338 C 
ATOM     41  O   UNL A   1      39.023  35.450  39.300  1.00  0.00    -0.246 OA
BRANCH  40  42
ATOM     42  C   UNL A   1      40.800  35.057  37.788  1.00  0.00     0.060 A 
ATOM     43  C   UNL A   1      39.927  34.960  36.692  1.00  0.00     0.016 A 
ATOM     44  C   UNL A   1      42.162  34.813  37.611  1.00  0.00     0.016 A 
ATOM     45  C   UNL A   1      40.402  34.576  35.433  1.00  0.00     0.010 A 
ATOM     46  C   UNL A   1      42.633  34.400  36.353  1.00  0.00     0.010 A 
ATOM     47  C   UNL A   1      41.750  34.235  35.266  1.00  0.00    -0.014 A 
BRANCH  47  48
ATOM     48  C   UNL A   1      42.177  33.464  34.061  1.00  0.00     0.031 A 
ATOM     49  C   UNL A   1      42.326  31.965  34.193  1.00  0.00     0.074 A 
ATOM     50  C   UNL A   1      42.411  34.043  32.868  1.00  0.00     0.049 A 
ATOM     51  N   UNL A   1      42.744  31.079  33.319  1.00  0.00    -0.248 NA
ATOM     52  C   UNL A   1      41.965  31.390  35.499  1.00  0.00     0.031 C 
ATOM     53  C   UNL A   1      42.278  35.465  32.559  1.00  0.00     0.029 A 
ATOM     54  N   UNL A   1      42.830  33.483  31.682  1.00  0.00    -0.354 N 
ATOM     55  C   UNL A   1      42.712  29.853  33.977  1.00  0.00     0.074 A 
ATOM     56  C   UNL A   1      42.267  30.113  35.329  1.00  0.00     0.031 C 
ATOM     57  C   UNL A   1      42.627  35.670  31.273  1.00  0.00     0.029 A 
ATOM     58  C   UNL A   1      43.020  34.396  30.673  1.00  0.00     0.049 A 
ATOM     59  H   UNL A   1      42.979  32.516  31.568  1.00  0.00     0.167 HD
ATOM     60  C   UNL A   1      43.020  28.621  33.502  1.00  0.00     0.037 A 
ATOM     61  C   UNL A   1      43.478  34.217  29.420  1.00  0.00     0.037 A 
ATOM     62  C   UNL A   1      43.462  28.347  32.160  1.00  0.00     0.049 A 
ATOM     63  C   UNL A   1      43.876  32.847  28.939  1.00  0.00     0.074 A 
ATOM     64  C   UNL A   1      43.760  27.125  31.579  1.00  0.00     0.029 A 
ATOM     65  N   UNL A   1      43.686  29.311  31.190  1.00  0.00    -0.354 N 
ATOM     66  N   UNL A   1      43.855  31.700  29.568  1.00  0.00    -0.248 NA
ATOM     67  C   UNL A   1      44.360  32.761  27.551  1.00  0.00     0.031 C 
ATOM     68  C   UNL A   1      44.231  27.355  30.282  1.00  0.00     0.029 A 
ATOM     69  C   UNL A   1      44.151  28.714  30.028  1.00  0.00     0.049 A 
ATOM     70  H   UNL A   1      43.537  30.278  31.309  1.00  0.00     0.167 HD
ATOM     71  C   UNL A   1      44.308  30.758  28.653  1.00  0.00     0.074 A 
ATOM     72  C   UNL A   1      44.590  31.464  27.422  1.00  0.00     0.031 C 
ATOM     73  C   UNL A   1      44.461  29.422  28.814  1.00  0.00     0.037 A 
BRANCH  60  74
ATOM     74  C   UNL A   1      42.929  27.468  34.463  1.00  0.00     0.064 A 
ATOM     75  C   UNL A   1      44.038  27.017  35.195  1.00  0.00     0.173 A 
ATOM     76  C   UNL A   1      41.702  26.815  34.668  1.00  0.00     0.173 A 
ATOM     77  F   UNL A   1      45.235  27.598  35.033  1.00  0.00    -0.203 F 
ATOM     78  C   UNL A   1      43.932  25.931  36.062  1.00  0.00     0.198 A 
ATOM     79  C   UNL A   1      41.592  25.756  35.564  1.00  0.00     0.198 A 
ATOM     80  F   UNL A   1      40.606  27.211  34.003  1.00  0.00    -0.203 F 
ATOM     81  F   UNL A   1      45.020  25.477  36.700  1.00  0.00    -0.200 F 
ATOM     82  C   UNL A   1      42.709  25.306  36.250  1.00  0.00     0.200 A 
ATOM     83  F   UNL A   1      40.404  25.167  35.758  1.00  0.00    -0.200 F 
ATOM     84  F   UNL A   1      42.608  24.264  37.085  1.00  0.00    -0.200 F 
ENDBRANCH  60  74
BRANCH  61  85
ATOM     85  C   UNL A   1      43.647  35.356  28.485  1.00  0.00     0.064 A 
ATOM     86  C   UNL A   1      44.878  36.009  28.352  1.00  0.00     0.173 A 
ATOM     87  C   UNL A   1      42.529  35.921  27.860  1.00  0.00     0.173 A 
ATOM     88  F   UNL A   1      45.953  35.551  29.009  1.00  0.00    -0.203 F 
ATOM     89  C   UNL A   1      44.988  37.186  27.613  1.00  0.00     0.198 A 
ATOM     90  C   UNL A   1      42.640  37.100  27.125  1.00  0.00     0.198 A 
ATOM     91  F   UNL A   1      41.322  35.357  28.012  1.00  0.00    -0.203 F 
ATOM     92  F   UNL A   1      46.163  37.826  27.543  1.00  0.00    -0.200 F 
ATOM     93  C   UNL A   1      43.869  37.727  26.995  1.00  0.00     0.200 A 
ATOM     94  F   UNL A   1      41.553  37.640  26.557  1.00  0.00    -0.200 F 
ATOM     95  F   UNL A   1      43.967  38.868  26.301  1.00  0.00    -0.200 F 
ENDBRANCH  61  85
BRANCH  73  96
ATOM     96  C   UNL A   1      44.923  28.635  27.622  1.00  0.00     0.064 A 
ATOM     97  C   UNL A   1      46.276  28.330  27.407  1.00  0.00     0.173 A 
ATOM     98  C   UNL A   1      43.992  28.185  26.672  1.00  0.00     0.173 A 
ATOM     99  F   UNL A   1      47.209  28.757  28.272  1.00  0.00    -0.203 F 
ATOM    100  C   UNL A   1      46.683  27.637  26.269  1.00  0.00     0.198 A 
ATOM    101  C   UNL A   1      44.399  27.461  25.554  1.00  0.00     0.198 A 
ATOM    102  F   UNL A   1      42.686  28.449  26.826  1.00  0.00    -0.203 F 
ATOM    103  F   UNL A   1      47.986  27.417  26.052  1.00  0.00    -0.200 F 
ATOM    104  C   UNL A   1      45.744  27.199  25.348  1.00  0.00     0.200 A 
ATOM    105  F   UNL A   1      43.489  27.029  24.670  1.00  0.00    -0.200 F 
ATOM    106  F   UNL A   1      46.137  26.533  24.253  1.00  0.00    -0.200 F 
ENDBRANCH  73  96
ENDBRANCH  47  48
ENDBRANCH  40  42
ENDBRANCH  39  40
ENDBRANCH  38  39
ENDBRANCH  37  38
ENDBRANCH  36  37
ENDBRANCH  35  36
ENDBRANCH  34  35
ENDBRANCH  33  34
ENDBRANCH   1  33
TORSDOF 23
ENDMDL
