MODEL 1
REMARK VINA RESULT:     -10.8      0.000      0.000
REMARK SMILES Cc1nc2nc(CNC(=O)OC(C)(C)C)nn2c(C)c1CCC(=O)OCCOCCOCCOC(=O)c1ccc(-c2c3nc(c(-c4c(F)c(F)c(F)c(F)c4F)c4ccc([nH]4)c(-c4c(F)c(F)c(F)c(F)c4F)c4nc(c(-c5c(F)c(F)c(F)c(F)c5F)c5ccc2[nH]5)C=C4)C=C3)cc1
REMARK SMILES IDX 27 1 26 2 25 3 23 4 24 5 22 6 21 7 20 8 1 9 2 10 3 11 4 12
REMARK SMILES IDX 18 13 5 14 17 15 19 16 6 17 16 18 7 19 8 20 9 21 10 23 11 24
REMARK SMILES IDX 12 25 13 26 14 27 15 28 28 29 29 30 30 31 31 32 32 33 33 34
REMARK SMILES IDX 34 35 35 36 36 37 37 38 38 39 99 40 39 41 98 42 40 43 41 44
REMARK SMILES IDX 42 45 92 46 43 47 97 48 91 49 93 50 44 51 96 52 90 53 89 54
REMARK SMILES IDX 45 56 77 57 57 58 76 59 58 60 61 61 75 62 94 63 59 64 60 65
REMARK SMILES IDX 74 67 95 68 62 69 46 70 47 71 55 72 48 73 49 74 53 75 56 76
REMARK SMILES IDX 50 77 51 78 54 79 52 80 78 81 79 82 87 83 80 84 81 85 85 86
REMARK SMILES IDX 88 87 82 88 83 89 86 90 84 91 63 92 64 93 72 94 65 95 66 96
REMARK SMILES IDX 70 97 73 98 67 99 68 100 71 101 69 102
REMARK H PARENT 8 22 93 55 61 66
REMARK Flexibility Score: inf
ROOT
ATOM      1  C   UNL A   1      37.651  23.237  25.510  1.00  0.00     0.202 C 
ENDROOT
BRANCH   1   2
ATOM      2  C   UNL A   1      36.156  23.159  25.912  1.00  0.00     0.261 C 
BRANCH   2   3
ATOM      3  O   UNL A   1      35.279  22.578  24.902  1.00  0.00    -0.463 OA
BRANCH   3   4
ATOM      4  C   UNL A   1      34.104  22.015  25.266  1.00  0.00     0.306 C 
ATOM      5  O   UNL A   1      33.672  22.039  26.412  1.00  0.00    -0.252 OA
BRANCH   4   6
ATOM      6  C   UNL A   1      33.362  21.314  24.119  1.00  0.00     0.127 C 
BRANCH   6   7
ATOM      7  C   UNL A   1      31.954  21.760  23.631  1.00  0.00     0.051 C 
BRANCH   7   8
ATOM      8  C   UNL A   1      31.473  23.154  24.010  1.00  0.00    -0.005 A 
ATOM      9  C   UNL A   1      30.368  22.450  26.281  1.00  0.00     0.067 C 
ATOM     10  C   UNL A   1      30.731  23.541  25.299  1.00  0.00     0.046 A 
ATOM     11  N   UNL A   1      30.412  24.760  25.671  1.00  0.00    -0.216 NA
ATOM     12  C   UNL A   1      30.793  25.790  24.858  1.00  0.00     0.252 A 
ATOM     13  C   UNL A   1      31.854  24.253  23.340  1.00  0.00     0.048 A 
ATOM     14  N   UNL A   1      30.877  27.102  25.038  1.00  0.00    -0.192 NA
ATOM     15  N   UNL A   1      31.400  25.506  23.660  1.00  0.00    -0.201 N 
ATOM     16  C   UNL A   1      32.952  24.347  22.375  1.00  0.00     0.067 C 
ATOM     17  C   UNL A   1      31.467  27.550  23.877  1.00  0.00     0.172 A 
ATOM     18  N   UNL A   1      31.636  26.617  22.952  1.00  0.00    -0.148 NA
BRANCH  17  19
ATOM     19  C   UNL A   1      31.928  28.916  23.547  1.00  0.00     0.199 C 
BRANCH  19  20
ATOM     20  N   UNL A   1      31.353  29.825  24.515  1.00  0.00    -0.314 N 
ATOM     21  C   UNL A   1      31.982  30.211  25.644  1.00  0.00     0.408 C 
ATOM     22  H   UNL A   1      30.452  30.182  24.341  1.00  0.00     0.167 HD
ATOM     23  O   UNL A   1      31.410  30.818  26.541  1.00  0.00    -0.225 OA
BRANCH  21  24
ATOM     24  O   UNL A   1      33.267  29.810  25.632  1.00  0.00    -0.444 OA
BRANCH  24  25
ATOM     25  C   UNL A   1      33.811  28.993  26.683  1.00  0.00     0.106 C 
ATOM     26  C   UNL A   1      34.914  29.718  27.454  1.00  0.00     0.056 C 
ATOM     27  C   UNL A   1      32.676  28.504  27.586  1.00  0.00     0.056 C 
ATOM     28  C   UNL A   1      34.416  27.796  25.937  1.00  0.00     0.056 C 
ENDBRANCH  24  25
ENDBRANCH  21  24
ENDBRANCH  19  20
ENDBRANCH  17  19
ENDBRANCH   7   8
ENDBRANCH   6   7
ENDBRANCH   4   6
ENDBRANCH   3   4
ENDBRANCH   2   3
ENDBRANCH   1   2
BRANCH   1  29
ATOM     29  O   UNL A   1      38.569  22.764  26.491  1.00  0.00    -0.376 OA
BRANCH  29  30
ATOM     30  C   UNL A   1      39.373  21.653  26.124  1.00  0.00     0.188 C 
BRANCH  30  31
ATOM     31  C   UNL A   1      40.869  21.927  26.178  1.00  0.00     0.188 C 
BRANCH  31  32
ATOM     32  O   UNL A   1      41.767  20.813  26.237  1.00  0.00    -0.376 OA
BRANCH  32  33
ATOM     33  C   UNL A   1      43.127  21.066  25.851  1.00  0.00     0.202 C 
BRANCH  33  34
ATOM     34  C   UNL A   1      43.428  22.431  25.226  1.00  0.00     0.261 C 
BRANCH  34  35
ATOM     35  O   UNL A   1      43.874  23.327  26.214  1.00  0.00    -0.460 OA
BRANCH  35  36
ATOM     36  C   UNL A   1      43.606  24.621  25.925  1.00  0.00     0.338 C 
ATOM     37  O   UNL A   1      44.118  25.333  25.085  1.00  0.00    -0.246 OA
BRANCH  36  38
ATOM     38  C   UNL A   1      42.544  25.014  26.857  1.00  0.00     0.060 A 
ATOM     39  C   UNL A   1      41.382  25.507  26.288  1.00  0.00     0.016 A 
ATOM     40  C   UNL A   1      42.845  25.143  28.231  1.00  0.00     0.016 A 
ATOM     41  C   UNL A   1      40.784  26.522  26.975  1.00  0.00     0.010 A 
ATOM     42  C   UNL A   1      42.220  26.113  28.935  1.00  0.00     0.010 A 
ATOM     43  C   UNL A   1      41.361  26.898  28.194  1.00  0.00    -0.014 A 
BRANCH  43  44
ATOM     44  C   UNL A   1      41.168  28.245  28.635  1.00  0.00     0.031 A 
ATOM     45  C   UNL A   1      42.242  29.090  28.139  1.00  0.00     0.074 A 
ATOM     46  C   UNL A   1      40.117  28.589  29.399  1.00  0.00     0.049 A 
ATOM     47  N   UNL A   1      43.323  29.373  28.776  1.00  0.00    -0.248 NA
ATOM     48  C   UNL A   1      42.267  29.396  26.702  1.00  0.00     0.031 C 
ATOM     49  C   UNL A   1      38.889  27.832  29.673  1.00  0.00     0.029 A 
ATOM     50  N   UNL A   1      39.912  29.763  30.052  1.00  0.00    -0.354 N 
ATOM     51  C   UNL A   1      44.041  30.148  27.888  1.00  0.00     0.074 A 
ATOM     52  C   UNL A   1      43.500  29.892  26.579  1.00  0.00     0.031 C 
ATOM     53  C   UNL A   1      37.975  28.654  30.242  1.00  0.00     0.029 A 
ATOM     54  C   UNL A   1      38.612  29.929  30.516  1.00  0.00     0.049 A 
ATOM     55  H   UNL A   1      40.619  30.436  30.185  1.00  0.00     0.167 HD
ATOM     56  C   UNL A   1      44.727  31.222  28.354  1.00  0.00     0.037 A 
ATOM     57  C   UNL A   1      38.125  31.093  31.010  1.00  0.00     0.037 A 
ATOM     58  C   UNL A   1      44.828  31.202  29.791  1.00  0.00     0.049 A 
ATOM     59  C   UNL A   1      39.295  31.884  31.478  1.00  0.00     0.074 A 
ATOM     60  C   UNL A   1      45.620  30.566  30.722  1.00  0.00     0.029 A 
ATOM     61  N   UNL A   1      43.687  31.609  30.440  1.00  0.00    -0.354 N 
ATOM     62  N   UNL A   1      40.049  31.516  32.480  1.00  0.00    -0.248 NA
ATOM     63  C   UNL A   1      39.882  32.888  30.595  1.00  0.00     0.031 C 
ATOM     64  C   UNL A   1      44.870  30.524  31.935  1.00  0.00     0.029 A 
ATOM     65  C   UNL A   1      43.648  31.161  31.734  1.00  0.00     0.049 A 
ATOM     66  H   UNL A   1      42.982  32.158  30.024  1.00  0.00     0.167 HD
ATOM     67  C   UNL A   1      41.320  31.924  32.124  1.00  0.00     0.074 A 
ATOM     68  C   UNL A   1      41.136  32.896  31.056  1.00  0.00     0.031 C 
ATOM     69  C   UNL A   1      42.414  31.197  32.488  1.00  0.00     0.037 A 
BRANCH  56  70
ATOM     70  C   UNL A   1      44.853  32.488  27.569  1.00  0.00     0.064 A 
ATOM     71  C   UNL A   1      46.019  32.730  26.833  1.00  0.00     0.173 A 
ATOM     72  C   UNL A   1      43.968  33.581  27.712  1.00  0.00     0.173 A 
ATOM     73  F   UNL A   1      46.948  31.771  26.702  1.00  0.00    -0.203 F 
ATOM     74  C   UNL A   1      46.277  33.982  26.273  1.00  0.00     0.198 A 
ATOM     75  C   UNL A   1      44.193  34.806  27.095  1.00  0.00     0.198 A 
ATOM     76  F   UNL A   1      42.915  33.539  28.540  1.00  0.00    -0.203 F 
ATOM     77  F   UNL A   1      47.444  34.204  25.652  1.00  0.00    -0.200 F 
ATOM     78  C   UNL A   1      45.359  35.013  26.392  1.00  0.00     0.200 A 
ATOM     79  F   UNL A   1      43.304  35.796  27.251  1.00  0.00    -0.200 F 
ATOM     80  F   UNL A   1      45.618  36.220  25.874  1.00  0.00    -0.200 F 
ENDBRANCH  56  70
BRANCH  57  81
ATOM     81  C   UNL A   1      36.814  31.719  30.729  1.00  0.00     0.064 A 
ATOM     82  C   UNL A   1      35.898  31.945  31.769  1.00  0.00     0.173 A 
ATOM     83  C   UNL A   1      36.574  32.397  29.518  1.00  0.00     0.173 A 
ATOM     84  F   UNL A   1      36.078  31.360  32.961  1.00  0.00    -0.203 F 
ATOM     85  C   UNL A   1      34.836  32.844  31.625  1.00  0.00     0.198 A 
ATOM     86  C   UNL A   1      35.512  33.291  29.376  1.00  0.00     0.198 A 
ATOM     87  F   UNL A   1      37.423  32.287  28.487  1.00  0.00    -0.203 F 
ATOM     88  F   UNL A   1      34.030  33.096  32.666  1.00  0.00    -0.200 F 
ATOM     89  C   UNL A   1      34.656  33.530  30.436  1.00  0.00     0.200 A 
ATOM     90  F   UNL A   1      35.369  33.976  28.233  1.00  0.00    -0.200 F 
ATOM     91  F   UNL A   1      33.691  34.452  30.326  1.00  0.00    -0.200 F 
ENDBRANCH  57  81
BRANCH  69  92
ATOM     92  C   UNL A   1      42.264  30.282  33.665  1.00  0.00     0.064 A 
ATOM     93  C   UNL A   1      42.428  30.676  35.004  1.00  0.00     0.173 A 
ATOM     94  C   UNL A   1      41.881  28.957  33.421  1.00  0.00     0.173 A 
ATOM     95  F   UNL A   1      42.725  31.944  35.316  1.00  0.00    -0.203 F 
ATOM     96  C   UNL A   1      42.250  29.765  36.047  1.00  0.00     0.198 A 
ATOM     97  C   UNL A   1      41.671  28.061  34.464  1.00  0.00     0.198 A 
ATOM     98  F   UNL A   1      41.678  28.540  32.162  1.00  0.00    -0.203 F 
ATOM     99  F   UNL A   1      42.429  30.154  37.319  1.00  0.00    -0.200 F 
ATOM    100  C   UNL A   1      41.865  28.461  35.775  1.00  0.00     0.200 A 
ATOM    101  F   UNL A   1      41.262  26.814  34.195  1.00  0.00    -0.200 F 
ATOM    102  F   UNL A   1      41.663  27.594  36.777  1.00  0.00    -0.200 F 
ENDBRANCH  69  92
ENDBRANCH  43  44
ENDBRANCH  36  38
ENDBRANCH  35  36
ENDBRANCH  34  35
ENDBRANCH  33  34
ENDBRANCH  32  33
ENDBRANCH  31  32
ENDBRANCH  30  31
ENDBRANCH  29  30
ENDBRANCH   1  29
TORSDOF 23
ENDMDL
MODEL 2
REMARK VINA RESULT:     -10.5      3.119      9.390
REMARK SMILES Cc1nc2nc(CNC(=O)OC(C)(C)C)nn2c(C)c1CCC(=O)OCCOCCOCCOC(=O)c1ccc(-c2c3nc(c(-c4c(F)c(F)c(F)c(F)c4F)c4ccc([nH]4)c(-c4c(F)c(F)c(F)c(F)c4F)c4nc(c(-c5c(F)c(F)c(F)c(F)c5F)c5ccc2[nH]5)C=C4)C=C3)cc1
REMARK SMILES IDX 27 1 26 2 25 3 23 4 24 5 22 6 21 7 20 8 1 9 2 10 3 11 4 12
REMARK SMILES IDX 18 13 5 14 17 15 19 16 6 17 16 18 7 19 8 20 9 21 10 23 11 24
REMARK SMILES IDX 12 25 13 26 14 27 15 28 28 29 29 30 30 31 31 32 32 33 33 34
REMARK SMILES IDX 34 35 35 36 36 37 37 38 38 39 99 40 39 41 98 42 40 43 41 44
REMARK SMILES IDX 42 45 92 46 43 47 97 48 91 49 93 50 44 51 96 52 90 53 89 54
REMARK SMILES IDX 45 56 77 57 57 58 76 59 58 60 61 61 75 62 94 63 59 64 60 65
REMARK SMILES IDX 74 67 95 68 62 69 46 70 47 71 55 72 48 73 49 74 53 75 56 76
REMARK SMILES IDX 50 77 51 78 54 79 52 80 78 81 79 82 87 83 80 84 81 85 85 86
REMARK SMILES IDX 88 87 82 88 83 89 86 90 84 91 63 92 64 93 72 94 65 95 66 96
REMARK SMILES IDX 70 97 73 98 67 99 68 100 71 101 69 102
REMARK H PARENT 8 22 93 55 61 66
REMARK Flexibility Score: inf
ROOT
ATOM      1  C   UNL A   1      35.125  29.515  27.391  1.00  0.00     0.202 C 
ENDROOT
BRANCH   1   2
ATOM      2  C   UNL A   1      34.308  28.824  26.268  1.00  0.00     0.261 C 
BRANCH   2   3
ATOM      3  O   UNL A   1      33.254  29.644  25.683  1.00  0.00    -0.463 OA
BRANCH   3   4
ATOM      4  C   UNL A   1      31.955  29.359  25.931  1.00  0.00     0.306 C 
ATOM      5  O   UNL A   1      31.540  29.005  27.028  1.00  0.00    -0.252 OA
BRANCH   4   6
ATOM      6  C   UNL A   1      31.038  29.491  24.706  1.00  0.00     0.127 C 
BRANCH   6   7
ATOM      7  C   UNL A   1      30.640  28.278  23.818  1.00  0.00     0.051 C 
BRANCH   7   8
ATOM      8  C   UNL A   1      31.629  27.127  23.694  1.00  0.00    -0.005 A 
ATOM      9  C   UNL A   1      33.432  28.467  22.340  1.00  0.00     0.067 C 
ATOM     10  C   UNL A   1      33.008  27.182  23.016  1.00  0.00     0.046 A 
ATOM     11  N   UNL A   1      33.902  26.220  23.003  1.00  0.00    -0.216 NA
ATOM     12  C   UNL A   1      33.601  25.068  23.672  1.00  0.00     0.252 A 
ATOM     13  C   UNL A   1      31.487  25.979  24.374  1.00  0.00     0.048 A 
ATOM     14  N   UNL A   1      34.335  24.040  24.081  1.00  0.00    -0.192 NA
ATOM     15  N   UNL A   1      32.359  24.930  24.241  1.00  0.00    -0.201 N 
ATOM     16  C   UNL A   1      30.584  25.743  25.503  1.00  0.00     0.067 C 
ATOM     17  C   UNL A   1      33.450  23.285  24.819  1.00  0.00     0.172 A 
ATOM     18  N   UNL A   1      32.198  23.718  24.786  1.00  0.00    -0.148 NA
BRANCH  17  19
ATOM     19  C   UNL A   1      33.723  22.078  25.629  1.00  0.00     0.199 C 
BRANCH  19  20
ATOM     20  N   UNL A   1      34.904  21.439  25.090  1.00  0.00    -0.314 N 
ATOM     21  C   UNL A   1      35.070  20.102  25.028  1.00  0.00     0.408 C 
ATOM     22  H   UNL A   1      35.628  22.013  24.748  1.00  0.00     0.167 HD
ATOM     23  O   UNL A   1      36.145  19.584  24.753  1.00  0.00    -0.225 OA
BRANCH  21  24
ATOM     24  O   UNL A   1      33.923  19.468  25.334  1.00  0.00    -0.444 OA
BRANCH  24  25
ATOM     25  C   UNL A   1      33.371  18.453  24.476  1.00  0.00     0.106 C 
ATOM     26  C   UNL A   1      32.548  19.055  23.339  1.00  0.00     0.056 C 
ATOM     27  C   UNL A   1      34.495  17.541  23.980  1.00  0.00     0.056 C 
ATOM     28  C   UNL A   1      32.446  17.656  25.406  1.00  0.00     0.056 C 
ENDBRANCH  24  25
ENDBRANCH  21  24
ENDBRANCH  19  20
ENDBRANCH  17  19
ENDBRANCH   7   8
ENDBRANCH   6   7
ENDBRANCH   4   6
ENDBRANCH   3   4
ENDBRANCH   2   3
ENDBRANCH   1   2
BRANCH   1  29
ATOM     29  O   UNL A   1      34.388  30.420  28.207  1.00  0.00    -0.376 OA
BRANCH  29  30
ATOM     30  C   UNL A   1      34.487  31.797  27.876  1.00  0.00     0.188 C 
BRANCH  30  31
ATOM     31  C   UNL A   1      35.045  32.665  28.996  1.00  0.00     0.188 C 
BRANCH  31  32
ATOM     32  O   UNL A   1      34.251  32.857  30.172  1.00  0.00    -0.376 OA
BRANCH  32  33
ATOM     33  C   UNL A   1      34.599  33.975  31.003  1.00  0.00     0.202 C 
BRANCH  33  34
ATOM     34  C   UNL A   1      35.195  33.659  32.377  1.00  0.00     0.261 C 
BRANCH  34  35
ATOM     35  O   UNL A   1      35.445  32.279  32.490  1.00  0.00    -0.460 OA
BRANCH  35  36
ATOM     36  C   UNL A   1      36.733  31.989  32.784  1.00  0.00     0.338 C 
ATOM     37  O   UNL A   1      37.311  32.099  33.846  1.00  0.00    -0.246 OA
BRANCH  36  38
ATOM     38  C   UNL A   1      37.318  31.505  31.530  1.00  0.00     0.060 A 
ATOM     39  C   UNL A   1      36.820  30.307  31.045  1.00  0.00     0.016 A 
ATOM     40  C   UNL A   1      38.506  32.098  31.048  1.00  0.00     0.016 A 
ATOM     41  C   UNL A   1      37.740  29.493  30.454  1.00  0.00     0.010 A 
ATOM     42  C   UNL A   1      39.403  31.310  30.415  1.00  0.00     0.010 A 
ATOM     43  C   UNL A   1      39.049  29.979  30.340  1.00  0.00    -0.014 A 
BRANCH  43  44
ATOM     44  C   UNL A   1      40.112  29.024  30.292  1.00  0.00     0.031 A 
ATOM     45  C   UNL A   1      40.625  28.782  31.631  1.00  0.00     0.074 A 
ATOM     46  C   UNL A   1      40.516  28.483  29.130  1.00  0.00     0.049 A 
ATOM     47  N   UNL A   1      41.622  29.391  32.169  1.00  0.00    -0.248 NA
ATOM     48  C   UNL A   1      39.777  28.028  32.565  1.00  0.00     0.031 C 
ATOM     49  C   UNL A   1      39.843  28.492  27.825  1.00  0.00     0.029 A 
ATOM     50  N   UNL A   1      41.625  27.731  28.903  1.00  0.00    -0.354 N 
ATOM     51  C   UNL A   1      41.688  28.863  33.442  1.00  0.00     0.074 A 
ATOM     52  C   UNL A   1      40.404  28.274  33.717  1.00  0.00     0.031 C 
ATOM     53  C   UNL A   1      40.440  27.591  27.008  1.00  0.00     0.029 A 
ATOM     54  C   UNL A   1      41.620  27.077  27.676  1.00  0.00     0.049 A 
ATOM     55  H   UNL A   1      42.365  27.655  29.549  1.00  0.00     0.167 HD
ATOM     56  C   UNL A   1      42.904  28.597  33.984  1.00  0.00     0.037 A 
ATOM     57  C   UNL A   1      42.513  26.121  27.323  1.00  0.00     0.037 A 
ATOM     58  C   UNL A   1      43.966  29.204  33.223  1.00  0.00     0.049 A 
ATOM     59  C   UNL A   1      43.723  26.332  28.161  1.00  0.00     0.074 A 
ATOM     60  C   UNL A   1      44.525  30.460  33.125  1.00  0.00     0.029 A 
ATOM     61  N   UNL A   1      44.294  28.523  32.075  1.00  0.00    -0.354 N 
ATOM     62  N   UNL A   1      44.483  27.390  28.064  1.00  0.00    -0.248 NA
ATOM     63  C   UNL A   1      43.887  25.561  29.392  1.00  0.00     0.031 C 
ATOM     64  C   UNL A   1      45.124  30.540  31.832  1.00  0.00     0.029 A 
ATOM     65  C   UNL A   1      44.948  29.324  31.175  1.00  0.00     0.049 A 
ATOM     66  H   UNL A   1      44.085  27.574  31.918  1.00  0.00     0.167 HD
ATOM     67  C   UNL A   1      44.901  27.637  29.358  1.00  0.00     0.074 A 
ATOM     68  C   UNL A   1      44.650  26.405  30.092  1.00  0.00     0.031 C 
ATOM     69  C   UNL A   1      45.098  28.912  29.797  1.00  0.00     0.037 A 
BRANCH  56  70
ATOM     70  C   UNL A   1      43.140  27.417  34.871  1.00  0.00     0.064 A 
ATOM     71  C   UNL A   1      43.358  27.616  36.240  1.00  0.00     0.173 A 
ATOM     72  C   UNL A   1      43.402  26.117  34.381  1.00  0.00     0.173 A 
ATOM     73  F   UNL A   1      43.200  28.834  36.781  1.00  0.00    -0.203 F 
ATOM     74  C   UNL A   1      43.802  26.580  37.062  1.00  0.00     0.198 A 
ATOM     75  C   UNL A   1      43.777  25.071  35.214  1.00  0.00     0.198 A 
ATOM     76  F   UNL A   1      43.412  25.842  33.069  1.00  0.00    -0.203 F 
ATOM     77  F   UNL A   1      44.087  26.828  38.348  1.00  0.00    -0.200 F 
ATOM     78  C   UNL A   1      43.997  25.306  36.552  1.00  0.00     0.200 A 
ATOM     79  F   UNL A   1      43.988  23.855  34.690  1.00  0.00    -0.200 F 
ATOM     80  F   UNL A   1      44.445  24.319  37.337  1.00  0.00    -0.200 F 
ENDBRANCH  56  70
BRANCH  57  81
ATOM     81  C   UNL A   1      42.242  24.835  26.641  1.00  0.00     0.064 A 
ATOM     82  C   UNL A   1      43.082  24.389  25.608  1.00  0.00     0.173 A 
ATOM     83  C   UNL A   1      41.369  23.882  27.201  1.00  0.00     0.173 A 
ATOM     84  F   UNL A   1      43.962  25.230  25.047  1.00  0.00    -0.203 F 
ATOM     85  C   UNL A   1      43.090  23.052  25.199  1.00  0.00     0.198 A 
ATOM     86  C   UNL A   1      41.378  22.549  26.790  1.00  0.00     0.198 A 
ATOM     87  F   UNL A   1      40.570  24.201  28.229  1.00  0.00    -0.203 F 
ATOM     88  F   UNL A   1      43.964  22.644  24.267  1.00  0.00    -0.200 F 
ATOM     89  C   UNL A   1      42.252  22.130  25.805  1.00  0.00     0.200 A 
ATOM     90  F   UNL A   1      40.588  21.659  27.407  1.00  0.00    -0.200 F 
ATOM     91  F   UNL A   1      42.320  20.833  25.472  1.00  0.00    -0.200 F 
ENDBRANCH  57  81
BRANCH  69  92
ATOM     92  C   UNL A   1      45.348  29.960  28.756  1.00  0.00     0.064 A 
ATOM     93  C   UNL A   1      46.596  30.205  28.158  1.00  0.00     0.173 A 
ATOM     94  C   UNL A   1      44.256  30.714  28.309  1.00  0.00     0.173 A 
ATOM     95  F   UNL A   1      47.670  29.475  28.487  1.00  0.00    -0.203 F 
ATOM     96  C   UNL A   1      46.742  31.188  27.179  1.00  0.00     0.198 A 
ATOM     97  C   UNL A   1      44.398  31.670  27.308  1.00  0.00     0.198 A 
ATOM     98  F   UNL A   1      43.035  30.496  28.824  1.00  0.00    -0.203 F 
ATOM     99  F   UNL A   1      47.945  31.420  26.631  1.00  0.00    -0.200 F 
ATOM    100  C   UNL A   1      45.642  31.915  26.751  1.00  0.00     0.200 A 
ATOM    101  F   UNL A   1      43.323  32.341  26.873  1.00  0.00    -0.200 F 
ATOM    102  F   UNL A   1      45.775  32.838  25.789  1.00  0.00    -0.200 F 
ENDBRANCH  69  92
ENDBRANCH  43  44
ENDBRANCH  36  38
ENDBRANCH  35  36
ENDBRANCH  34  35
ENDBRANCH  33  34
ENDBRANCH  32  33
ENDBRANCH  31  32
ENDBRANCH  30  31
ENDBRANCH  29  30
ENDBRANCH   1  29
TORSDOF 23
ENDMDL
MODEL 3
REMARK VINA RESULT:     -10.4      5.739     11.950
REMARK SMILES Cc1nc2nc(CNC(=O)OC(C)(C)C)nn2c(C)c1CCC(=O)OCCOCCOCCOC(=O)c1ccc(-c2c3nc(c(-c4c(F)c(F)c(F)c(F)c4F)c4ccc([nH]4)c(-c4c(F)c(F)c(F)c(F)c4F)c4nc(c(-c5c(F)c(F)c(F)c(F)c5F)c5ccc2[nH]5)C=C4)C=C3)cc1
REMARK SMILES IDX 27 1 26 2 25 3 23 4 24 5 22 6 21 7 20 8 1 9 2 10 3 11 4 12
REMARK SMILES IDX 18 13 5 14 17 15 19 16 6 17 16 18 7 19 8 20 9 21 10 23 11 24
REMARK SMILES IDX 12 25 13 26 14 27 15 28 28 29 29 30 30 31 31 32 32 33 33 34
REMARK SMILES IDX 34 35 35 36 36 37 37 38 38 39 99 40 39 41 98 42 40 43 41 44
REMARK SMILES IDX 42 45 92 46 43 47 97 48 91 49 93 50 44 51 96 52 90 53 89 54
REMARK SMILES IDX 45 56 77 57 57 58 76 59 58 60 61 61 75 62 94 63 59 64 60 65
REMARK SMILES IDX 74 67 95 68 62 69 46 70 47 71 55 72 48 73 49 74 53 75 56 76
REMARK SMILES IDX 50 77 51 78 54 79 52 80 78 81 79 82 87 83 80 84 81 85 85 86
REMARK SMILES IDX 88 87 82 88 83 89 86 90 84 91 63 92 64 93 72 94 65 95 66 96
REMARK SMILES IDX 70 97 73 98 67 99 68 100 71 101 69 102
REMARK H PARENT 8 22 93 55 61 66
REMARK Flexibility Score: inf
ROOT
ATOM      1  C   UNL A   1      35.152  34.404  34.042  1.00  0.00     0.202 C 
ENDROOT
BRANCH   1   2
ATOM      2  C   UNL A   1      36.426  33.766  34.654  1.00  0.00     0.261 C 
BRANCH   2   3
ATOM      3  O   UNL A   1      36.337  33.466  36.078  1.00  0.00    -0.463 OA
BRANCH   3   4
ATOM      4  C   UNL A   1      37.433  33.053  36.755  1.00  0.00     0.306 C 
ATOM      5  O   UNL A   1      37.415  32.142  37.574  1.00  0.00    -0.252 OA
BRANCH   4   6
ATOM      6  C   UNL A   1      38.709  33.842  36.426  1.00  0.00     0.127 C 
BRANCH   6   7
ATOM      7  C   UNL A   1      40.082  33.156  36.177  1.00  0.00     0.051 C 
BRANCH   7   8
ATOM      8  C   UNL A   1      40.660  33.200  34.768  1.00  0.00    -0.005 A 
ATOM      9  C   UNL A   1      39.015  31.430  33.748  1.00  0.00     0.067 C 
ATOM     10  C   UNL A   1      40.153  32.408  33.553  1.00  0.00     0.046 A 
ATOM     11  N   UNL A   1      40.584  32.527  32.318  1.00  0.00    -0.216 NA
ATOM     12  C   UNL A   1      41.554  33.457  32.074  1.00  0.00     0.252 A 
ATOM     13  C   UNL A   1      41.552  34.126  34.385  1.00  0.00     0.048 A 
ATOM     14  N   UNL A   1      42.014  34.014  30.961  1.00  0.00    -0.192 NA
ATOM     15  N   UNL A   1      42.096  34.150  33.128  1.00  0.00    -0.201 N 
ATOM     16  C   UNL A   1      41.894  35.355  35.105  1.00  0.00     0.067 C 
ATOM     17  C   UNL A   1      42.887  34.976  31.419  1.00  0.00     0.172 A 
ATOM     18  N   UNL A   1      43.084  34.960  32.729  1.00  0.00    -0.148 NA
BRANCH  17  19
ATOM     19  C   UNL A   1      43.614  36.005  30.642  1.00  0.00     0.199 C 
BRANCH  19  20
ATOM     20  N   UNL A   1      43.893  35.457  29.332  1.00  0.00    -0.314 N 
ATOM     21  C   UNL A   1      44.080  36.211  28.230  1.00  0.00     0.408 C 
ATOM     22  H   UNL A   1      43.949  34.478  29.239  1.00  0.00     0.167 HD
ATOM     23  O   UNL A   1      44.119  35.731  27.103  1.00  0.00    -0.225 OA
BRANCH  21  24
ATOM     24  O   UNL A   1      44.181  37.512  28.557  1.00  0.00    -0.444 OA
BRANCH  24  25
ATOM     25  C   UNL A   1      43.238  38.485  28.075  1.00  0.00     0.106 C 
ATOM     26  C   UNL A   1      43.776  39.247  26.864  1.00  0.00     0.056 C 
ATOM     27  C   UNL A   1      41.897  37.802  27.801  1.00  0.00     0.056 C 
ATOM     28  C   UNL A   1      43.080  39.454  29.255  1.00  0.00     0.056 C 
ENDBRANCH  24  25
ENDBRANCH  21  24
ENDBRANCH  19  20
ENDBRANCH  17  19
ENDBRANCH   7   8
ENDBRANCH   6   7
ENDBRANCH   4   6
ENDBRANCH   3   4
ENDBRANCH   2   3
ENDBRANCH   1   2
BRANCH   1  29
ATOM     29  O   UNL A   1      35.306  35.743  33.582  1.00  0.00    -0.376 OA
BRANCH  29  30
ATOM     30  C   UNL A   1      34.255  36.264  32.782  1.00  0.00     0.188 C 
BRANCH  30  31
ATOM     31  C   UNL A   1      33.256  35.216  32.312  1.00  0.00     0.188 C 
BRANCH  31  32
ATOM     32  O   UNL A   1      33.176  34.928  30.911  1.00  0.00    -0.376 OA
BRANCH  32  33
ATOM     33  C   UNL A   1      34.363  34.401  30.297  1.00  0.00     0.202 C 
BRANCH  33  34
ATOM     34  C   UNL A   1      34.642  32.909  30.495  1.00  0.00     0.261 C 
BRANCH  34  35
ATOM     35  O   UNL A   1      35.887  32.729  31.122  1.00  0.00    -0.460 OA
BRANCH  35  36
ATOM     36  C   UNL A   1      36.193  31.431  31.346  1.00  0.00     0.338 C 
ATOM     37  O   UNL A   1      35.903  30.735  32.298  1.00  0.00    -0.246 OA
BRANCH  36  38
ATOM     38  C   UNL A   1      36.976  31.011  30.179  1.00  0.00     0.060 A 
ATOM     39  C   UNL A   1      36.695  29.753  29.673  1.00  0.00     0.016 A 
ATOM     40  C   UNL A   1      38.126  31.748  29.818  1.00  0.00     0.016 A 
ATOM     41  C   UNL A   1      37.773  29.058  29.213  1.00  0.00     0.010 A 
ATOM     42  C   UNL A   1      39.184  31.075  29.312  1.00  0.00     0.010 A 
ATOM     43  C   UNL A   1      39.013  29.709  29.234  1.00  0.00    -0.014 A 
BRANCH  43  44
ATOM     44  C   UNL A   1      40.189  28.900  29.332  1.00  0.00     0.031 A 
ATOM     45  C   UNL A   1      40.535  28.692  30.729  1.00  0.00     0.074 A 
ATOM     46  C   UNL A   1      40.820  28.444  28.236  1.00  0.00     0.049 A 
ATOM     47  N   UNL A   1      41.358  29.411  31.408  1.00  0.00    -0.248 NA
ATOM     48  C   UNL A   1      39.670  27.813  31.527  1.00  0.00     0.031 C 
ATOM     49  C   UNL A   1      40.342  28.400  26.848  1.00  0.00     0.029 A 
ATOM     50  N   UNL A   1      42.039  27.847  28.166  1.00  0.00    -0.354 N 
ATOM     51  C   UNL A   1      41.314  28.864  32.674  1.00  0.00     0.074 A 
ATOM     52  C   UNL A   1      40.091  28.109  32.759  1.00  0.00     0.031 C 
ATOM     53  C   UNL A   1      41.160  27.603  26.120  1.00  0.00     0.029 A 
ATOM     54  C   UNL A   1      42.292  27.228  26.947  1.00  0.00     0.049 A 
ATOM     55  H   UNL A   1      42.683  27.851  28.910  1.00  0.00     0.167 HD
ATOM     56  C   UNL A   1      42.465  28.744  33.382  1.00  0.00     0.037 A 
ATOM     57  C   UNL A   1      43.343  26.404  26.719  1.00  0.00     0.037 A 
ATOM     58  C   UNL A   1      43.535  29.501  32.784  1.00  0.00     0.049 A 
ATOM     59  C   UNL A   1      44.385  26.748  27.722  1.00  0.00     0.074 A 
ATOM     60  C   UNL A   1      43.933  30.820  32.775  1.00  0.00     0.029 A 
ATOM     61  N   UNL A   1      44.108  28.897  31.691  1.00  0.00    -0.354 N 
ATOM     62  N   UNL A   1      45.006  27.898  27.741  1.00  0.00    -0.248 NA
ATOM     63  C   UNL A   1      44.473  25.975  28.959  1.00  0.00     0.031 C 
ATOM     64  C   UNL A   1      44.692  31.009  31.582  1.00  0.00     0.029 A 
ATOM     65  C   UNL A   1      44.771  29.798  30.899  1.00  0.00     0.049 A 
ATOM     66  H   UNL A   1      44.048  27.932  31.500  1.00  0.00     0.167 HD
ATOM     67  C   UNL A   1      45.201  28.164  29.083  1.00  0.00     0.074 A 
ATOM     68  C   UNL A   1      45.013  26.892  29.766  1.00  0.00     0.031 C 
ATOM     69  C   UNL A   1      45.166  29.443  29.554  1.00  0.00     0.037 A 
BRANCH  56  70
ATOM     70  C   UNL A   1      42.726  27.582  34.287  1.00  0.00     0.064 A 
ATOM     71  C   UNL A   1      43.213  26.385  33.748  1.00  0.00     0.173 A 
ATOM     72  C   UNL A   1      42.282  27.528  35.628  1.00  0.00     0.173 A 
ATOM     73  F   UNL A   1      43.593  26.325  32.463  1.00  0.00    -0.203 F 
ATOM     74  C   UNL A   1      43.258  25.214  34.506  1.00  0.00     0.198 A 
ATOM     75  C   UNL A   1      42.393  26.379  36.401  1.00  0.00     0.198 A 
ATOM     76  F   UNL A   1      41.627  28.547  36.200  1.00  0.00    -0.203 F 
ATOM     77  F   UNL A   1      43.645  24.066  33.933  1.00  0.00    -0.200 F 
ATOM     78  C   UNL A   1      42.862  25.215  35.835  1.00  0.00     0.200 A 
ATOM     79  F   UNL A   1      41.975  26.399  37.675  1.00  0.00    -0.200 F 
ATOM     80  F   UNL A   1      42.884  24.087  36.554  1.00  0.00    -0.200 F 
ENDBRANCH  56  70
BRANCH  57  81
ATOM     81  C   UNL A   1      43.342  25.112  25.997  1.00  0.00     0.064 A 
ATOM     82  C   UNL A   1      44.363  24.809  25.082  1.00  0.00     0.173 A 
ATOM     83  C   UNL A   1      42.540  24.037  26.428  1.00  0.00     0.173 A 
ATOM     84  F   UNL A   1      45.187  25.774  24.651  1.00  0.00    -0.203 F 
ATOM     85  C   UNL A   1      44.606  23.495  24.668  1.00  0.00     0.198 A 
ATOM     86  C   UNL A   1      42.784  22.727  26.011  1.00  0.00     0.198 A 
ATOM     87  F   UNL A   1      41.576  24.220  27.341  1.00  0.00    -0.203 F 
ATOM     88  F   UNL A   1      45.642  23.232  23.858  1.00  0.00    -0.200 F 
ATOM     89  C   UNL A   1      43.829  22.454  25.149  1.00  0.00     0.200 A 
ATOM     90  F   UNL A   1      42.047  21.725  26.510  1.00  0.00    -0.200 F 
ATOM     91  F   UNL A   1      44.115  21.188  24.818  1.00  0.00    -0.200 F 
ENDBRANCH  57  81
BRANCH  69  92
ATOM     92  C   UNL A   1      45.421  30.540  28.566  1.00  0.00     0.064 A 
ATOM     93  C   UNL A   1      44.423  31.183  27.816  1.00  0.00     0.173 A 
ATOM     94  C   UNL A   1      46.738  30.994  28.417  1.00  0.00     0.173 A 
ATOM     95  F   UNL A   1      43.134  30.849  27.959  1.00  0.00    -0.203 F 
ATOM     96  C   UNL A   1      44.742  32.213  26.930  1.00  0.00     0.198 A 
ATOM     97  C   UNL A   1      47.049  32.043  27.559  1.00  0.00     0.198 A 
ATOM     98  F   UNL A   1      47.725  30.436  29.136  1.00  0.00    -0.203 F 
ATOM     99  F   UNL A   1      43.778  32.804  26.208  1.00  0.00    -0.200 F 
ATOM    100  C   UNL A   1      46.054  32.645  26.808  1.00  0.00     0.200 A 
ATOM    101  F   UNL A   1      48.312  32.481  27.475  1.00  0.00    -0.200 F 
ATOM    102  F   UNL A   1      46.357  33.656  25.980  1.00  0.00    -0.200 F 
ENDBRANCH  69  92
ENDBRANCH  43  44
ENDBRANCH  36  38
ENDBRANCH  35  36
ENDBRANCH  34  35
ENDBRANCH  33  34
ENDBRANCH  32  33
ENDBRANCH  31  32
ENDBRANCH  30  31
ENDBRANCH  29  30
ENDBRANCH   1  29
TORSDOF 23
ENDMDL
