MODEL 1
REMARK VINA RESULT:     -13.1      0.000      0.000
REMARK SMILES Cc1ccc(-c2nn(-c3ccccc3)cc2[C@@H]2[NH2+][C@H](C(=O)OCCOCCOCCOC(=O)c3ccc(-c4c5nc(c(-c6c(F)c(F)c(F)c(F)c6F)c6ccc([nH]6)c(-c6c(F)c(F)c(F)c(F)c6F)c6nc(c(-c7c(F)c(F)c(F)c(F)c7F)c7ccc4[nH]7)C=C6)C=C5)cc3)CS2)cc1
REMARK SMILES IDX 26 1 25 2 24 3 23 4 22 5 20 6 21 7 19 8 17 9 18 10 98 11
REMARK SMILES IDX 97 14 16 15 6 16 7 17 8 18 15 19 5 20 1 21 2 22 3 23 100 24
REMARK SMILES IDX 4 25 99 26 9 27 10 28 14 29 11 30 13 31 12 32 27 33 28 34
REMARK SMILES IDX 29 35 30 36 31 37 32 38 33 39 34 40 35 41 96 42 36 43 95 44
REMARK SMILES IDX 37 45 38 46 39 47 89 48 40 49 94 50 88 51 90 52 41 53 93 54
REMARK SMILES IDX 87 55 86 56 42 58 74 59 54 60 73 61 55 62 58 63 72 64 91 65
REMARK SMILES IDX 56 66 57 67 71 69 92 70 59 71 43 72 44 73 52 74 45 75 46 76
REMARK SMILES IDX 50 77 53 78 47 79 48 80 51 81 49 82 75 83 76 84 84 85 77 86
REMARK SMILES IDX 78 87 82 88 85 89 79 90 80 91 83 92 81 93 60 94 61 95 69 96
REMARK SMILES IDX 62 97 63 98 67 99 70 100 64 101 65 102 68 103 66 104
REMARK H PARENT 18 12 18 13 90 57 58 68
REMARK Flexibility Score: inf
ROOT
ATOM      1  C   UNL A   1      33.016  29.119  26.040  1.00  0.00     0.188 C 
ENDROOT
BRANCH   1   2
ATOM      2  O   UNL A   1      32.518  27.903  25.453  1.00  0.00    -0.376 OA
BRANCH   2   3
ATOM      3  C   UNL A   1      32.925  26.543  25.708  1.00  0.00     0.202 C 
BRANCH   3   4
ATOM      4  C   UNL A   1      34.329  25.620  25.210  1.00  0.00     0.261 C 
BRANCH   4   5
ATOM      5  O   UNL A   1      35.359  24.461  25.875  1.00  0.00    -0.459 OA
BRANCH   5   6
ATOM      6  C   UNL A   1      36.495  23.678  25.637  1.00  0.00     0.365 C 
ATOM      7  O   UNL A   1      37.432  23.890  24.851  1.00  0.00    -0.245 OA
BRANCH   6   8
ATOM      8  C   UNL A   1      36.735  22.367  26.346  1.00  0.00     0.304 C 
ATOM      9  C   UNL A   1      35.510  20.714  25.197  1.00  0.00     0.278 C 
ATOM     10  N   UNL A   1      35.603  21.466  26.454  1.00  0.00    -0.319 N 
ATOM     11  S   UNL A   1      37.143  20.642  24.431  1.00  0.00    -0.087 SA
ATOM     12  H   UNL A   1      35.743  20.824  27.235  1.00  0.00     0.348 HD
ATOM     13  H   UNL A   1      34.744  21.991  26.622  1.00  0.00     0.348 HD
ATOM     14  C   UNL A   1      37.923  21.625  25.727  1.00  0.00     0.153 C 
BRANCH   9  15
ATOM     15  C   UNL A   1      34.413  21.325  24.384  1.00  0.00     0.067 A 
ATOM     16  C   UNL A   1      33.124  20.740  24.237  1.00  0.00     0.103 A 
ATOM     17  N   UNL A   1      32.268  21.520  23.570  1.00  0.00    -0.167 NA
ATOM     18  N   UNL A   1      33.005  22.597  23.199  1.00  0.00    -0.240 N 
ATOM     19  C   UNL A   1      34.325  22.465  23.610  1.00  0.00     0.126 A 
BRANCH  16  20
ATOM     20  C   UNL A   1      32.877  19.340  24.509  1.00  0.00     0.003 A 
ATOM     21  C   UNL A   1      33.083  15.102  25.108  1.00  0.00     0.044 C 
ATOM     22  C   UNL A   1      33.020  16.585  24.913  1.00  0.00    -0.051 A 
ATOM     23  C   UNL A   1      32.691  17.441  25.979  1.00  0.00     0.004 A 
ATOM     24  C   UNL A   1      33.277  17.120  23.648  1.00  0.00     0.004 A 
ATOM     25  C   UNL A   1      32.624  18.824  25.781  1.00  0.00     0.011 A 
ATOM     26  C   UNL A   1      33.198  18.486  23.449  1.00  0.00     0.011 A 
ENDBRANCH  16  20
BRANCH  18  27
ATOM     27  C   UNL A   1      32.381  23.772  22.659  1.00  0.00     0.065 A 
ATOM     28  C   UNL A   1      31.215  24.289  23.248  1.00  0.00     0.028 A 
ATOM     29  C   UNL A   1      33.028  24.526  21.678  1.00  0.00     0.028 A 
ATOM     30  C   UNL A   1      30.748  25.559  22.886  1.00  0.00     0.002 A 
ATOM     31  C   UNL A   1      32.549  25.785  21.303  1.00  0.00     0.002 A 
ATOM     32  C   UNL A   1      31.415  26.305  21.915  1.00  0.00     0.000 A 
ENDBRANCH  18  27
ENDBRANCH   9  15
ENDBRANCH   6   8
ENDBRANCH   5   6
ENDBRANCH   4   5
ENDBRANCH   3   4
ENDBRANCH   2   3
ENDBRANCH   1   2
BRANCH   1  33
ATOM     33  C   UNL A   1      33.854  29.220  27.302  1.00  0.00     0.188 C 
BRANCH  33  34
ATOM     34  O   UNL A   1      34.791  30.268  27.219  1.00  0.00    -0.376 OA
BRANCH  34  35
ATOM     35  C   UNL A   1      34.273  31.554  27.528  1.00  0.00     0.202 C 
BRANCH  35  36
ATOM     36  C   UNL A   1      34.355  31.952  29.025  1.00  0.00     0.261 C 
BRANCH  36  37
ATOM     37  O   UNL A   1      34.012  33.348  29.237  1.00  0.00    -0.460 OA
BRANCH  37  38
ATOM     38  C   UNL A   1      34.620  34.031  30.276  1.00  0.00     0.338 C 
ATOM     39  O   UNL A   1      34.052  34.796  31.020  1.00  0.00    -0.246 OA
BRANCH  38  40
ATOM     40  C   UNL A   1      36.118  33.845  30.207  1.00  0.00     0.060 A 
ATOM     41  C   UNL A   1      36.971  33.822  29.088  1.00  0.00     0.016 A 
ATOM     42  C   UNL A   1      36.658  33.343  31.328  1.00  0.00     0.016 A 
ATOM     43  C   UNL A   1      38.257  33.094  29.092  1.00  0.00     0.010 A 
ATOM     44  C   UNL A   1      37.682  32.425  31.157  1.00  0.00     0.010 A 
ATOM     45  C   UNL A   1      38.633  32.228  30.122  1.00  0.00    -0.014 A 
BRANCH  45  46
ATOM     46  C   UNL A   1      39.975  31.184  30.250  1.00  0.00     0.031 A 
ATOM     47  C   UNL A   1      40.251  29.561  29.820  1.00  0.00     0.074 A 
ATOM     48  C   UNL A   1      41.145  31.835  30.427  1.00  0.00     0.049 A 
ATOM     49  N   UNL A   1      41.377  29.122  29.280  1.00  0.00    -0.248 NA
ATOM     50  C   UNL A   1      39.347  28.373  29.834  1.00  0.00     0.031 C 
ATOM     51  C   UNL A   1      42.536  31.445  30.143  1.00  0.00     0.029 A 
ATOM     52  N   UNL A   1      41.321  33.084  31.028  1.00  0.00    -0.354 N 
ATOM     53  C   UNL A   1      41.230  27.827  28.766  1.00  0.00     0.074 A 
ATOM     54  C   UNL A   1      39.894  27.442  29.050  1.00  0.00     0.031 C 
ATOM     55  C   UNL A   1      43.356  32.173  30.921  1.00  0.00     0.029 A 
ATOM     56  C   UNL A   1      42.492  32.941  31.795  1.00  0.00     0.049 A 
ATOM     57  H   UNL A   1      40.754  33.884  30.936  1.00  0.00     0.167 HD
ATOM     58  C   UNL A   1      42.265  27.016  28.394  1.00  0.00     0.037 A 
ATOM     59  C   UNL A   1      42.325  32.769  33.136  1.00  0.00     0.037 A 
ATOM     60  C   UNL A   1      43.388  27.365  29.235  1.00  0.00     0.049 A 
ATOM     61  C   UNL A   1      42.779  31.380  33.540  1.00  0.00     0.074 A 
ATOM     62  C   UNL A   1      44.427  28.266  29.146  1.00  0.00     0.029 A 
ATOM     63  N   UNL A   1      43.231  27.075  30.587  1.00  0.00    -0.354 N 
ATOM     64  N   UNL A   1      42.886  30.357  32.726  1.00  0.00    -0.248 NA
ATOM     65  C   UNL A   1      43.248  31.070  34.882  1.00  0.00     0.031 C 
ATOM     66  C   UNL A   1      44.687  28.713  30.486  1.00  0.00     0.029 A 
ATOM     67  C   UNL A   1      43.869  28.017  31.372  1.00  0.00     0.049 A 
ATOM     68  H   UNL A   1      42.732  26.302  30.937  1.00  0.00     0.167 HD
ATOM     69  C   UNL A   1      43.423  29.291  33.387  1.00  0.00     0.074 A 
ATOM     70  C   UNL A   1      43.641  29.794  34.734  1.00  0.00     0.031 C 
ATOM     71  C   UNL A   1      43.633  28.064  32.820  1.00  0.00     0.037 A 
BRANCH  58  72
ATOM     72  C   UNL A   1      42.226  25.866  27.381  1.00  0.00     0.064 A 
ATOM     73  C   UNL A   1      41.496  24.684  27.649  1.00  0.00     0.173 A 
ATOM     74  C   UNL A   1      43.048  25.771  26.232  1.00  0.00     0.173 A 
ATOM     75  F   UNL A   1      40.669  24.617  28.702  1.00  0.00    -0.203 F 
ATOM     76  C   UNL A   1      41.628  23.510  26.879  1.00  0.00     0.198 A 
ATOM     77  C   UNL A   1      43.183  24.601  25.465  1.00  0.00     0.198 A 
ATOM     78  F   UNL A   1      43.829  26.784  25.842  1.00  0.00    -0.203 F 
ATOM     79  F   UNL A   1      40.947  22.406  27.219  1.00  0.00    -0.200 F 
ATOM     80  C   UNL A   1      42.484  23.464  25.798  1.00  0.00     0.200 A 
ATOM     81  F   UNL A   1      44.041  24.580  24.433  1.00  0.00    -0.200 F 
ATOM     82  F   UNL A   1      42.654  22.333  25.096  1.00  0.00    -0.200 F 
ENDBRANCH  58  72
BRANCH  59  83
ATOM     83  C   UNL A   1      41.160  33.591  33.635  1.00  0.00     0.064 A 
ATOM     84  C   UNL A   1      39.987  32.881  34.022  1.00  0.00     0.173 A 
ATOM     85  C   UNL A   1      41.271  34.900  34.116  1.00  0.00     0.173 A 
ATOM     86  F   UNL A   1      39.802  31.617  33.602  1.00  0.00    -0.203 F 
ATOM     87  C   UNL A   1      39.086  33.380  34.963  1.00  0.00     0.198 A 
ATOM     88  C   UNL A   1      40.307  35.432  34.993  1.00  0.00     0.198 A 
ATOM     89  F   UNL A   1      42.364  35.630  33.856  1.00  0.00    -0.203 F 
ATOM     90  F   UNL A   1      38.115  32.592  35.449  1.00  0.00    -0.200 F 
ATOM     91  C   UNL A   1      39.255  34.655  35.460  1.00  0.00     0.200 A 
ATOM     92  F   UNL A   1      40.487  36.654  35.521  1.00  0.00    -0.200 F 
ATOM     93  F   UNL A   1      38.451  35.109  36.434  1.00  0.00    -0.200 F 
ENDBRANCH  59  83
BRANCH  71  94
ATOM     94  C   UNL A   1      43.632  26.805  33.667  1.00  0.00     0.064 A 
ATOM     95  C   UNL A   1      42.505  26.392  34.408  1.00  0.00     0.173 A 
ATOM     96  C   UNL A   1      44.701  25.885  33.647  1.00  0.00     0.173 A 
ATOM     97  F   UNL A   1      41.346  27.064  34.361  1.00  0.00    -0.203 F 
ATOM     98  C   UNL A   1      42.502  25.232  35.182  1.00  0.00     0.198 A 
ATOM     99  C   UNL A   1      44.657  24.676  34.344  1.00  0.00     0.198 A 
ATOM    100  F   UNL A   1      45.805  26.106  32.918  1.00  0.00    -0.203 F 
ATOM    101  F   UNL A   1      41.435  24.948  35.941  1.00  0.00    -0.200 F 
ATOM    102  C   UNL A   1      43.575  24.369  35.144  1.00  0.00     0.200 A 
ATOM    103  F   UNL A   1      45.661  23.797  34.216  1.00  0.00    -0.200 F 
ATOM    104  F   UNL A   1      43.553  23.232  35.850  1.00  0.00    -0.200 F 
ENDBRANCH  71  94
ENDBRANCH  45  46
ENDBRANCH  38  40
ENDBRANCH  37  38
ENDBRANCH  36  37
ENDBRANCH  35  36
ENDBRANCH  34  35
ENDBRANCH  33  34
ENDBRANCH   1  33
TORSDOF 20
ENDMDL
MODEL 2
REMARK VINA RESULT:     -11.9      4.422      8.564
REMARK SMILES Cc1ccc(-c2nn(-c3ccccc3)cc2[C@@H]2[NH2+][C@H](C(=O)OCCOCCOCCOC(=O)c3ccc(-c4c5nc(c(-c6c(F)c(F)c(F)c(F)c6F)c6ccc([nH]6)c(-c6c(F)c(F)c(F)c(F)c6F)c6nc(c(-c7c(F)c(F)c(F)c(F)c7F)c7ccc4[nH]7)C=C6)C=C5)cc3)CS2)cc1
REMARK SMILES IDX 26 1 25 2 24 3 23 4 22 5 20 6 21 7 19 8 17 9 18 10 98 11
REMARK SMILES IDX 97 14 16 15 6 16 7 17 8 18 15 19 5 20 1 21 2 22 3 23 100 24
REMARK SMILES IDX 4 25 99 26 9 27 10 28 14 29 11 30 13 31 12 32 27 33 28 34
REMARK SMILES IDX 29 35 30 36 31 37 32 38 33 39 34 40 35 41 96 42 36 43 95 44
REMARK SMILES IDX 37 45 38 46 39 47 89 48 40 49 94 50 88 51 90 52 41 53 93 54
REMARK SMILES IDX 87 55 86 56 42 58 74 59 54 60 73 61 55 62 58 63 72 64 91 65
REMARK SMILES IDX 56 66 57 67 71 69 92 70 59 71 43 72 44 73 52 74 45 75 46 76
REMARK SMILES IDX 50 77 53 78 47 79 48 80 51 81 49 82 75 83 76 84 84 85 77 86
REMARK SMILES IDX 78 87 82 88 85 89 79 90 80 91 83 92 81 93 60 94 61 95 69 96
REMARK SMILES IDX 62 97 63 98 67 99 70 100 64 101 65 102 68 103 66 104
REMARK H PARENT 18 12 18 13 90 57 58 68
REMARK Flexibility Score: inf
ROOT
ATOM      1  C   UNL A   1      32.084  29.203  26.228  1.00  0.00     0.188 C 
ENDROOT
BRANCH   1   2
ATOM      2  O   UNL A   1      32.899  28.176  25.636  1.00  0.00    -0.376 OA
BRANCH   2   3
ATOM      3  C   UNL A   1      33.434  26.983  26.246  1.00  0.00     0.202 C 
BRANCH   3   4
ATOM      4  C   UNL A   1      34.123  25.521  25.569  1.00  0.00     0.261 C 
BRANCH   4   5
ATOM      5  O   UNL A   1      35.201  24.313  26.046  1.00  0.00    -0.459 OA
BRANCH   5   6
ATOM      6  C   UNL A   1      36.457  23.747  25.799  1.00  0.00     0.365 C 
ATOM      7  O   UNL A   1      37.356  24.155  25.045  1.00  0.00    -0.245 OA
BRANCH   6   8
ATOM      8  C   UNL A   1      36.906  22.462  26.450  1.00  0.00     0.304 C 
ATOM      9  C   UNL A   1      35.844  20.692  25.314  1.00  0.00     0.278 C 
ATOM     10  N   UNL A   1      35.909  21.417  26.589  1.00  0.00    -0.319 N 
ATOM     11  S   UNL A   1      37.427  20.855  24.460  1.00  0.00    -0.087 SA
ATOM     12  H   UNL A   1      36.176  20.779  27.339  1.00  0.00     0.348 HD
ATOM     13  H   UNL A   1      35.000  21.819  26.819  1.00  0.00     0.348 HD
ATOM     14  C   UNL A   1      38.143  21.900  25.745  1.00  0.00     0.153 C 
BRANCH   9  15
ATOM     15  C   UNL A   1      34.632  21.172  24.581  1.00  0.00     0.067 A 
ATOM     16  C   UNL A   1      33.438  20.411  24.451  1.00  0.00     0.103 A 
ATOM     17  N   UNL A   1      32.446  21.088  23.863  1.00  0.00    -0.167 NA
ATOM     18  N   UNL A   1      32.999  22.280  23.526  1.00  0.00    -0.240 N 
ATOM     19  C   UNL A   1      34.341  22.325  23.877  1.00  0.00     0.126 A 
BRANCH  16  20
ATOM     20  C   UNL A   1      33.411  18.977  24.652  1.00  0.00     0.003 A 
ATOM     21  C   UNL A   1      32.383  14.881  25.373  1.00  0.00     0.044 C 
ATOM     22  C   UNL A   1      32.735  16.311  25.106  1.00  0.00    -0.051 A 
ATOM     23  C   UNL A   1      33.277  16.704  23.870  1.00  0.00     0.004 A 
ATOM     24  C   UNL A   1      32.533  17.263  26.108  1.00  0.00     0.004 A 
ATOM     25  C   UNL A   1      33.612  18.041  23.637  1.00  0.00     0.011 A 
ATOM     26  C   UNL A   1      32.877  18.583  25.883  1.00  0.00     0.011 A 
ENDBRANCH  16  20
BRANCH  18  27
ATOM     27  C   UNL A   1      32.184  23.374  23.079  1.00  0.00     0.065 A 
ATOM     28  C   UNL A   1      30.956  23.644  23.703  1.00  0.00     0.028 A 
ATOM     29  C   UNL A   1      32.689  24.300  22.162  1.00  0.00     0.028 A 
ATOM     30  C   UNL A   1      30.282  24.844  23.441  1.00  0.00     0.002 A 
ATOM     31  C   UNL A   1      32.006  25.488  21.887  1.00  0.00     0.002 A 
ATOM     32  C   UNL A   1      30.808  25.764  22.535  1.00  0.00     0.000 A 
ENDBRANCH  18  27
ENDBRANCH   9  15
ENDBRANCH   6   8
ENDBRANCH   5   6
ENDBRANCH   4   5
ENDBRANCH   3   4
ENDBRANCH   2   3
ENDBRANCH   1   2
BRANCH   1  33
ATOM     33  C   UNL A   1      32.593  30.456  26.920  1.00  0.00     0.188 C 
BRANCH  33  34
ATOM     34  O   UNL A   1      33.997  30.541  26.866  1.00  0.00    -0.376 OA
BRANCH  34  35
ATOM     35  C   UNL A   1      34.656  30.283  28.098  1.00  0.00     0.202 C 
BRANCH  35  36
ATOM     36  C   UNL A   1      35.893  29.352  27.998  1.00  0.00     0.261 C 
BRANCH  36  37
ATOM     37  O   UNL A   1      37.032  29.879  28.730  1.00  0.00    -0.460 OA
BRANCH  37  38
ATOM     38  C   UNL A   1      38.022  29.002  29.138  1.00  0.00     0.338 C 
ATOM     39  O   UNL A   1      37.905  28.207  30.040  1.00  0.00    -0.246 OA
BRANCH  38  40
ATOM     40  C   UNL A   1      39.322  29.333  28.442  1.00  0.00     0.060 A 
ATOM     41  C   UNL A   1      39.931  28.716  27.334  1.00  0.00     0.016 A 
ATOM     42  C   UNL A   1      40.137  30.124  29.156  1.00  0.00     0.016 A 
ATOM     43  C   UNL A   1      41.393  28.750  27.117  1.00  0.00     0.010 A 
ATOM     44  C   UNL A   1      41.491  29.835  29.081  1.00  0.00     0.010 A 
ATOM     45  C   UNL A   1      42.289  29.225  28.079  1.00  0.00    -0.014 A 
BRANCH  45  46
ATOM     46  C   UNL A   1      43.994  29.208  28.101  1.00  0.00     0.031 A 
ATOM     47  C   UNL A   1      45.191  30.256  27.499  1.00  0.00     0.074 A 
ATOM     48  C   UNL A   1      44.509  28.389  29.045  1.00  0.00     0.049 A 
ATOM     49  N   UNL A   1      46.300  30.564  28.153  1.00  0.00    -0.248 NA
ATOM     50  C   UNL A   1      45.232  31.095  26.264  1.00  0.00     0.031 C 
ATOM     51  C   UNL A   1      45.812  28.381  29.729  1.00  0.00     0.029 A 
ATOM     52  N   UNL A   1      43.910  27.241  29.569  1.00  0.00    -0.354 N 
ATOM     53  C   UNL A   1      46.957  31.653  27.567  1.00  0.00     0.074 A 
ATOM     54  C   UNL A   1      46.181  32.017  26.436  1.00  0.00     0.031 C 
ATOM     55  C   UNL A   1      46.053  27.140  30.186  1.00  0.00     0.029 A 
ATOM     56  C   UNL A   1      44.965  26.319  29.689  1.00  0.00     0.049 A 
ATOM     57  H   UNL A   1      42.963  27.107  29.801  1.00  0.00     0.167 HD
ATOM     58  C   UNL A   1      48.241  32.029  27.847  1.00  0.00     0.037 A 
ATOM     59  C   UNL A   1      45.043  25.353  28.733  1.00  0.00     0.037 A 
ATOM     60  C   UNL A   1      48.957  30.825  28.203  1.00  0.00     0.049 A 
ATOM     61  C   UNL A   1      46.295  25.549  27.899  1.00  0.00     0.074 A 
ATOM     62  C   UNL A   1      49.195  30.145  29.378  1.00  0.00     0.029 A 
ATOM     63  N   UNL A   1      49.117  29.904  27.172  1.00  0.00    -0.354 N 
ATOM     64  N   UNL A   1      46.957  26.676  27.790  1.00  0.00    -0.248 NA
ATOM     65  C   UNL A   1      46.952  24.452  27.206  1.00  0.00     0.031 C 
ATOM     66  C   UNL A   1      49.217  28.750  29.036  1.00  0.00     0.029 A 
ATOM     67  C   UNL A   1      49.082  28.609  27.657  1.00  0.00     0.049 A 
ATOM     68  H   UNL A   1      49.239  30.141  26.225  1.00  0.00     0.167 HD
ATOM     69  C   UNL A   1      48.090  26.480  27.055  1.00  0.00     0.074 A 
ATOM     70  C   UNL A   1      48.045  25.065  26.721  1.00  0.00     0.031 C 
ATOM     71  C   UNL A   1      48.978  27.471  26.737  1.00  0.00     0.037 A 
BRANCH  58  72
ATOM     72  C   UNL A   1      48.854  33.426  27.692  1.00  0.00     0.064 A 
ATOM     73  C   UNL A   1      48.294  34.544  28.354  1.00  0.00     0.173 A 
ATOM     74  C   UNL A   1      49.853  33.772  26.750  1.00  0.00     0.173 A 
ATOM     75  F   UNL A   1      47.337  34.381  29.278  1.00  0.00    -0.203 F 
ATOM     76  C   UNL A   1      48.656  35.873  28.053  1.00  0.00     0.198 A 
ATOM     77  C   UNL A   1      50.213  35.096  26.448  1.00  0.00     0.198 A 
ATOM     78  F   UNL A   1      50.474  32.845  26.013  1.00  0.00    -0.203 F 
ATOM     79  F   UNL A   1      48.048  36.891  28.679  1.00  0.00    -0.200 F 
ATOM     80  C   UNL A   1      49.604  36.149  27.088  1.00  0.00     0.200 A 
ATOM     81  F   UNL A   1      51.122  35.333  25.488  1.00  0.00    -0.200 F 
ATOM     82  F   UNL A   1      49.911  37.413  26.760  1.00  0.00    -0.200 F 
ENDBRANCH  58  72
BRANCH  59  83
ATOM     83  C   UNL A   1      43.661  24.906  28.316  1.00  0.00     0.064 A 
ATOM     84  C   UNL A   1      43.193  25.355  27.048  1.00  0.00     0.173 A 
ATOM     85  C   UNL A   1      42.994  23.805  28.862  1.00  0.00     0.173 A 
ATOM     86  F   UNL A   1      43.780  26.409  26.454  1.00  0.00    -0.203 F 
ATOM     87  C   UNL A   1      42.250  24.646  26.304  1.00  0.00     0.198 A 
ATOM     88  C   UNL A   1      41.976  23.148  28.144  1.00  0.00     0.198 A 
ATOM     89  F   UNL A   1      43.397  23.272  30.023  1.00  0.00    -0.203 F 
ATOM     90  F   UNL A   1      41.996  24.993  25.033  1.00  0.00    -0.200 F 
ATOM     91  C   UNL A   1      41.650  23.532  26.849  1.00  0.00     0.200 A 
ATOM     92  F   UNL A   1      41.419  22.033  28.645  1.00  0.00    -0.200 F 
ATOM     93  F   UNL A   1      40.813  22.787  26.108  1.00  0.00    -0.200 F 
ENDBRANCH  59  83
BRANCH  71  94
ATOM     94  C   UNL A   1      49.827  27.380  25.483  1.00  0.00     0.064 A 
ATOM     95  C   UNL A   1      51.201  27.059  25.520  1.00  0.00     0.173 A 
ATOM     96  C   UNL A   1      49.268  27.457  24.190  1.00  0.00     0.173 A 
ATOM     97  F   UNL A   1      51.824  26.761  26.669  1.00  0.00    -0.203 F 
ATOM     98  C   UNL A   1      51.980  26.970  24.367  1.00  0.00     0.198 A 
ATOM     99  C   UNL A   1      50.031  27.268  23.036  1.00  0.00     0.198 A 
ATOM    100  F   UNL A   1      47.958  27.673  24.003  1.00  0.00    -0.203 F 
ATOM    101  F   UNL A   1      53.299  26.761  24.476  1.00  0.00    -0.200 F 
ATOM    102  C   UNL A   1      51.394  27.067  23.123  1.00  0.00     0.200 A 
ATOM    103  F   UNL A   1      49.432  27.260  21.837  1.00  0.00    -0.200 F 
ATOM    104  F   UNL A   1      52.134  26.934  22.016  1.00  0.00    -0.200 F 
ENDBRANCH  71  94
ENDBRANCH  45  46
ENDBRANCH  38  40
ENDBRANCH  37  38
ENDBRANCH  36  37
ENDBRANCH  35  36
ENDBRANCH  34  35
ENDBRANCH  33  34
ENDBRANCH   1  33
TORSDOF 20
ENDMDL
MODEL 3
REMARK VINA RESULT:     -11.6      5.474      9.817
REMARK SMILES Cc1ccc(-c2nn(-c3ccccc3)cc2[C@@H]2[NH2+][C@H](C(=O)OCCOCCOCCOC(=O)c3ccc(-c4c5nc(c(-c6c(F)c(F)c(F)c(F)c6F)c6ccc([nH]6)c(-c6c(F)c(F)c(F)c(F)c6F)c6nc(c(-c7c(F)c(F)c(F)c(F)c7F)c7ccc4[nH]7)C=C6)C=C5)cc3)CS2)cc1
REMARK SMILES IDX 26 1 25 2 24 3 23 4 22 5 20 6 21 7 19 8 17 9 18 10 98 11
REMARK SMILES IDX 97 14 16 15 6 16 7 17 8 18 15 19 5 20 1 21 2 22 3 23 100 24
REMARK SMILES IDX 4 25 99 26 9 27 10 28 14 29 11 30 13 31 12 32 27 33 28 34
REMARK SMILES IDX 29 35 30 36 31 37 32 38 33 39 34 40 35 41 96 42 36 43 95 44
REMARK SMILES IDX 37 45 38 46 39 47 89 48 40 49 94 50 88 51 90 52 41 53 93 54
REMARK SMILES IDX 87 55 86 56 42 58 74 59 54 60 73 61 55 62 58 63 72 64 91 65
REMARK SMILES IDX 56 66 57 67 71 69 92 70 59 71 43 72 44 73 52 74 45 75 46 76
REMARK SMILES IDX 50 77 53 78 47 79 48 80 51 81 49 82 75 83 76 84 84 85 77 86
REMARK SMILES IDX 78 87 82 88 85 89 79 90 80 91 83 92 81 93 60 94 61 95 69 96
REMARK SMILES IDX 62 97 63 98 67 99 70 100 64 101 65 102 68 103 66 104
REMARK H PARENT 18 12 18 13 90 57 58 68
REMARK Flexibility Score: inf
ROOT
ATOM      1  C   UNL A   1      36.485  34.107  31.389  1.00  0.00     0.188 C 
ENDROOT
BRANCH   1   2
ATOM      2  O   UNL A   1      37.830  33.837  30.953  1.00  0.00    -0.376 OA
BRANCH   2   3
ATOM      3  C   UNL A   1      38.811  34.755  30.430  1.00  0.00     0.202 C 
BRANCH   3   4
ATOM      4  C   UNL A   1      40.471  34.537  29.913  1.00  0.00     0.261 C 
BRANCH   4   5
ATOM      5  O   UNL A   1      41.990  35.166  30.298  1.00  0.00    -0.459 OA
BRANCH   5   6
ATOM      6  C   UNL A   1      42.975  35.233  31.290  1.00  0.00     0.365 C 
ATOM      7  O   UNL A   1      43.110  36.075  32.192  1.00  0.00    -0.245 OA
BRANCH   6   8
ATOM      8  C   UNL A   1      44.094  34.225  31.386  1.00  0.00     0.304 C 
ATOM      9  C   UNL A   1      45.707  34.811  29.771  1.00  0.00     0.278 C 
ATOM     10  N   UNL A   1      44.703  33.804  30.138  1.00  0.00    -0.319 N 
ATOM     11  S   UNL A   1      46.280  35.645  31.266  1.00  0.00    -0.087 SA
ATOM     12  H   UNL A   1      45.150  32.895  30.259  1.00  0.00     0.348 HD
ATOM     13  H   UNL A   1      43.997  33.719  29.407  1.00  0.00     0.348 HD
ATOM     14  C   UNL A   1      45.181  34.711  32.349  1.00  0.00     0.153 C 
BRANCH   9  15
ATOM     15  C   UNL A   1      45.112  35.675  28.705  1.00  0.00     0.067 A 
ATOM     16  C   UNL A   1      44.602  35.171  27.477  1.00  0.00     0.103 A 
ATOM     17  N   UNL A   1      44.008  36.109  26.731  1.00  0.00    -0.167 NA
ATOM     18  N   UNL A   1      44.189  37.261  27.424  1.00  0.00    -0.240 N 
ATOM     19  C   UNL A   1      44.923  37.038  28.581  1.00  0.00     0.126 A 
BRANCH  16  20
ATOM     20  C   UNL A   1      44.965  33.865  26.969  1.00  0.00     0.003 A 
ATOM     21  C   UNL A   1      46.552  29.944  26.285  1.00  0.00     0.044 C 
ATOM     22  C   UNL A   1      45.988  31.307  26.536  1.00  0.00    -0.051 A 
ATOM     23  C   UNL A   1      44.602  31.502  26.673  1.00  0.00     0.004 A 
ATOM     24  C   UNL A   1      46.853  32.401  26.619  1.00  0.00     0.004 A 
ATOM     25  C   UNL A   1      44.086  32.782  26.897  1.00  0.00     0.011 A 
ATOM     26  C   UNL A   1      46.342  33.669  26.826  1.00  0.00     0.011 A 
ENDBRANCH  16  20
BRANCH  18  27
ATOM     27  C   UNL A   1      43.491  38.462  27.060  1.00  0.00     0.065 A 
ATOM     28  C   UNL A   1      44.201  39.579  26.593  1.00  0.00     0.028 A 
ATOM     29  C   UNL A   1      42.097  38.468  26.973  1.00  0.00     0.028 A 
ATOM     30  C   UNL A   1      43.517  40.653  26.008  1.00  0.00     0.002 A 
ATOM     31  C   UNL A   1      41.414  39.548  26.408  1.00  0.00     0.002 A 
ATOM     32  C   UNL A   1      42.126  40.636  25.915  1.00  0.00     0.000 A 
ENDBRANCH  18  27
ENDBRANCH   9  15
ENDBRANCH   6   8
ENDBRANCH   5   6
ENDBRANCH   4   5
ENDBRANCH   3   4
ENDBRANCH   2   3
ENDBRANCH   1   2
BRANCH   1  33
ATOM     33  C   UNL A   1      35.231  33.406  30.895  1.00  0.00     0.188 C 
BRANCH  33  34
ATOM     34  O   UNL A   1      34.432  34.265  30.116  1.00  0.00    -0.376 OA
BRANCH  34  35
ATOM     35  C   UNL A   1      34.720  34.246  28.726  1.00  0.00     0.202 C 
BRANCH  35  36
ATOM     36  C   UNL A   1      36.002  33.467  28.331  1.00  0.00     0.261 C 
BRANCH  36  37
ATOM     37  O   UNL A   1      35.720  32.389  27.399  1.00  0.00    -0.460 OA
BRANCH  37  38
ATOM     38  C   UNL A   1      34.996  31.297  27.847  1.00  0.00     0.338 C 
ATOM     39  O   UNL A   1      33.793  31.268  27.951  1.00  0.00    -0.246 OA
BRANCH  38  40
ATOM     40  C   UNL A   1      35.935  30.242  28.382  1.00  0.00     0.060 A 
ATOM     41  C   UNL A   1      36.274  29.929  29.711  1.00  0.00     0.016 A 
ATOM     42  C   UNL A   1      36.776  29.742  27.462  1.00  0.00     0.016 A 
ATOM     43  C   UNL A   1      37.566  29.308  30.071  1.00  0.00     0.010 A 
ATOM     44  C   UNL A   1      38.069  29.484  27.890  1.00  0.00     0.010 A 
ATOM     45  C   UNL A   1      38.615  29.161  29.159  1.00  0.00    -0.014 A 
BRANCH  45  46
ATOM     46  C   UNL A   1      40.217  28.629  29.397  1.00  0.00     0.031 A 
ATOM     47  C   UNL A   1      41.032  27.168  29.089  1.00  0.00     0.074 A 
ATOM     48  C   UNL A   1      41.099  29.641  29.561  1.00  0.00     0.049 A 
ATOM     49  N   UNL A   1      42.264  27.096  28.612  1.00  0.00    -0.248 NA
ATOM     50  C   UNL A   1      40.568  25.751  29.160  1.00  0.00     0.031 C 
ATOM     51  C   UNL A   1      42.552  29.717  29.343  1.00  0.00     0.029 A 
ATOM     52  N   UNL A   1      40.825  30.909  30.078  1.00  0.00    -0.354 N 
ATOM     53  C   UNL A   1      42.576  25.799  28.186  1.00  0.00     0.074 A 
ATOM     54  C   UNL A   1      41.429  25.010  28.458  1.00  0.00     0.031 C 
ATOM     55  C   UNL A   1      43.049  30.718  30.091  1.00  0.00     0.029 A 
ATOM     56  C   UNL A   1      41.938  31.205  30.885  1.00  0.00     0.049 A 
ATOM     57  H   UNL A   1      40.032  31.470  29.914  1.00  0.00     0.167 HD
ATOM     58  C   UNL A   1      43.838  25.357  27.900  1.00  0.00     0.037 A 
ATOM     59  C   UNL A   1      41.771  31.064  32.229  1.00  0.00     0.037 A 
ATOM     60  C   UNL A   1      44.741  26.105  28.746  1.00  0.00     0.049 A 
ATOM     61  C   UNL A   1      42.635  29.928  32.742  1.00  0.00     0.074 A 
ATOM     62  C   UNL A   1      45.430  27.292  28.623  1.00  0.00     0.029 A 
ATOM     63  N   UNL A   1      44.621  25.855  30.110  1.00  0.00    -0.354 N 
ATOM     64  N   UNL A   1      43.112  28.954  32.005  1.00  0.00    -0.248 NA
ATOM     65  C   UNL A   1      43.113  29.867  34.114  1.00  0.00     0.031 C 
ATOM     66  C   UNL A   1      45.461  27.874  29.935  1.00  0.00     0.029 A 
ATOM     67  C   UNL A   1      44.874  26.999  30.845  1.00  0.00     0.049 A 
ATOM     68  H   UNL A   1      44.387  24.982  30.499  1.00  0.00     0.167 HD
ATOM     69  C   UNL A   1      43.936  28.165  32.753  1.00  0.00     0.074 A 
ATOM     70  C   UNL A   1      43.910  28.787  34.067  1.00  0.00     0.031 C 
ATOM     71  C   UNL A   1      44.566  27.046  32.279  1.00  0.00     0.037 A 
BRANCH  58  72
ATOM     72  C   UNL A   1      44.229  24.203  26.969  1.00  0.00     0.064 A 
ATOM     73  C   UNL A   1      45.030  24.431  25.826  1.00  0.00     0.173 A 
ATOM     74  C   UNL A   1      43.679  22.898  27.021  1.00  0.00     0.173 A 
ATOM     75  F   UNL A   1      45.624  25.617  25.634  1.00  0.00    -0.203 F 
ATOM     76  C   UNL A   1      45.208  23.468  24.810  1.00  0.00     0.198 A 
ATOM     77  C   UNL A   1      43.854  21.940  26.009  1.00  0.00     0.198 A 
ATOM     78  F   UNL A   1      42.875  22.515  28.017  1.00  0.00    -0.203 F 
ATOM     79  F   UNL A   1      45.938  23.767  23.725  1.00  0.00    -0.200 F 
ATOM     80  C   UNL A   1      44.606  22.229  24.895  1.00  0.00     0.200 A 
ATOM     81  F   UNL A   1      43.237  20.751  26.108  1.00  0.00    -0.200 F 
ATOM     82  F   UNL A   1      44.728  21.331  23.905  1.00  0.00    -0.200 F 
ENDBRANCH  58  72
BRANCH  59  83
ATOM     83  C   UNL A   1      40.377  31.481  32.638  1.00  0.00     0.064 A 
ATOM     84  C   UNL A   1      39.440  30.439  32.893  1.00  0.00     0.173 A 
ATOM     85  C   UNL A   1      40.055  32.737  33.161  1.00  0.00     0.173 A 
ATOM     86  F   UNL A   1      39.673  29.201  32.424  1.00  0.00    -0.203 F 
ATOM     87  C   UNL A   1      38.357  30.601  33.757  1.00  0.00     0.198 A 
ATOM     88  C   UNL A   1      38.908  32.917  33.957  1.00  0.00     0.198 A 
ATOM     89  F   UNL A   1      40.901  33.768  33.025  1.00  0.00    -0.203 F 
ATOM     90  F   UNL A   1      37.626  29.538  34.127  1.00  0.00    -0.200 F 
ATOM     91  C   UNL A   1      38.098  31.841  34.300  1.00  0.00     0.200 A 
ATOM     92  F   UNL A   1      38.673  34.108  34.531  1.00  0.00    -0.200 F 
ATOM     93  F   UNL A   1      37.118  31.987  35.206  1.00  0.00    -0.200 F 
ENDBRANCH  59  83
BRANCH  71  94
ATOM     94  C   UNL A   1      44.936  25.909  33.211  1.00  0.00     0.064 A 
ATOM     95  C   UNL A   1      43.985  25.254  34.023  1.00  0.00     0.173 A 
ATOM     96  C   UNL A   1      46.222  25.328  33.214  1.00  0.00     0.173 A 
ATOM     97  F   UNL A   1      42.683  25.567  33.973  1.00  0.00    -0.203 F 
ATOM     98  C   UNL A   1      44.325  24.204  34.875  1.00  0.00     0.198 A 
ATOM     99  C   UNL A   1      46.534  24.213  33.995  1.00  0.00     0.198 A 
ATOM    100  F   UNL A   1      47.204  25.793  32.429  1.00  0.00    -0.203 F 
ATOM    101  F   UNL A   1      43.396  23.692  35.694  1.00  0.00    -0.200 F 
ATOM    102  C   UNL A   1      45.598  23.677  34.856  1.00  0.00     0.200 A 
ATOM    103  F   UNL A   1      47.744  23.645  33.890  1.00  0.00    -0.200 F 
ATOM    104  F   UNL A   1      45.911  22.639  35.640  1.00  0.00    -0.200 F 
ENDBRANCH  71  94
ENDBRANCH  45  46
ENDBRANCH  38  40
ENDBRANCH  37  38
ENDBRANCH  36  37
ENDBRANCH  35  36
ENDBRANCH  34  35
ENDBRANCH  33  34
ENDBRANCH   1  33
TORSDOF 20
ENDMDL
