MODEL 1
REMARK VINA RESULT:     -11.2      0.000      0.000
REMARK SMILES O=C(OCCOCCOCCOC(=O)[C@H]1C=NC2=C(CCCC2)C1=O)c1ccc(-c2c3nc(c(-c4c(F)c(F)c(F)c(F)c4F)c4ccc([nH]4)c(-c4c(F)c(F)c(F)c(F)c4F)c4nc(c(-c5c(F)c(F)c(F)c(F)c5F)c5ccc2[nH]5)C=C4)C=C3)cc1
REMARK SMILES IDX 7 1 6 2 5 3 4 4 3 5 2 6 1 7 26 8 27 9 88 10 28 11 87 12
REMARK SMILES IDX 29 13 30 14 31 15 81 16 32 17 86 18 80 19 82 20 33 21 85 22
REMARK SMILES IDX 79 23 78 24 34 26 66 27 46 28 65 29 47 30 50 31 64 32 83 33
REMARK SMILES IDX 48 34 49 35 63 37 84 38 51 39 35 40 36 41 44 42 37 43 38 44
REMARK SMILES IDX 42 45 45 46 39 47 40 48 43 49 41 50 67 51 68 52 76 53 69 54
REMARK SMILES IDX 70 55 74 56 77 57 71 58 72 59 75 60 73 61 52 62 53 63 61 64
REMARK SMILES IDX 54 65 55 66 59 67 62 68 56 69 57 70 60 71 58 72 8 73 9 74
REMARK SMILES IDX 10 75 11 76 12 77 13 78 14 79 15 80 16 81 24 82 17 83 19 84
REMARK SMILES IDX 25 85 18 86 20 87 23 88 21 89 22 90
REMARK H PARENT 82 25 50 36
REMARK Flexibility Score: inf
ROOT
ATOM      1  C   UNL A   1      40.549  20.792  26.727  1.00  0.00     0.188 C 
ENDROOT
BRANCH   1   2
ATOM      2  O   UNL A   1      41.556  20.688  25.715  1.00  0.00    -0.376 OA
BRANCH   2   3
ATOM      3  C   UNL A   1      42.854  21.082  26.181  1.00  0.00     0.202 C 
BRANCH   3   4
ATOM      4  C   UNL A   1      43.741  21.856  25.181  1.00  0.00     0.261 C 
BRANCH   4   5
ATOM      5  O   UNL A   1      43.216  23.132  24.776  1.00  0.00    -0.460 OA
BRANCH   5   6
ATOM      6  C   UNL A   1      43.678  24.381  25.033  1.00  0.00     0.338 C 
ATOM      7  O   UNL A   1      44.716  24.735  24.476  1.00  0.00    -0.246 OA
BRANCH   6   8
ATOM      8  C   UNL A   1      43.042  25.342  25.994  1.00  0.00     0.060 A 
ATOM      9  C   UNL A   1      43.425  26.668  26.190  1.00  0.00     0.016 A 
ATOM     10  C   UNL A   1      41.944  24.869  26.742  1.00  0.00     0.016 A 
ATOM     11  C   UNL A   1      42.814  27.474  27.142  1.00  0.00     0.010 A 
ATOM     12  C   UNL A   1      41.300  25.682  27.682  1.00  0.00     0.010 A 
ATOM     13  C   UNL A   1      41.767  26.980  27.911  1.00  0.00    -0.014 A 
BRANCH  13  14
ATOM     14  C   UNL A   1      41.331  27.775  29.075  1.00  0.00     0.031 A 
ATOM     15  C   UNL A   1      42.144  27.670  30.332  1.00  0.00     0.074 A 
ATOM     16  C   UNL A   1      40.347  28.685  28.958  1.00  0.00     0.049 A 
ATOM     17  N   UNL A   1      41.977  28.266  31.481  1.00  0.00    -0.248 NA
ATOM     18  C   UNL A   1      43.340  26.809  30.269  1.00  0.00     0.031 C 
ATOM     19  C   UNL A   1      39.630  29.004  27.725  1.00  0.00     0.029 A 
ATOM     20  N   UNL A   1      39.787  29.518  29.889  1.00  0.00    -0.354 N 
ATOM     21  C   UNL A   1      43.054  27.873  32.265  1.00  0.00     0.074 A 
ATOM     22  C   UNL A   1      43.846  26.953  31.482  1.00  0.00     0.031 C 
ATOM     23  C   UNL A   1      38.690  29.929  27.985  1.00  0.00     0.029 A 
ATOM     24  C   UNL A   1      38.718  30.234  29.408  1.00  0.00     0.049 A 
ATOM     25  H   UNL A   1      40.118  29.597  30.813  1.00  0.00     0.167 HD
ATOM     26  C   UNL A   1      43.360  28.270  33.521  1.00  0.00     0.037 A 
ATOM     27  C   UNL A   1      37.839  31.009  30.068  1.00  0.00     0.037 A 
ATOM     28  C   UNL A   1      42.539  29.170  34.284  1.00  0.00     0.049 A 
ATOM     29  C   UNL A   1      38.064  31.244  31.530  1.00  0.00     0.074 A 
ATOM     30  C   UNL A   1      42.713  29.614  35.580  1.00  0.00     0.029 A 
ATOM     31  N   UNL A   1      41.371  29.753  33.810  1.00  0.00    -0.354 N 
ATOM     32  N   UNL A   1      39.043  30.821  32.291  1.00  0.00    -0.248 NA
ATOM     33  C   UNL A   1      37.075  32.080  32.217  1.00  0.00     0.031 C 
ATOM     34  C   UNL A   1      41.618  30.419  35.911  1.00  0.00     0.029 A 
ATOM     35  C   UNL A   1      40.793  30.528  34.800  1.00  0.00     0.049 A 
ATOM     36  H   UNL A   1      41.007  29.632  32.903  1.00  0.00     0.167 HD
ATOM     37  C   UNL A   1      38.820  31.378  33.539  1.00  0.00     0.074 A 
ATOM     38  C   UNL A   1      37.597  32.152  33.434  1.00  0.00     0.031 C 
ATOM     39  C   UNL A   1      39.573  31.281  34.661  1.00  0.00     0.037 A 
BRANCH  26  40
ATOM     40  C   UNL A   1      44.594  27.689  34.144  1.00  0.00     0.064 A 
ATOM     41  C   UNL A   1      45.843  28.326  34.052  1.00  0.00     0.173 A 
ATOM     42  C   UNL A   1      44.532  26.469  34.832  1.00  0.00     0.173 A 
ATOM     43  F   UNL A   1      45.963  29.482  33.380  1.00  0.00    -0.203 F 
ATOM     44  C   UNL A   1      46.984  27.748  34.601  1.00  0.00     0.198 A 
ATOM     45  C   UNL A   1      45.671  25.908  35.404  1.00  0.00     0.198 A 
ATOM     46  F   UNL A   1      43.366  25.815  34.942  1.00  0.00    -0.203 F 
ATOM     47  F   UNL A   1      48.175  28.347  34.452  1.00  0.00    -0.200 F 
ATOM     48  C   UNL A   1      46.897  26.543  35.282  1.00  0.00     0.200 A 
ATOM     49  F   UNL A   1      45.583  24.744  36.063  1.00  0.00    -0.200 F 
ATOM     50  F   UNL A   1      47.996  25.987  35.808  1.00  0.00    -0.200 F 
ENDBRANCH  26  40
BRANCH  27  51
ATOM     51  C   UNL A   1      36.643  31.556  29.385  1.00  0.00     0.064 A 
ATOM     52  C   UNL A   1      35.581  30.740  28.980  1.00  0.00     0.173 A 
ATOM     53  C   UNL A   1      36.572  32.921  29.076  1.00  0.00     0.173 A 
ATOM     54  F   UNL A   1      35.633  29.418  29.198  1.00  0.00    -0.203 F 
ATOM     55  C   UNL A   1      34.485  31.275  28.303  1.00  0.00     0.198 A 
ATOM     56  C   UNL A   1      35.464  33.460  28.427  1.00  0.00     0.198 A 
ATOM     57  F   UNL A   1      37.599  33.727  29.377  1.00  0.00    -0.203 F 
ATOM     58  F   UNL A   1      33.500  30.468  27.883  1.00  0.00    -0.200 F 
ATOM     59  C   UNL A   1      34.420  32.636  28.038  1.00  0.00     0.200 A 
ATOM     60  F   UNL A   1      35.416  34.775  28.167  1.00  0.00    -0.200 F 
ATOM     61  F   UNL A   1      33.368  33.149  27.386  1.00  0.00    -0.200 F 
ENDBRANCH  27  51
BRANCH  39  62
ATOM     62  C   UNL A   1      39.121  32.085  35.840  1.00  0.00     0.064 A 
ATOM     63  C   UNL A   1      39.518  33.416  36.023  1.00  0.00     0.173 A 
ATOM     64  C   UNL A   1      38.258  31.512  36.785  1.00  0.00     0.173 A 
ATOM     65  F   UNL A   1      40.361  33.995  35.156  1.00  0.00    -0.203 F 
ATOM     66  C   UNL A   1      39.083  34.139  37.129  1.00  0.00     0.198 A 
ATOM     67  C   UNL A   1      37.799  32.248  37.870  1.00  0.00     0.198 A 
ATOM     68  F   UNL A   1      37.852  30.240  36.649  1.00  0.00    -0.203 F 
ATOM     69  F   UNL A   1      39.516  35.394  37.318  1.00  0.00    -0.200 F 
ATOM     70  C   UNL A   1      38.219  33.558  38.046  1.00  0.00     0.200 A 
ATOM     71  F   UNL A   1      36.954  31.690  38.748  1.00  0.00    -0.200 F 
ATOM     72  F   UNL A   1      37.796  34.259  39.106  1.00  0.00    -0.200 F 
ENDBRANCH  39  62
ENDBRANCH  13  14
ENDBRANCH   6   8
ENDBRANCH   5   6
ENDBRANCH   4   5
ENDBRANCH   3   4
ENDBRANCH   2   3
ENDBRANCH   1   2
BRANCH   1  73
ATOM     73  C   UNL A   1      39.906  22.172  26.860  1.00  0.00     0.188 C 
BRANCH  73  74
ATOM     74  O   UNL A   1      38.825  22.512  26.010  1.00  0.00    -0.376 OA
BRANCH  74  75
ATOM     75  C   UNL A   1      38.248  23.803  26.125  1.00  0.00     0.202 C 
BRANCH  75  76
ATOM     76  C   UNL A   1      36.719  23.996  26.049  1.00  0.00     0.261 C 
BRANCH  76  77
ATOM     77  O   UNL A   1      35.890  22.873  26.381  1.00  0.00    -0.462 OA
BRANCH  77  78
ATOM     78  C   UNL A   1      34.803  22.694  25.585  1.00  0.00     0.322 C 
ATOM     79  O   UNL A   1      34.336  23.559  24.848  1.00  0.00    -0.251 OA
BRANCH  78  80
ATOM     80  C   UNL A   1      34.229  21.310  25.694  1.00  0.00     0.212 C 
ATOM     81  C   UNL A   1      32.795  21.169  25.287  1.00  0.00     0.107 C 
ATOM     82  C   UNL A   1      35.068  20.281  24.996  1.00  0.00     0.180 C 
ATOM     83  N   UNL A   1      32.261  20.082  24.821  1.00  0.00    -0.264 NA
ATOM     84  C   UNL A   1      34.405  18.986  24.705  1.00  0.00     0.018 C 
ATOM     85  O   UNL A   1      36.249  20.438  24.699  1.00  0.00    -0.293 OA
ATOM     86  C   UNL A   1      33.061  18.982  24.644  1.00  0.00     0.047 C 
ATOM     87  C   UNL A   1      35.275  17.787  24.494  1.00  0.00     0.041 C 
ATOM     88  C   UNL A   1      32.306  17.718  24.283  1.00  0.00     0.056 C 
ATOM     89  C   UNL A   1      34.482  16.482  24.563  1.00  0.00     0.005 C 
ATOM     90  C   UNL A   1      33.191  16.586  23.763  1.00  0.00     0.007 C 
ENDBRANCH  78  80
ENDBRANCH  77  78
ENDBRANCH  76  77
ENDBRANCH  75  76
ENDBRANCH  74  75
ENDBRANCH  73  74
ENDBRANCH   1  73
TORSDOF 17
ENDMDL
MODEL 2
REMARK VINA RESULT:     -11.1      1.626      2.971
REMARK SMILES O=C(OCCOCCOCCOC(=O)[C@H]1C=NC2=C(CCCC2)C1=O)c1ccc(-c2c3nc(c(-c4c(F)c(F)c(F)c(F)c4F)c4ccc([nH]4)c(-c4c(F)c(F)c(F)c(F)c4F)c4nc(c(-c5c(F)c(F)c(F)c(F)c5F)c5ccc2[nH]5)C=C4)C=C3)cc1
REMARK SMILES IDX 7 1 6 2 5 3 4 4 3 5 2 6 1 7 26 8 27 9 88 10 28 11 87 12
REMARK SMILES IDX 29 13 30 14 31 15 81 16 32 17 86 18 80 19 82 20 33 21 85 22
REMARK SMILES IDX 79 23 78 24 34 26 66 27 46 28 65 29 47 30 50 31 64 32 83 33
REMARK SMILES IDX 48 34 49 35 63 37 84 38 51 39 35 40 36 41 44 42 37 43 38 44
REMARK SMILES IDX 42 45 45 46 39 47 40 48 43 49 41 50 67 51 68 52 76 53 69 54
REMARK SMILES IDX 70 55 74 56 77 57 71 58 72 59 75 60 73 61 52 62 53 63 61 64
REMARK SMILES IDX 54 65 55 66 59 67 62 68 56 69 57 70 60 71 58 72 8 73 9 74
REMARK SMILES IDX 10 75 11 76 12 77 13 78 14 79 15 80 16 81 24 82 17 83 19 84
REMARK SMILES IDX 25 85 18 86 20 87 23 88 21 89 22 90
REMARK H PARENT 82 25 50 36
REMARK Flexibility Score: inf
ROOT
ATOM      1  C   UNL A   1      41.163  19.574  26.333  1.00  0.00     0.188 C 
ENDROOT
BRANCH   1   2
ATOM      2  O   UNL A   1      42.203  19.417  25.363  1.00  0.00    -0.376 OA
BRANCH   2   3
ATOM      3  C   UNL A   1      43.443  20.006  25.778  1.00  0.00     0.202 C 
BRANCH   3   4
ATOM      4  C   UNL A   1      43.984  21.162  24.908  1.00  0.00     0.261 C 
BRANCH   4   5
ATOM      5  O   UNL A   1      43.190  22.361  24.943  1.00  0.00    -0.460 OA
BRANCH   5   6
ATOM      6  C   UNL A   1      43.581  23.658  24.991  1.00  0.00     0.338 C 
ATOM      7  O   UNL A   1      44.514  24.004  24.267  1.00  0.00    -0.246 OA
BRANCH   6   8
ATOM      8  C   UNL A   1      42.993  24.690  25.907  1.00  0.00     0.060 A 
ATOM      9  C   UNL A   1      43.483  25.982  26.098  1.00  0.00     0.016 A 
ATOM     10  C   UNL A   1      41.827  24.330  26.614  1.00  0.00     0.016 A 
ATOM     11  C   UNL A   1      42.906  26.857  27.010  1.00  0.00     0.010 A 
ATOM     12  C   UNL A   1      41.218  25.216  27.512  1.00  0.00     0.010 A 
ATOM     13  C   UNL A   1      41.788  26.472  27.740  1.00  0.00    -0.014 A 
BRANCH  13  14
ATOM     14  C   UNL A   1      41.376  27.325  28.871  1.00  0.00     0.031 A 
ATOM     15  C   UNL A   1      42.183  27.244  30.133  1.00  0.00     0.074 A 
ATOM     16  C   UNL A   1      40.420  28.260  28.717  1.00  0.00     0.049 A 
ATOM     17  N   UNL A   1      42.034  27.890  31.258  1.00  0.00    -0.248 NA
ATOM     18  C   UNL A   1      43.352  26.345  30.107  1.00  0.00     0.031 C 
ATOM     19  C   UNL A   1      39.715  28.552  27.470  1.00  0.00     0.029 A 
ATOM     20  N   UNL A   1      39.886  29.146  29.613  1.00  0.00    -0.354 N 
ATOM     21  C   UNL A   1      43.097  27.496  32.059  1.00  0.00     0.074 A 
ATOM     22  C   UNL A   1      43.862  26.521  31.315  1.00  0.00     0.031 C 
ATOM     23  C   UNL A   1      38.804  29.516  27.691  1.00  0.00     0.029 A 
ATOM     24  C   UNL A   1      38.840  29.875  29.101  1.00  0.00     0.049 A 
ATOM     25  H   UNL A   1      40.218  29.251  30.534  1.00  0.00     0.167 HD
ATOM     26  C   UNL A   1      43.414  27.931  33.299  1.00  0.00     0.037 A 
ATOM     27  C   UNL A   1      37.985  30.703  29.728  1.00  0.00     0.037 A 
ATOM     28  C   UNL A   1      42.621  28.886  34.024  1.00  0.00     0.049 A 
ATOM     29  C   UNL A   1      38.215  30.987  31.181  1.00  0.00     0.074 A 
ATOM     30  C   UNL A   1      42.807  29.375  35.303  1.00  0.00     0.029 A 
ATOM     31  N   UNL A   1      41.472  29.485  33.525  1.00  0.00    -0.354 N 
ATOM     32  N   UNL A   1      39.180  30.564  31.960  1.00  0.00    -0.248 NA
ATOM     33  C   UNL A   1      37.252  31.880  31.832  1.00  0.00     0.031 C 
ATOM     34  C   UNL A   1      41.737  30.226  35.599  1.00  0.00     0.029 A 
ATOM     35  C   UNL A   1      40.917  30.316  34.483  1.00  0.00     0.049 A 
ATOM     36  H   UNL A   1      41.105  29.341  32.623  1.00  0.00     0.167 HD
ATOM     37  C   UNL A   1      38.973  31.176  33.185  1.00  0.00     0.074 A 
ATOM     38  C   UNL A   1      37.775  31.984  33.047  1.00  0.00     0.031 C 
ATOM     39  C   UNL A   1      39.721  31.101  34.312  1.00  0.00     0.037 A 
BRANCH  26  40
ATOM     40  C   UNL A   1      44.629  27.338  33.947  1.00  0.00     0.064 A 
ATOM     41  C   UNL A   1      44.545  26.243  34.821  1.00  0.00     0.173 A 
ATOM     42  C   UNL A   1      45.899  27.883  33.701  1.00  0.00     0.173 A 
ATOM     43  F   UNL A   1      43.352  25.701  35.112  1.00  0.00    -0.203 F 
ATOM     44  C   UNL A   1      45.681  25.734  35.446  1.00  0.00     0.198 A 
ATOM     45  C   UNL A   1      47.036  27.354  34.306  1.00  0.00     0.198 A 
ATOM     46  F   UNL A   1      46.034  28.935  32.881  1.00  0.00    -0.203 F 
ATOM     47  F   UNL A   1      45.570  24.724  36.320  1.00  0.00    -0.200 F 
ATOM     48  C   UNL A   1      46.927  26.286  35.184  1.00  0.00     0.200 A 
ATOM     49  F   UNL A   1      48.238  27.888  34.049  1.00  0.00    -0.200 F 
ATOM     50  F   UNL A   1      48.019  25.798  35.786  1.00  0.00    -0.200 F 
ENDBRANCH  26  40
BRANCH  27  51
ATOM     51  C   UNL A   1      36.806  31.259  29.021  1.00  0.00     0.064 A 
ATOM     52  C   UNL A   1      36.723  32.608  28.666  1.00  0.00     0.173 A 
ATOM     53  C   UNL A   1      35.707  30.439  28.736  1.00  0.00     0.173 A 
ATOM     54  F   UNL A   1      37.724  33.444  28.975  1.00  0.00    -0.203 F 
ATOM     55  C   UNL A   1      35.585  33.114  28.036  1.00  0.00     0.198 A 
ATOM     56  C   UNL A   1      34.583  30.936  28.081  1.00  0.00     0.198 A 
ATOM     57  F   UNL A   1      35.712  29.156  29.125  1.00  0.00    -0.203 F 
ATOM     58  F   UNL A   1      35.506  34.420  27.746  1.00  0.00    -0.200 F 
ATOM     59  C   UNL A   1      34.521  32.276  27.733  1.00  0.00     0.200 A 
ATOM     60  F   UNL A   1      33.557  30.120  27.801  1.00  0.00    -0.200 F 
ATOM     61  F   UNL A   1      33.428  32.762  27.130  1.00  0.00    -0.200 F 
ENDBRANCH  27  51
BRANCH  39  62
ATOM     62  C   UNL A   1      39.293  31.964  35.457  1.00  0.00     0.064 A 
ATOM     63  C   UNL A   1      38.361  31.524  36.406  1.00  0.00     0.173 A 
ATOM     64  C   UNL A   1      39.848  33.242  35.613  1.00  0.00     0.173 A 
ATOM     65  F   UNL A   1      37.787  30.318  36.282  1.00  0.00    -0.203 F 
ATOM     66  C   UNL A   1      37.981  32.348  37.460  1.00  0.00     0.198 A 
ATOM     67  C   UNL A   1      39.492  34.048  36.686  1.00  0.00     0.198 A 
ATOM     68  F   UNL A   1      40.746  33.703  34.728  1.00  0.00    -0.203 F 
ATOM     69  F   UNL A   1      37.047  31.932  38.328  1.00  0.00    -0.200 F 
ATOM     70  C   UNL A   1      38.552  33.604  37.604  1.00  0.00     0.200 A 
ATOM     71  F   UNL A   1      40.054  35.256  36.831  1.00  0.00    -0.200 F 
ATOM     72  F   UNL A   1      38.189  34.392  38.625  1.00  0.00    -0.200 F 
ENDBRANCH  39  62
ENDBRANCH  13  14
ENDBRANCH   6   8
ENDBRANCH   5   6
ENDBRANCH   4   5
ENDBRANCH   3   4
ENDBRANCH   2   3
ENDBRANCH   1   2
BRANCH   1  73
ATOM     73  C   UNL A   1      39.903  20.272  25.824  1.00  0.00     0.188 C 
BRANCH  73  74
ATOM     74  O   UNL A   1      39.638  21.601  26.237  1.00  0.00    -0.376 OA
BRANCH  74  75
ATOM     75  C   UNL A   1      38.473  22.247  25.750  1.00  0.00     0.202 C 
BRANCH  75  76
ATOM     76  C   UNL A   1      37.157  21.465  25.555  1.00  0.00     0.261 C 
BRANCH  76  77
ATOM     77  O   UNL A   1      36.597  21.426  24.235  1.00  0.00    -0.462 OA
BRANCH  77  78
ATOM     78  C   UNL A   1      35.984  22.569  23.828  1.00  0.00     0.322 C 
ATOM     79  O   UNL A   1      36.197  23.122  22.751  1.00  0.00    -0.251 OA
BRANCH  78  80
ATOM     80  C   UNL A   1      35.000  23.088  24.838  1.00  0.00     0.212 C 
ATOM     81  C   UNL A   1      34.999  24.572  25.037  1.00  0.00     0.107 C 
ATOM     82  C   UNL A   1      33.605  22.599  24.588  1.00  0.00     0.180 C 
ATOM     83  N   UNL A   1      33.973  25.266  25.424  1.00  0.00    -0.264 NA
ATOM     84  C   UNL A   1      32.518  23.350  25.264  1.00  0.00     0.018 C 
ATOM     85  O   UNL A   1      33.329  21.616  23.906  1.00  0.00    -0.293 OA
ATOM     86  C   UNL A   1      32.782  24.617  25.633  1.00  0.00     0.047 C 
ATOM     87  C   UNL A   1      31.212  22.651  25.478  1.00  0.00     0.041 C 
ATOM     88  C   UNL A   1      31.708  25.479  26.266  1.00  0.00     0.056 C 
ATOM     89  C   UNL A   1      30.325  23.386  26.481  1.00  0.00     0.005 C 
ATOM     90  C   UNL A   1      30.304  24.882  26.196  1.00  0.00     0.007 C 
ENDBRANCH  78  80
ENDBRANCH  77  78
ENDBRANCH  76  77
ENDBRANCH  75  76
ENDBRANCH  74  75
ENDBRANCH  73  74
ENDBRANCH   1  73
TORSDOF 17
ENDMDL
MODEL 3
REMARK VINA RESULT:     -10.9      3.909      6.893
REMARK SMILES O=C(OCCOCCOCCOC(=O)[C@H]1C=NC2=C(CCCC2)C1=O)c1ccc(-c2c3nc(c(-c4c(F)c(F)c(F)c(F)c4F)c4ccc([nH]4)c(-c4c(F)c(F)c(F)c(F)c4F)c4nc(c(-c5c(F)c(F)c(F)c(F)c5F)c5ccc2[nH]5)C=C4)C=C3)cc1
REMARK SMILES IDX 7 1 6 2 5 3 4 4 3 5 2 6 1 7 26 8 27 9 88 10 28 11 87 12
REMARK SMILES IDX 29 13 30 14 31 15 81 16 32 17 86 18 80 19 82 20 33 21 85 22
REMARK SMILES IDX 79 23 78 24 34 26 66 27 46 28 65 29 47 30 50 31 64 32 83 33
REMARK SMILES IDX 48 34 49 35 63 37 84 38 51 39 35 40 36 41 44 42 37 43 38 44
REMARK SMILES IDX 42 45 45 46 39 47 40 48 43 49 41 50 67 51 68 52 76 53 69 54
REMARK SMILES IDX 70 55 74 56 77 57 71 58 72 59 75 60 73 61 52 62 53 63 61 64
REMARK SMILES IDX 54 65 55 66 59 67 62 68 56 69 57 70 60 71 58 72 8 73 9 74
REMARK SMILES IDX 10 75 11 76 12 77 13 78 14 79 15 80 16 81 24 82 17 83 19 84
REMARK SMILES IDX 25 85 18 86 20 87 23 88 21 89 22 90
REMARK H PARENT 82 25 50 36
REMARK Flexibility Score: inf
ROOT
ATOM      1  C   UNL A   1      44.084  19.124  24.942  1.00  0.00     0.188 C 
ENDROOT
BRANCH   1   2
ATOM      2  O   UNL A   1      42.662  19.123  25.105  1.00  0.00    -0.376 OA
BRANCH   2   3
ATOM      3  C   UNL A   1      42.238  19.821  26.284  1.00  0.00     0.202 C 
BRANCH   3   4
ATOM      4  C   UNL A   1      40.828  20.451  26.244  1.00  0.00     0.261 C 
BRANCH   4   5
ATOM      5  O   UNL A   1      40.816  21.888  26.183  1.00  0.00    -0.460 OA
BRANCH   5   6
ATOM      6  C   UNL A   1      39.788  22.754  26.365  1.00  0.00     0.338 C 
ATOM      7  O   UNL A   1      38.677  22.422  25.955  1.00  0.00    -0.246 OA
BRANCH   6   8
ATOM      8  C   UNL A   1      39.923  24.116  26.982  1.00  0.00     0.060 A 
ATOM      9  C   UNL A   1      40.603  25.197  26.423  1.00  0.00     0.016 A 
ATOM     10  C   UNL A   1      39.283  24.325  28.220  1.00  0.00     0.016 A 
ATOM     11  C   UNL A   1      40.725  26.410  27.090  1.00  0.00     0.010 A 
ATOM     12  C   UNL A   1      39.371  25.553  28.887  1.00  0.00     0.010 A 
ATOM     13  C   UNL A   1      40.133  26.588  28.334  1.00  0.00    -0.014 A 
BRANCH  13  14
ATOM     14  C   UNL A   1      40.507  27.785  29.111  1.00  0.00     0.031 A 
ATOM     15  C   UNL A   1      41.897  27.844  29.673  1.00  0.00     0.074 A 
ATOM     16  C   UNL A   1      39.690  28.852  29.167  1.00  0.00     0.049 A 
ATOM     17  N   UNL A   1      42.469  28.781  30.379  1.00  0.00    -0.248 NA
ATOM     18  C   UNL A   1      42.782  26.708  29.352  1.00  0.00     0.031 C 
ATOM     19  C   UNL A   1      38.401  28.969  28.486  1.00  0.00     0.029 A 
ATOM     20  N   UNL A   1      39.829  30.049  29.817  1.00  0.00    -0.354 N 
ATOM     21  C   UNL A   1      43.780  28.361  30.565  1.00  0.00     0.074 A 
ATOM     22  C   UNL A   1      43.912  27.065  29.939  1.00  0.00     0.031 C 
ATOM     23  C   UNL A   1      37.843  30.153  28.794  1.00  0.00     0.029 A 
ATOM     24  C   UNL A   1      38.719  30.853  29.722  1.00  0.00     0.049 A 
ATOM     25  H   UNL A   1      40.643  30.309  30.305  1.00  0.00     0.167 HD
ATOM     26  C   UNL A   1      44.785  29.017  31.185  1.00  0.00     0.037 A 
ATOM     27  C   UNL A   1      38.436  32.004  30.360  1.00  0.00     0.037 A 
ATOM     28  C   UNL A   1      44.618  30.296  31.819  1.00  0.00     0.049 A 
ATOM     29  C   UNL A   1      39.490  32.597  31.244  1.00  0.00     0.074 A 
ATOM     30  C   UNL A   1      45.543  31.046  32.519  1.00  0.00     0.029 A 
ATOM     31  N   UNL A   1      43.426  31.009  31.836  1.00  0.00    -0.354 N 
ATOM     32  N   UNL A   1      40.707  32.170  31.476  1.00  0.00    -0.248 NA
ATOM     33  C   UNL A   1      39.139  33.841  31.934  1.00  0.00     0.031 C 
ATOM     34  C   UNL A   1      44.895  32.183  33.011  1.00  0.00     0.029 A 
ATOM     35  C   UNL A   1      43.581  32.175  32.564  1.00  0.00     0.049 A 
ATOM     36  H   UNL A   1      42.592  30.726  31.395  1.00  0.00     0.167 HD
ATOM     37  C   UNL A   1      41.290  33.116  32.301  1.00  0.00     0.074 A 
ATOM     38  C   UNL A   1      40.280  34.130  32.545  1.00  0.00     0.031 C 
ATOM     39  C   UNL A   1      42.553  33.159  32.790  1.00  0.00     0.037 A 
BRANCH  26  40
ATOM     40  C   UNL A   1      46.119  28.334  31.245  1.00  0.00     0.064 A 
ATOM     41  C   UNL A   1      46.348  27.222  32.071  1.00  0.00     0.173 A 
ATOM     42  C   UNL A   1      47.191  28.807  30.474  1.00  0.00     0.173 A 
ATOM     43  F   UNL A   1      45.364  26.746  32.850  1.00  0.00    -0.203 F 
ATOM     44  C   UNL A   1      47.606  26.628  32.143  1.00  0.00     0.198 A 
ATOM     45  C   UNL A   1      48.440  28.195  30.528  1.00  0.00     0.198 A 
ATOM     46  F   UNL A   1      47.029  29.872  29.675  1.00  0.00    -0.203 F 
ATOM     47  F   UNL A   1      47.815  25.603  32.981  1.00  0.00    -0.200 F 
ATOM     48  C   UNL A   1      48.649  27.112  31.368  1.00  0.00     0.200 A 
ATOM     49  F   UNL A   1      49.446  28.662  29.775  1.00  0.00    -0.200 F 
ATOM     50  F   UNL A   1      49.860  26.542  31.439  1.00  0.00    -0.200 F 
ENDBRANCH  26  40
BRANCH  27  51
ATOM     51  C   UNL A   1      37.096  32.627  30.249  1.00  0.00     0.064 A 
ATOM     52  C   UNL A   1      36.771  33.508  29.213  1.00  0.00     0.173 A 
ATOM     53  C   UNL A   1      36.126  32.385  31.230  1.00  0.00     0.173 A 
ATOM     54  F   UNL A   1      37.689  33.818  28.286  1.00  0.00    -0.203 F 
ATOM     55  C   UNL A   1      35.514  34.112  29.154  1.00  0.00     0.198 A 
ATOM     56  C   UNL A   1      34.861  32.964  31.156  1.00  0.00     0.198 A 
ATOM     57  F   UNL A   1      36.418  31.608  32.281  1.00  0.00    -0.203 F 
ATOM     58  F   UNL A   1      35.239  34.988  28.178  1.00  0.00    -0.200 F 
ATOM     59  C   UNL A   1      34.556  33.831  30.119  1.00  0.00     0.200 A 
ATOM     60  F   UNL A   1      33.946  32.694  32.097  1.00  0.00    -0.200 F 
ATOM     61  F   UNL A   1      33.351  34.412  30.063  1.00  0.00    -0.200 F 
ENDBRANCH  27  51
BRANCH  39  62
ATOM     62  C   UNL A   1      42.922  34.373  33.582  1.00  0.00     0.064 A 
ATOM     63  C   UNL A   1      42.870  34.387  34.982  1.00  0.00     0.173 A 
ATOM     64  C   UNL A   1      43.359  35.531  32.922  1.00  0.00     0.173 A 
ATOM     65  F   UNL A   1      42.436  33.310  35.653  1.00  0.00    -0.203 F 
ATOM     66  C   UNL A   1      43.219  35.531  35.693  1.00  0.00     0.198 A 
ATOM     67  C   UNL A   1      43.738  36.659  33.636  1.00  0.00     0.198 A 
ATOM     68  F   UNL A   1      43.425  35.562  31.581  1.00  0.00    -0.203 F 
ATOM     69  F   UNL A   1      43.109  35.544  37.029  1.00  0.00    -0.200 F 
ATOM     70  C   UNL A   1      43.660  36.661  35.021  1.00  0.00     0.200 A 
ATOM     71  F   UNL A   1      44.177  37.746  32.987  1.00  0.00    -0.200 F 
ATOM     72  F   UNL A   1      44.002  37.759  35.709  1.00  0.00    -0.200 F 
ENDBRANCH  39  62
ENDBRANCH  13  14
ENDBRANCH   6   8
ENDBRANCH   5   6
ENDBRANCH   4   5
ENDBRANCH   3   4
ENDBRANCH   2   3
ENDBRANCH   1   2
BRANCH   1  73
ATOM     73  C   UNL A   1      44.739  20.505  24.979  1.00  0.00     0.188 C 
BRANCH  73  74
ATOM     74  O   UNL A   1      44.384  21.460  23.995  1.00  0.00    -0.376 OA
BRANCH  74  75
ATOM     75  C   UNL A   1      43.897  22.724  24.418  1.00  0.00     0.202 C 
BRANCH  75  76
ATOM     76  C   UNL A   1      44.107  23.209  25.867  1.00  0.00     0.261 C 
BRANCH  76  77
ATOM     77  O   UNL A   1      45.411  23.688  26.224  1.00  0.00    -0.462 OA
BRANCH  77  78
ATOM     78  C   UNL A   1      45.786  24.854  25.635  1.00  0.00     0.322 C 
ATOM     79  O   UNL A   1      46.348  24.929  24.544  1.00  0.00    -0.251 OA
BRANCH  78  80
ATOM     80  C   UNL A   1      45.430  26.059  26.459  1.00  0.00     0.212 C 
ATOM     81  C   UNL A   1      46.572  26.956  26.823  1.00  0.00     0.107 C 
ATOM     82  C   UNL A   1      44.314  26.860  25.858  1.00  0.00     0.180 C 
ATOM     83  N   UNL A   1      46.469  28.229  27.054  1.00  0.00    -0.264 NA
ATOM     84  C   UNL A   1      44.160  28.247  26.363  1.00  0.00     0.018 C 
ATOM     85  O   UNL A   1      43.524  26.428  25.024  1.00  0.00    -0.293 OA
ATOM     86  C   UNL A   1      45.239  28.823  26.923  1.00  0.00     0.047 C 
ATOM     87  C   UNL A   1      42.824  28.904  26.206  1.00  0.00     0.041 C 
ATOM     88  C   UNL A   1      45.190  30.260  27.402  1.00  0.00     0.056 C 
ATOM     89  C   UNL A   1      42.695  30.158  27.070  1.00  0.00     0.005 C 
ATOM     90  C   UNL A   1      43.943  31.025  26.961  1.00  0.00     0.007 C 
ENDBRANCH  78  80
ENDBRANCH  77  78
ENDBRANCH  76  77
ENDBRANCH  75  76
ENDBRANCH  74  75
ENDBRANCH  73  74
ENDBRANCH   1  73
TORSDOF 17
ENDMDL
