MODEL 1
REMARK VINA RESULT:     -11.5      0.000      0.000
REMARK SMILES CC(C)c1ccc([C@]2(C(=O)OCCOCCOCCOC(=O)c3ccc(-c4c5nc(c(-c6c(F)c(F)c(F)c(F)c6F)c6ccc([nH]6)c(-c6c(F)c(F)c(F)c(F)c6F)c6nc(c(-c7c(F)c(F)c(F)c(F)c7F)c7ccc4[nH]7)C=C6)C=C5)cc3)CCC[C@@H]2C)cc1
REMARK SMILES IDX 15 1 14 2 13 3 12 4 11 5 9 6 10 7 8 8 86 9 89 10 87 11 88 12
REMARK SMILES IDX 90 13 7 14 4 15 5 16 92 17 6 18 91 19 2 20 1 21 3 22 16 23
REMARK SMILES IDX 17 24 18 25 19 26 20 27 21 28 22 29 23 30 24 31 85 32 25 33
REMARK SMILES IDX 84 34 26 35 27 36 28 37 78 38 29 39 83 40 77 41 79 42 30 43
REMARK SMILES IDX 82 44 76 45 75 46 31 48 63 49 43 50 62 51 44 52 47 53 61 54
REMARK SMILES IDX 80 55 45 56 46 57 60 59 81 60 48 61 32 62 33 63 41 64 34 65
REMARK SMILES IDX 35 66 39 67 42 68 36 69 37 70 40 71 38 72 64 73 65 74 73 75
REMARK SMILES IDX 66 76 67 77 71 78 74 79 68 80 69 81 72 82 70 83 49 84 50 85
REMARK SMILES IDX 58 86 51 87 52 88 56 89 59 90 53 91 54 92 57 93 55 94
REMARK H PARENT 79 47 47 58
REMARK Flexibility Score: inf
ROOT
ATOM      1  C   UNL A   1      30.088  27.742  22.780  1.00  0.00     0.188 C 
ENDROOT
BRANCH   1   2
ATOM      2  O   UNL A   1      29.439  26.890  23.715  1.00  0.00    -0.376 OA
BRANCH   2   3
ATOM      3  C   UNL A   1      29.839  25.526  23.794  1.00  0.00     0.202 C 
BRANCH   3   4
ATOM      4  C   UNL A   1      30.955  25.037  22.856  1.00  0.00     0.261 C 
BRANCH   4   5
ATOM      5  O   UNL A   1      31.589  23.787  23.223  1.00  0.00    -0.463 OA
BRANCH   5   6
ATOM      6  C   UNL A   1      32.949  23.807  23.309  1.00  0.00     0.316 C 
ATOM      7  O   UNL A   1      33.674  24.107  22.363  1.00  0.00    -0.251 OA
BRANCH   6   8
ATOM      8  C   UNL A   1      33.538  23.363  24.695  1.00  0.00     0.095 C 
ATOM      9  C   UNL A   1      34.834  24.035  25.210  1.00  0.00     0.024 C 
ATOM     10  C   UNL A   1      32.547  23.949  25.764  1.00  0.00     0.008 C 
ATOM     11  C   UNL A   1      34.458  25.459  25.613  1.00  0.00     0.002 C 
ATOM     12  C   UNL A   1      32.941  25.441  25.797  1.00  0.00     0.005 C 
ATOM     13  C   UNL A   1      32.669  23.389  27.194  1.00  0.00     0.009 C 
BRANCH   8  14
ATOM     14  C   UNL A   1      33.692  21.831  24.625  1.00  0.00    -0.030 A 
ATOM     15  C   UNL A   1      33.943  18.981  24.492  1.00  0.00    -0.045 A 
ATOM     16  C   UNL A   1      35.018  19.794  24.875  1.00  0.00     0.004 A 
ATOM     17  C   UNL A   1      32.722  19.615  24.237  1.00  0.00     0.004 A 
ATOM     18  C   UNL A   1      34.883  21.184  24.978  1.00  0.00     0.005 A 
ATOM     19  C   UNL A   1      32.603  21.012  24.285  1.00  0.00     0.005 A 
BRANCH  15  20
ATOM     20  C   UNL A   1      34.154  17.479  24.347  1.00  0.00     0.013 C 
ATOM     21  C   UNL A   1      33.255  16.688  25.305  1.00  0.00     0.012 C 
ATOM     22  C   UNL A   1      33.988  16.934  22.926  1.00  0.00     0.012 C 
ENDBRANCH  15  20
ENDBRANCH   8  14
ENDBRANCH   6   8
ENDBRANCH   5   6
ENDBRANCH   4   5
ENDBRANCH   3   4
ENDBRANCH   2   3
ENDBRANCH   1   2
BRANCH   1  23
ATOM     23  C   UNL A   1      29.667  29.215  22.717  1.00  0.00     0.188 C 
BRANCH  23  24
ATOM     24  O   UNL A   1      30.076  29.988  23.823  1.00  0.00    -0.376 OA
BRANCH  24  25
ATOM     25  C   UNL A   1      31.259  29.603  24.496  1.00  0.00     0.202 C 
BRANCH  25  26
ATOM     26  C   UNL A   1      31.529  30.371  25.795  1.00  0.00     0.261 C 
BRANCH  26  27
ATOM     27  O   UNL A   1      32.915  30.470  26.174  1.00  0.00    -0.460 OA
BRANCH  27  28
ATOM     28  C   UNL A   1      33.267  31.507  26.968  1.00  0.00     0.338 C 
ATOM     29  O   UNL A   1      32.591  32.486  27.237  1.00  0.00    -0.246 OA
BRANCH  28  30
ATOM     30  C   UNL A   1      34.529  31.142  27.656  1.00  0.00     0.060 A 
ATOM     31  C   UNL A   1      34.762  29.798  27.976  1.00  0.00     0.016 A 
ATOM     32  C   UNL A   1      35.497  32.108  27.952  1.00  0.00     0.016 A 
ATOM     33  C   UNL A   1      35.952  29.426  28.608  1.00  0.00     0.010 A 
ATOM     34  C   UNL A   1      36.680  31.736  28.601  1.00  0.00     0.010 A 
ATOM     35  C   UNL A   1      36.909  30.396  28.947  1.00  0.00    -0.014 A 
BRANCH  35  36
ATOM     36  C   UNL A   1      38.047  30.032  29.832  1.00  0.00     0.031 A 
ATOM     37  C   UNL A   1      39.141  29.172  29.265  1.00  0.00     0.074 A 
ATOM     38  C   UNL A   1      38.128  30.464  31.104  1.00  0.00     0.049 A 
ATOM     39  N   UNL A   1      40.245  28.746  29.824  1.00  0.00    -0.248 NA
ATOM     40  C   UNL A   1      38.956  28.723  27.875  1.00  0.00     0.031 C 
ATOM     41  C   UNL A   1      37.148  31.320  31.769  1.00  0.00     0.029 A 
ATOM     42  N   UNL A   1      39.110  30.278  32.049  1.00  0.00    -0.354 N 
ATOM     43  C   UNL A   1      40.869  27.957  28.867  1.00  0.00     0.074 A 
ATOM     44  C   UNL A   1      40.032  27.976  27.687  1.00  0.00     0.031 C 
ATOM     45  C   UNL A   1      37.612  31.639  32.992  1.00  0.00     0.029 A 
ATOM     46  C   UNL A   1      38.899  30.978  33.214  1.00  0.00     0.049 A 
ATOM     47  H   UNL A   1      39.891  29.696  31.905  1.00  0.00     0.167 HD
ATOM     48  C   UNL A   1      42.023  27.256  28.970  1.00  0.00     0.037 A 
ATOM     49  C   UNL A   1      39.666  31.079  34.320  1.00  0.00     0.037 A 
ATOM     50  C   UNL A   1      42.844  27.207  30.150  1.00  0.00     0.049 A 
ATOM     51  C   UNL A   1      40.953  30.287  34.407  1.00  0.00     0.074 A 
ATOM     52  C   UNL A   1      44.006  26.486  30.363  1.00  0.00     0.029 A 
ATOM     53  N   UNL A   1      42.583  27.900  31.323  1.00  0.00    -0.354 N 
ATOM     54  N   UNL A   1      41.538  29.546  33.498  1.00  0.00    -0.248 NA
ATOM     55  C   UNL A   1      41.672  30.330  35.691  1.00  0.00     0.031 C 
ATOM     56  C   UNL A   1      44.418  26.700  31.682  1.00  0.00     0.029 A 
ATOM     57  C   UNL A   1      43.551  27.606  32.270  1.00  0.00     0.049 A 
ATOM     58  H   UNL A   1      41.824  28.511  31.461  1.00  0.00     0.167 HD
ATOM     59  C   UNL A   1      42.686  29.037  34.097  1.00  0.00     0.074 A 
ATOM     60  C   UNL A   1      42.743  29.593  35.430  1.00  0.00     0.031 C 
ATOM     61  C   UNL A   1      43.599  28.168  33.596  1.00  0.00     0.037 A 
BRANCH  48  62
ATOM     62  C   UNL A   1      42.420  26.418  27.791  1.00  0.00     0.064 A 
ATOM     63  C   UNL A   1      41.891  25.136  27.579  1.00  0.00     0.173 A 
ATOM     64  C   UNL A   1      43.347  26.910  26.859  1.00  0.00     0.173 A 
ATOM     65  F   UNL A   1      41.021  24.612  28.455  1.00  0.00    -0.203 F 
ATOM     66  C   UNL A   1      42.296  24.368  26.491  1.00  0.00     0.198 A 
ATOM     67  C   UNL A   1      43.725  26.152  25.755  1.00  0.00     0.198 A 
ATOM     68  F   UNL A   1      43.884  28.128  27.018  1.00  0.00    -0.203 F 
ATOM     69  F   UNL A   1      41.822  23.124  26.338  1.00  0.00    -0.200 F 
ATOM     70  C   UNL A   1      43.207  24.878  25.578  1.00  0.00     0.200 A 
ATOM     71  F   UNL A   1      44.597  26.651  24.868  1.00  0.00    -0.200 F 
ATOM     72  F   UNL A   1      43.594  24.137  24.530  1.00  0.00    -0.200 F 
ENDBRANCH  48  62
BRANCH  49  73
ATOM     73  C   UNL A   1      39.261  31.963  35.451  1.00  0.00     0.064 A 
ATOM     74  C   UNL A   1      38.448  31.477  36.487  1.00  0.00     0.173 A 
ATOM     75  C   UNL A   1      39.623  33.318  35.497  1.00  0.00     0.173 A 
ATOM     76  F   UNL A   1      38.045  30.197  36.478  1.00  0.00    -0.203 F 
ATOM     77  C   UNL A   1      37.996  32.313  37.507  1.00  0.00     0.198 A 
ATOM     78  C   UNL A   1      39.202  34.144  36.538  1.00  0.00     0.198 A 
ATOM     79  F   UNL A   1      40.385  33.843  34.527  1.00  0.00    -0.203 F 
ATOM     80  F   UNL A   1      37.164  31.835  38.444  1.00  0.00    -0.200 F 
ATOM     81  C   UNL A   1      38.378  33.645  37.535  1.00  0.00     0.200 A 
ATOM     82  F   UNL A   1      39.581  35.428  36.566  1.00  0.00    -0.200 F 
ATOM     83  F   UNL A   1      37.940  34.451  38.512  1.00  0.00    -0.200 F 
ENDBRANCH  49  73
BRANCH  61  84
ATOM     84  C   UNL A   1      44.744  27.762  34.484  1.00  0.00     0.064 A 
ATOM     85  C   UNL A   1      44.696  26.591  35.256  1.00  0.00     0.173 A 
ATOM     86  C   UNL A   1      45.929  28.514  34.512  1.00  0.00     0.173 A 
ATOM     87  F   UNL A   1      43.587  25.837  35.272  1.00  0.00    -0.203 F 
ATOM     88  C   UNL A   1      45.780  26.203  36.041  1.00  0.00     0.198 A 
ATOM     89  C   UNL A   1      47.022  28.107  35.274  1.00  0.00     0.198 A 
ATOM     90  F   UNL A   1      46.035  29.636  33.785  1.00  0.00    -0.203 F 
ATOM     91  F   UNL A   1      45.694  25.104  36.804  1.00  0.00    -0.200 F 
ATOM     92  C   UNL A   1      46.944  26.957  36.042  1.00  0.00     0.200 A 
ATOM     93  F   UNL A   1      48.153  28.826  35.258  1.00  0.00    -0.200 F 
ATOM     94  F   UNL A   1      47.990  26.575  36.789  1.00  0.00    -0.200 F 
ENDBRANCH  61  84
ENDBRANCH  35  36
ENDBRANCH  28  30
ENDBRANCH  27  28
ENDBRANCH  26  27
ENDBRANCH  25  26
ENDBRANCH  24  25
ENDBRANCH  23  24
ENDBRANCH   1  23
TORSDOF 19
ENDMDL
MODEL 2
REMARK VINA RESULT:     -11.5      0.776      2.224
REMARK SMILES CC(C)c1ccc([C@]2(C(=O)OCCOCCOCCOC(=O)c3ccc(-c4c5nc(c(-c6c(F)c(F)c(F)c(F)c6F)c6ccc([nH]6)c(-c6c(F)c(F)c(F)c(F)c6F)c6nc(c(-c7c(F)c(F)c(F)c(F)c7F)c7ccc4[nH]7)C=C6)C=C5)cc3)CCC[C@@H]2C)cc1
REMARK SMILES IDX 15 1 14 2 13 3 12 4 11 5 9 6 10 7 8 8 86 9 89 10 87 11 88 12
REMARK SMILES IDX 90 13 7 14 4 15 5 16 92 17 6 18 91 19 2 20 1 21 3 22 16 23
REMARK SMILES IDX 17 24 18 25 19 26 20 27 21 28 22 29 23 30 24 31 85 32 25 33
REMARK SMILES IDX 84 34 26 35 27 36 28 37 78 38 29 39 83 40 77 41 79 42 30 43
REMARK SMILES IDX 82 44 76 45 75 46 31 48 63 49 43 50 62 51 44 52 47 53 61 54
REMARK SMILES IDX 80 55 45 56 46 57 60 59 81 60 48 61 32 62 33 63 41 64 34 65
REMARK SMILES IDX 35 66 39 67 42 68 36 69 37 70 40 71 38 72 64 73 65 74 73 75
REMARK SMILES IDX 66 76 67 77 71 78 74 79 68 80 69 81 72 82 70 83 49 84 50 85
REMARK SMILES IDX 58 86 51 87 52 88 56 89 59 90 53 91 54 92 57 93 55 94
REMARK H PARENT 79 47 47 58
REMARK Flexibility Score: inf
ROOT
ATOM      1  C   UNL A   1      30.178  27.229  23.212  1.00  0.00     0.188 C 
ENDROOT
BRANCH   1   2
ATOM      2  O   UNL A   1      29.558  26.516  24.275  1.00  0.00    -0.376 OA
BRANCH   2   3
ATOM      3  C   UNL A   1      30.318  26.229  25.444  1.00  0.00     0.202 C 
BRANCH   3   4
ATOM      4  C   UNL A   1      30.285  24.797  26.005  1.00  0.00     0.261 C 
BRANCH   4   5
ATOM      5  O   UNL A   1      31.383  23.937  25.614  1.00  0.00    -0.463 OA
BRANCH   5   6
ATOM      6  C   UNL A   1      31.461  23.629  24.289  1.00  0.00     0.316 C 
ATOM      7  O   UNL A   1      30.473  23.546  23.562  1.00  0.00    -0.251 OA
BRANCH   6   8
ATOM      8  C   UNL A   1      32.907  23.329  23.756  1.00  0.00     0.095 C 
ATOM      9  C   UNL A   1      33.280  23.754  22.315  1.00  0.00     0.024 C 
ATOM     10  C   UNL A   1      33.840  24.330  24.529  1.00  0.00     0.008 C 
ATOM     11  C   UNL A   1      33.394  25.277  22.325  1.00  0.00     0.002 C 
ATOM     12  C   UNL A   1      33.578  25.661  23.792  1.00  0.00     0.005 C 
ATOM     13  C   UNL A   1      35.353  24.041  24.475  1.00  0.00     0.009 C 
BRANCH   8  14
ATOM     14  C   UNL A   1      33.140  21.822  23.972  1.00  0.00    -0.030 A 
ATOM     15  C   UNL A   1      33.606  19.026  24.388  1.00  0.00    -0.045 A 
ATOM     16  C   UNL A   1      32.523  19.483  23.625  1.00  0.00     0.004 A 
ATOM     17  C   UNL A   1      34.488  19.991  24.886  1.00  0.00     0.004 A 
ATOM     18  C   UNL A   1      32.318  20.848  23.390  1.00  0.00     0.005 A 
ATOM     19  C   UNL A   1      34.251  21.360  24.698  1.00  0.00     0.005 A 
BRANCH  15  20
ATOM     20  C   UNL A   1      33.756  17.533  24.656  1.00  0.00     0.013 C 
ATOM     21  C   UNL A   1      32.526  16.964  25.372  1.00  0.00     0.012 C 
ATOM     22  C   UNL A   1      34.069  16.680  23.424  1.00  0.00     0.012 C 
ENDBRANCH  15  20
ENDBRANCH   8  14
ENDBRANCH   6   8
ENDBRANCH   5   6
ENDBRANCH   4   5
ENDBRANCH   3   4
ENDBRANCH   2   3
ENDBRANCH   1   2
BRANCH   1  23
ATOM     23  C   UNL A   1      29.605  28.594  22.816  1.00  0.00     0.188 C 
BRANCH  23  24
ATOM     24  O   UNL A   1      30.174  29.690  23.497  1.00  0.00    -0.376 OA
BRANCH  24  25
ATOM     25  C   UNL A   1      31.399  29.481  24.173  1.00  0.00     0.202 C 
BRANCH  25  26
ATOM     26  C   UNL A   1      31.518  30.217  25.512  1.00  0.00     0.261 C 
BRANCH  26  27
ATOM     27  O   UNL A   1      32.844  30.266  26.071  1.00  0.00    -0.460 OA
BRANCH  27  28
ATOM     28  C   UNL A   1      33.134  31.305  26.886  1.00  0.00     0.338 C 
ATOM     29  O   UNL A   1      32.417  32.258  27.143  1.00  0.00    -0.246 OA
BRANCH  28  30
ATOM     30  C   UNL A   1      34.387  30.976  27.611  1.00  0.00     0.060 A 
ATOM     31  C   UNL A   1      34.706  29.630  27.834  1.00  0.00     0.016 A 
ATOM     32  C   UNL A   1      35.261  31.982  28.036  1.00  0.00     0.016 A 
ATOM     33  C   UNL A   1      35.889  29.294  28.499  1.00  0.00     0.010 A 
ATOM     34  C   UNL A   1      36.436  31.643  28.717  1.00  0.00     0.010 A 
ATOM     35  C   UNL A   1      36.751  30.299  28.967  1.00  0.00    -0.014 A 
BRANCH  35  36
ATOM     36  C   UNL A   1      37.868  29.945  29.881  1.00  0.00     0.031 A 
ATOM     37  C   UNL A   1      38.989  29.103  29.340  1.00  0.00     0.074 A 
ATOM     38  C   UNL A   1      37.909  30.373  31.157  1.00  0.00     0.049 A 
ATOM     39  N   UNL A   1      40.082  28.688  29.927  1.00  0.00    -0.248 NA
ATOM     40  C   UNL A   1      38.848  28.658  27.944  1.00  0.00     0.031 C 
ATOM     41  C   UNL A   1      36.901  31.213  31.798  1.00  0.00     0.029 A 
ATOM     42  N   UNL A   1      38.868  30.195  32.127  1.00  0.00    -0.354 N 
ATOM     43  C   UNL A   1      40.743  27.912  28.984  1.00  0.00     0.074 A 
ATOM     44  C   UNL A   1      39.938  27.925  27.782  1.00  0.00     0.031 C 
ATOM     45  C   UNL A   1      37.327  31.533  33.034  1.00  0.00     0.029 A 
ATOM     46  C   UNL A   1      38.616  30.887  33.288  1.00  0.00     0.049 A 
ATOM     47  H   UNL A   1      39.660  29.624  32.001  1.00  0.00     0.167 HD
ATOM     48  C   UNL A   1      41.903  27.225  29.115  1.00  0.00     0.037 A 
ATOM     49  C   UNL A   1      39.352  30.992  34.415  1.00  0.00     0.037 A 
ATOM     50  C   UNL A   1      42.692  27.181  30.317  1.00  0.00     0.049 A 
ATOM     51  C   UNL A   1      40.646  30.217  34.534  1.00  0.00     0.074 A 
ATOM     52  C   UNL A   1      43.857  26.474  30.558  1.00  0.00     0.029 A 
ATOM     53  N   UNL A   1      42.390  27.865  31.485  1.00  0.00    -0.354 N 
ATOM     54  N   UNL A   1      41.265  29.487  33.638  1.00  0.00    -0.248 NA
ATOM     55  C   UNL A   1      41.329  30.263  35.837  1.00  0.00     0.031 C 
ATOM     56  C   UNL A   1      44.230  26.686  31.889  1.00  0.00     0.029 A 
ATOM     57  C   UNL A   1      43.336  27.579  32.457  1.00  0.00     0.049 A 
ATOM     58  H   UNL A   1      41.619  28.465  31.605  1.00  0.00     0.167 HD
ATOM     59  C   UNL A   1      42.403  28.990  34.266  1.00  0.00     0.074 A 
ATOM     60  C   UNL A   1      42.416  29.540  35.602  1.00  0.00     0.031 C 
ATOM     61  C   UNL A   1      43.340  28.135  33.786  1.00  0.00     0.037 A 
BRANCH  48  62
ATOM     62  C   UNL A   1      42.342  26.398  27.944  1.00  0.00     0.064 A 
ATOM     63  C   UNL A   1      43.272  26.872  27.007  1.00  0.00     0.173 A 
ATOM     64  C   UNL A   1      41.822  25.107  27.760  1.00  0.00     0.173 A 
ATOM     65  F   UNL A   1      43.779  28.108  27.125  1.00  0.00    -0.203 F 
ATOM     66  C   UNL A   1      43.643  26.094  25.913  1.00  0.00     0.198 A 
ATOM     67  C   UNL A   1      42.221  24.320  26.684  1.00  0.00     0.198 A 
ATOM     68  F   UNL A   1      40.929  24.608  28.627  1.00  0.00    -0.203 F 
ATOM     69  F   UNL A   1      44.489  26.588  24.998  1.00  0.00    -0.200 F 
ATOM     70  C   UNL A   1      43.123  24.818  25.756  1.00  0.00     0.200 A 
ATOM     71  F   UNL A   1      41.724  23.083  26.540  1.00  0.00    -0.200 F 
ATOM     72  F   UNL A   1      43.483  24.070  24.704  1.00  0.00    -0.200 F 
ENDBRANCH  48  62
BRANCH  49  73
ATOM     73  C   UNL A   1      38.905  31.866  35.539  1.00  0.00     0.064 A 
ATOM     74  C   UNL A   1      39.278  33.219  35.588  1.00  0.00     0.173 A 
ATOM     75  C   UNL A   1      38.151  31.366  36.610  1.00  0.00     0.173 A 
ATOM     76  F   UNL A   1      40.027  33.744  34.606  1.00  0.00    -0.203 F 
ATOM     77  C   UNL A   1      38.937  34.027  36.673  1.00  0.00     0.198 A 
ATOM     78  C   UNL A   1      37.777  32.184  37.676  1.00  0.00     0.198 A 
ATOM     79  F   UNL A   1      37.780  30.078  36.627  1.00  0.00    -0.203 F 
ATOM     80  F   UNL A   1      39.366  35.295  36.723  1.00  0.00    -0.200 F 
ATOM     81  C   UNL A   1      38.181  33.510  37.713  1.00  0.00     0.200 A 
ATOM     82  F   UNL A   1      37.039  31.682  38.675  1.00  0.00    -0.200 F 
ATOM     83  F   UNL A   1      37.855  34.283  38.758  1.00  0.00    -0.200 F 
ENDBRANCH  49  73
BRANCH  61  84
ATOM     84  C   UNL A   1      44.466  27.739  34.703  1.00  0.00     0.064 A 
ATOM     85  C   UNL A   1      45.645  28.494  34.788  1.00  0.00     0.173 A 
ATOM     86  C   UNL A   1      44.336  26.633  35.557  1.00  0.00     0.173 A 
ATOM     87  F   UNL A   1      45.826  29.558  33.991  1.00  0.00    -0.203 F 
ATOM     88  C   UNL A   1      46.662  28.141  35.673  1.00  0.00     0.198 A 
ATOM     89  C   UNL A   1      45.341  26.302  36.463  1.00  0.00     0.198 A 
ATOM     90  F   UNL A   1      43.225  25.882  35.528  1.00  0.00    -0.203 F 
ATOM     91  F   UNL A   1      47.798  28.853  35.704  1.00  0.00    -0.200 F 
ATOM     92  C   UNL A   1      46.505  27.051  36.516  1.00  0.00     0.200 A 
ATOM     93  F   UNL A   1      45.179  25.259  37.290  1.00  0.00    -0.200 F 
ATOM     94  F   UNL A   1      47.479  26.722  37.376  1.00  0.00    -0.200 F 
ENDBRANCH  61  84
ENDBRANCH  35  36
ENDBRANCH  28  30
ENDBRANCH  27  28
ENDBRANCH  26  27
ENDBRANCH  25  26
ENDBRANCH  24  25
ENDBRANCH  23  24
ENDBRANCH   1  23
TORSDOF 19
ENDMDL
MODEL 3
REMARK VINA RESULT:     -11.2      5.353      9.197
REMARK SMILES CC(C)c1ccc([C@]2(C(=O)OCCOCCOCCOC(=O)c3ccc(-c4c5nc(c(-c6c(F)c(F)c(F)c(F)c6F)c6ccc([nH]6)c(-c6c(F)c(F)c(F)c(F)c6F)c6nc(c(-c7c(F)c(F)c(F)c(F)c7F)c7ccc4[nH]7)C=C6)C=C5)cc3)CCC[C@@H]2C)cc1
REMARK SMILES IDX 15 1 14 2 13 3 12 4 11 5 9 6 10 7 8 8 86 9 89 10 87 11 88 12
REMARK SMILES IDX 90 13 7 14 4 15 5 16 92 17 6 18 91 19 2 20 1 21 3 22 16 23
REMARK SMILES IDX 17 24 18 25 19 26 20 27 21 28 22 29 23 30 24 31 85 32 25 33
REMARK SMILES IDX 84 34 26 35 27 36 28 37 78 38 29 39 83 40 77 41 79 42 30 43
REMARK SMILES IDX 82 44 76 45 75 46 31 48 63 49 43 50 62 51 44 52 47 53 61 54
REMARK SMILES IDX 80 55 45 56 46 57 60 59 81 60 48 61 32 62 33 63 41 64 34 65
REMARK SMILES IDX 35 66 39 67 42 68 36 69 37 70 40 71 38 72 64 73 65 74 73 75
REMARK SMILES IDX 66 76 67 77 71 78 74 79 68 80 69 81 72 82 70 83 49 84 50 85
REMARK SMILES IDX 58 86 51 87 52 88 56 89 59 90 53 91 54 92 57 93 55 94
REMARK H PARENT 79 47 47 58
REMARK Flexibility Score: inf
ROOT
ATOM      1  C   UNL A   1      39.325  22.620  26.494  1.00  0.00     0.188 C 
ENDROOT
BRANCH   1   2
ATOM      2  O   UNL A   1      38.504  21.805  25.668  1.00  0.00    -0.376 OA
BRANCH   2   3
ATOM      3  C   UNL A   1      37.151  22.192  25.450  1.00  0.00     0.202 C 
BRANCH   3   4
ATOM      4  C   UNL A   1      36.822  23.028  24.202  1.00  0.00     0.261 C 
BRANCH   4   5
ATOM      5  O   UNL A   1      35.839  24.077  24.383  1.00  0.00    -0.463 OA
BRANCH   5   6
ATOM      6  C   UNL A   1      34.667  23.924  23.704  1.00  0.00     0.316 C 
ATOM      7  O   UNL A   1      34.581  24.042  22.484  1.00  0.00    -0.251 OA
BRANCH   6   8
ATOM      8  C   UNL A   1      33.409  23.639  24.598  1.00  0.00     0.095 C 
ATOM      9  C   UNL A   1      33.401  24.135  26.065  1.00  0.00     0.024 C 
ATOM     10  C   UNL A   1      32.288  24.588  24.038  1.00  0.00     0.008 C 
ATOM     11  C   UNL A   1      33.253  25.654  26.011  1.00  0.00     0.002 C 
ATOM     12  C   UNL A   1      32.697  25.959  24.620  1.00  0.00     0.005 C 
ATOM     13  C   UNL A   1      30.845  24.288  24.486  1.00  0.00     0.009 C 
BRANCH   8  14
ATOM     14  C   UNL A   1      33.163  22.120  24.521  1.00  0.00    -0.030 A 
ATOM     15  C   UNL A   1      32.689  19.300  24.346  1.00  0.00    -0.045 A 
ATOM     16  C   UNL A   1      33.198  19.887  25.513  1.00  0.00     0.004 A 
ATOM     17  C   UNL A   1      32.362  20.158  23.291  1.00  0.00     0.004 A 
ATOM     18  C   UNL A   1      33.393  21.270  25.611  1.00  0.00     0.005 A 
ATOM     19  C   UNL A   1      32.610  21.536  23.369  1.00  0.00     0.005 A 
BRANCH  15  20
ATOM     20  C   UNL A   1      32.542  17.785  24.273  1.00  0.00     0.013 C 
ATOM     21  C   UNL A   1      33.504  17.176  23.245  1.00  0.00     0.012 C 
ATOM     22  C   UNL A   1      32.693  17.052  25.608  1.00  0.00     0.012 C 
ENDBRANCH  15  20
ENDBRANCH   8  14
ENDBRANCH   6   8
ENDBRANCH   5   6
ENDBRANCH   4   5
ENDBRANCH   3   4
ENDBRANCH   2   3
ENDBRANCH   1   2
BRANCH   1  23
ATOM     23  C   UNL A   1      40.613  22.018  27.066  1.00  0.00     0.188 C 
BRANCH  23  24
ATOM     24  O   UNL A   1      41.363  21.257  26.146  1.00  0.00    -0.376 OA
BRANCH  24  25
ATOM     25  C   UNL A   1      41.373  19.852  26.305  1.00  0.00     0.202 C 
BRANCH  25  26
ATOM     26  C   UNL A   1      42.695  19.179  25.920  1.00  0.00     0.261 C 
BRANCH  26  27
ATOM     27  O   UNL A   1      43.119  19.389  24.560  1.00  0.00    -0.460 OA
BRANCH  27  28
ATOM     28  C   UNL A   1      44.438  19.599  24.348  1.00  0.00     0.338 C 
ATOM     29  O   UNL A   1      45.212  18.865  23.757  1.00  0.00    -0.246 OA
BRANCH  28  30
ATOM     30  C   UNL A   1      44.744  20.995  24.750  1.00  0.00     0.060 A 
ATOM     31  C   UNL A   1      45.450  21.218  25.939  1.00  0.00     0.016 A 
ATOM     32  C   UNL A   1      44.374  22.076  23.943  1.00  0.00     0.016 A 
ATOM     33  C   UNL A   1      45.765  22.522  26.330  1.00  0.00     0.010 A 
ATOM     34  C   UNL A   1      44.676  23.382  24.345  1.00  0.00     0.010 A 
ATOM     35  C   UNL A   1      45.360  23.616  25.548  1.00  0.00    -0.014 A 
BRANCH  35  36
ATOM     36  C   UNL A   1      45.479  24.995  26.089  1.00  0.00     0.031 A 
ATOM     37  C   UNL A   1      46.789  25.713  25.921  1.00  0.00     0.074 A 
ATOM     38  C   UNL A   1      44.452  25.613  26.700  1.00  0.00     0.049 A 
ATOM     39  N   UNL A   1      47.131  26.924  26.278  1.00  0.00    -0.248 NA
ATOM     40  C   UNL A   1      47.865  24.950  25.267  1.00  0.00     0.031 C 
ATOM     41  C   UNL A   1      43.124  25.040  26.908  1.00  0.00     0.029 A 
ATOM     42  N   UNL A   1      44.354  26.885  27.215  1.00  0.00    -0.354 N 
ATOM     43  C   UNL A   1      48.465  27.058  25.920  1.00  0.00     0.074 A 
ATOM     44  C   UNL A   1      48.868  25.813  25.303  1.00  0.00     0.031 C 
ATOM     45  C   UNL A   1      42.326  25.981  27.446  1.00  0.00     0.029 A 
ATOM     46  C   UNL A   1      43.095  27.208  27.661  1.00  0.00     0.049 A 
ATOM     47  H   UNL A   1      45.117  27.506  27.260  1.00  0.00     0.167 HD
ATOM     48  C   UNL A   1      49.292  28.113  26.113  1.00  0.00     0.037 A 
ATOM     49  C   UNL A   1      42.621  28.366  28.169  1.00  0.00     0.037 A 
ATOM     50  C   UNL A   1      48.908  29.342  26.754  1.00  0.00     0.049 A 
ATOM     51  C   UNL A   1      43.566  29.531  28.370  1.00  0.00     0.074 A 
ATOM     52  C   UNL A   1      49.690  30.449  27.036  1.00  0.00     0.029 A 
ATOM     53  N   UNL A   1      47.634  29.622  27.225  1.00  0.00    -0.354 N 
ATOM     54  N   UNL A   1      44.825  29.651  28.027  1.00  0.00    -0.248 NA
ATOM     55  C   UNL A   1      43.022  30.714  29.056  1.00  0.00     0.031 C 
ATOM     56  C   UNL A   1      48.903  31.376  27.726  1.00  0.00     0.029 A 
ATOM     57  C   UNL A   1      47.614  30.877  27.814  1.00  0.00     0.049 A 
ATOM     58  H   UNL A   1      46.859  29.020  27.150  1.00  0.00     0.167 HD
ATOM     59  C   UNL A   1      45.221  30.915  28.453  1.00  0.00     0.074 A 
ATOM     60  C   UNL A   1      44.057  31.543  29.036  1.00  0.00     0.031 C 
ATOM     61  C   UNL A   1      46.447  31.494  28.390  1.00  0.00     0.037 A 
BRANCH  48  62
ATOM     62  C   UNL A   1      50.722  27.947  25.692  1.00  0.00     0.064 A 
ATOM     63  C   UNL A   1      51.735  27.635  26.611  1.00  0.00     0.173 A 
ATOM     64  C   UNL A   1      51.081  28.101  24.344  1.00  0.00     0.173 A 
ATOM     65  F   UNL A   1      51.447  27.502  27.914  1.00  0.00    -0.203 F 
ATOM     66  C   UNL A   1      53.059  27.512  26.199  1.00  0.00     0.198 A 
ATOM     67  C   UNL A   1      52.400  27.945  23.931  1.00  0.00     0.198 A 
ATOM     68  F   UNL A   1      50.149  28.401  23.426  1.00  0.00    -0.203 F 
ATOM     69  F   UNL A   1      54.020  27.271  27.101  1.00  0.00    -0.200 F 
ATOM     70  C   UNL A   1      53.389  27.661  24.860  1.00  0.00     0.200 A 
ATOM     71  F   UNL A   1      52.715  28.079  22.635  1.00  0.00    -0.200 F 
ATOM     72  F   UNL A   1      54.665  27.539  24.465  1.00  0.00    -0.200 F 
ENDBRANCH  48  62
BRANCH  49  73
ATOM     73  C   UNL A   1      41.180  28.509  28.528  1.00  0.00     0.064 A 
ATOM     74  C   UNL A   1      40.708  28.086  29.780  1.00  0.00     0.173 A 
ATOM     75  C   UNL A   1      40.237  29.012  27.620  1.00  0.00     0.173 A 
ATOM     76  F   UNL A   1      41.559  27.566  30.678  1.00  0.00    -0.203 F 
ATOM     77  C   UNL A   1      39.351  28.137  30.099  1.00  0.00     0.198 A 
ATOM     78  C   UNL A   1      38.886  29.100  27.953  1.00  0.00     0.198 A 
ATOM     79  F   UNL A   1      40.627  29.416  26.402  1.00  0.00    -0.203 F 
ATOM     80  F   UNL A   1      38.922  27.662  31.277  1.00  0.00    -0.200 F 
ATOM     81  C   UNL A   1      38.442  28.650  29.187  1.00  0.00     0.200 A 
ATOM     82  F   UNL A   1      38.013  29.604  27.071  1.00  0.00    -0.200 F 
ATOM     83  F   UNL A   1      37.137  28.697  29.490  1.00  0.00    -0.200 F 
ENDBRANCH  49  73
BRANCH  61  84
ATOM     84  C   UNL A   1      46.599  32.879  28.959  1.00  0.00     0.064 A 
ATOM     85  C   UNL A   1      46.374  34.023  28.179  1.00  0.00     0.173 A 
ATOM     86  C   UNL A   1      46.906  33.064  30.316  1.00  0.00     0.173 A 
ATOM     87  F   UNL A   1      46.084  33.905  26.874  1.00  0.00    -0.203 F 
ATOM     88  C   UNL A   1      46.477  35.299  28.728  1.00  0.00     0.198 A 
ATOM     89  C   UNL A   1      46.976  34.340  30.870  1.00  0.00     0.198 A 
ATOM     90  F   UNL A   1      47.119  32.006  31.112  1.00  0.00    -0.203 F 
ATOM     91  F   UNL A   1      46.300  36.378  27.952  1.00  0.00    -0.200 F 
ATOM     92  C   UNL A   1      46.769  35.456  30.075  1.00  0.00     0.200 A 
ATOM     93  F   UNL A   1      47.240  34.489  32.176  1.00  0.00    -0.200 F 
ATOM     94  F   UNL A   1      46.854  36.685  30.605  1.00  0.00    -0.200 F 
ENDBRANCH  61  84
ENDBRANCH  35  36
ENDBRANCH  28  30
ENDBRANCH  27  28
ENDBRANCH  26  27
ENDBRANCH  25  26
ENDBRANCH  24  25
ENDBRANCH  23  24
ENDBRANCH   1  23
TORSDOF 19
ENDMDL
