MODEL 1
REMARK VINA RESULT:     -10.5      0.000      0.000
REMARK SMILES CCC[C@@](C)(Nc1cc(C)cc(C)c1)C(=O)OCCOCCOCCOC(=O)c1ccc(-c2c3nc(c(-c4c(F)c(F)c(F)c(F)c4F)c4ccc([nH]4)c(-c4c(F)c(F)c(F)c(F)c4F)c4nc(c(-c5c(F)c(F)c(F)c(F)c5F)c5ccc2[nH]5)C=C4)C=C3)cc1
REMARK SMILES IDX 21 1 20 2 19 3 18 4 17 5 15 6 16 7 4 8 5 9 3 10 2 11 1 12
REMARK SMILES IDX 6 13 7 15 8 16 14 17 9 18 12 19 10 20 11 21 13 22 22 23
REMARK SMILES IDX 23 24 24 25 25 26 26 27 27 28 28 29 29 30 30 31 91 32 31 33
REMARK SMILES IDX 90 34 32 35 33 36 34 37 84 38 35 39 89 40 83 41 85 42 36 43
REMARK SMILES IDX 88 44 82 45 81 46 37 48 69 49 49 50 68 51 50 52 53 53 67 54
REMARK SMILES IDX 86 55 51 56 52 57 66 59 87 60 54 61 38 62 39 63 47 64 40 65
REMARK SMILES IDX 41 66 45 67 48 68 42 69 43 70 46 71 44 72 70 73 71 74 79 75
REMARK SMILES IDX 72 76 73 77 77 78 80 79 74 80 75 81 78 82 76 83 55 84 56 85
REMARK SMILES IDX 64 86 57 87 58 88 62 89 65 90 59 91 60 92 63 93 61 94
REMARK H PARENT 6 14 85 47 53 58
REMARK Flexibility Score: inf
ROOT
ATOM      1  C   UNL A   1      33.565  26.688  24.938  1.00  0.00     0.188 C 
ENDROOT
BRANCH   1   2
ATOM      2  O   UNL A   1      33.606  26.707  23.519  1.00  0.00    -0.376 OA
BRANCH   2   3
ATOM      3  C   UNL A   1      32.370  27.005  22.861  1.00  0.00     0.202 C 
BRANCH   3   4
ATOM      4  C   UNL A   1      31.627  25.795  22.290  1.00  0.00     0.261 C 
BRANCH   4   5
ATOM      5  O   UNL A   1      32.438  24.613  22.443  1.00  0.00    -0.462 OA
BRANCH   5   6
ATOM      6  C   UNL A   1      31.998  23.689  23.327  1.00  0.00     0.331 C 
ATOM      7  O   UNL A   1      30.805  23.426  23.466  1.00  0.00    -0.249 OA
BRANCH   6   8
ATOM      8  C   UNL A   1      33.116  22.930  24.087  1.00  0.00     0.133 C 
ATOM      9  C   UNL A   1      32.856  23.160  25.588  1.00  0.00     0.047 C 
BRANCH   8  10
ATOM     10  C   UNL A   1      33.055  21.404  23.734  1.00  0.00     0.040 C 
BRANCH  10  11
ATOM     11  C   UNL A   1      32.726  20.373  24.820  1.00  0.00    -0.000 C 
ATOM     12  C   UNL A   1      33.151  18.952  24.483  1.00  0.00     0.004 C 
ENDBRANCH  10  11
ENDBRANCH   8  10
BRANCH   8  13
ATOM     13  N   UNL A   1      34.550  23.284  23.870  1.00  0.00    -0.370 N 
ATOM     14  H   UNL A   1      34.660  23.998  23.201  1.00  0.00     0.161 HD
BRANCH  13  15
ATOM     15  C   UNL A   1      35.753  22.854  24.375  1.00  0.00     0.035 A 
ATOM     16  C   UNL A   1      36.259  21.565  24.244  1.00  0.00     0.029 A 
ATOM     17  C   UNL A   1      36.499  23.760  25.156  1.00  0.00     0.029 A 
ATOM     18  C   UNL A   1      37.405  21.147  24.943  1.00  0.00    -0.049 A 
ATOM     19  C   UNL A   1      37.676  23.388  25.822  1.00  0.00    -0.049 A 
ATOM     20  C   UNL A   1      37.794  19.700  24.966  1.00  0.00     0.044 C 
ATOM     21  C   UNL A   1      38.111  22.067  25.726  1.00  0.00     0.007 A 
ATOM     22  C   UNL A   1      38.438  24.364  26.669  1.00  0.00     0.044 C 
ENDBRANCH  13  15
ENDBRANCH   8  13
ENDBRANCH   6   8
ENDBRANCH   5   6
ENDBRANCH   4   5
ENDBRANCH   3   4
ENDBRANCH   2   3
ENDBRANCH   1   2
BRANCH   1  23
ATOM     23  C   UNL A   1      32.222  26.986  25.612  1.00  0.00     0.188 C 
BRANCH  23  24
ATOM     24  O   UNL A   1      32.107  28.189  26.356  1.00  0.00    -0.376 OA
BRANCH  24  25
ATOM     25  C   UNL A   1      31.549  29.290  25.642  1.00  0.00     0.202 C 
BRANCH  25  26
ATOM     26  C   UNL A   1      31.882  30.642  26.286  1.00  0.00     0.261 C 
BRANCH  26  27
ATOM     27  O   UNL A   1      33.009  30.502  27.166  1.00  0.00    -0.460 OA
BRANCH  27  28
ATOM     28  C   UNL A   1      33.628  31.649  27.535  1.00  0.00     0.338 C 
ATOM     29  O   UNL A   1      33.150  32.762  27.651  1.00  0.00    -0.246 OA
BRANCH  28  30
ATOM     30  C   UNL A   1      34.994  31.307  27.978  1.00  0.00     0.060 A 
ATOM     31  C   UNL A   1      35.298  29.961  28.237  1.00  0.00     0.016 A 
ATOM     32  C   UNL A   1      35.971  32.296  28.091  1.00  0.00     0.016 A 
ATOM     33  C   UNL A   1      36.575  29.606  28.670  1.00  0.00     0.010 A 
ATOM     34  C   UNL A   1      37.241  31.945  28.530  1.00  0.00     0.010 A 
ATOM     35  C   UNL A   1      37.531  30.609  28.865  1.00  0.00    -0.014 A 
BRANCH  35  36
ATOM     36  C   UNL A   1      38.748  30.371  29.666  1.00  0.00     0.031 A 
ATOM     37  C   UNL A   1      39.733  29.382  29.114  1.00  0.00     0.074 A 
ATOM     38  C   UNL A   1      38.905  30.915  30.882  1.00  0.00     0.049 A 
ATOM     39  N   UNL A   1      40.700  28.742  29.714  1.00  0.00    -0.248 NA
ATOM     40  C   UNL A   1      39.574  29.040  27.689  1.00  0.00     0.031 C 
ATOM     41  C   UNL A   1      38.033  31.922  31.481  1.00  0.00     0.029 A 
ATOM     42  N   UNL A   1      39.837  30.650  31.852  1.00  0.00    -0.354 N 
ATOM     43  C   UNL A   1      41.242  27.902  28.749  1.00  0.00     0.074 A 
ATOM     44  C   UNL A   1      40.485  28.093  27.534  1.00  0.00     0.031 C 
ATOM     45  C   UNL A   1      38.449  32.164  32.737  1.00  0.00     0.029 A 
ATOM     46  C   UNL A   1      39.579  31.287  33.041  1.00  0.00     0.049 A 
ATOM     47  H   UNL A   1      40.615  30.063  31.710  1.00  0.00     0.167 HD
ATOM     48  C   UNL A   1      42.280  27.046  28.877  1.00  0.00     0.037 A 
ATOM     49  C   UNL A   1      40.163  31.129  34.244  1.00  0.00     0.037 A 
ATOM     50  C   UNL A   1      43.010  26.868  30.102  1.00  0.00     0.049 A 
ATOM     51  C   UNL A   1      41.274  30.114  34.383  1.00  0.00     0.074 A 
ATOM     52  C   UNL A   1      44.074  26.026  30.363  1.00  0.00     0.029 A 
ATOM     53  N   UNL A   1      42.741  27.556  31.278  1.00  0.00    -0.354 N 
ATOM     54  N   UNL A   1      41.784  29.312  33.477  1.00  0.00    -0.248 NA
ATOM     55  C   UNL A   1      41.886  29.978  35.712  1.00  0.00     0.031 C 
ATOM     56  C   UNL A   1      44.422  26.174  31.709  1.00  0.00     0.029 A 
ATOM     57  C   UNL A   1      43.616  27.155  32.269  1.00  0.00     0.049 A 
ATOM     58  H   UNL A   1      42.031  28.230  31.388  1.00  0.00     0.167 HD
ATOM     59  C   UNL A   1      42.806  28.618  34.112  1.00  0.00     0.074 A 
ATOM     60  C   UNL A   1      42.839  29.088  35.482  1.00  0.00     0.031 C 
ATOM     61  C   UNL A   1      43.647  27.679  33.610  1.00  0.00     0.037 A 
BRANCH  48  62
ATOM     62  C   UNL A   1      42.663  26.230  27.676  1.00  0.00     0.064 A 
ATOM     63  C   UNL A   1      42.065  24.990  27.407  1.00  0.00     0.173 A 
ATOM     64  C   UNL A   1      43.627  26.701  26.772  1.00  0.00     0.173 A 
ATOM     65  F   UNL A   1      41.152  24.483  28.251  1.00  0.00    -0.203 F 
ATOM     66  C   UNL A   1      42.435  24.240  26.295  1.00  0.00     0.198 A 
ATOM     67  C   UNL A   1      43.971  25.964  25.642  1.00  0.00     0.198 A 
ATOM     68  F   UNL A   1      44.233  27.879  26.981  1.00  0.00    -0.203 F 
ATOM     69  F   UNL A   1      41.887  23.035  26.089  1.00  0.00    -0.200 F 
ATOM     70  C   UNL A   1      43.381  24.731  25.408  1.00  0.00     0.200 A 
ATOM     71  F   UNL A   1      44.879  26.445  24.781  1.00  0.00    -0.200 F 
ATOM     72  F   UNL A   1      43.731  24.013  24.332  1.00  0.00    -0.200 F 
ENDBRANCH  48  62
BRANCH  49  73
ATOM     73  C   UNL A   1      39.712  31.930  35.413  1.00  0.00     0.064 A 
ATOM     74  C   UNL A   1      40.328  33.150  35.725  1.00  0.00     0.173 A 
ATOM     75  C   UNL A   1      38.681  31.489  36.257  1.00  0.00     0.173 A 
ATOM     76  F   UNL A   1      41.335  33.604  34.963  1.00  0.00    -0.203 F 
ATOM     77  C   UNL A   1      39.950  33.884  36.847  1.00  0.00     0.198 A 
ATOM     78  C   UNL A   1      38.282  32.240  37.361  1.00  0.00     0.198 A 
ATOM     79  F   UNL A   1      38.056  30.329  36.006  1.00  0.00    -0.203 F 
ATOM     80  F   UNL A   1      40.596  35.020  37.149  1.00  0.00    -0.200 F 
ATOM     81  C   UNL A   1      38.924  33.432  37.662  1.00  0.00     0.200 A 
ATOM     82  F   UNL A   1      37.282  31.806  38.139  1.00  0.00    -0.200 F 
ATOM     83  F   UNL A   1      38.562  34.138  38.741  1.00  0.00    -0.200 F 
ENDBRANCH  49  73
BRANCH  61  84
ATOM     84  C   UNL A   1      44.733  27.168  34.510  1.00  0.00     0.064 A 
ATOM     85  C   UNL A   1      45.964  27.826  34.636  1.00  0.00     0.173 A 
ATOM     86  C   UNL A   1      44.498  26.044  35.318  1.00  0.00     0.173 A 
ATOM     87  F   UNL A   1      46.240  28.897  33.878  1.00  0.00    -0.203 F 
ATOM     88  C   UNL A   1      46.928  27.366  35.529  1.00  0.00     0.198 A 
ATOM     89  C   UNL A   1      45.450  25.608  36.231  1.00  0.00     0.198 A 
ATOM     90  F   UNL A   1      43.330  25.388  35.239  1.00  0.00    -0.203 F 
ATOM     91  F   UNL A   1      48.114  27.986  35.610  1.00  0.00    -0.200 F 
ATOM     92  C   UNL A   1      46.667  26.265  36.333  1.00  0.00     0.200 A 
ATOM     93  F   UNL A   1      45.188  24.556  37.019  1.00  0.00    -0.200 F 
ATOM     94  F   UNL A   1      47.589  25.836  37.205  1.00  0.00    -0.200 F 
ENDBRANCH  61  84
ENDBRANCH  35  36
ENDBRANCH  28  30
ENDBRANCH  27  28
ENDBRANCH  26  27
ENDBRANCH  25  26
ENDBRANCH  24  25
ENDBRANCH  23  24
ENDBRANCH   1  23
TORSDOF 21
ENDMDL
MODEL 2
REMARK VINA RESULT:     -10.2      3.270      8.124
REMARK SMILES CCC[C@@](C)(Nc1cc(C)cc(C)c1)C(=O)OCCOCCOCCOC(=O)c1ccc(-c2c3nc(c(-c4c(F)c(F)c(F)c(F)c4F)c4ccc([nH]4)c(-c4c(F)c(F)c(F)c(F)c4F)c4nc(c(-c5c(F)c(F)c(F)c(F)c5F)c5ccc2[nH]5)C=C4)C=C3)cc1
REMARK SMILES IDX 21 1 20 2 19 3 18 4 17 5 15 6 16 7 4 8 5 9 3 10 2 11 1 12
REMARK SMILES IDX 6 13 7 15 8 16 14 17 9 18 12 19 10 20 11 21 13 22 22 23
REMARK SMILES IDX 23 24 24 25 25 26 26 27 27 28 28 29 29 30 30 31 91 32 31 33
REMARK SMILES IDX 90 34 32 35 33 36 34 37 84 38 35 39 89 40 83 41 85 42 36 43
REMARK SMILES IDX 88 44 82 45 81 46 37 48 69 49 49 50 68 51 50 52 53 53 67 54
REMARK SMILES IDX 86 55 51 56 52 57 66 59 87 60 54 61 38 62 39 63 47 64 40 65
REMARK SMILES IDX 41 66 45 67 48 68 42 69 43 70 46 71 44 72 70 73 71 74 79 75
REMARK SMILES IDX 72 76 73 77 77 78 80 79 74 80 75 81 78 82 76 83 55 84 56 85
REMARK SMILES IDX 64 86 57 87 58 88 62 89 65 90 59 91 60 92 63 93 61 94
REMARK H PARENT 6 14 85 47 53 58
REMARK Flexibility Score: inf
ROOT
ATOM      1  C   UNL A   1      39.714  21.980  26.269  1.00  0.00     0.188 C 
ENDROOT
BRANCH   1   2
ATOM      2  O   UNL A   1      38.933  21.067  25.513  1.00  0.00    -0.376 OA
BRANCH   2   3
ATOM      3  C   UNL A   1      37.514  21.250  25.583  1.00  0.00     0.202 C 
BRANCH   3   4
ATOM      4  C   UNL A   1      36.962  22.397  24.735  1.00  0.00     0.261 C 
BRANCH   4   5
ATOM      5  O   UNL A   1      35.826  21.935  23.978  1.00  0.00    -0.462 OA
BRANCH   5   6
ATOM      6  C   UNL A   1      34.898  22.864  23.652  1.00  0.00     0.331 C 
ATOM      7  O   UNL A   1      35.154  23.825  22.928  1.00  0.00    -0.249 OA
BRANCH   6   8
ATOM      8  C   UNL A   1      33.473  22.580  24.191  1.00  0.00     0.133 C 
ATOM      9  C   UNL A   1      32.615  22.193  22.971  1.00  0.00     0.047 C 
BRANCH   8  10
ATOM     10  C   UNL A   1      33.524  21.412  25.235  1.00  0.00     0.040 C 
BRANCH  10  11
ATOM     11  C   UNL A   1      32.889  20.056  24.907  1.00  0.00    -0.000 C 
ATOM     12  C   UNL A   1      33.891  18.965  24.557  1.00  0.00     0.004 C 
ENDBRANCH  10  11
ENDBRANCH   8  10
BRANCH   8  13
ATOM     13  N   UNL A   1      32.706  23.650  24.897  1.00  0.00    -0.370 N 
ATOM     14  H   UNL A   1      32.471  23.393  25.818  1.00  0.00     0.161 HD
BRANCH  13  15
ATOM     15  C   UNL A   1      32.249  24.904  24.573  1.00  0.00     0.035 A 
ATOM     16  C   UNL A   1      33.037  26.048  24.507  1.00  0.00     0.029 A 
ATOM     17  C   UNL A   1      30.863  25.066  24.371  1.00  0.00     0.029 A 
ATOM     18  C   UNL A   1      32.471  27.326  24.351  1.00  0.00    -0.049 A 
ATOM     19  C   UNL A   1      30.275  26.322  24.160  1.00  0.00    -0.049 A 
ATOM     20  C   UNL A   1      33.314  28.554  24.513  1.00  0.00     0.044 C 
ATOM     21  C   UNL A   1      31.089  27.453  24.173  1.00  0.00     0.007 A 
ATOM     22  C   UNL A   1      28.794  26.471  23.974  1.00  0.00     0.044 C 
ENDBRANCH  13  15
ENDBRANCH   8  13
ENDBRANCH   6   8
ENDBRANCH   5   6
ENDBRANCH   4   5
ENDBRANCH   3   4
ENDBRANCH   2   3
ENDBRANCH   1   2
BRANCH   1  23
ATOM     23  C   UNL A   1      40.500  21.424  27.460  1.00  0.00     0.188 C 
BRANCH  23  24
ATOM     24  O   UNL A   1      41.907  21.299  27.325  1.00  0.00    -0.376 OA
BRANCH  24  25
ATOM     25  C   UNL A   1      42.348  20.732  26.093  1.00  0.00     0.202 C 
BRANCH  25  26
ATOM     26  C   UNL A   1      43.342  21.634  25.350  1.00  0.00     0.261 C 
BRANCH  26  27
ATOM     27  O   UNL A   1      42.722  22.890  25.031  1.00  0.00    -0.460 OA
BRANCH  27  28
ATOM     28  C   UNL A   1      43.531  23.976  25.032  1.00  0.00     0.338 C 
ATOM     29  O   UNL A   1      44.533  24.173  24.370  1.00  0.00    -0.246 OA
BRANCH  28  30
ATOM     30  C   UNL A   1      42.892  25.019  25.859  1.00  0.00     0.060 A 
ATOM     31  C   UNL A   1      43.008  26.360  25.455  1.00  0.00     0.016 A 
ATOM     32  C   UNL A   1      42.151  24.673  26.989  1.00  0.00     0.016 A 
ATOM     33  C   UNL A   1      42.429  27.370  26.221  1.00  0.00     0.010 A 
ATOM     34  C   UNL A   1      41.581  25.680  27.757  1.00  0.00     0.010 A 
ATOM     35  C   UNL A   1      41.758  27.030  27.401  1.00  0.00    -0.014 A 
BRANCH  35  36
ATOM     36  C   UNL A   1      41.459  28.038  28.438  1.00  0.00     0.031 A 
ATOM     37  C   UNL A   1      42.317  28.010  29.669  1.00  0.00     0.074 A 
ATOM     38  C   UNL A   1      40.396  28.851  28.339  1.00  0.00     0.049 A 
ATOM     39  N   UNL A   1      42.104  28.532  30.848  1.00  0.00    -0.248 NA
ATOM     40  C   UNL A   1      43.577  27.252  29.562  1.00  0.00     0.031 C 
ATOM     41  C   UNL A   1      39.537  28.988  27.167  1.00  0.00     0.029 A 
ATOM     42  N   UNL A   1      39.835  29.683  29.273  1.00  0.00    -0.354 N 
ATOM     43  C   UNL A   1      43.185  28.137  31.626  1.00  0.00     0.074 A 
ATOM     44  C   UNL A   1      44.038  27.317  30.799  1.00  0.00     0.031 C 
ATOM     45  C   UNL A   1      38.528  29.825  27.464  1.00  0.00     0.029 A 
ATOM     46  C   UNL A   1      38.646  30.235  28.862  1.00  0.00     0.049 A 
ATOM     47  H   UNL A   1      40.243  29.867  30.150  1.00  0.00     0.167 HD
ATOM     48  C   UNL A   1      43.433  28.437  32.921  1.00  0.00     0.037 A 
ATOM     49  C   UNL A   1      37.741  30.943  29.564  1.00  0.00     0.037 A 
ATOM     50  C   UNL A   1      42.562  29.248  33.724  1.00  0.00     0.049 A 
ATOM     51  C   UNL A   1      38.003  31.206  31.029  1.00  0.00     0.074 A 
ATOM     52  C   UNL A   1      42.695  29.616  35.050  1.00  0.00     0.029 A 
ATOM     53  N   UNL A   1      41.382  29.819  33.264  1.00  0.00    -0.354 N 
ATOM     54  N   UNL A   1      39.018  30.829  31.772  1.00  0.00    -0.248 NA
ATOM     55  C   UNL A   1      36.991  31.986  31.755  1.00  0.00     0.031 C 
ATOM     56  C   UNL A   1      41.576  30.376  35.403  1.00  0.00     0.029 A 
ATOM     57  C   UNL A   1      40.776  30.533  34.280  1.00  0.00     0.049 A 
ATOM     58  H   UNL A   1      41.030  29.728  32.349  1.00  0.00     0.167 HD
ATOM     59  C   UNL A   1      38.792  31.369  33.032  1.00  0.00     0.074 A 
ATOM     60  C   UNL A   1      37.540  32.093  32.955  1.00  0.00     0.031 C 
ATOM     61  C   UNL A   1      39.551  31.280  34.152  1.00  0.00     0.037 A 
BRANCH  48  62
ATOM     62  C   UNL A   1      44.676  27.867  33.542  1.00  0.00     0.064 A 
ATOM     63  C   UNL A   1      44.666  26.631  34.207  1.00  0.00     0.173 A 
ATOM     64  C   UNL A   1      45.895  28.555  33.459  1.00  0.00     0.173 A 
ATOM     65  F   UNL A   1      43.521  25.941  34.333  1.00  0.00    -0.203 F 
ATOM     66  C   UNL A   1      45.824  26.118  34.786  1.00  0.00     0.198 A 
ATOM     67  C   UNL A   1      47.058  28.024  34.010  1.00  0.00     0.198 A 
ATOM     68  F   UNL A   1      45.961  29.743  32.838  1.00  0.00    -0.203 F 
ATOM     69  F   UNL A   1      45.777  24.961  35.460  1.00  0.00    -0.200 F 
ATOM     70  C   UNL A   1      47.020  26.810  34.680  1.00  0.00     0.200 A 
ATOM     71  F   UNL A   1      48.216  28.690  33.898  1.00  0.00    -0.200 F 
ATOM     72  F   UNL A   1      48.136  26.311  35.230  1.00  0.00    -0.200 F 
ENDBRANCH  48  62
BRANCH  49  73
ATOM     73  C   UNL A   1      36.503  31.444  28.910  1.00  0.00     0.064 A 
ATOM     74  C   UNL A   1      36.360  32.803  28.594  1.00  0.00     0.173 A 
ATOM     75  C   UNL A   1      35.430  30.591  28.609  1.00  0.00     0.173 A 
ATOM     76  F   UNL A   1      37.348  33.664  28.883  1.00  0.00    -0.203 F 
ATOM     77  C   UNL A   1      35.185  33.293  28.029  1.00  0.00     0.198 A 
ATOM     78  C   UNL A   1      34.267  31.078  28.014  1.00  0.00     0.198 A 
ATOM     79  F   UNL A   1      35.512  29.282  28.889  1.00  0.00    -0.203 F 
ATOM     80  F   UNL A   1      35.057  34.606  27.790  1.00  0.00    -0.200 F 
ATOM     81  C   UNL A   1      34.141  32.430  27.734  1.00  0.00     0.200 A 
ATOM     82  F   UNL A   1      33.265  30.239  27.719  1.00  0.00    -0.200 F 
ATOM     83  F   UNL A   1      33.011  32.903  27.192  1.00  0.00    -0.200 F 
ENDBRANCH  49  73
BRANCH  61  84
ATOM     84  C   UNL A   1      39.106  32.057  35.355  1.00  0.00     0.064 A 
ATOM     85  C   UNL A   1      38.375  31.466  36.394  1.00  0.00     0.173 A 
ATOM     86  C   UNL A   1      39.494  33.399  35.501  1.00  0.00     0.173 A 
ATOM     87  F   UNL A   1      37.972  30.190  36.296  1.00  0.00    -0.203 F 
ATOM     88  C   UNL A   1      38.033  32.196  37.529  1.00  0.00     0.198 A 
ATOM     89  C   UNL A   1      39.178  34.115  36.650  1.00  0.00     0.198 A 
ATOM     90  F   UNL A   1      40.204  34.006  34.537  1.00  0.00    -0.203 F 
ATOM     91  F   UNL A   1      37.302  31.624  38.496  1.00  0.00    -0.200 F 
ATOM     92  C   UNL A   1      38.444  33.515  37.661  1.00  0.00     0.200 A 
ATOM     93  F   UNL A   1      39.592  35.382  36.783  1.00  0.00    -0.200 F 
ATOM     94  F   UNL A   1      38.130  34.209  38.764  1.00  0.00    -0.200 F 
ENDBRANCH  61  84
ENDBRANCH  35  36
ENDBRANCH  28  30
ENDBRANCH  27  28
ENDBRANCH  26  27
ENDBRANCH  25  26
ENDBRANCH  24  25
ENDBRANCH  23  24
ENDBRANCH   1  23
TORSDOF 21
ENDMDL
MODEL 3
REMARK VINA RESULT:      -9.6      4.921     10.011
REMARK SMILES CCC[C@@](C)(Nc1cc(C)cc(C)c1)C(=O)OCCOCCOCCOC(=O)c1ccc(-c2c3nc(c(-c4c(F)c(F)c(F)c(F)c4F)c4ccc([nH]4)c(-c4c(F)c(F)c(F)c(F)c4F)c4nc(c(-c5c(F)c(F)c(F)c(F)c5F)c5ccc2[nH]5)C=C4)C=C3)cc1
REMARK SMILES IDX 21 1 20 2 19 3 18 4 17 5 15 6 16 7 4 8 5 9 3 10 2 11 1 12
REMARK SMILES IDX 6 13 7 15 8 16 14 17 9 18 12 19 10 20 11 21 13 22 22 23
REMARK SMILES IDX 23 24 24 25 25 26 26 27 27 28 28 29 29 30 30 31 91 32 31 33
REMARK SMILES IDX 90 34 32 35 33 36 34 37 84 38 35 39 89 40 83 41 85 42 36 43
REMARK SMILES IDX 88 44 82 45 81 46 37 48 69 49 49 50 68 51 50 52 53 53 67 54
REMARK SMILES IDX 86 55 51 56 52 57 66 59 87 60 54 61 38 62 39 63 47 64 40 65
REMARK SMILES IDX 41 66 45 67 48 68 42 69 43 70 46 71 44 72 70 73 71 74 79 75
REMARK SMILES IDX 72 76 73 77 77 78 80 79 74 80 75 81 78 82 76 83 55 84 56 85
REMARK SMILES IDX 64 86 57 87 58 88 62 89 65 90 59 91 60 92 63 93 61 94
REMARK H PARENT 6 14 85 47 53 58
REMARK Flexibility Score: inf
ROOT
ATOM      1  C   UNL A   1      35.872  20.916  25.046  1.00  0.00     0.188 C 
ENDROOT
BRANCH   1   2
ATOM      2  O   UNL A   1      35.104  21.296  26.178  1.00  0.00    -0.376 OA
BRANCH   2   3
ATOM      3  C   UNL A   1      33.711  20.967  26.128  1.00  0.00     0.202 C 
BRANCH   3   4
ATOM      4  C   UNL A   1      33.208  20.466  24.772  1.00  0.00     0.261 C 
BRANCH   4   5
ATOM      5  O   UNL A   1      32.235  21.391  24.246  1.00  0.00    -0.462 OA
BRANCH   5   6
ATOM      6  C   UNL A   1      32.713  22.566  23.775  1.00  0.00     0.331 C 
ATOM      7  O   UNL A   1      33.619  22.623  22.945  1.00  0.00    -0.249 OA
BRANCH   6   8
ATOM      8  C   UNL A   1      31.975  23.826  24.295  1.00  0.00     0.133 C 
ATOM      9  C   UNL A   1      30.698  23.966  23.445  1.00  0.00     0.047 C 
BRANCH   8  10
ATOM     10  C   UNL A   1      31.623  23.644  25.812  1.00  0.00     0.040 C 
BRANCH  10  11
ATOM     11  C   UNL A   1      30.211  23.960  26.319  1.00  0.00    -0.000 C 
ATOM     12  C   UNL A   1      29.602  22.870  27.190  1.00  0.00     0.004 C 
ENDBRANCH  10  11
ENDBRANCH   8  10
BRANCH   8  13
ATOM     13  N   UNL A   1      32.638  25.162  24.245  1.00  0.00    -0.370 N 
ATOM     14  H   UNL A   1      33.487  25.138  23.747  1.00  0.00     0.161 HD
BRANCH  13  15
ATOM     15  C   UNL A   1      32.353  26.417  24.728  1.00  0.00     0.035 A 
ATOM     16  C   UNL A   1      31.378  27.266  24.214  1.00  0.00     0.029 A 
ATOM     17  C   UNL A   1      33.160  26.920  25.768  1.00  0.00     0.029 A 
ATOM     18  C   UNL A   1      31.268  28.603  24.637  1.00  0.00    -0.049 A 
ATOM     19  C   UNL A   1      33.037  28.232  26.249  1.00  0.00    -0.049 A 
ATOM     20  C   UNL A   1      30.368  29.556  23.910  1.00  0.00     0.044 C 
ATOM     21  C   UNL A   1      32.097  29.076  25.659  1.00  0.00     0.007 A 
ATOM     22  C   UNL A   1      33.925  28.753  27.339  1.00  0.00     0.044 C 
ENDBRANCH  13  15
ENDBRANCH   8  13
ENDBRANCH   6   8
ENDBRANCH   5   6
ENDBRANCH   4   5
ENDBRANCH   3   4
ENDBRANCH   2   3
ENDBRANCH   1   2
BRANCH   1  23
ATOM     23  C   UNL A   1      37.059  21.804  24.663  1.00  0.00     0.188 C 
BRANCH  23  24
ATOM     24  O   UNL A   1      37.614  22.638  25.668  1.00  0.00    -0.376 OA
BRANCH  24  25
ATOM     25  C   UNL A   1      38.906  22.248  26.130  1.00  0.00     0.202 C 
BRANCH  25  26
ATOM     26  C   UNL A   1      39.328  20.868  25.612  1.00  0.00     0.261 C 
BRANCH  26  27
ATOM     27  O   UNL A   1      40.260  20.264  26.524  1.00  0.00    -0.460 OA
BRANCH  27  28
ATOM     28  C   UNL A   1      41.523  20.093  26.066  1.00  0.00     0.338 C 
ATOM     29  O   UNL A   1      41.935  19.264  25.277  1.00  0.00    -0.246 OA
BRANCH  28  30
ATOM     30  C   UNL A   1      42.338  21.230  26.541  1.00  0.00     0.060 A 
ATOM     31  C   UNL A   1      42.528  21.386  27.924  1.00  0.00     0.016 A 
ATOM     32  C   UNL A   1      42.942  22.098  25.633  1.00  0.00     0.016 A 
ATOM     33  C   UNL A   1      43.279  22.457  28.407  1.00  0.00     0.010 A 
ATOM     34  C   UNL A   1      43.684  23.169  26.113  1.00  0.00     0.010 A 
ATOM     35  C   UNL A   1      43.815  23.377  27.499  1.00  0.00    -0.014 A 
BRANCH  35  36
ATOM     36  C   UNL A   1      44.281  24.709  27.933  1.00  0.00     0.031 A 
ATOM     37  C   UNL A   1      43.221  25.715  28.273  1.00  0.00     0.074 A 
ATOM     38  C   UNL A   1      45.581  25.040  27.901  1.00  0.00     0.049 A 
ATOM     39  N   UNL A   1      43.302  27.014  28.369  1.00  0.00    -0.248 NA
ATOM     40  C   UNL A   1      41.868  25.175  28.500  1.00  0.00     0.031 C 
ATOM     41  C   UNL A   1      46.686  24.124  27.634  1.00  0.00     0.029 A 
ATOM     42  N   UNL A   1      46.181  26.264  28.050  1.00  0.00    -0.354 N 
ATOM     43  C   UNL A   1      42.009  27.446  28.635  1.00  0.00     0.074 A 
ATOM     44  C   UNL A   1      41.159  26.279  28.662  1.00  0.00     0.031 C 
ATOM     45  C   UNL A   1      47.832  24.825  27.599  1.00  0.00     0.029 A 
ATOM     46  C   UNL A   1      47.529  26.243  27.785  1.00  0.00     0.049 A 
ATOM     47  H   UNL A   1      45.695  27.076  28.321  1.00  0.00     0.167 HD
ATOM     48  C   UNL A   1      41.576  28.712  28.834  1.00  0.00     0.037 A 
ATOM     49  C   UNL A   1      48.394  27.267  27.657  1.00  0.00     0.037 A 
ATOM     50  C   UNL A   1      42.443  29.857  28.791  1.00  0.00     0.049 A 
ATOM     51  C   UNL A   1      47.877  28.678  27.812  1.00  0.00     0.074 A 
ATOM     52  C   UNL A   1      42.127  31.191  28.966  1.00  0.00     0.029 A 
ATOM     53  N   UNL A   1      43.809  29.794  28.553  1.00  0.00    -0.354 N 
ATOM     54  N   UNL A   1      46.655  29.092  28.055  1.00  0.00    -0.248 NA
ATOM     55  C   UNL A   1      48.857  29.763  27.669  1.00  0.00     0.031 C 
ATOM     56  C   UNL A   1      43.296  31.939  28.793  1.00  0.00     0.029 A 
ATOM     57  C   UNL A   1      44.351  31.065  28.573  1.00  0.00     0.049 A 
ATOM     58  H   UNL A   1      44.317  28.965  28.393  1.00  0.00     0.167 HD
ATOM     59  C   UNL A   1      46.731  30.476  28.144  1.00  0.00     0.074 A 
ATOM     60  C   UNL A   1      48.117  30.832  27.923  1.00  0.00     0.031 C 
ATOM     61  C   UNL A   1      45.745  31.375  28.392  1.00  0.00     0.037 A 
BRANCH  48  62
ATOM     62  C   UNL A   1      40.111  28.916  29.088  1.00  0.00     0.064 A 
ATOM     63  C   UNL A   1      39.222  29.246  28.054  1.00  0.00     0.173 A 
ATOM     64  C   UNL A   1      39.584  28.764  30.380  1.00  0.00     0.173 A 
ATOM     65  F   UNL A   1      39.678  29.424  26.803  1.00  0.00    -0.203 F 
ATOM     66  C   UNL A   1      37.867  29.441  28.306  1.00  0.00     0.198 A 
ATOM     67  C   UNL A   1      38.223  28.926  30.623  1.00  0.00     0.198 A 
ATOM     68  F   UNL A   1      40.388  28.453  31.407  1.00  0.00    -0.203 F 
ATOM     69  F   UNL A   1      37.048  29.806  27.311  1.00  0.00    -0.200 F 
ATOM     70  C   UNL A   1      37.367  29.272  29.588  1.00  0.00     0.200 A 
ATOM     71  F   UNL A   1      37.739  28.754  31.861  1.00  0.00    -0.200 F 
ATOM     72  F   UNL A   1      36.061  29.451  29.828  1.00  0.00    -0.200 F 
ENDBRANCH  48  62
BRANCH  49  73
ATOM     73  C   UNL A   1      49.828  27.009  27.356  1.00  0.00     0.064 A 
ATOM     74  C   UNL A   1      50.272  26.899  26.031  1.00  0.00     0.173 A 
ATOM     75  C   UNL A   1      50.778  26.843  28.375  1.00  0.00     0.173 A 
ATOM     76  F   UNL A   1      49.398  27.026  25.020  1.00  0.00    -0.203 F 
ATOM     77  C   UNL A   1      51.602  26.606  25.737  1.00  0.00     0.198 A 
ATOM     78  C   UNL A   1      52.115  26.582  28.079  1.00  0.00     0.198 A 
ATOM     79  F   UNL A   1      50.409  26.939  29.661  1.00  0.00    -0.203 F 
ATOM     80  F   UNL A   1      51.984  26.452  24.461  1.00  0.00    -0.200 F 
ATOM     81  C   UNL A   1      52.524  26.453  26.760  1.00  0.00     0.200 A 
ATOM     82  F   UNL A   1      53.005  26.447  29.071  1.00  0.00    -0.200 F 
ATOM     83  F   UNL A   1      53.803  26.170  26.477  1.00  0.00    -0.200 F 
ENDBRANCH  49  73
BRANCH  61  84
ATOM     84  C   UNL A   1      46.140  32.816  28.535  1.00  0.00     0.064 A 
ATOM     85  C   UNL A   1      46.630  33.337  29.740  1.00  0.00     0.173 A 
ATOM     86  C   UNL A   1      46.101  33.664  27.416  1.00  0.00     0.173 A 
ATOM     87  F   UNL A   1      46.675  32.569  30.839  1.00  0.00    -0.203 F 
ATOM     88  C   UNL A   1      47.051  34.661  29.824  1.00  0.00     0.198 A 
ATOM     89  C   UNL A   1      46.553  34.975  27.496  1.00  0.00     0.198 A 
ATOM     90  F   UNL A   1      45.650  33.207  26.238  1.00  0.00    -0.203 F 
ATOM     91  F   UNL A   1      47.482  35.152  30.994  1.00  0.00    -0.200 F 
ATOM     92  C   UNL A   1      47.023  35.475  28.701  1.00  0.00     0.200 A 
ATOM     93  F   UNL A   1      46.542  35.754  26.405  1.00  0.00    -0.200 F 
ATOM     94  F   UNL A   1      47.447  36.744  28.780  1.00  0.00    -0.200 F 
ENDBRANCH  61  84
ENDBRANCH  35  36
ENDBRANCH  28  30
ENDBRANCH  27  28
ENDBRANCH  26  27
ENDBRANCH  25  26
ENDBRANCH  24  25
ENDBRANCH  23  24
ENDBRANCH   1  23
TORSDOF 21
ENDMDL
