MODEL 1
REMARK VINA RESULT:     -10.8      0.000      0.000
REMARK SMILES Cc1cccc(CN(C)c2ccc(C(=O)OCCOCCOCCOC(=O)c3ccc(-c4c5nc(c(-c6c(F)c(F)c(F)c(F)c6F)c6ccc([nH]6)c(-c6c(F)c(F)c(F)c(F)c6F)c6nc(c(-c7c(F)c(F)c(F)c(F)c7F)c7ccc4[nH]7)C=C6)C=C5)cc3)cc2N)n1
REMARK SMILES IDX 20 1 19 2 18 3 17 4 16 5 14 6 15 7 13 8 10 9 11 10 92 11
REMARK SMILES IDX 12 12 91 13 8 14 9 15 7 16 6 17 1 18 2 19 3 20 94 21 4 22
REMARK SMILES IDX 5 23 93 24 21 27 22 28 23 29 24 30 25 31 26 32 27 33 28 34
REMARK SMILES IDX 29 35 90 36 30 37 89 38 31 39 32 40 33 41 83 42 34 43 88 44
REMARK SMILES IDX 82 45 84 46 35 47 87 48 81 49 80 50 36 52 68 53 48 54 67 55
REMARK SMILES IDX 49 56 52 57 66 58 85 59 50 60 51 61 65 63 86 64 53 65 37 66
REMARK SMILES IDX 38 67 46 68 39 69 40 70 44 71 47 72 41 73 42 74 45 75 43 76
REMARK SMILES IDX 69 77 70 78 78 79 71 80 72 81 76 82 79 83 73 84 74 85 77 86
REMARK SMILES IDX 75 87 54 88 55 89 63 90 56 91 57 92 61 93 64 94 58 95 59 96
REMARK SMILES IDX 62 97 60 98
REMARK H PARENT 93 25 93 26 84 51 52 62
REMARK Flexibility Score: inf
ROOT
ATOM      1  C   UNL A   1      33.516  28.883  25.564  1.00  0.00     0.188 C 
ENDROOT
BRANCH   1   2
ATOM      2  O   UNL A   1      33.440  28.253  24.299  1.00  0.00    -0.376 OA
BRANCH   2   3
ATOM      3  C   UNL A   1      32.672  28.809  23.245  1.00  0.00     0.202 C 
BRANCH   3   4
ATOM      4  C   UNL A   1      31.306  28.257  22.802  1.00  0.00     0.261 C 
BRANCH   4   5
ATOM      5  O   UNL A   1      31.195  26.840  22.664  1.00  0.00    -0.460 OA
BRANCH   5   6
ATOM      6  C   UNL A   1      30.453  26.213  23.613  1.00  0.00     0.338 C 
ATOM      7  O   UNL A   1      29.381  26.565  24.062  1.00  0.00    -0.246 OA
BRANCH   6   8
ATOM      8  C   UNL A   1      31.080  24.910  23.912  1.00  0.00     0.062 A 
ATOM      9  C   UNL A   1      32.245  22.340  24.481  1.00  0.00     0.060 A 
ATOM     10  C   UNL A   1      32.549  23.091  23.316  1.00  0.00     0.029 A 
ATOM     11  C   UNL A   1      31.233  22.926  25.297  1.00  0.00     0.056 A 
ATOM     12  C   UNL A   1      31.952  24.326  23.007  1.00  0.00     0.018 A 
ATOM     13  C   UNL A   1      30.763  24.235  25.075  1.00  0.00     0.043 A 
BRANCH   9  14
ATOM     14  N   UNL A   1      32.951  21.159  24.768  1.00  0.00    -0.367 N 
ATOM     15  C   UNL A   1      32.515  19.878  24.197  1.00  0.00     0.144 C 
BRANCH  14  16
ATOM     16  C   UNL A   1      33.975  20.977  25.831  1.00  0.00     0.172 C 
BRANCH  16  17
ATOM     17  C   UNL A   1      35.436  21.255  25.498  1.00  0.00     0.060 A 
ATOM     18  C   UNL A   1      37.883  23.936  26.056  1.00  0.00     0.067 C 
ATOM     19  C   UNL A   1      37.317  22.597  25.701  1.00  0.00     0.038 A 
ATOM     20  C   UNL A   1      38.152  21.556  25.302  1.00  0.00     0.023 A 
ATOM     21  N   UNL A   1      35.970  22.467  25.785  1.00  0.00    -0.256 NA
ATOM     22  C   UNL A   1      37.583  20.352  24.911  1.00  0.00     0.004 A 
ATOM     23  C   UNL A   1      36.203  20.211  24.966  1.00  0.00     0.026 A 
ENDBRANCH  16  17
ENDBRANCH  14  16
ENDBRANCH   9  14
BRANCH  11  24
ATOM     24  N   UNL A   1      30.541  22.264  26.301  1.00  0.00    -0.397 N 
ATOM     25  H   UNL A   1      30.948  21.490  26.753  1.00  0.00     0.156 HD
ATOM     26  H   UNL A   1      29.641  22.568  26.562  1.00  0.00     0.156 HD
ENDBRANCH  11  24
ENDBRANCH   6   8
ENDBRANCH   5   6
ENDBRANCH   4   5
ENDBRANCH   3   4
ENDBRANCH   2   3
ENDBRANCH   1   2
BRANCH   1  27
ATOM     27  C   UNL A   1      32.248  29.069  26.423  1.00  0.00     0.188 C 
BRANCH  27  28
ATOM     28  O   UNL A   1      32.144  30.298  27.098  1.00  0.00    -0.376 OA
BRANCH  28  29
ATOM     29  C   UNL A   1      31.542  31.413  26.464  1.00  0.00     0.202 C 
BRANCH  29  30
ATOM     30  C   UNL A   1      31.714  32.896  26.858  1.00  0.00     0.261 C 
BRANCH  30  31
ATOM     31  O   UNL A   1      33.029  33.458  26.896  1.00  0.00    -0.460 OA
BRANCH  31  32
ATOM     32  C   UNL A   1      33.463  33.893  28.103  1.00  0.00     0.338 C 
ATOM     33  O   UNL A   1      32.920  34.697  28.839  1.00  0.00    -0.246 OA
BRANCH  32  34
ATOM     34  C   UNL A   1      34.653  33.108  28.491  1.00  0.00     0.060 A 
ATOM     35  C   UNL A   1      34.472  31.803  28.971  1.00  0.00     0.016 A 
ATOM     36  C   UNL A   1      35.932  33.660  28.409  1.00  0.00     0.016 A 
ATOM     37  C   UNL A   1      35.572  31.057  29.400  1.00  0.00     0.010 A 
ATOM     38  C   UNL A   1      37.030  32.918  28.857  1.00  0.00     0.010 A 
ATOM     39  C   UNL A   1      36.853  31.624  29.384  1.00  0.00    -0.014 A 
BRANCH  39  40
ATOM     40  C   UNL A   1      37.976  30.937  30.073  1.00  0.00     0.031 A 
ATOM     41  C   UNL A   1      38.256  31.274  31.512  1.00  0.00     0.074 A 
ATOM     42  C   UNL A   1      38.723  30.011  29.444  1.00  0.00     0.049 A 
ATOM     43  N   UNL A   1      39.202  30.835  32.305  1.00  0.00    -0.248 NA
ATOM     44  C   UNL A   1      37.346  32.242  32.144  1.00  0.00     0.031 C 
ATOM     45  C   UNL A   1      38.535  29.569  28.066  1.00  0.00     0.029 A 
ATOM     46  N   UNL A   1      39.802  29.285  29.888  1.00  0.00    -0.354 N 
ATOM     47  C   UNL A   1      39.005  31.479  33.520  1.00  0.00     0.074 A 
ATOM     48  C   UNL A   1      37.874  32.364  33.352  1.00  0.00     0.031 C 
ATOM     49  C   UNL A   1      39.477  28.654  27.771  1.00  0.00     0.029 A 
ATOM     50  C   UNL A   1      40.352  28.472  28.928  1.00  0.00     0.049 A 
ATOM     51  H   UNL A   1      40.149  29.343  30.809  1.00  0.00     0.167 HD
ATOM     52  C   UNL A   1      39.699  31.338  34.676  1.00  0.00     0.037 A 
ATOM     53  C   UNL A   1      41.450  27.692  28.972  1.00  0.00     0.037 A 
ATOM     54  C   UNL A   1      40.827  30.458  34.842  1.00  0.00     0.049 A 
ATOM     55  C   UNL A   1      42.252  27.608  30.249  1.00  0.00     0.074 A 
ATOM     56  C   UNL A   1      41.581  30.228  35.980  1.00  0.00     0.029 A 
ATOM     57  N   UNL A   1      41.371  29.672  33.837  1.00  0.00    -0.354 N 
ATOM     58  N   UNL A   1      42.039  28.192  31.404  1.00  0.00    -0.248 NA
ATOM     59  C   UNL A   1      43.445  26.750  30.228  1.00  0.00     0.031 C 
ATOM     60  C   UNL A   1      42.621  29.355  35.647  1.00  0.00     0.029 A 
ATOM     61  C   UNL A   1      42.472  28.981  34.321  1.00  0.00     0.049 A 
ATOM     62  H   UNL A   1      41.028  29.613  32.916  1.00  0.00     0.167 HD
ATOM     63  C   UNL A   1      43.045  27.745  32.252  1.00  0.00     0.074 A 
ATOM     64  C   UNL A   1      43.862  26.830  31.483  1.00  0.00     0.031 C 
ATOM     65  C   UNL A   1      43.272  28.062  33.551  1.00  0.00     0.037 A 
BRANCH  52  66
ATOM     66  C   UNL A   1      39.276  32.177  35.848  1.00  0.00     0.064 A 
ATOM     67  C   UNL A   1      38.364  31.706  36.805  1.00  0.00     0.173 A 
ATOM     68  C   UNL A   1      39.821  33.457  36.037  1.00  0.00     0.173 A 
ATOM     69  F   UNL A   1      37.805  30.495  36.668  1.00  0.00    -0.203 F 
ATOM     70  C   UNL A   1      37.993  32.496  37.891  1.00  0.00     0.198 A 
ATOM     71  C   UNL A   1      39.474  34.230  37.141  1.00  0.00     0.198 A 
ATOM     72  F   UNL A   1      40.701  33.954  35.155  1.00  0.00    -0.203 F 
ATOM     73  F   UNL A   1      37.083  32.045  38.765  1.00  0.00    -0.200 F 
ATOM     74  C   UNL A   1      38.553  33.752  38.062  1.00  0.00     0.200 A 
ATOM     75  F   UNL A   1      40.029  35.436  37.313  1.00  0.00    -0.200 F 
ATOM     76  F   UNL A   1      38.204  34.507  39.113  1.00  0.00    -0.200 F 
ENDBRANCH  52  66
BRANCH  53  77
ATOM     77  C   UNL A   1      41.873  26.928  27.767  1.00  0.00     0.064 A 
ATOM     78  C   UNL A   1      41.363  25.649  27.502  1.00  0.00     0.173 A 
ATOM     79  C   UNL A   1      42.822  27.447  26.873  1.00  0.00     0.173 A 
ATOM     80  F   UNL A   1      40.475  25.096  28.342  1.00  0.00    -0.203 F 
ATOM     81  C   UNL A   1      41.803  24.909  26.406  1.00  0.00     0.198 A 
ATOM     82  C   UNL A   1      43.236  26.720  25.758  1.00  0.00     0.198 A 
ATOM     83  F   UNL A   1      43.347  28.662  27.082  1.00  0.00    -0.203 F 
ATOM     84  F   UNL A   1      41.342  23.667  26.211  1.00  0.00    -0.200 F 
ATOM     85  C   UNL A   1      42.734  25.448  25.531  1.00  0.00     0.200 A 
ATOM     86  F   UNL A   1      44.129  27.249  24.911  1.00  0.00    -0.200 F 
ATOM     87  F   UNL A   1      43.158  24.736  24.478  1.00  0.00    -0.200 F 
ENDBRANCH  53  77
BRANCH  65  88
ATOM     88  C   UNL A   1      44.418  27.378  34.246  1.00  0.00     0.064 A 
ATOM     89  C   UNL A   1      44.273  26.127  34.865  1.00  0.00     0.173 A 
ATOM     90  C   UNL A   1      45.691  27.969  34.260  1.00  0.00     0.173 A 
ATOM     91  F   UNL A   1      43.076  25.522  34.893  1.00  0.00    -0.203 F 
ATOM     92  C   UNL A   1      45.350  25.510  35.498  1.00  0.00     0.198 A 
ATOM     93  C   UNL A   1      46.774  27.333  34.861  1.00  0.00     0.198 A 
ATOM     94  F   UNL A   1      45.891  29.160  33.675  1.00  0.00    -0.203 F 
ATOM     95  F   UNL A   1      45.173  24.343  36.131  1.00  0.00    -0.200 F 
ATOM     96  C   UNL A   1      46.601  26.109  35.489  1.00  0.00     0.200 A 
ATOM     97  F   UNL A   1      47.986  27.906  34.833  1.00  0.00    -0.200 F 
ATOM     98  F   UNL A   1      47.637  25.511  36.091  1.00  0.00    -0.200 F 
ENDBRANCH  65  88
ENDBRANCH  39  40
ENDBRANCH  32  34
ENDBRANCH  31  32
ENDBRANCH  30  31
ENDBRANCH  29  30
ENDBRANCH  28  29
ENDBRANCH  27  28
ENDBRANCH   1  27
TORSDOF 21
ENDMDL
MODEL 2
REMARK VINA RESULT:     -10.7      4.167      6.821
REMARK SMILES Cc1cccc(CN(C)c2ccc(C(=O)OCCOCCOCCOC(=O)c3ccc(-c4c5nc(c(-c6c(F)c(F)c(F)c(F)c6F)c6ccc([nH]6)c(-c6c(F)c(F)c(F)c(F)c6F)c6nc(c(-c7c(F)c(F)c(F)c(F)c7F)c7ccc4[nH]7)C=C6)C=C5)cc3)cc2N)n1
REMARK SMILES IDX 20 1 19 2 18 3 17 4 16 5 14 6 15 7 13 8 10 9 11 10 92 11
REMARK SMILES IDX 12 12 91 13 8 14 9 15 7 16 6 17 1 18 2 19 3 20 94 21 4 22
REMARK SMILES IDX 5 23 93 24 21 27 22 28 23 29 24 30 25 31 26 32 27 33 28 34
REMARK SMILES IDX 29 35 90 36 30 37 89 38 31 39 32 40 33 41 83 42 34 43 88 44
REMARK SMILES IDX 82 45 84 46 35 47 87 48 81 49 80 50 36 52 68 53 48 54 67 55
REMARK SMILES IDX 49 56 52 57 66 58 85 59 50 60 51 61 65 63 86 64 53 65 37 66
REMARK SMILES IDX 38 67 46 68 39 69 40 70 44 71 47 72 41 73 42 74 45 75 43 76
REMARK SMILES IDX 69 77 70 78 78 79 71 80 72 81 76 82 79 83 73 84 74 85 77 86
REMARK SMILES IDX 75 87 54 88 55 89 63 90 56 91 57 92 61 93 64 94 58 95 59 96
REMARK SMILES IDX 62 97 60 98
REMARK H PARENT 93 25 93 26 84 51 52 62
REMARK Flexibility Score: inf
ROOT
ATOM      1  C   UNL A   1      35.528  33.824  28.591  1.00  0.00     0.188 C 
ENDROOT
BRANCH   1   2
ATOM      2  O   UNL A   1      35.657  32.555  27.979  1.00  0.00    -0.376 OA
BRANCH   2   3
ATOM      3  C   UNL A   1      34.526  31.731  27.750  1.00  0.00     0.202 C 
BRANCH   3   4
ATOM      4  C   UNL A   1      34.606  30.208  27.547  1.00  0.00     0.261 C 
BRANCH   4   5
ATOM      5  O   UNL A   1      34.020  29.683  26.356  1.00  0.00    -0.460 OA
BRANCH   5   6
ATOM      6  C   UNL A   1      32.680  29.463  26.408  1.00  0.00     0.338 C 
ATOM      7  O   UNL A   1      31.797  30.296  26.450  1.00  0.00    -0.246 OA
BRANCH   6   8
ATOM      8  C   UNL A   1      32.436  28.017  26.235  1.00  0.00     0.062 A 
ATOM      9  C   UNL A   1      31.995  25.186  25.954  1.00  0.00     0.060 A 
ATOM     10  C   UNL A   1      30.971  26.102  26.311  1.00  0.00     0.029 A 
ATOM     11  C   UNL A   1      33.286  25.781  25.845  1.00  0.00     0.056 A 
ATOM     12  C   UNL A   1      31.186  27.478  26.494  1.00  0.00     0.018 A 
ATOM     13  C   UNL A   1      33.468  27.177  25.862  1.00  0.00     0.043 A 
BRANCH   9  14
ATOM     14  N   UNL A   1      31.686  23.840  25.697  1.00  0.00    -0.367 N 
ATOM     15  C   UNL A   1      31.426  22.914  26.807  1.00  0.00     0.144 C 
BRANCH  14  16
ATOM     16  C   UNL A   1      31.847  23.126  24.403  1.00  0.00     0.172 C 
BRANCH  16  17
ATOM     17  C   UNL A   1      32.765  21.910  24.344  1.00  0.00     0.060 A 
ATOM     18  C   UNL A   1      36.193  21.047  25.337  1.00  0.00     0.067 C 
ATOM     19  C   UNL A   1      34.774  20.888  24.887  1.00  0.00     0.038 A 
ATOM     20  C   UNL A   1      34.241  19.623  24.650  1.00  0.00     0.023 A 
ATOM     21  N   UNL A   1      34.061  22.028  24.722  1.00  0.00    -0.256 NA
ATOM     22  C   UNL A   1      32.946  19.521  24.164  1.00  0.00     0.004 A 
ATOM     23  C   UNL A   1      32.210  20.681  23.965  1.00  0.00     0.026 A 
ENDBRANCH  16  17
ENDBRANCH  14  16
ENDBRANCH   9  14
BRANCH  11  24
ATOM     24  N   UNL A   1      34.484  25.078  25.819  1.00  0.00    -0.397 N 
ATOM     25  H   UNL A   1      35.305  25.515  25.498  1.00  0.00     0.156 HD
ATOM     26  H   UNL A   1      34.511  24.141  26.123  1.00  0.00     0.156 HD
ENDBRANCH  11  24
ENDBRANCH   6   8
ENDBRANCH   5   6
ENDBRANCH   4   5
ENDBRANCH   3   4
ENDBRANCH   2   3
ENDBRANCH   1   2
BRANCH   1  27
ATOM     27  C   UNL A   1      34.151  34.514  28.684  1.00  0.00     0.188 C 
BRANCH  27  28
ATOM     28  O   UNL A   1      33.548  34.501  29.953  1.00  0.00    -0.376 OA
BRANCH  28  29
ATOM     29  C   UNL A   1      34.344  34.535  31.124  1.00  0.00     0.202 C 
BRANCH  29  30
ATOM     30  C   UNL A   1      34.203  33.616  32.357  1.00  0.00     0.261 C 
BRANCH  30  31
ATOM     31  O   UNL A   1      34.903  32.368  32.378  1.00  0.00    -0.460 OA
BRANCH  31  32
ATOM     32  C   UNL A   1      36.045  32.331  33.106  1.00  0.00     0.338 C 
ATOM     33  O   UNL A   1      36.203  32.703  34.255  1.00  0.00    -0.246 OA
BRANCH  32  34
ATOM     34  C   UNL A   1      37.074  31.601  32.337  1.00  0.00     0.060 A 
ATOM     35  C   UNL A   1      38.144  31.016  33.030  1.00  0.00     0.016 A 
ATOM     36  C   UNL A   1      37.001  31.515  30.947  1.00  0.00     0.016 A 
ATOM     37  C   UNL A   1      39.162  30.370  32.327  1.00  0.00     0.010 A 
ATOM     38  C   UNL A   1      38.032  30.883  30.243  1.00  0.00     0.010 A 
ATOM     39  C   UNL A   1      39.134  30.334  30.926  1.00  0.00    -0.014 A 
BRANCH  39  40
ATOM     40  C   UNL A   1      40.332  29.880  30.174  1.00  0.00     0.031 A 
ATOM     41  C   UNL A   1      41.453  30.855  29.941  1.00  0.00     0.074 A 
ATOM     42  C   UNL A   1      40.438  28.617  29.721  1.00  0.00     0.049 A 
ATOM     43  N   UNL A   1      42.574  30.700  29.281  1.00  0.00    -0.248 NA
ATOM     44  C   UNL A   1      41.286  32.192  30.533  1.00  0.00     0.031 C 
ATOM     45  C   UNL A   1      39.442  27.566  29.908  1.00  0.00     0.029 A 
ATOM     46  N   UNL A   1      41.437  28.011  28.997  1.00  0.00    -0.354 N 
ATOM     47  C   UNL A   1      43.237  31.917  29.370  1.00  0.00     0.074 A 
ATOM     48  C   UNL A   1      42.380  32.812  30.118  1.00  0.00     0.031 C 
ATOM     49  C   UNL A   1      39.874  26.445  29.303  1.00  0.00     0.029 A 
ATOM     50  C   UNL A   1      41.159  26.709  28.659  1.00  0.00     0.049 A 
ATOM     51  H   UNL A   1      42.272  28.468  28.745  1.00  0.00     0.167 HD
ATOM     52  C   UNL A   1      44.455  32.256  28.883  1.00  0.00     0.037 A 
ATOM     53  C   UNL A   1      41.853  25.841  27.895  1.00  0.00     0.037 A 
ATOM     54  C   UNL A   1      45.306  31.365  28.137  1.00  0.00     0.049 A 
ATOM     55  C   UNL A   1      43.174  26.266  27.300  1.00  0.00     0.074 A 
ATOM     56  C   UNL A   1      46.567  31.608  27.620  1.00  0.00     0.029 A 
ATOM     57  N   UNL A   1      44.977  30.063  27.790  1.00  0.00    -0.354 N 
ATOM     58  N   UNL A   1      43.811  27.406  27.419  1.00  0.00    -0.248 NA
ATOM     59  C   UNL A   1      43.874  25.278  26.466  1.00  0.00     0.031 C 
ATOM     60  C   UNL A   1      46.974  30.478  26.905  1.00  0.00     0.029 A 
ATOM     61  C   UNL A   1      45.999  29.502  27.039  1.00  0.00     0.049 A 
ATOM     62  H   UNL A   1      44.143  29.605  28.040  1.00  0.00     0.167 HD
ATOM     63  C   UNL A   1      44.998  27.259  26.709  1.00  0.00     0.074 A 
ATOM     64  C   UNL A   1      44.999  25.914  26.175  1.00  0.00     0.031 C 
ATOM     65  C   UNL A   1      45.997  28.157  26.520  1.00  0.00     0.037 A 
BRANCH  52  66
ATOM     66  C   UNL A   1      44.931  33.662  29.115  1.00  0.00     0.064 A 
ATOM     67  C   UNL A   1      45.642  34.023  30.269  1.00  0.00     0.173 A 
ATOM     68  C   UNL A   1      44.704  34.655  28.149  1.00  0.00     0.173 A 
ATOM     69  F   UNL A   1      45.878  33.115  31.229  1.00  0.00    -0.203 F 
ATOM     70  C   UNL A   1      46.084  35.329  30.460  1.00  0.00     0.198 A 
ATOM     71  C   UNL A   1      45.177  35.952  28.327  1.00  0.00     0.198 A 
ATOM     72  F   UNL A   1      44.034  34.365  27.024  1.00  0.00    -0.203 F 
ATOM     73  F   UNL A   1      46.718  35.662  31.594  1.00  0.00    -0.200 F 
ATOM     74  C   UNL A   1      45.858  36.290  29.487  1.00  0.00     0.200 A 
ATOM     75  F   UNL A   1      44.972  36.874  27.378  1.00  0.00    -0.200 F 
ATOM     76  F   UNL A   1      46.293  37.546  29.667  1.00  0.00    -0.200 F 
ENDBRANCH  52  66
BRANCH  53  77
ATOM     77  C   UNL A   1      41.314  24.479  27.636  1.00  0.00     0.064 A 
ATOM     78  C   UNL A   1      41.884  23.346  28.234  1.00  0.00     0.173 A 
ATOM     79  C   UNL A   1      40.240  24.278  26.755  1.00  0.00     0.173 A 
ATOM     80  F   UNL A   1      42.931  23.482  29.060  1.00  0.00    -0.203 F 
ATOM     81  C   UNL A   1      41.417  22.065  27.945  1.00  0.00     0.198 A 
ATOM     82  C   UNL A   1      39.752  22.999  26.493  1.00  0.00     0.198 A 
ATOM     83  F   UNL A   1      39.662  25.326  26.150  1.00  0.00    -0.203 F 
ATOM     84  F   UNL A   1      42.019  20.998  28.485  1.00  0.00    -0.200 F 
ATOM     85  C   UNL A   1      40.346  21.893  27.079  1.00  0.00     0.200 A 
ATOM     86  F   UNL A   1      38.712  22.839  25.664  1.00  0.00    -0.200 F 
ATOM     87  F   UNL A   1      39.899  20.662  26.801  1.00  0.00    -0.200 F 
ENDBRANCH  53  77
BRANCH  65  88
ATOM     88  C   UNL A   1      47.204  27.703  25.745  1.00  0.00     0.064 A 
ATOM     89  C   UNL A   1      47.239  27.725  24.342  1.00  0.00     0.173 A 
ATOM     90  C   UNL A   1      48.359  27.276  26.420  1.00  0.00     0.173 A 
ATOM     91  F   UNL A   1      46.160  28.113  23.645  1.00  0.00    -0.203 F 
ATOM     92  C   UNL A   1      48.370  27.304  23.646  1.00  0.00     0.198 A 
ATOM     93  C   UNL A   1      49.500  26.892  25.722  1.00  0.00     0.198 A 
ATOM     94  F   UNL A   1      48.386  27.244  27.761  1.00  0.00    -0.203 F 
ATOM     95  F   UNL A   1      48.359  27.280  22.306  1.00  0.00    -0.200 F 
ATOM     96  C   UNL A   1      49.502  26.896  24.336  1.00  0.00     0.200 A 
ATOM     97  F   UNL A   1      50.599  26.516  26.392  1.00  0.00    -0.200 F 
ATOM     98  F   UNL A   1      50.592  26.499  23.664  1.00  0.00    -0.200 F 
ENDBRANCH  65  88
ENDBRANCH  39  40
ENDBRANCH  32  34
ENDBRANCH  31  32
ENDBRANCH  30  31
ENDBRANCH  29  30
ENDBRANCH  28  29
ENDBRANCH  27  28
ENDBRANCH   1  27
TORSDOF 21
ENDMDL
MODEL 3
REMARK VINA RESULT:     -10.6      3.553      8.937
REMARK SMILES Cc1cccc(CN(C)c2ccc(C(=O)OCCOCCOCCOC(=O)c3ccc(-c4c5nc(c(-c6c(F)c(F)c(F)c(F)c6F)c6ccc([nH]6)c(-c6c(F)c(F)c(F)c(F)c6F)c6nc(c(-c7c(F)c(F)c(F)c(F)c7F)c7ccc4[nH]7)C=C6)C=C5)cc3)cc2N)n1
REMARK SMILES IDX 20 1 19 2 18 3 17 4 16 5 14 6 15 7 13 8 10 9 11 10 92 11
REMARK SMILES IDX 12 12 91 13 8 14 9 15 7 16 6 17 1 18 2 19 3 20 94 21 4 22
REMARK SMILES IDX 5 23 93 24 21 27 22 28 23 29 24 30 25 31 26 32 27 33 28 34
REMARK SMILES IDX 29 35 90 36 30 37 89 38 31 39 32 40 33 41 83 42 34 43 88 44
REMARK SMILES IDX 82 45 84 46 35 47 87 48 81 49 80 50 36 52 68 53 48 54 67 55
REMARK SMILES IDX 49 56 52 57 66 58 85 59 50 60 51 61 65 63 86 64 53 65 37 66
REMARK SMILES IDX 38 67 46 68 39 69 40 70 44 71 47 72 41 73 42 74 45 75 43 76
REMARK SMILES IDX 69 77 70 78 78 79 71 80 72 81 76 82 79 83 73 84 74 85 77 86
REMARK SMILES IDX 75 87 54 88 55 89 63 90 56 91 57 92 61 93 64 94 58 95 59 96
REMARK SMILES IDX 62 97 60 98
REMARK H PARENT 93 25 93 26 84 51 52 62
REMARK Flexibility Score: inf
ROOT
ATOM      1  C   UNL A   1      40.988  19.917  26.378  1.00  0.00     0.188 C 
ENDROOT
BRANCH   1   2
ATOM      2  O   UNL A   1      40.135  21.039  26.503  1.00  0.00    -0.376 OA
BRANCH   2   3
ATOM      3  C   UNL A   1      38.979  21.176  25.694  1.00  0.00     0.202 C 
BRANCH   3   4
ATOM      4  C   UNL A   1      38.025  22.382  25.765  1.00  0.00     0.261 C 
BRANCH   4   5
ATOM      5  O   UNL A   1      37.169  22.597  24.643  1.00  0.00    -0.460 OA
BRANCH   5   6
ATOM      6  C   UNL A   1      35.984  21.933  24.672  1.00  0.00     0.338 C 
ATOM      7  O   UNL A   1      35.743  20.878  25.222  1.00  0.00    -0.246 OA
BRANCH   6   8
ATOM      8  C   UNL A   1      34.953  22.792  24.056  1.00  0.00     0.062 A 
ATOM      9  C   UNL A   1      32.900  24.449  22.904  1.00  0.00     0.060 A 
ATOM     10  C   UNL A   1      34.029  24.971  23.587  1.00  0.00     0.029 A 
ATOM     11  C   UNL A   1      32.821  23.025  22.927  1.00  0.00     0.056 A 
ATOM     12  C   UNL A   1      35.013  24.170  24.191  1.00  0.00     0.018 A 
ATOM     13  C   UNL A   1      33.887  22.227  23.382  1.00  0.00     0.043 A 
BRANCH   9  14
ATOM     14  N   UNL A   1      32.008  25.311  22.245  1.00  0.00    -0.367 N 
ATOM     15  C   UNL A   1      32.404  25.973  20.995  1.00  0.00     0.144 C 
BRANCH  14  16
ATOM     16  C   UNL A   1      30.749  25.877  22.799  1.00  0.00     0.172 C 
BRANCH  16  17
ATOM     17  C   UNL A   1      30.837  27.038  23.782  1.00  0.00     0.060 A 
ATOM     18  C   UNL A   1      32.162  27.649  27.152  1.00  0.00     0.067 C 
ATOM     19  C   UNL A   1      31.603  27.913  25.788  1.00  0.00     0.038 A 
ATOM     20  C   UNL A   1      31.396  29.217  25.346  1.00  0.00     0.023 A 
ATOM     21  N   UNL A   1      31.315  26.826  25.032  1.00  0.00    -0.256 NA
ATOM     22  C   UNL A   1      30.809  29.419  24.105  1.00  0.00     0.004 A 
ATOM     23  C   UNL A   1      30.483  28.316  23.329  1.00  0.00     0.026 A 
ENDBRANCH  16  17
ENDBRANCH  14  16
ENDBRANCH   9  14
BRANCH  11  24
ATOM     24  N   UNL A   1      31.685  22.289  22.617  1.00  0.00    -0.397 N 
ATOM     25  H   UNL A   1      30.876  22.373  23.171  1.00  0.00     0.156 HD
ATOM     26  H   UNL A   1      31.690  21.681  21.842  1.00  0.00     0.156 HD
ENDBRANCH  11  24
ENDBRANCH   6   8
ENDBRANCH   5   6
ENDBRANCH   4   5
ENDBRANCH   3   4
ENDBRANCH   2   3
ENDBRANCH   1   2
BRANCH   1  27
ATOM     27  C   UNL A   1      42.519  20.081  26.479  1.00  0.00     0.188 C 
BRANCH  27  28
ATOM     28  O   UNL A   1      43.211  20.106  25.256  1.00  0.00    -0.376 OA
BRANCH  28  29
ATOM     29  C   UNL A   1      44.594  20.415  25.223  1.00  0.00     0.202 C 
BRANCH  29  30
ATOM     30  C   UNL A   1      45.222  21.823  25.309  1.00  0.00     0.261 C 
BRANCH  30  31
ATOM     31  O   UNL A   1      44.524  22.854  26.015  1.00  0.00    -0.460 OA
BRANCH  31  32
ATOM     32  C   UNL A   1      43.701  23.637  25.279  1.00  0.00     0.338 C 
ATOM     33  O   UNL A   1      43.389  23.491  24.110  1.00  0.00    -0.246 OA
BRANCH  32  34
ATOM     34  C   UNL A   1      43.081  24.642  26.166  1.00  0.00     0.060 A 
ATOM     35  C   UNL A   1      43.717  25.881  26.329  1.00  0.00     0.016 A 
ATOM     36  C   UNL A   1      41.899  24.359  26.852  1.00  0.00     0.016 A 
ATOM     37  C   UNL A   1      43.187  26.830  27.206  1.00  0.00     0.010 A 
ATOM     38  C   UNL A   1      41.380  25.304  27.744  1.00  0.00     0.010 A 
ATOM     39  C   UNL A   1      42.038  26.532  27.950  1.00  0.00    -0.014 A 
BRANCH  39  40
ATOM     40  C   UNL A   1      41.623  27.427  29.061  1.00  0.00     0.031 A 
ATOM     41  C   UNL A   1      42.390  27.375  30.355  1.00  0.00     0.074 A 
ATOM     42  C   UNL A   1      40.599  28.288  28.924  1.00  0.00     0.049 A 
ATOM     43  N   UNL A   1      42.189  28.029  31.473  1.00  0.00    -0.248 NA
ATOM     44  C   UNL A   1      43.539  26.458  30.395  1.00  0.00     0.031 C 
ATOM     45  C   UNL A   1      39.798  28.461  27.715  1.00  0.00     0.029 A 
ATOM     46  N   UNL A   1      40.052  29.173  29.821  1.00  0.00    -0.354 N 
ATOM     47  C   UNL A   1      43.178  27.595  32.346  1.00  0.00     0.074 A 
ATOM     48  C   UNL A   1      43.956  26.599  31.644  1.00  0.00     0.031 C 
ATOM     49  C   UNL A   1      38.852  29.388  27.949  1.00  0.00     0.029 A 
ATOM     50  C   UNL A   1      38.960  29.848  29.333  1.00  0.00     0.049 A 
ATOM     51  H   UNL A   1      40.409  29.309  30.729  1.00  0.00     0.167 HD
ATOM     52  C   UNL A   1      43.422  27.999  33.616  1.00  0.00     0.037 A 
ATOM     53  C   UNL A   1      38.129  30.717  29.943  1.00  0.00     0.037 A 
ATOM     54  C   UNL A   1      42.646  28.990  34.316  1.00  0.00     0.049 A 
ATOM     55  C   UNL A   1      38.377  31.096  31.384  1.00  0.00     0.074 A 
ATOM     56  C   UNL A   1      42.828  29.482  35.597  1.00  0.00     0.029 A 
ATOM     57  N   UNL A   1      41.529  29.630  33.797  1.00  0.00    -0.354 N 
ATOM     58  N   UNL A   1      39.335  30.709  32.192  1.00  0.00    -0.248 NA
ATOM     59  C   UNL A   1      37.428  32.038  31.995  1.00  0.00     0.031 C 
ATOM     60  C   UNL A   1      41.785  30.371  35.877  1.00  0.00     0.029 A 
ATOM     61  C   UNL A   1      40.995  30.490  34.745  1.00  0.00     0.049 A 
ATOM     62  H   UNL A   1      41.170  29.495  32.891  1.00  0.00     0.167 HD
ATOM     63  C   UNL A   1      39.125  31.386  33.388  1.00  0.00     0.074 A 
ATOM     64  C   UNL A   1      37.957  32.218  33.196  1.00  0.00     0.031 C 
ATOM     65  C   UNL A   1      39.838  31.324  34.541  1.00  0.00     0.037 A 
BRANCH  52  66
ATOM     66  C   UNL A   1      44.562  27.347  34.347  1.00  0.00     0.064 A 
ATOM     67  C   UNL A   1      44.390  26.164  35.081  1.00  0.00     0.173 A 
ATOM     68  C   UNL A   1      45.852  27.894  34.279  1.00  0.00     0.173 A 
ATOM     69  F   UNL A   1      43.176  25.604  35.188  1.00  0.00    -0.203 F 
ATOM     70  C   UNL A   1      45.462  25.569  35.743  1.00  0.00     0.198 A 
ATOM     71  C   UNL A   1      46.928  27.279  34.913  1.00  0.00     0.198 A 
ATOM     72  F   UNL A   1      46.074  29.021  33.586  1.00  0.00    -0.203 F 
ATOM     73  F   UNL A   1      45.265  24.467  36.480  1.00  0.00    -0.200 F 
ATOM     74  C   UNL A   1      46.730  26.122  35.652  1.00  0.00     0.200 A 
ATOM     75  F   UNL A   1      48.155  27.806  34.810  1.00  0.00    -0.200 F 
ATOM     76  F   UNL A   1      47.763  25.543  36.280  1.00  0.00    -0.200 F 
ENDBRANCH  52  66
BRANCH  53  77
ATOM     77  C   UNL A   1      36.973  31.290  29.203  1.00  0.00     0.064 A 
ATOM     78  C   UNL A   1      36.953  32.637  28.815  1.00  0.00     0.173 A 
ATOM     79  C   UNL A   1      35.846  30.510  28.899  1.00  0.00     0.173 A 
ATOM     80  F   UNL A   1      37.993  33.432  29.109  1.00  0.00    -0.203 F 
ATOM     81  C   UNL A   1      35.845  33.188  28.175  1.00  0.00     0.198 A 
ATOM     82  C   UNL A   1      34.752  31.053  28.228  1.00  0.00     0.198 A 
ATOM     83  F   UNL A   1      35.809  29.217  29.253  1.00  0.00    -0.203 F 
ATOM     84  F   UNL A   1      35.831  34.492  27.869  1.00  0.00    -0.200 F 
ATOM     85  C   UNL A   1      34.748  32.394  27.875  1.00  0.00     0.200 A 
ATOM     86  F   UNL A   1      33.699  30.280  27.933  1.00  0.00    -0.200 F 
ATOM     87  F   UNL A   1      33.682  32.924  27.261  1.00  0.00    -0.200 F 
ENDBRANCH  53  77
BRANCH  65  88
ATOM     88  C   UNL A   1      39.410  32.218  35.673  1.00  0.00     0.064 A 
ATOM     89  C   UNL A   1      38.490  31.799  36.646  1.00  0.00     0.173 A 
ATOM     90  C   UNL A   1      39.960  33.503  35.806  1.00  0.00     0.173 A 
ATOM     91  F   UNL A   1      37.924  30.586  36.562  1.00  0.00    -0.203 F 
ATOM     92  C   UNL A   1      38.113  32.643  37.688  1.00  0.00     0.198 A 
ATOM     93  C   UNL A   1      39.610  34.330  36.870  1.00  0.00     0.198 A 
ATOM     94  F   UNL A   1      40.852  33.954  34.912  1.00  0.00    -0.203 F 
ATOM     95  F   UNL A   1      37.189  32.241  38.572  1.00  0.00    -0.200 F 
ATOM     96  C   UNL A   1      38.678  33.904  37.804  1.00  0.00     0.200 A 
ATOM     97  F   UNL A   1      40.173  35.541  36.990  1.00  0.00    -0.200 F 
ATOM     98  F   UNL A   1      38.320  34.712  38.812  1.00  0.00    -0.200 F 
ENDBRANCH  65  88
ENDBRANCH  39  40
ENDBRANCH  32  34
ENDBRANCH  31  32
ENDBRANCH  30  31
ENDBRANCH  29  30
ENDBRANCH  28  29
ENDBRANCH  27  28
ENDBRANCH   1  27
TORSDOF 21
ENDMDL
