MODEL 1
REMARK VINA RESULT:      -9.1      0.000      0.000
REMARK SMILES Cc1c(Br)c(C(=O)OCCOCCOCCOC(=O)c2ccc(-c3c4nc(c(-c5c(F)c(F)c(F)c(F)c5F)c5ccc([nH]5)c(-c5c(F)c(F)c(F)c(F)c5F)c5nc(c(-c6c(F)c(F)c(F)c(F)c6F)c6ccc3[nH]6)C=C5)C=C4)cc2)nn1CC(F)(F)F
REMARK SMILES IDX 12 1 11 2 10 3 9 4 8 5 6 6 7 7 5 8 1 9 2 10 3 11 84 12 4 13
REMARK SMILES IDX 83 14 85 15 86 16 87 17 88 18 89 19 13 20 14 21 15 22 16 23
REMARK SMILES IDX 17 24 18 25 19 26 20 27 21 28 82 29 22 30 81 31 23 32 24 33
REMARK SMILES IDX 25 34 75 35 26 36 80 37 74 38 76 39 27 40 79 41 73 42 72 43
REMARK SMILES IDX 28 45 60 46 40 47 59 48 41 49 44 50 58 51 77 52 42 53 43 54
REMARK SMILES IDX 57 56 78 57 45 58 29 59 30 60 38 61 31 62 32 63 36 64 39 65
REMARK SMILES IDX 33 66 34 67 37 68 35 69 61 70 62 71 70 72 63 73 64 74 68 75
REMARK SMILES IDX 71 76 65 77 66 78 69 79 67 80 46 81 47 82 55 83 48 84 49 85
REMARK SMILES IDX 53 86 56 87 50 88 51 89 54 90 52 91
REMARK H PARENT 76 44 44 55
REMARK Flexibility Score: inf
ROOT
ATOM      1  C   UNL A   1      43.258  19.245  25.668  1.00  0.00     0.188 C 
ENDROOT
BRANCH   1   2
ATOM      2  O   UNL A   1      43.569  20.337  24.809  1.00  0.00    -0.376 OA
BRANCH   2   3
ATOM      3  C   UNL A   1      43.917  21.596  25.377  1.00  0.00     0.202 C 
BRANCH   3   4
ATOM      4  C   UNL A   1      43.797  22.894  24.548  1.00  0.00     0.261 C 
BRANCH   4   5
ATOM      5  O   UNL A   1      44.207  24.105  25.203  1.00  0.00    -0.458 OA
BRANCH   5   6
ATOM      6  C   UNL A   1      45.522  24.458  25.084  1.00  0.00     0.360 C 
ATOM      7  O   UNL A   1      46.196  24.249  24.077  1.00  0.00    -0.244 OA
BRANCH   6   8
ATOM      8  C   UNL A   1      46.012  25.251  26.224  1.00  0.00     0.184 A 
ATOM      9  C   UNL A   1      47.289  28.217  28.062  1.00  0.00     0.067 C 
ATOM     10  C   UNL A   1      46.780  26.941  27.495  1.00  0.00     0.051 A 
ATOM     11  C   UNL A   1      46.448  26.599  26.203  1.00  0.00     0.073 A 
ATOM     12  N   UNL A   1      46.519  25.809  28.232  1.00  0.00    -0.259 N 
ATOM     13  Br  UNL A   1      46.483  27.724  24.699  1.00  0.00    -0.046 Br
ATOM     14  N   UNL A   1      46.060  24.780  27.488  1.00  0.00    -0.164 NA
BRANCH  12  15
ATOM     15  C   UNL A   1      46.795  25.577  29.634  1.00  0.00     0.259 C 
BRANCH  15  16
ATOM     16  C   UNL A   1      45.630  25.914  30.525  1.00  0.00     0.408 C 
ATOM     17  F   UNL A   1      44.937  24.835  30.937  1.00  0.00    -0.169 F 
ATOM     18  F   UNL A   1      46.084  26.541  31.642  1.00  0.00    -0.169 F 
ATOM     19  F   UNL A   1      44.770  26.769  29.925  1.00  0.00    -0.169 F 
ENDBRANCH  15  16
ENDBRANCH  12  15
ENDBRANCH   6   8
ENDBRANCH   5   6
ENDBRANCH   4   5
ENDBRANCH   3   4
ENDBRANCH   2   3
ENDBRANCH   1   2
BRANCH   1  20
ATOM     20  C   UNL A   1      42.155  19.385  26.746  1.00  0.00     0.188 C 
BRANCH  20  21
ATOM     21  O   UNL A   1      40.854  19.537  26.214  1.00  0.00    -0.376 OA
BRANCH  21  22
ATOM     22  C   UNL A   1      40.429  20.780  25.679  1.00  0.00     0.202 C 
BRANCH  22  23
ATOM     23  C   UNL A   1      39.187  21.488  26.222  1.00  0.00     0.261 C 
BRANCH  23  24
ATOM     24  O   UNL A   1      39.389  22.834  26.599  1.00  0.00    -0.460 OA
BRANCH  24  25
ATOM     25  C   UNL A   1      40.440  23.034  27.415  1.00  0.00     0.338 C 
ATOM     26  O   UNL A   1      40.771  22.355  28.371  1.00  0.00    -0.246 OA
BRANCH  25  27
ATOM     27  C   UNL A   1      41.106  24.278  27.011  1.00  0.00     0.060 A 
ATOM     28  C   UNL A   1      42.250  24.600  27.741  1.00  0.00     0.016 A 
ATOM     29  C   UNL A   1      40.352  25.235  26.317  1.00  0.00     0.016 A 
ATOM     30  C   UNL A   1      42.417  25.915  28.088  1.00  0.00     0.010 A 
ATOM     31  C   UNL A   1      40.504  26.545  26.684  1.00  0.00     0.010 A 
ATOM     32  C   UNL A   1      41.448  26.829  27.666  1.00  0.00    -0.014 A 
BRANCH  32  33
ATOM     33  C   UNL A   1      41.383  28.079  28.380  1.00  0.00     0.031 A 
ATOM     34  C   UNL A   1      42.505  28.990  28.111  1.00  0.00     0.074 A 
ATOM     35  C   UNL A   1      40.339  28.363  29.179  1.00  0.00     0.049 A 
ATOM     36  N   UNL A   1      43.362  29.459  28.952  1.00  0.00    -0.248 NA
ATOM     37  C   UNL A   1      42.778  29.316  26.705  1.00  0.00     0.031 C 
ATOM     38  C   UNL A   1      39.062  27.655  29.305  1.00  0.00     0.029 A 
ATOM     39  N   UNL A   1      40.172  29.444  29.979  1.00  0.00    -0.354 N 
ATOM     40  C   UNL A   1      44.213  30.261  28.203  1.00  0.00     0.074 A 
ATOM     41  C   UNL A   1      43.898  30.027  26.818  1.00  0.00     0.031 C 
ATOM     42  C   UNL A   1      38.178  28.458  29.942  1.00  0.00     0.029 A 
ATOM     43  C   UNL A   1      38.860  29.676  30.349  1.00  0.00     0.049 A 
ATOM     44  H   UNL A   1      40.919  30.015  30.271  1.00  0.00     0.167 HD
ATOM     45  C   UNL A   1      44.987  31.212  28.786  1.00  0.00     0.037 A 
ATOM     46  C   UNL A   1      38.379  30.847  30.832  1.00  0.00     0.037 A 
ATOM     47  C   UNL A   1      45.158  30.975  30.193  1.00  0.00     0.049 A 
ATOM     48  C   UNL A   1      39.545  31.627  31.342  1.00  0.00     0.074 A 
ATOM     49  C   UNL A   1      45.720  29.948  30.928  1.00  0.00     0.029 A 
ATOM     50  N   UNL A   1      44.397  31.695  31.082  1.00  0.00    -0.354 N 
ATOM     51  N   UNL A   1      40.240  31.295  32.396  1.00  0.00    -0.248 NA
ATOM     52  C   UNL A   1      40.220  32.528  30.415  1.00  0.00     0.031 C 
ATOM     53  C   UNL A   1      44.901  29.827  32.088  1.00  0.00     0.029 A 
ATOM     54  C   UNL A   1      43.909  30.804  32.007  1.00  0.00     0.049 A 
ATOM     55  H   UNL A   1      44.232  32.666  31.060  1.00  0.00     0.167 HD
ATOM     56  C   UNL A   1      41.556  31.597  32.068  1.00  0.00     0.074 A 
ATOM     57  C   UNL A   1      41.470  32.437  30.877  1.00  0.00     0.031 C 
ATOM     58  C   UNL A   1      42.602  30.907  32.611  1.00  0.00     0.037 A 
BRANCH  45  59
ATOM     59  C   UNL A   1      45.337  32.510  28.119  1.00  0.00     0.064 A 
ATOM     60  C   UNL A   1      44.334  33.473  27.909  1.00  0.00     0.173 A 
ATOM     61  C   UNL A   1      46.556  32.735  27.443  1.00  0.00     0.173 A 
ATOM     62  F   UNL A   1      43.128  33.339  28.480  1.00  0.00    -0.203 F 
ATOM     63  C   UNL A   1      44.523  34.550  27.041  1.00  0.00     0.198 A 
ATOM     64  C   UNL A   1      46.762  33.842  26.627  1.00  0.00     0.198 A 
ATOM     65  F   UNL A   1      47.552  31.840  27.455  1.00  0.00    -0.203 F 
ATOM     66  F   UNL A   1      43.502  35.377  26.779  1.00  0.00    -0.200 F 
ATOM     67  C   UNL A   1      45.736  34.733  26.401  1.00  0.00     0.200 A 
ATOM     68  F   UNL A   1      47.939  33.991  26.002  1.00  0.00    -0.200 F 
ATOM     69  F   UNL A   1      45.900  35.737  25.529  1.00  0.00    -0.200 F 
ENDBRANCH  45  59
BRANCH  46  70
ATOM     70  C   UNL A   1      37.055  31.454  30.545  1.00  0.00     0.064 A 
ATOM     71  C   UNL A   1      36.141  31.713  31.578  1.00  0.00     0.173 A 
ATOM     72  C   UNL A   1      36.747  32.019  29.288  1.00  0.00     0.173 A 
ATOM     73  F   UNL A   1      36.380  31.263  32.818  1.00  0.00    -0.203 F 
ATOM     74  C   UNL A   1      34.998  32.493  31.369  1.00  0.00     0.198 A 
ATOM     75  C   UNL A   1      35.598  32.780  29.077  1.00  0.00     0.198 A 
ATOM     76  F   UNL A   1      37.595  31.925  28.256  1.00  0.00    -0.203 F 
ATOM     77  F   UNL A   1      34.181  32.769  32.395  1.00  0.00    -0.200 F 
ATOM     78  C   UNL A   1      34.729  33.029  30.120  1.00  0.00     0.200 A 
ATOM     79  F   UNL A   1      35.372  33.319  27.870  1.00  0.00    -0.200 F 
ATOM     80  F   UNL A   1      33.662  33.816  29.932  1.00  0.00    -0.200 F 
ENDBRANCH  46  70
BRANCH  58  81
ATOM     81  C   UNL A   1      42.309  29.967  33.748  1.00  0.00     0.064 A 
ATOM     82  C   UNL A   1      41.943  28.621  33.562  1.00  0.00     0.173 A 
ATOM     83  C   UNL A   1      42.565  30.387  35.059  1.00  0.00     0.173 A 
ATOM     84  F   UNL A   1      41.797  28.111  32.334  1.00  0.00    -0.203 F 
ATOM     85  C   UNL A   1      41.789  27.756  34.643  1.00  0.00     0.198 A 
ATOM     86  C   UNL A   1      42.449  29.509  36.135  1.00  0.00     0.198 A 
ATOM     87  F   UNL A   1      42.984  31.640  35.294  1.00  0.00    -0.203 F 
ATOM     88  F   UNL A   1      41.427  26.481  34.435  1.00  0.00    -0.200 F 
ATOM     89  C   UNL A   1      42.049  28.199  35.928  1.00  0.00     0.200 A 
ATOM     90  F   UNL A   1      42.756  29.925  37.371  1.00  0.00    -0.200 F 
ATOM     91  F   UNL A   1      41.946  27.354  36.964  1.00  0.00    -0.200 F 
ENDBRANCH  58  81
ENDBRANCH  32  33
ENDBRANCH  25  27
ENDBRANCH  24  25
ENDBRANCH  23  24
ENDBRANCH  22  23
ENDBRANCH  21  22
ENDBRANCH  20  21
ENDBRANCH   1  20
TORSDOF 19
ENDMDL
MODEL 2
REMARK VINA RESULT:      -9.0      3.625      8.947
REMARK SMILES Cc1c(Br)c(C(=O)OCCOCCOCCOC(=O)c2ccc(-c3c4nc(c(-c5c(F)c(F)c(F)c(F)c5F)c5ccc([nH]5)c(-c5c(F)c(F)c(F)c(F)c5F)c5nc(c(-c6c(F)c(F)c(F)c(F)c6F)c6ccc3[nH]6)C=C5)C=C4)cc2)nn1CC(F)(F)F
REMARK SMILES IDX 12 1 11 2 10 3 9 4 8 5 6 6 7 7 5 8 1 9 2 10 3 11 84 12 4 13
REMARK SMILES IDX 83 14 85 15 86 16 87 17 88 18 89 19 13 20 14 21 15 22 16 23
REMARK SMILES IDX 17 24 18 25 19 26 20 27 21 28 82 29 22 30 81 31 23 32 24 33
REMARK SMILES IDX 25 34 75 35 26 36 80 37 74 38 76 39 27 40 79 41 73 42 72 43
REMARK SMILES IDX 28 45 60 46 40 47 59 48 41 49 44 50 58 51 77 52 42 53 43 54
REMARK SMILES IDX 57 56 78 57 45 58 29 59 30 60 38 61 31 62 32 63 36 64 39 65
REMARK SMILES IDX 33 66 34 67 37 68 35 69 61 70 62 71 70 72 63 73 64 74 68 75
REMARK SMILES IDX 71 76 65 77 66 78 69 79 67 80 46 81 47 82 55 83 48 84 49 85
REMARK SMILES IDX 53 86 56 87 50 88 51 89 54 90 52 91
REMARK H PARENT 76 44 44 55
REMARK Flexibility Score: inf
ROOT
ATOM      1  C   UNL A   1      39.755  21.647  26.106  1.00  0.00     0.188 C 
ENDROOT
BRANCH   1   2
ATOM      2  O   UNL A   1      38.435  21.173  25.862  1.00  0.00    -0.376 OA
BRANCH   2   3
ATOM      3  C   UNL A   1      37.506  22.012  25.184  1.00  0.00     0.202 C 
BRANCH   3   4
ATOM      4  C   UNL A   1      36.047  22.133  25.678  1.00  0.00     0.261 C 
BRANCH   4   5
ATOM      5  O   UNL A   1      35.647  23.424  26.164  1.00  0.00    -0.458 OA
BRANCH   5   6
ATOM      6  C   UNL A   1      34.308  23.702  26.147  1.00  0.00     0.360 C 
ATOM      7  O   UNL A   1      33.480  23.121  26.844  1.00  0.00    -0.244 OA
BRANCH   6   8
ATOM      8  C   UNL A   1      33.974  24.875  25.320  1.00  0.00     0.184 A 
ATOM      9  C   UNL A   1      33.180  26.814  22.251  1.00  0.00     0.067 C 
ATOM     10  C   UNL A   1      33.470  26.201  23.575  1.00  0.00     0.051 A 
ATOM     11  C   UNL A   1      33.818  24.912  23.913  1.00  0.00     0.073 A 
ATOM     12  N   UNL A   1      33.416  26.873  24.774  1.00  0.00    -0.259 N 
ATOM     13  Br  UNL A   1      33.977  23.449  22.746  1.00  0.00    -0.046 Br
ATOM     14  N   UNL A   1      33.718  26.097  25.836  1.00  0.00    -0.164 NA
BRANCH  12  15
ATOM     15  C   UNL A   1      33.205  28.289  24.993  1.00  0.00     0.259 C 
BRANCH  15  16
ATOM     16  C   UNL A   1      31.794  28.615  25.400  1.00  0.00     0.408 C 
ATOM     17  F   UNL A   1      31.708  29.634  26.276  1.00  0.00    -0.169 F 
ATOM     18  F   UNL A   1      31.081  28.980  24.301  1.00  0.00    -0.169 F 
ATOM     19  F   UNL A   1      31.163  27.543  25.930  1.00  0.00    -0.169 F 
ENDBRANCH  15  16
ENDBRANCH  12  15
ENDBRANCH   6   8
ENDBRANCH   5   6
ENDBRANCH   4   5
ENDBRANCH   3   4
ENDBRANCH   2   3
ENDBRANCH   1   2
BRANCH   1  20
ATOM     20  C   UNL A   1      40.949  20.660  26.137  1.00  0.00     0.188 C 
BRANCH  20  21
ATOM     21  O   UNL A   1      42.181  21.247  25.767  1.00  0.00    -0.376 OA
BRANCH  21  22
ATOM     22  C   UNL A   1      42.712  22.340  26.496  1.00  0.00     0.202 C 
BRANCH  22  23
ATOM     23  C   UNL A   1      42.895  23.710  25.841  1.00  0.00     0.261 C 
BRANCH  23  24
ATOM     24  O   UNL A   1      41.860  24.635  26.103  1.00  0.00    -0.460 OA
BRANCH  24  25
ATOM     25  C   UNL A   1      42.107  25.886  25.675  1.00  0.00     0.338 C 
ATOM     26  O   UNL A   1      43.097  26.282  25.084  1.00  0.00    -0.246 OA
BRANCH  25  27
ATOM     27  C   UNL A   1      41.001  26.749  26.107  1.00  0.00     0.060 A 
ATOM     28  C   UNL A   1      41.204  28.114  25.914  1.00  0.00     0.016 A 
ATOM     29  C   UNL A   1      40.099  26.240  27.054  1.00  0.00     0.016 A 
ATOM     30  C   UNL A   1      40.797  28.952  26.918  1.00  0.00     0.010 A 
ATOM     31  C   UNL A   1      39.715  27.074  28.069  1.00  0.00     0.010 A 
ATOM     32  C   UNL A   1      40.191  28.381  28.040  1.00  0.00    -0.014 A 
BRANCH  32  33
ATOM     33  C   UNL A   1      40.175  29.176  29.242  1.00  0.00     0.031 A 
ATOM     34  C   UNL A   1      39.037  30.103  29.340  1.00  0.00     0.074 A 
ATOM     35  C   UNL A   1      41.117  29.014  30.188  1.00  0.00     0.049 A 
ATOM     36  N   UNL A   1      39.071  31.388  29.431  1.00  0.00    -0.248 NA
ATOM     37  C   UNL A   1      37.694  29.528  29.190  1.00  0.00     0.031 C 
ATOM     38  C   UNL A   1      42.120  27.952  30.312  1.00  0.00     0.029 A 
ATOM     39  N   UNL A   1      41.290  29.735  31.323  1.00  0.00    -0.354 N 
ATOM     40  C   UNL A   1      37.743  31.787  29.492  1.00  0.00     0.074 A 
ATOM     41  C   UNL A   1      36.943  30.627  29.198  1.00  0.00     0.031 C 
ATOM     42  C   UNL A   1      42.622  27.971  31.569  1.00  0.00     0.029 A 
ATOM     43  C   UNL A   1      42.052  29.099  32.286  1.00  0.00     0.049 A 
ATOM     44  H   UNL A   1      40.907  30.633  31.450  1.00  0.00     0.167 HD
ATOM     45  C   UNL A   1      37.389  33.006  29.974  1.00  0.00     0.037 A 
ATOM     46  C   UNL A   1      42.082  29.428  33.600  1.00  0.00     0.037 A 
ATOM     47  C   UNL A   1      38.493  33.927  29.961  1.00  0.00     0.049 A 
ATOM     48  C   UNL A   1      41.579  30.828  33.718  1.00  0.00     0.074 A 
ATOM     49  C   UNL A   1      39.282  34.459  28.959  1.00  0.00     0.029 A 
ATOM     50  N   UNL A   1      39.171  34.163  31.132  1.00  0.00    -0.354 N 
ATOM     51  N   UNL A   1      42.224  31.875  33.279  1.00  0.00    -0.248 NA
ATOM     52  C   UNL A   1      40.148  31.022  33.919  1.00  0.00     0.031 C 
ATOM     53  C   UNL A   1      40.588  34.555  29.521  1.00  0.00     0.029 A 
ATOM     54  C   UNL A   1      40.511  34.104  30.840  1.00  0.00     0.049 A 
ATOM     55  H   UNL A   1      38.772  34.340  32.015  1.00  0.00     0.167 HD
ATOM     56  C   UNL A   1      41.241  32.709  32.761  1.00  0.00     0.074 A 
ATOM     57  C   UNL A   1      39.980  32.175  33.266  1.00  0.00     0.031 C 
ATOM     58  C   UNL A   1      41.509  33.576  31.739  1.00  0.00     0.037 A 
BRANCH  45  59
ATOM     59  C   UNL A   1      36.115  33.256  30.726  1.00  0.00     0.064 A 
ATOM     60  C   UNL A   1      35.115  34.057  30.146  1.00  0.00     0.173 A 
ATOM     61  C   UNL A   1      35.949  32.962  32.097  1.00  0.00     0.173 A 
ATOM     62  F   UNL A   1      35.193  34.421  28.858  1.00  0.00    -0.203 F 
ATOM     63  C   UNL A   1      34.057  34.569  30.900  1.00  0.00     0.198 A 
ATOM     64  C   UNL A   1      34.861  33.423  32.831  1.00  0.00     0.198 A 
ATOM     65  F   UNL A   1      36.883  32.314  32.805  1.00  0.00    -0.203 F 
ATOM     66  F   UNL A   1      33.192  35.422  30.336  1.00  0.00    -0.200 F 
ATOM     67  C   UNL A   1      33.931  34.251  32.241  1.00  0.00     0.200 A 
ATOM     68  F   UNL A   1      34.767  33.118  34.133  1.00  0.00    -0.200 F 
ATOM     69  F   UNL A   1      32.946  34.783  32.976  1.00  0.00    -0.200 F 
ENDBRANCH  45  59
BRANCH  46  70
ATOM     70  C   UNL A   1      42.173  28.494  34.751  1.00  0.00     0.064 A 
ATOM     71  C   UNL A   1      41.366  27.348  34.816  1.00  0.00     0.173 A 
ATOM     72  C   UNL A   1      43.220  28.569  35.695  1.00  0.00     0.173 A 
ATOM     73  F   UNL A   1      40.381  27.165  33.924  1.00  0.00    -0.203 F 
ATOM     74  C   UNL A   1      41.597  26.339  35.758  1.00  0.00     0.198 A 
ATOM     75  C   UNL A   1      43.438  27.573  36.645  1.00  0.00     0.198 A 
ATOM     76  F   UNL A   1      44.116  29.565  35.664  1.00  0.00    -0.203 F 
ATOM     77  F   UNL A   1      40.842  25.231  35.749  1.00  0.00    -0.200 F 
ATOM     78  C   UNL A   1      42.634  26.450  36.669  1.00  0.00     0.200 A 
ATOM     79  F   UNL A   1      44.468  27.680  37.496  1.00  0.00    -0.200 F 
ATOM     80  F   UNL A   1      42.886  25.463  37.538  1.00  0.00    -0.200 F 
ENDBRANCH  46  70
BRANCH  58  81
ATOM     81  C   UNL A   1      42.946  33.773  31.343  1.00  0.00     0.064 A 
ATOM     82  C   UNL A   1      43.608  32.956  30.408  1.00  0.00     0.173 A 
ATOM     83  C   UNL A   1      43.624  34.913  31.793  1.00  0.00     0.173 A 
ATOM     84  F   UNL A   1      42.986  31.916  29.841  1.00  0.00    -0.203 F 
ATOM     85  C   UNL A   1      44.905  33.241  29.987  1.00  0.00     0.198 A 
ATOM     86  C   UNL A   1      44.906  35.217  31.339  1.00  0.00     0.198 A 
ATOM     87  F   UNL A   1      43.019  35.767  32.633  1.00  0.00    -0.203 F 
ATOM     88  F   UNL A   1      45.515  32.437  29.103  1.00  0.00    -0.200 F 
ATOM     89  C   UNL A   1      45.550  34.375  30.447  1.00  0.00     0.200 A 
ATOM     90  F   UNL A   1      45.506  36.345  31.743  1.00  0.00    -0.200 F 
ATOM     91  F   UNL A   1      46.781  34.675  30.007  1.00  0.00    -0.200 F 
ENDBRANCH  58  81
ENDBRANCH  32  33
ENDBRANCH  25  27
ENDBRANCH  24  25
ENDBRANCH  23  24
ENDBRANCH  22  23
ENDBRANCH  21  22
ENDBRANCH  20  21
ENDBRANCH   1  20
TORSDOF 19
ENDMDL
MODEL 3
REMARK VINA RESULT:      -8.9      5.059     10.318
REMARK SMILES Cc1c(Br)c(C(=O)OCCOCCOCCOC(=O)c2ccc(-c3c4nc(c(-c5c(F)c(F)c(F)c(F)c5F)c5ccc([nH]5)c(-c5c(F)c(F)c(F)c(F)c5F)c5nc(c(-c6c(F)c(F)c(F)c(F)c6F)c6ccc3[nH]6)C=C5)C=C4)cc2)nn1CC(F)(F)F
REMARK SMILES IDX 12 1 11 2 10 3 9 4 8 5 6 6 7 7 5 8 1 9 2 10 3 11 84 12 4 13
REMARK SMILES IDX 83 14 85 15 86 16 87 17 88 18 89 19 13 20 14 21 15 22 16 23
REMARK SMILES IDX 17 24 18 25 19 26 20 27 21 28 82 29 22 30 81 31 23 32 24 33
REMARK SMILES IDX 25 34 75 35 26 36 80 37 74 38 76 39 27 40 79 41 73 42 72 43
REMARK SMILES IDX 28 45 60 46 40 47 59 48 41 49 44 50 58 51 77 52 42 53 43 54
REMARK SMILES IDX 57 56 78 57 45 58 29 59 30 60 38 61 31 62 32 63 36 64 39 65
REMARK SMILES IDX 33 66 34 67 37 68 35 69 61 70 62 71 70 72 63 73 64 74 68 75
REMARK SMILES IDX 71 76 65 77 66 78 69 79 67 80 46 81 47 82 55 83 48 84 49 85
REMARK SMILES IDX 53 86 56 87 50 88 51 89 54 90 52 91
REMARK H PARENT 76 44 44 55
REMARK Flexibility Score: inf
ROOT
ATOM      1  C   UNL A   1      33.035  30.650  27.289  1.00  0.00     0.188 C 
ENDROOT
BRANCH   1   2
ATOM      2  O   UNL A   1      32.987  30.244  25.926  1.00  0.00    -0.376 OA
BRANCH   2   3
ATOM      3  C   UNL A   1      31.763  29.759  25.383  1.00  0.00     0.202 C 
BRANCH   3   4
ATOM      4  C   UNL A   1      31.692  28.365  24.723  1.00  0.00     0.261 C 
BRANCH   4   5
ATOM      5  O   UNL A   1      32.563  27.360  25.265  1.00  0.00    -0.458 OA
BRANCH   5   6
ATOM      6  C   UNL A   1      31.968  26.276  25.847  1.00  0.00     0.360 C 
ATOM      7  O   UNL A   1      30.906  26.327  26.462  1.00  0.00    -0.244 OA
BRANCH   6   8
ATOM      8  C   UNL A   1      32.650  25.007  25.535  1.00  0.00     0.184 A 
ATOM      9  C   UNL A   1      33.292  21.772  23.825  1.00  0.00     0.067 C 
ATOM     10  C   UNL A   1      33.197  23.034  24.605  1.00  0.00     0.051 A 
ATOM     11  C   UNL A   1      32.246  24.030  24.593  1.00  0.00     0.073 A 
ATOM     12  N   UNL A   1      34.127  23.452  25.528  1.00  0.00    -0.259 N 
ATOM     13  Br  UNL A   1      30.737  24.128  23.478  1.00  0.00    -0.046 Br
ATOM     14  N   UNL A   1      33.817  24.634  26.102  1.00  0.00    -0.164 NA
BRANCH  12  15
ATOM     15  C   UNL A   1      35.282  22.730  26.019  1.00  0.00     0.259 C 
BRANCH  15  16
ATOM     16  C   UNL A   1      36.515  22.962  25.188  1.00  0.00     0.408 C 
ATOM     17  F   UNL A   1      37.001  21.841  24.622  1.00  0.00    -0.169 F 
ATOM     18  F   UNL A   1      36.220  23.819  24.175  1.00  0.00    -0.169 F 
ATOM     19  F   UNL A   1      37.503  23.540  25.908  1.00  0.00    -0.169 F 
ENDBRANCH  15  16
ENDBRANCH  12  15
ENDBRANCH   6   8
ENDBRANCH   5   6
ENDBRANCH   4   5
ENDBRANCH   3   4
ENDBRANCH   2   3
ENDBRANCH   1   2
BRANCH   1  20
ATOM     20  C   UNL A   1      34.362  31.147  27.913  1.00  0.00     0.188 C 
BRANCH  20  21
ATOM     21  O   UNL A   1      34.862  32.330  27.320  1.00  0.00    -0.376 OA
BRANCH  21  22
ATOM     22  C   UNL A   1      35.015  33.515  28.082  1.00  0.00     0.202 C 
BRANCH  22  23
ATOM     23  C   UNL A   1      33.956  33.941  29.100  1.00  0.00     0.261 C 
BRANCH  23  24
ATOM     24  O   UNL A   1      34.410  34.843  30.087  1.00  0.00    -0.460 OA
BRANCH  24  25
ATOM     25  C   UNL A   1      33.761  34.759  31.262  1.00  0.00     0.338 C 
ATOM     26  O   UNL A   1      32.649  35.184  31.522  1.00  0.00    -0.246 OA
BRANCH  25  27
ATOM     27  C   UNL A   1      34.655  34.124  32.238  1.00  0.00     0.060 A 
ATOM     28  C   UNL A   1      35.764  34.885  32.609  1.00  0.00     0.016 A 
ATOM     29  C   UNL A   1      34.618  32.727  32.355  1.00  0.00     0.016 A 
ATOM     30  C   UNL A   1      36.958  34.226  32.732  1.00  0.00     0.010 A 
ATOM     31  C   UNL A   1      35.815  32.070  32.454  1.00  0.00     0.010 A 
ATOM     32  C   UNL A   1      36.969  32.847  32.504  1.00  0.00    -0.014 A 
BRANCH  32  33
ATOM     33  C   UNL A   1      38.246  32.251  32.201  1.00  0.00     0.031 A 
ATOM     34  C   UNL A   1      39.145  32.125  33.357  1.00  0.00     0.074 A 
ATOM     35  C   UNL A   1      38.527  31.820  30.959  1.00  0.00     0.049 A 
ATOM     36  N   UNL A   1      40.312  32.650  33.512  1.00  0.00    -0.248 NA
ATOM     37  C   UNL A   1      38.619  31.428  34.539  1.00  0.00     0.031 C 
ATOM     38  C   UNL A   1      37.622  31.654  29.818  1.00  0.00     0.029 A 
ATOM     39  N   UNL A   1      39.700  31.322  30.495  1.00  0.00    -0.354 N 
ATOM     40  C   UNL A   1      40.739  32.235  34.766  1.00  0.00     0.074 A 
ATOM     41  C   UNL A   1      39.612  31.610  35.407  1.00  0.00     0.031 C 
ATOM     42  C   UNL A   1      38.227  30.877  28.890  1.00  0.00     0.029 A 
ATOM     43  C   UNL A   1      39.581  30.588  29.330  1.00  0.00     0.049 A 
ATOM     44  H   UNL A   1      40.561  31.471  30.949  1.00  0.00     0.167 HD
ATOM     45  C   UNL A   1      42.052  32.260  35.114  1.00  0.00     0.037 A 
ATOM     46  C   UNL A   1      40.503  29.711  28.862  1.00  0.00     0.037 A 
ATOM     47  C   UNL A   1      42.810  33.144  34.271  1.00  0.00     0.049 A 
ATOM     48  C   UNL A   1      41.803  30.045  29.514  1.00  0.00     0.074 A 
ATOM     49  C   UNL A   1      42.763  34.503  34.022  1.00  0.00     0.029 A 
ATOM     50  N   UNL A   1      43.558  32.606  33.252  1.00  0.00    -0.354 N 
ATOM     51  N   UNL A   1      42.482  31.133  29.273  1.00  0.00    -0.248 NA
ATOM     52  C   UNL A   1      42.122  29.383  30.774  1.00  0.00     0.031 C 
ATOM     53  C   UNL A   1      43.070  34.641  32.638  1.00  0.00     0.029 A 
ATOM     54  C   UNL A   1      43.317  33.364  32.133  1.00  0.00     0.049 A 
ATOM     55  H   UNL A   1      44.154  31.824  33.312  1.00  0.00     0.167 HD
ATOM     56  C   UNL A   1      42.998  31.515  30.505  1.00  0.00     0.074 A 
ATOM     57  C   UNL A   1      42.821  30.353  31.370  1.00  0.00     0.031 C 
ATOM     58  C   UNL A   1      43.253  32.826  30.794  1.00  0.00     0.037 A 
BRANCH  45  59
ATOM     59  C   UNL A   1      42.680  31.254  36.032  1.00  0.00     0.064 A 
ATOM     60  C   UNL A   1      43.337  31.693  37.195  1.00  0.00     0.173 A 
ATOM     61  C   UNL A   1      42.893  29.903  35.679  1.00  0.00     0.173 A 
ATOM     62  F   UNL A   1      43.227  32.967  37.602  1.00  0.00    -0.203 F 
ATOM     63  C   UNL A   1      44.187  30.854  37.918  1.00  0.00     0.198 A 
ATOM     64  C   UNL A   1      43.691  29.053  36.436  1.00  0.00     0.198 A 
ATOM     65  F   UNL A   1      42.429  29.385  34.534  1.00  0.00    -0.203 F 
ATOM     66  F   UNL A   1      44.884  31.346  38.950  1.00  0.00    -0.200 F 
ATOM     67  C   UNL A   1      44.363  29.535  37.538  1.00  0.00     0.200 A 
ATOM     68  F   UNL A   1      43.863  27.783  36.040  1.00  0.00    -0.200 F 
ATOM     69  F   UNL A   1      45.218  28.745  38.200  1.00  0.00    -0.200 F 
ENDBRANCH  45  59
BRANCH  46  70
ATOM     70  C   UNL A   1      40.239  28.416  28.185  1.00  0.00     0.064 A 
ATOM     71  C   UNL A   1      40.819  28.120  26.942  1.00  0.00     0.173 A 
ATOM     72  C   UNL A   1      39.609  27.340  28.847  1.00  0.00     0.173 A 
ATOM     73  F   UNL A   1      41.487  29.068  26.267  1.00  0.00    -0.203 F 
ATOM     74  C   UNL A   1      40.780  26.830  26.401  1.00  0.00     0.198 A 
ATOM     75  C   UNL A   1      39.554  26.060  28.298  1.00  0.00     0.198 A 
ATOM     76  F   UNL A   1      39.110  27.478  30.082  1.00  0.00    -0.203 F 
ATOM     77  F   UNL A   1      41.399  26.573  25.241  1.00  0.00    -0.200 F 
ATOM     78  C   UNL A   1      40.151  25.800  27.081  1.00  0.00     0.200 A 
ATOM     79  F   UNL A   1      38.971  25.067  28.987  1.00  0.00    -0.200 F 
ATOM     80  F   UNL A   1      40.156  24.555  26.587  1.00  0.00    -0.200 F 
ENDBRANCH  46  70
BRANCH  58  81
ATOM     81  C   UNL A   1      43.181  33.821  29.670  1.00  0.00     0.064 A 
ATOM     82  C   UNL A   1      44.253  34.079  28.797  1.00  0.00     0.173 A 
ATOM     83  C   UNL A   1      41.947  34.409  29.362  1.00  0.00     0.173 A 
ATOM     84  F   UNL A   1      45.431  33.463  28.953  1.00  0.00    -0.203 F 
ATOM     85  C   UNL A   1      44.108  34.927  27.701  1.00  0.00     0.198 A 
ATOM     86  C   UNL A   1      41.795  35.224  28.242  1.00  0.00     0.198 A 
ATOM     87  F   UNL A   1      40.870  34.146  30.118  1.00  0.00    -0.203 F 
ATOM     88  F   UNL A   1      45.153  35.163  26.893  1.00  0.00    -0.200 F 
ATOM     89  C   UNL A   1      42.878  35.493  27.421  1.00  0.00     0.200 A 
ATOM     90  F   UNL A   1      40.589  35.725  27.942  1.00  0.00    -0.200 F 
ATOM     91  F   UNL A   1      42.726  36.272  26.340  1.00  0.00    -0.200 F 
ENDBRANCH  58  81
ENDBRANCH  32  33
ENDBRANCH  25  27
ENDBRANCH  24  25
ENDBRANCH  23  24
ENDBRANCH  22  23
ENDBRANCH  21  22
ENDBRANCH  20  21
ENDBRANCH   1  20
TORSDOF 19
ENDMDL
