MODEL 1
REMARK VINA RESULT:      -9.1      0.000      0.000
REMARK SMILES CN(C)S(=O)(=O)c1ccc(-n2c(CCC(=O)OCCOCCOCCOC(=O)c3ccc(-c4c5nc(c(-c6c(F)c(F)c(F)c(F)c6F)c6ccc([nH]6)c(-c6c(F)c(F)c(F)c(F)c6F)c6nc(c(-c7c(F)c(F)c(F)c(F)c7F)c7ccc4[nH]7)C=C6)C=C5)cc3)ccc2-c2ccc(F)cc2)cc1
REMARK SMILES IDX 20 1 19 2 18 3 17 4 15 5 16 6 14 7 13 8 12 9 11 10 94 11
REMARK SMILES IDX 92 12 93 13 10 14 7 15 8 16 103 17 9 18 102 19 4 20 5 21
REMARK SMILES IDX 6 22 2 23 1 24 3 25 95 26 96 27 101 28 97 29 100 30 98 31
REMARK SMILES IDX 99 32 21 33 22 34 23 35 24 36 25 37 26 38 27 39 28 40 29 41
REMARK SMILES IDX 30 42 91 43 31 44 90 45 32 46 33 47 34 48 84 49 35 50 89 51
REMARK SMILES IDX 83 52 85 53 36 54 88 55 82 56 81 57 37 59 69 60 49 61 68 62
REMARK SMILES IDX 50 63 53 64 67 65 86 66 51 67 52 68 66 70 87 71 54 72 38 73
REMARK SMILES IDX 39 74 47 75 40 76 41 77 45 78 48 79 42 80 43 81 46 82 44 83
REMARK SMILES IDX 70 84 71 85 79 86 72 87 73 88 77 89 80 90 74 91 75 92 78 93
REMARK SMILES IDX 76 94 55 95 56 96 64 97 57 98 58 99 62 100 65 101 59 102
REMARK SMILES IDX 60 103 63 104 61 105
REMARK H PARENT 85 58 53 69
REMARK Flexibility Score: inf
ROOT
ATOM      1  O   UNL A   1      45.984  31.942  39.974  1.00  0.00    -0.376 OA
ENDROOT
BRANCH   1   2
ATOM      2  C   UNL A   1      44.255  32.073  40.959  1.00  0.00     0.202 C 
BRANCH   2   3
ATOM      3  C   UNL A   1      42.645  32.463  40.450  1.00  0.00     0.261 C 
BRANCH   3   4
ATOM      4  O   UNL A   1      42.056  31.838  39.276  1.00  0.00    -0.463 OA
BRANCH   4   5
ATOM      5  C   UNL A   1      42.021  32.572  38.129  1.00  0.00     0.306 C 
ATOM      6  O   UNL A   1      42.871  33.405  37.831  1.00  0.00    -0.252 OA
BRANCH   5   7
ATOM      7  C   UNL A   1      40.884  32.207  37.171  1.00  0.00     0.129 C 
BRANCH   7   8
ATOM      8  C   UNL A   1      40.954  32.599  35.688  1.00  0.00     0.066 C 
BRANCH   8   9
ATOM      9  C   UNL A   1      41.087  31.446  34.760  1.00  0.00     0.024 A 
ATOM     10  N   UNL A   1      40.277  31.200  33.648  1.00  0.00    -0.314 N 
ATOM     11  C   UNL A   1      40.885  30.141  32.933  1.00  0.00     0.053 A 
ATOM     12  C   UNL A   1      41.998  30.413  34.873  1.00  0.00     0.024 A 
ATOM     13  C   UNL A   1      41.874  29.603  33.739  1.00  0.00     0.029 A 
BRANCH  10  14
ATOM     14  C   UNL A   1      39.095  31.929  33.250  1.00  0.00     0.046 A 
ATOM     15  C   UNL A   1      35.971  33.497  32.297  1.00  0.00     0.082 A 
ATOM     16  C   UNL A   1      35.973  31.916  33.111  1.00  0.00     0.024 A 
ATOM     17  C   UNL A   1      37.519  34.311  31.861  1.00  0.00     0.024 A 
ATOM     18  C   UNL A   1      37.510  31.152  33.620  1.00  0.00     0.028 A 
ATOM     19  C   UNL A   1      39.100  33.551  32.372  1.00  0.00     0.028 A 
BRANCH  15  20
ATOM     20  S   UNL A   1      34.436  34.341  32.078  1.00  0.00     0.242 S 
ATOM     21  O   UNL A   1      34.688  35.748  32.298  1.00  0.00    -0.207 OA
ATOM     22  O   UNL A   1      33.464  33.622  32.877  1.00  0.00    -0.207 OA
BRANCH  20  23
ATOM     23  N   UNL A   1      33.972  34.133  30.422  1.00  0.00    -0.204 NA
ATOM     24  C   UNL A   1      33.325  35.358  29.873  1.00  0.00     0.124 C 
ATOM     25  C   UNL A   1      35.023  33.655  29.490  1.00  0.00     0.124 C 
ENDBRANCH  20  23
ENDBRANCH  15  20
ENDBRANCH  10  14
BRANCH  11  26
ATOM     26  C   UNL A   1      40.596  29.702  31.559  1.00  0.00    -0.001 A 
ATOM     27  C   UNL A   1      40.483  28.331  31.267  1.00  0.00     0.013 A 
ATOM     28  C   UNL A   1      40.392  30.636  30.530  1.00  0.00     0.013 A 
ATOM     29  C   UNL A   1      40.091  27.910  29.993  1.00  0.00     0.040 A 
ATOM     30  C   UNL A   1      39.982  30.213  29.262  1.00  0.00     0.040 A 
ATOM     31  C   UNL A   1      39.826  28.857  29.009  1.00  0.00     0.123 A 
ATOM     32  F   UNL A   1      39.403  28.453  27.803  1.00  0.00    -0.207 F 
ENDBRANCH  11  26
ENDBRANCH   8   9
ENDBRANCH   7   8
ENDBRANCH   5   7
ENDBRANCH   4   5
ENDBRANCH   3   4
ENDBRANCH   2   3
ENDBRANCH   1   2
BRANCH   1  33
ATOM     33  C   UNL A   1      46.826  32.306  38.739  1.00  0.00     0.188 C 
BRANCH  33  34
ATOM     34  C   UNL A   1      46.841  31.210  37.655  1.00  0.00     0.188 C 
BRANCH  34  35
ATOM     35  O   UNL A   1      47.813  30.164  37.757  1.00  0.00    -0.376 OA
BRANCH  35  36
ATOM     36  C   UNL A   1      47.537  28.906  37.147  1.00  0.00     0.202 C 
BRANCH  36  37
ATOM     37  C   UNL A   1      46.095  28.673  36.774  1.00  0.00     0.261 C 
BRANCH  37  38
ATOM     38  O   UNL A   1      46.069  27.563  35.904  1.00  0.00    -0.460 OA
BRANCH  38  39
ATOM     39  C   UNL A   1      44.805  27.187  35.602  1.00  0.00     0.338 C 
ATOM     40  O   UNL A   1      43.762  27.610  36.047  1.00  0.00    -0.246 OA
BRANCH  39  41
ATOM     41  C   UNL A   1      44.921  26.045  34.670  1.00  0.00     0.060 A 
ATOM     42  C   UNL A   1      46.021  26.250  33.831  1.00  0.00     0.016 A 
ATOM     43  C   UNL A   1      43.642  25.767  34.172  1.00  0.00     0.016 A 
ATOM     44  C   UNL A   1      45.749  26.691  32.562  1.00  0.00     0.010 A 
ATOM     45  C   UNL A   1      43.334  26.299  32.949  1.00  0.00     0.010 A 
ATOM     46  C   UNL A   1      44.403  26.754  32.159  1.00  0.00    -0.014 A 
BRANCH  46  47
ATOM     47  C   UNL A   1      44.174  26.785  30.725  1.00  0.00     0.031 A 
ATOM     48  C   UNL A   1      43.969  28.319  30.363  1.00  0.00     0.074 A 
ATOM     49  C   UNL A   1      44.210  25.553  30.117  1.00  0.00     0.049 A 
ATOM     50  N   UNL A   1      43.602  28.888  29.260  1.00  0.00    -0.248 NA
ATOM     51  C   UNL A   1      44.239  29.391  31.399  1.00  0.00     0.031 C 
ATOM     52  C   UNL A   1      44.504  24.237  30.751  1.00  0.00     0.029 A 
ATOM     53  N   UNL A   1      44.003  25.145  28.823  1.00  0.00    -0.354 N 
ATOM     54  C   UNL A   1      43.873  30.278  29.389  1.00  0.00     0.074 A 
ATOM     55  C   UNL A   1      44.170  30.546  30.748  1.00  0.00     0.031 C 
ATOM     56  C   UNL A   1      44.341  23.208  29.874  1.00  0.00     0.029 A 
ATOM     57  C   UNL A   1      43.962  23.732  28.577  1.00  0.00     0.049 A 
ATOM     58  H   UNL A   1      43.888  25.795  28.093  1.00  0.00     0.167 HD
ATOM     59  C   UNL A   1      44.021  31.089  28.311  1.00  0.00     0.037 A 
ATOM     60  C   UNL A   1      43.583  23.088  27.414  1.00  0.00     0.037 A 
ATOM     61  C   UNL A   1      43.644  30.375  27.152  1.00  0.00     0.049 A 
ATOM     62  C   UNL A   1      43.450  24.205  26.478  1.00  0.00     0.074 A 
ATOM     63  C   UNL A   1      42.441  30.122  26.557  1.00  0.00     0.029 A 
ATOM     64  N   UNL A   1      44.600  29.545  26.633  1.00  0.00    -0.354 N 
ATOM     65  N   UNL A   1      44.446  24.885  26.008  1.00  0.00    -0.248 NA
ATOM     66  C   UNL A   1      42.116  24.775  26.354  1.00  0.00     0.031 C 
ATOM     67  C   UNL A   1      42.666  28.981  25.761  1.00  0.00     0.029 A 
ATOM     68  C   UNL A   1      43.951  28.505  26.028  1.00  0.00     0.049 A 
ATOM     69  H   UNL A   1      45.574  29.673  26.687  1.00  0.00     0.167 HD
ATOM     70  C   UNL A   1      43.902  26.133  25.811  1.00  0.00     0.074 A 
ATOM     71  C   UNL A   1      42.457  25.991  25.958  1.00  0.00     0.031 C 
ATOM     72  C   UNL A   1      44.652  27.257  25.932  1.00  0.00     0.037 A 
BRANCH  59  73
ATOM     73  C   UNL A   1      44.745  32.391  28.102  1.00  0.00     0.064 A 
ATOM     74  C   UNL A   1      43.957  33.569  28.111  1.00  0.00     0.173 A 
ATOM     75  C   UNL A   1      45.990  32.484  27.466  1.00  0.00     0.173 A 
ATOM     76  F   UNL A   1      42.778  33.599  28.754  1.00  0.00    -0.203 F 
ATOM     77  C   UNL A   1      44.301  34.692  27.368  1.00  0.00     0.198 A 
ATOM     78  C   UNL A   1      46.363  33.642  26.774  1.00  0.00     0.198 A 
ATOM     79  F   UNL A   1      46.817  31.432  27.403  1.00  0.00    -0.203 F 
ATOM     80  F   UNL A   1      43.433  35.707  27.254  1.00  0.00    -0.200 F 
ATOM     81  C   UNL A   1      45.497  34.721  26.680  1.00  0.00     0.200 A 
ATOM     82  F   UNL A   1      47.532  33.677  26.119  1.00  0.00    -0.200 F 
ATOM     83  F   UNL A   1      45.801  35.769  25.903  1.00  0.00    -0.200 F 
ENDBRANCH  59  73
BRANCH  60  84
ATOM     84  C   UNL A   1      43.162  21.739  26.850  1.00  0.00     0.064 A 
ATOM     85  C   UNL A   1      43.791  21.024  25.829  1.00  0.00     0.173 A 
ATOM     86  C   UNL A   1      42.058  21.039  27.446  1.00  0.00     0.173 A 
ATOM     87  F   UNL A   1      44.765  21.592  25.107  1.00  0.00    -0.203 F 
ATOM     88  C   UNL A   1      43.422  19.692  25.515  1.00  0.00     0.198 A 
ATOM     89  C   UNL A   1      41.737  19.707  27.182  1.00  0.00     0.198 A 
ATOM     90  F   UNL A   1      41.241  21.627  28.330  1.00  0.00    -0.203 F 
ATOM     91  F   UNL A   1      44.047  19.043  24.521  1.00  0.00    -0.200 F 
ATOM     92  C   UNL A   1      42.432  19.022  26.221  1.00  0.00     0.200 A 
ATOM     93  F   UNL A   1      40.767  19.103  27.885  1.00  0.00    -0.200 F 
ATOM     94  F   UNL A   1      42.143  17.738  25.971  1.00  0.00    -0.200 F 
ENDBRANCH  60  84
BRANCH  72  95
ATOM     95  C   UNL A   1      46.113  27.004  26.311  1.00  0.00     0.064 A 
ATOM     96  C   UNL A   1      47.012  26.486  25.371  1.00  0.00     0.173 A 
ATOM     97  C   UNL A   1      46.619  27.134  27.625  1.00  0.00     0.173 A 
ATOM     98  F   UNL A   1      46.627  26.345  24.094  1.00  0.00    -0.203 F 
ATOM     99  C   UNL A   1      48.315  26.110  25.722  1.00  0.00     0.198 A 
ATOM    100  C   UNL A   1      47.916  26.749  27.983  1.00  0.00     0.198 A 
ATOM    101  F   UNL A   1      45.876  27.676  28.590  1.00  0.00    -0.203 F 
ATOM    102  F   UNL A   1      49.145  25.631  24.785  1.00  0.00    -0.200 F 
ATOM    103  C   UNL A   1      48.765  26.232  27.028  1.00  0.00     0.200 A 
ATOM    104  F   UNL A   1      48.341  26.898  29.249  1.00  0.00    -0.200 F 
ATOM    105  F   UNL A   1      50.018  25.879  27.356  1.00  0.00    -0.200 F 
ENDBRANCH  72  95
ENDBRANCH  46  47
ENDBRANCH  39  41
ENDBRANCH  38  39
ENDBRANCH  37  38
ENDBRANCH  36  37
ENDBRANCH  35  36
ENDBRANCH  34  35
ENDBRANCH  33  34
ENDBRANCH   1  33
TORSDOF 23
ENDMDL
MODEL 2
REMARK VINA RESULT:      -8.9      5.474     13.088
REMARK SMILES CN(C)S(=O)(=O)c1ccc(-n2c(CCC(=O)OCCOCCOCCOC(=O)c3ccc(-c4c5nc(c(-c6c(F)c(F)c(F)c(F)c6F)c6ccc([nH]6)c(-c6c(F)c(F)c(F)c(F)c6F)c6nc(c(-c7c(F)c(F)c(F)c(F)c7F)c7ccc4[nH]7)C=C6)C=C5)cc3)ccc2-c2ccc(F)cc2)cc1
REMARK SMILES IDX 20 1 19 2 18 3 17 4 15 5 16 6 14 7 13 8 12 9 11 10 94 11
REMARK SMILES IDX 92 12 93 13 10 14 7 15 8 16 103 17 9 18 102 19 4 20 5 21
REMARK SMILES IDX 6 22 2 23 1 24 3 25 95 26 96 27 101 28 97 29 100 30 98 31
REMARK SMILES IDX 99 32 21 33 22 34 23 35 24 36 25 37 26 38 27 39 28 40 29 41
REMARK SMILES IDX 30 42 91 43 31 44 90 45 32 46 33 47 34 48 84 49 35 50 89 51
REMARK SMILES IDX 83 52 85 53 36 54 88 55 82 56 81 57 37 59 69 60 49 61 68 62
REMARK SMILES IDX 50 63 53 64 67 65 86 66 51 67 52 68 66 70 87 71 54 72 38 73
REMARK SMILES IDX 39 74 47 75 40 76 41 77 45 78 48 79 42 80 43 81 46 82 44 83
REMARK SMILES IDX 70 84 71 85 79 86 72 87 73 88 77 89 80 90 74 91 75 92 78 93
REMARK SMILES IDX 76 94 55 95 56 96 64 97 57 98 58 99 62 100 65 101 59 102
REMARK SMILES IDX 60 103 63 104 61 105
REMARK H PARENT 85 58 53 69
REMARK Flexibility Score: inf
ROOT
ATOM      1  O   UNL A   1      32.655  29.791  27.363  1.00  0.00    -0.376 OA
ENDROOT
BRANCH   1   2
ATOM      2  C   UNL A   1      31.414  28.268  27.016  1.00  0.00     0.202 C 
BRANCH   2   3
ATOM      3  C   UNL A   1      31.247  27.177  25.680  1.00  0.00     0.261 C 
BRANCH   3   4
ATOM      4  O   UNL A   1      32.175  26.073  25.491  1.00  0.00    -0.463 OA
BRANCH   4   5
ATOM      5  C   UNL A   1      33.297  26.320  24.759  1.00  0.00     0.306 C 
ATOM      6  O   UNL A   1      33.994  27.319  24.902  1.00  0.00    -0.252 OA
BRANCH   5   7
ATOM      7  C   UNL A   1      33.695  25.195  23.800  1.00  0.00     0.129 C 
BRANCH   7   8
ATOM      8  C   UNL A   1      34.593  24.043  24.274  1.00  0.00     0.066 C 
BRANCH   8   9
ATOM      9  C   UNL A   1      34.015  22.691  24.054  1.00  0.00     0.024 A 
ATOM     10  N   UNL A   1      34.635  21.481  24.374  1.00  0.00    -0.314 N 
ATOM     11  C   UNL A   1      33.657  20.472  24.208  1.00  0.00     0.053 A 
ATOM     12  C   UNL A   1      32.799  22.415  23.459  1.00  0.00     0.024 A 
ATOM     13  C   UNL A   1      32.575  21.038  23.555  1.00  0.00     0.029 A 
BRANCH  10  14
ATOM     14  C   UNL A   1      35.982  21.290  24.859  1.00  0.00     0.046 A 
ATOM     15  C   UNL A   1      39.380  21.118  26.103  1.00  0.00     0.082 A 
ATOM     16  C   UNL A   1      38.450  22.629  26.231  1.00  0.00     0.024 A 
ATOM     17  C   UNL A   1      38.682  19.672  25.287  1.00  0.00     0.024 A 
ATOM     18  C   UNL A   1      36.757  22.711  25.654  1.00  0.00     0.028 A 
ATOM     19  C   UNL A   1      36.955  19.732  24.691  1.00  0.00     0.028 A 
BRANCH  15  20
ATOM     20  S   UNL A   1      40.929  20.998  26.942  1.00  0.00     0.242 S 
ATOM     21  O   UNL A   1      40.845  19.862  27.833  1.00  0.00    -0.207 OA
ATOM     22  O   UNL A   1      41.216  22.325  27.449  1.00  0.00    -0.207 OA
BRANCH  20  23
ATOM     23  N   UNL A   1      42.131  20.652  25.744  1.00  0.00    -0.204 NA
ATOM     24  C   UNL A   1      43.236  21.652  25.769  1.00  0.00     0.124 C 
ATOM     25  C   UNL A   1      42.692  19.278  25.740  1.00  0.00     0.124 C 
ENDBRANCH  20  23
ENDBRANCH  15  20
ENDBRANCH  10  14
BRANCH  11  26
ATOM     26  C   UNL A   1      33.710  19.081  24.686  1.00  0.00    -0.001 A 
ATOM     27  C   UNL A   1      32.775  18.624  25.631  1.00  0.00     0.013 A 
ATOM     28  C   UNL A   1      34.662  18.180  24.181  1.00  0.00     0.013 A 
ATOM     29  C   UNL A   1      32.742  17.276  25.999  1.00  0.00     0.040 A 
ATOM     30  C   UNL A   1      34.617  16.829  24.537  1.00  0.00     0.040 A 
ATOM     31  C   UNL A   1      33.651  16.388  25.434  1.00  0.00     0.123 A 
ATOM     32  F   UNL A   1      33.587  15.088  25.750  1.00  0.00    -0.207 F 
ENDBRANCH  11  26
ENDBRANCH   8   9
ENDBRANCH   7   8
ENDBRANCH   5   7
ENDBRANCH   4   5
ENDBRANCH   3   4
ENDBRANCH   2   3
ENDBRANCH   1   2
BRANCH   1  33
ATOM     33  C   UNL A   1      34.061  30.400  27.228  1.00  0.00     0.188 C 
BRANCH  33  34
ATOM     34  C   UNL A   1      34.294  31.626  28.133  1.00  0.00     0.188 C 
BRANCH  34  35
ATOM     35  O   UNL A   1      33.661  32.862  27.786  1.00  0.00    -0.376 OA
BRANCH  35  36
ATOM     36  C   UNL A   1      34.117  34.065  28.397  1.00  0.00     0.202 C 
BRANCH  36  37
ATOM     37  C   UNL A   1      33.861  34.171  29.880  1.00  0.00     0.261 C 
BRANCH  37  38
ATOM     38  O   UNL A   1      35.096  33.957  30.527  1.00  0.00    -0.460 OA
BRANCH  38  39
ATOM     39  C   UNL A   1      34.954  33.234  31.661  1.00  0.00     0.338 C 
ATOM     40  O   UNL A   1      34.109  32.412  31.934  1.00  0.00    -0.246 OA
BRANCH  39  41
ATOM     41  C   UNL A   1      35.992  33.718  32.597  1.00  0.00     0.060 A 
ATOM     42  C   UNL A   1      36.991  34.374  31.872  1.00  0.00     0.016 A 
ATOM     43  C   UNL A   1      36.277  32.682  33.494  1.00  0.00     0.016 A 
ATOM     44  C   UNL A   1      38.146  33.671  31.647  1.00  0.00     0.010 A 
ATOM     45  C   UNL A   1      37.371  31.911  33.209  1.00  0.00     0.010 A 
ATOM     46  C   UNL A   1      38.295  32.426  32.283  1.00  0.00    -0.014 A 
BRANCH  46  47
ATOM     47  C   UNL A   1      39.656  31.931  32.392  1.00  0.00     0.031 A 
ATOM     48  C   UNL A   1      39.689  30.592  31.536  1.00  0.00     0.074 A 
ATOM     49  C   UNL A   1      40.489  32.720  33.149  1.00  0.00     0.049 A 
ATOM     50  N   UNL A   1      40.607  29.689  31.409  1.00  0.00    -0.248 NA
ATOM     51  C   UNL A   1      38.508  30.213  30.665  1.00  0.00     0.031 C 
ATOM     52  C   UNL A   1      40.162  34.018  33.804  1.00  0.00     0.029 A 
ATOM     53  N   UNL A   1      41.801  32.594  33.531  1.00  0.00    -0.354 N 
ATOM     54  C   UNL A   1      40.249  28.872  30.301  1.00  0.00     0.074 A 
ATOM     55  C   UNL A   1      38.912  29.174  29.945  1.00  0.00     0.031 C 
ATOM     56  C   UNL A   1      41.192  34.469  34.570  1.00  0.00     0.029 A 
ATOM     57  C   UNL A   1      42.307  33.548  34.475  1.00  0.00     0.049 A 
ATOM     58  H   UNL A   1      42.373  31.877  33.171  1.00  0.00     0.167 HD
ATOM     59  C   UNL A   1      41.161  28.128  29.627  1.00  0.00     0.037 A 
ATOM     60  C   UNL A   1      43.515  33.514  35.146  1.00  0.00     0.037 A 
ATOM     61  C   UNL A   1      42.379  28.147  30.342  1.00  0.00     0.049 A 
ATOM     62  C   UNL A   1      44.196  32.397  34.489  1.00  0.00     0.074 A 
ATOM     63  C   UNL A   1      42.857  27.427  31.400  1.00  0.00     0.029 A 
ATOM     64  N   UNL A   1      43.163  29.250  30.142  1.00  0.00    -0.354 N 
ATOM     65  N   UNL A   1      44.647  32.429  33.276  1.00  0.00    -0.248 NA
ATOM     66  C   UNL A   1      44.040  31.097  35.125  1.00  0.00     0.031 C 
ATOM     67  C   UNL A   1      43.878  28.228  31.948  1.00  0.00     0.029 A 
ATOM     68  C   UNL A   1      43.871  29.461  31.293  1.00  0.00     0.049 A 
ATOM     69  H   UNL A   1      43.208  29.793  29.322  1.00  0.00     0.167 HD
ATOM     70  C   UNL A   1      44.531  31.121  32.869  1.00  0.00     0.074 A 
ATOM     71  C   UNL A   1      44.235  30.332  34.061  1.00  0.00     0.031 C 
ATOM     72  C   UNL A   1      44.291  30.804  31.572  1.00  0.00     0.037 A 
BRANCH  59  73
ATOM     73  C   UNL A   1      41.204  27.588  28.224  1.00  0.00     0.064 A 
ATOM     74  C   UNL A   1      41.732  26.283  28.056  1.00  0.00     0.173 A 
ATOM     75  C   UNL A   1      41.204  28.407  27.086  1.00  0.00     0.173 A 
ATOM     76  F   UNL A   1      41.713  25.402  29.069  1.00  0.00    -0.203 F 
ATOM     77  C   UNL A   1      42.391  25.898  26.894  1.00  0.00     0.198 A 
ATOM     78  C   UNL A   1      41.811  27.990  25.896  1.00  0.00     0.198 A 
ATOM     79  F   UNL A   1      40.726  29.657  27.131  1.00  0.00    -0.203 F 
ATOM     80  F   UNL A   1      43.039  24.725  26.854  1.00  0.00    -0.200 F 
ATOM     81  C   UNL A   1      42.449  26.761  25.819  1.00  0.00     0.200 A 
ATOM     82  F   UNL A   1      41.854  28.821  24.845  1.00  0.00    -0.200 F 
ATOM     83  F   UNL A   1      43.146  26.425  24.725  1.00  0.00    -0.200 F 
ENDBRANCH  59  73
BRANCH  60  84
ATOM     84  C   UNL A   1      44.271  34.106  36.326  1.00  0.00     0.064 A 
ATOM     85  C   UNL A   1      45.593  34.554  36.336  1.00  0.00     0.173 A 
ATOM     86  C   UNL A   1      43.579  34.332  37.565  1.00  0.00     0.173 A 
ATOM     87  F   UNL A   1      46.396  34.313  35.292  1.00  0.00    -0.203 F 
ATOM     88  C   UNL A   1      46.134  35.261  37.439  1.00  0.00     0.198 A 
ATOM     89  C   UNL A   1      44.088  35.083  38.625  1.00  0.00     0.198 A 
ATOM     90  F   UNL A   1      42.357  33.831  37.795  1.00  0.00    -0.203 F 
ATOM     91  F   UNL A   1      47.412  35.666  37.412  1.00  0.00    -0.200 F 
ATOM     92  C   UNL A   1      45.369  35.564  38.558  1.00  0.00     0.200 A 
ATOM     93  F   UNL A   1      43.314  35.345  39.689  1.00  0.00    -0.200 F 
ATOM     94  F   UNL A   1      45.862  36.300  39.563  1.00  0.00    -0.200 F 
ENDBRANCH  60  84
BRANCH  72  95
ATOM     95  C   UNL A   1      44.153  32.011  30.641  1.00  0.00     0.064 A 
ATOM     96  C   UNL A   1      45.284  32.732  30.241  1.00  0.00     0.173 A 
ATOM     97  C   UNL A   1      42.912  32.559  30.242  1.00  0.00     0.173 A 
ATOM     98  F   UNL A   1      46.505  32.278  30.557  1.00  0.00    -0.203 F 
ATOM     99  C   UNL A   1      45.181  33.923  29.508  1.00  0.00     0.198 A 
ATOM    100  C   UNL A   1      42.804  33.753  29.521  1.00  0.00     0.198 A 
ATOM    101  F   UNL A   1      41.770  31.925  30.509  1.00  0.00    -0.203 F 
ATOM    102  F   UNL A   1      46.293  34.572  29.135  1.00  0.00    -0.200 F 
ATOM    103  C   UNL A   1      43.944  34.439  29.156  1.00  0.00     0.200 A 
ATOM    104  F   UNL A   1      41.596  34.224  29.168  1.00  0.00    -0.200 F 
ATOM    105  F   UNL A   1      43.853  35.574  28.447  1.00  0.00    -0.200 F 
ENDBRANCH  72  95
ENDBRANCH  46  47
ENDBRANCH  39  41
ENDBRANCH  38  39
ENDBRANCH  37  38
ENDBRANCH  36  37
ENDBRANCH  35  36
ENDBRANCH  34  35
ENDBRANCH  33  34
ENDBRANCH   1  33
TORSDOF 23
ENDMDL
MODEL 3
REMARK VINA RESULT:      -8.8      2.088      4.615
REMARK SMILES CN(C)S(=O)(=O)c1ccc(-n2c(CCC(=O)OCCOCCOCCOC(=O)c3ccc(-c4c5nc(c(-c6c(F)c(F)c(F)c(F)c6F)c6ccc([nH]6)c(-c6c(F)c(F)c(F)c(F)c6F)c6nc(c(-c7c(F)c(F)c(F)c(F)c7F)c7ccc4[nH]7)C=C6)C=C5)cc3)ccc2-c2ccc(F)cc2)cc1
REMARK SMILES IDX 20 1 19 2 18 3 17 4 15 5 16 6 14 7 13 8 12 9 11 10 94 11
REMARK SMILES IDX 92 12 93 13 10 14 7 15 8 16 103 17 9 18 102 19 4 20 5 21
REMARK SMILES IDX 6 22 2 23 1 24 3 25 95 26 96 27 101 28 97 29 100 30 98 31
REMARK SMILES IDX 99 32 21 33 22 34 23 35 24 36 25 37 26 38 27 39 28 40 29 41
REMARK SMILES IDX 30 42 91 43 31 44 90 45 32 46 33 47 34 48 84 49 35 50 89 51
REMARK SMILES IDX 83 52 85 53 36 54 88 55 82 56 81 57 37 59 69 60 49 61 68 62
REMARK SMILES IDX 50 63 53 64 67 65 86 66 51 67 52 68 66 70 87 71 54 72 38 73
REMARK SMILES IDX 39 74 47 75 40 76 41 77 45 78 48 79 42 80 43 81 46 82 44 83
REMARK SMILES IDX 70 84 71 85 79 86 72 87 73 88 77 89 80 90 74 91 75 92 78 93
REMARK SMILES IDX 76 94 55 95 56 96 64 97 57 98 58 99 62 100 65 101 59 102
REMARK SMILES IDX 60 103 63 104 61 105
REMARK H PARENT 85 58 53 69
REMARK Flexibility Score: inf
ROOT
ATOM      1  O   UNL A   1      41.421  29.913  33.146  1.00  0.00    -0.376 OA
ENDROOT
BRANCH   1   2
ATOM      2  C   UNL A   1      40.535  28.147  32.873  1.00  0.00     0.202 C 
BRANCH   2   3
ATOM      3  C   UNL A   1      38.936  27.705  32.374  1.00  0.00     0.261 C 
BRANCH   3   4
ATOM      4  O   UNL A   1      38.414  28.112  31.079  1.00  0.00    -0.463 OA
BRANCH   4   5
ATOM      5  C   UNL A   1      37.433  29.057  31.070  1.00  0.00     0.306 C 
ATOM      6  O   UNL A   1      36.656  29.238  32.003  1.00  0.00    -0.252 OA
BRANCH   5   7
ATOM      7  C   UNL A   1      37.431  29.965  29.838  1.00  0.00     0.129 C 
BRANCH   7   8
ATOM      8  C   UNL A   1      36.523  29.657  28.639  1.00  0.00     0.066 C 
BRANCH   8   9
ATOM      9  C   UNL A   1      35.447  30.658  28.417  1.00  0.00     0.024 A 
ATOM     10  N   UNL A   1      35.320  31.877  29.088  1.00  0.00    -0.314 N 
ATOM     11  C   UNL A   1      34.305  32.601  28.418  1.00  0.00     0.053 A 
ATOM     12  C   UNL A   1      34.380  30.524  27.550  1.00  0.00     0.024 A 
ATOM     13  C   UNL A   1      33.671  31.730  27.549  1.00  0.00     0.029 A 
BRANCH  10  14
ATOM     14  C   UNL A   1      36.117  32.354  30.195  1.00  0.00     0.046 A 
ATOM     15  C   UNL A   1      37.858  33.546  33.139  1.00  0.00     0.082 A 
ATOM     16  C   UNL A   1      36.210  32.889  33.272  1.00  0.00     0.024 A 
ATOM     17  C   UNL A   1      38.662  33.703  31.534  1.00  0.00     0.024 A 
ATOM     18  C   UNL A   1      35.358  32.262  31.828  1.00  0.00     0.028 A 
ATOM     19  C   UNL A   1      37.811  33.068  30.046  1.00  0.00     0.028 A 
BRANCH  15  20
ATOM     20  S   UNL A   1      38.764  33.878  34.618  1.00  0.00     0.242 S 
ATOM     21  O   UNL A   1      38.520  35.261  34.966  1.00  0.00    -0.207 OA
ATOM     22  O   UNL A   1      40.110  33.394  34.382  1.00  0.00    -0.207 OA
BRANCH  20  23
ATOM     23  N   UNL A   1      38.088  32.884  35.864  1.00  0.00    -0.204 NA
ATOM     24  C   UNL A   1      38.931  31.683  36.128  1.00  0.00     0.124 C 
ATOM     25  C   UNL A   1      37.750  33.556  37.143  1.00  0.00     0.124 C 
ENDBRANCH  20  23
ENDBRANCH  15  20
ENDBRANCH  10  14
BRANCH  11  26
ATOM     26  C   UNL A   1      33.991  34.033  28.543  1.00  0.00    -0.001 A 
ATOM     27  C   UNL A   1      33.144  34.482  29.572  1.00  0.00     0.013 A 
ATOM     28  C   UNL A   1      34.556  34.976  27.668  1.00  0.00     0.013 A 
ATOM     29  C   UNL A   1      32.937  35.850  29.770  1.00  0.00     0.040 A 
ATOM     30  C   UNL A   1      34.362  36.344  27.879  1.00  0.00     0.040 A 
ATOM     31  C   UNL A   1      33.563  36.768  28.934  1.00  0.00     0.123 A 
ATOM     32  F   UNL A   1      33.402  38.079  29.156  1.00  0.00    -0.207 F 
ENDBRANCH  11  26
ENDBRANCH   8   9
ENDBRANCH   7   8
ENDBRANCH   5   7
ENDBRANCH   4   5
ENDBRANCH   3   4
ENDBRANCH   2   3
ENDBRANCH   1   2
BRANCH   1  33
ATOM     33  C   UNL A   1      42.121  30.902  34.093  1.00  0.00     0.188 C 
BRANCH  33  34
ATOM     34  C   UNL A   1      42.341  30.346  35.515  1.00  0.00     0.188 C 
BRANCH  34  35
ATOM     35  O   UNL A   1      43.684  30.195  35.988  1.00  0.00    -0.376 OA
BRANCH  35  36
ATOM     36  C   UNL A   1      44.654  29.601  35.131  1.00  0.00     0.202 C 
BRANCH  36  37
ATOM     37  C   UNL A   1      45.851  29.004  35.827  1.00  0.00     0.261 C 
BRANCH  37  38
ATOM     38  O   UNL A   1      46.059  27.726  35.266  1.00  0.00    -0.460 OA
BRANCH  38  39
ATOM     39  C   UNL A   1      45.288  26.784  35.856  1.00  0.00     0.338 C 
ATOM     40  O   UNL A   1      44.835  26.770  36.978  1.00  0.00    -0.246 OA
BRANCH  39  41
ATOM     41  C   UNL A   1      45.174  25.672  34.888  1.00  0.00     0.060 A 
ATOM     42  C   UNL A   1      46.251  25.729  33.998  1.00  0.00     0.016 A 
ATOM     43  C   UNL A   1      43.845  25.619  34.451  1.00  0.00     0.016 A 
ATOM     44  C   UNL A   1      45.993  26.253  32.757  1.00  0.00     0.010 A 
ATOM     45  C   UNL A   1      43.568  26.237  33.261  1.00  0.00     0.010 A 
ATOM     46  C   UNL A   1      44.657  26.543  32.429  1.00  0.00    -0.014 A 
BRANCH  46  47
ATOM     47  C   UNL A   1      44.368  26.661  31.010  1.00  0.00     0.031 A 
ATOM     48  C   UNL A   1      44.155  28.215  30.750  1.00  0.00     0.074 A 
ATOM     49  C   UNL A   1      44.371  25.468  30.328  1.00  0.00     0.049 A 
ATOM     50  N   UNL A   1      43.744  28.850  29.700  1.00  0.00    -0.248 NA
ATOM     51  C   UNL A   1      44.474  29.222  31.836  1.00  0.00     0.031 C 
ATOM     52  C   UNL A   1      44.685  24.115  30.868  1.00  0.00     0.029 A 
ATOM     53  N   UNL A   1      44.108  25.139  29.022  1.00  0.00    -0.354 N 
ATOM     54  C   UNL A   1      44.028  30.229  29.901  1.00  0.00     0.074 A 
ATOM     55  C   UNL A   1      44.383  30.414  31.259  1.00  0.00     0.031 C 
ATOM     56  C   UNL A   1      44.481  23.142  29.939  1.00  0.00     0.029 A 
ATOM     57  C   UNL A   1      44.050  23.744  28.693  1.00  0.00     0.049 A 
ATOM     58  H   UNL A   1      43.965  25.833  28.337  1.00  0.00     0.167 HD
ATOM     59  C   UNL A   1      44.135  31.103  28.868  1.00  0.00     0.037 A 
ATOM     60  C   UNL A   1      43.618  23.172  27.511  1.00  0.00     0.037 A 
ATOM     61  C   UNL A   1      43.704  30.461  27.685  1.00  0.00     0.049 A 
ATOM     62  C   UNL A   1      43.452  24.344  26.650  1.00  0.00     0.074 A 
ATOM     63  C   UNL A   1      42.476  30.248  27.128  1.00  0.00     0.029 A 
ATOM     64  N   UNL A   1      44.633  29.662  27.077  1.00  0.00    -0.354 N 
ATOM     65  N   UNL A   1      44.430  25.049  26.180  1.00  0.00    -0.248 NA
ATOM     66  C   UNL A   1      42.116  24.923  26.618  1.00  0.00     0.031 C 
ATOM     67  C   UNL A   1      42.661  29.156  26.256  1.00  0.00     0.029 A 
ATOM     68  C   UNL A   1      43.955  28.662  26.438  1.00  0.00     0.049 A 
ATOM     69  H   UNL A   1      45.610  29.784  27.097  1.00  0.00     0.167 HD
ATOM     70  C   UNL A   1      43.885  26.307  26.081  1.00  0.00     0.074 A 
ATOM     71  C   UNL A   1      42.446  26.161  26.281  1.00  0.00     0.031 C 
ATOM     72  C   UNL A   1      44.644  27.420  26.238  1.00  0.00     0.037 A 
BRANCH  59  73
ATOM     73  C   UNL A   1      44.855  32.414  28.707  1.00  0.00     0.064 A 
ATOM     74  C   UNL A   1      44.051  33.570  28.548  1.00  0.00     0.173 A 
ATOM     75  C   UNL A   1      46.177  32.512  28.255  1.00  0.00     0.173 A 
ATOM     76  F   UNL A   1      42.791  33.597  29.011  1.00  0.00    -0.203 F 
ATOM     77  C   UNL A   1      44.478  34.669  27.812  1.00  0.00     0.198 A 
ATOM     78  C   UNL A   1      46.625  33.649  27.573  1.00  0.00     0.198 A 
ATOM     79  F   UNL A   1      47.026  31.480  28.360  1.00  0.00    -0.203 F 
ATOM     80  F   UNL A   1      43.616  35.656  27.527  1.00  0.00    -0.200 F 
ATOM     81  C   UNL A   1      45.761  34.700  27.305  1.00  0.00     0.200 A 
ATOM     82  F   UNL A   1      47.876  33.687  27.094  1.00  0.00    -0.200 F 
ATOM     83  F   UNL A   1      46.154  35.722  26.533  1.00  0.00    -0.200 F 
ENDBRANCH  59  73
BRANCH  60  84
ATOM     84  C   UNL A   1      43.166  21.861  26.885  1.00  0.00     0.064 A 
ATOM     85  C   UNL A   1      43.810  21.152  25.868  1.00  0.00     0.173 A 
ATOM     86  C   UNL A   1      42.011  21.189  27.411  1.00  0.00     0.173 A 
ATOM     87  F   UNL A   1      44.836  21.700  25.206  1.00  0.00    -0.203 F 
ATOM     88  C   UNL A   1      43.400  19.847  25.494  1.00  0.00     0.198 A 
ATOM     89  C   UNL A   1      41.647  19.881  27.090  1.00  0.00     0.198 A 
ATOM     90  F   UNL A   1      41.181  21.783  28.279  1.00  0.00    -0.203 F 
ATOM     91  F   UNL A   1      44.040  19.204  24.506  1.00  0.00    -0.200 F 
ATOM     92  C   UNL A   1      42.354  19.198  26.136  1.00  0.00     0.200 A 
ATOM     93  F   UNL A   1      40.624  19.296  27.731  1.00  0.00    -0.200 F 
ATOM     94  F   UNL A   1      42.023  17.936  25.831  1.00  0.00    -0.200 F 
ENDBRANCH  60  84
BRANCH  72  95
ATOM     95  C   UNL A   1      46.119  27.141  26.539  1.00  0.00     0.064 A 
ATOM     96  C   UNL A   1      46.972  26.669  25.534  1.00  0.00     0.173 A 
ATOM     97  C   UNL A   1      46.682  27.199  27.834  1.00  0.00     0.173 A 
ATOM     98  F   UNL A   1      46.530  26.598  24.270  1.00  0.00    -0.203 F 
ATOM     99  C   UNL A   1      48.287  26.269  25.807  1.00  0.00     0.198 A 
ATOM    100  C   UNL A   1      47.992  26.790  28.114  1.00  0.00     0.198 A 
ATOM    101  F   UNL A   1      45.987  27.694  28.858  1.00  0.00    -0.203 F 
ATOM    102  F   UNL A   1      49.072  25.837  24.811  1.00  0.00    -0.200 F 
ATOM    103  C   UNL A   1      48.795  26.321  27.096  1.00  0.00     0.200 A 
ATOM    104  F   UNL A   1      48.473  26.871  29.366  1.00  0.00    -0.200 F 
ATOM    105  F   UNL A   1      50.058  25.945  27.350  1.00  0.00    -0.200 F 
ENDBRANCH  72  95
ENDBRANCH  46  47
ENDBRANCH  39  41
ENDBRANCH  38  39
ENDBRANCH  37  38
ENDBRANCH  36  37
ENDBRANCH  35  36
ENDBRANCH  34  35
ENDBRANCH  33  34
ENDBRANCH   1  33
TORSDOF 23
ENDMDL
