MODEL 1
REMARK VINA RESULT:     -11.0      0.000      0.000
REMARK SMILES C[C@H]1[C@H](C(=O)OCCOCCOCCOC(=O)c2ccc(-c3c4nc(c(-c5c(F)c(F)c(F)c(F)c5F)c5ccc([nH]5)c(-c5c(F)c(F)c(F)c(F)c5F)c5nc(c(-c6c(F)c(F)c(F)c(F)c6F)c6ccc3[nH]6)C=C5)C=C4)cc2)CCN1C(=O)[C@H]1CC=CCC1
REMARK SMILES IDX 10 1 9 2 8 3 7 4 6 5 4 6 5 7 3 8 1 9 2 10 83 11 81 12 82 13
REMARK SMILES IDX 84 14 85 15 86 16 87 17 91 18 88 19 90 20 89 21 11 22 12 23
REMARK SMILES IDX 13 24 14 25 15 26 16 27 17 28 18 29 19 30 80 31 20 32 79 33
REMARK SMILES IDX 21 34 22 35 23 36 73 37 24 38 78 39 72 40 74 41 25 42 77 43
REMARK SMILES IDX 71 44 70 45 26 47 58 48 38 49 57 50 39 51 42 52 56 53 75 54
REMARK SMILES IDX 40 55 41 56 55 58 76 59 43 60 27 61 28 62 36 63 29 64 30 65
REMARK SMILES IDX 34 66 37 67 31 68 32 69 35 70 33 71 59 72 60 73 68 74 61 75
REMARK SMILES IDX 62 76 66 77 69 78 63 79 64 80 67 81 65 82 44 83 45 84 53 85
REMARK SMILES IDX 46 86 47 87 51 88 54 89 48 90 49 91 52 92 50 93
REMARK H PARENT 74 46 42 57
REMARK Flexibility Score: inf
ROOT
ATOM      1  C   UNL A   1      40.157  21.942  26.675  1.00  0.00     0.188 C 
ENDROOT
BRANCH   1   2
ATOM      2  O   UNL A   1      39.247  21.340  25.762  1.00  0.00    -0.376 OA
BRANCH   2   3
ATOM      3  C   UNL A   1      37.909  21.810  25.672  1.00  0.00     0.202 C 
BRANCH   3   4
ATOM      4  C   UNL A   1      36.969  21.178  24.629  1.00  0.00     0.261 C 
BRANCH   4   5
ATOM      5  O   UNL A   1      35.694  21.825  24.386  1.00  0.00    -0.463 OA
BRANCH   5   6
ATOM      6  C   UNL A   1      35.752  22.995  23.703  1.00  0.00     0.311 C 
ATOM      7  O   UNL A   1      36.470  23.175  22.721  1.00  0.00    -0.252 OA
BRANCH   6   8
ATOM      8  C   UNL A   1      34.930  24.147  24.265  1.00  0.00     0.123 C 
ATOM      9  C   UNL A   1      33.602  25.890  23.068  1.00  0.00     0.032 C 
ATOM     10  C   UNL A   1      33.508  24.514  23.752  1.00  0.00     0.096 C 
ATOM     11  N   UNL A   1      32.653  24.585  24.945  1.00  0.00    -0.339 N 
ATOM     12  C   UNL A   1      34.778  23.967  25.771  1.00  0.00     0.039 C 
ATOM     13  C   UNL A   1      33.492  24.683  26.126  1.00  0.00     0.121 C 
BRANCH  11  14
ATOM     14  C   UNL A   1      31.284  24.624  25.117  1.00  0.00     0.226 C 
ATOM     15  O   UNL A   1      30.653  23.555  25.058  1.00  0.00    -0.275 OA
BRANCH  14  16
ATOM     16  C   UNL A   1      30.431  25.888  25.365  1.00  0.00     0.083 C 
ATOM     17  C   UNL A   1      31.082  27.048  26.119  1.00  0.00     0.040 C 
ATOM     18  C   UNL A   1      29.511  26.329  24.225  1.00  0.00     0.018 C 
ATOM     19  C   UNL A   1      31.424  28.232  25.270  1.00  0.00    -0.030 C 
ATOM     20  C   UNL A   1      30.072  27.419  23.323  1.00  0.00     0.028 C 
ATOM     21  C   UNL A   1      30.979  28.386  24.018  1.00  0.00    -0.031 C 
ENDBRANCH  14  16
ENDBRANCH  11  14
ENDBRANCH   6   8
ENDBRANCH   5   6
ENDBRANCH   4   5
ENDBRANCH   3   4
ENDBRANCH   2   3
ENDBRANCH   1   2
BRANCH   1  22
ATOM     22  C   UNL A   1      41.637  21.536  26.667  1.00  0.00     0.188 C 
BRANCH  22  23
ATOM     23  O   UNL A   1      41.956  20.517  25.751  1.00  0.00    -0.376 OA
BRANCH  23  24
ATOM     24  C   UNL A   1      42.216  19.209  26.216  1.00  0.00     0.202 C 
BRANCH  24  25
ATOM     25  C   UNL A   1      43.443  18.454  25.694  1.00  0.00     0.261 C 
BRANCH  25  26
ATOM     26  O   UNL A   1      43.899  18.818  24.384  1.00  0.00    -0.460 OA
BRANCH  26  27
ATOM     27  C   UNL A   1      45.138  19.347  24.274  1.00  0.00     0.338 C 
ATOM     28  O   UNL A   1      46.144  18.805  23.848  1.00  0.00    -0.246 OA
BRANCH  27  29
ATOM     29  C   UNL A   1      45.019  20.781  24.596  1.00  0.00     0.060 A 
ATOM     30  C   UNL A   1      44.501  21.682  23.652  1.00  0.00     0.016 A 
ATOM     31  C   UNL A   1      45.394  21.220  25.864  1.00  0.00     0.016 A 
ATOM     32  C   UNL A   1      44.355  23.032  23.978  1.00  0.00     0.010 A 
ATOM     33  C   UNL A   1      45.276  22.571  26.178  1.00  0.00     0.010 A 
ATOM     34  C   UNL A   1      44.774  23.486  25.234  1.00  0.00    -0.014 A 
BRANCH  34  35
ATOM     35  C   UNL A   1      44.889  24.929  25.543  1.00  0.00     0.031 A 
ATOM     36  C   UNL A   1      46.246  25.560  25.424  1.00  0.00     0.074 A 
ATOM     37  C   UNL A   1      43.847  25.635  26.013  1.00  0.00     0.049 A 
ATOM     38  N   UNL A   1      46.680  26.701  25.890  1.00  0.00    -0.248 NA
ATOM     39  C   UNL A   1      47.258  24.777  24.695  1.00  0.00     0.031 C 
ATOM     40  C   UNL A   1      42.474  25.151  26.116  1.00  0.00     0.029 A 
ATOM     41  N   UNL A   1      43.801  26.904  26.537  1.00  0.00    -0.354 N 
ATOM     42  C   UNL A   1      48.023  26.757  25.543  1.00  0.00     0.074 A 
ATOM     43  C   UNL A   1      48.336  25.532  24.839  1.00  0.00     0.031 C 
ATOM     44  C   UNL A   1      41.723  26.099  26.705  1.00  0.00     0.029 A 
ATOM     45  C   UNL A   1      42.578  27.227  27.072  1.00  0.00     0.049 A 
ATOM     46  H   UNL A   1      44.568  27.521  26.528  1.00  0.00     0.167 HD
ATOM     47  C   UNL A   1      48.914  27.743  25.798  1.00  0.00     0.037 A 
ATOM     48  C   UNL A   1      42.212  28.287  27.822  1.00  0.00     0.037 A 
ATOM     49  C   UNL A   1      48.587  28.953  26.502  1.00  0.00     0.049 A 
ATOM     50  C   UNL A   1      43.242  29.334  28.171  1.00  0.00     0.074 A 
ATOM     51  C   UNL A   1      49.408  30.026  26.801  1.00  0.00     0.029 A 
ATOM     52  N   UNL A   1      47.335  29.247  27.025  1.00  0.00    -0.354 N 
ATOM     53  N   UNL A   1      44.511  29.392  27.843  1.00  0.00    -0.248 NA
ATOM     54  C   UNL A   1      42.792  30.462  29.000  1.00  0.00     0.031 C 
ATOM     55  C   UNL A   1      48.670  30.938  27.561  1.00  0.00     0.029 A 
ATOM     56  C   UNL A   1      47.369  30.472  27.668  1.00  0.00     0.049 A 
ATOM     57  H   UNL A   1      46.542  28.669  26.950  1.00  0.00     0.167 HD
ATOM     58  C   UNL A   1      44.995  30.577  28.384  1.00  0.00     0.074 A 
ATOM     59  C   UNL A   1      43.886  31.208  29.067  1.00  0.00     0.031 C 
ATOM     60  C   UNL A   1      46.244  31.101  28.313  1.00  0.00     0.037 A 
BRANCH  47  61
ATOM     61  C   UNL A   1      50.332  27.535  25.355  1.00  0.00     0.064 A 
ATOM     62  C   UNL A   1      50.743  27.788  24.038  1.00  0.00     0.173 A 
ATOM     63  C   UNL A   1      51.303  27.101  26.272  1.00  0.00     0.173 A 
ATOM     64  F   UNL A   1      49.852  28.188  23.117  1.00  0.00    -0.203 F 
ATOM     65  C   UNL A   1      52.065  27.588  23.649  1.00  0.00     0.198 A 
ATOM     66  C   UNL A   1      52.630  26.938  25.889  1.00  0.00     0.198 A 
ATOM     67  F   UNL A   1      50.964  26.845  27.545  1.00  0.00    -0.203 F 
ATOM     68  F   UNL A   1      52.423  27.785  22.372  1.00  0.00    -0.200 F 
ATOM     69  C   UNL A   1      53.009  27.172  24.575  1.00  0.00     0.200 A 
ATOM     70  F   UNL A   1      53.543  26.550  26.790  1.00  0.00    -0.200 F 
ATOM     71  F   UNL A   1      54.283  26.991  24.203  1.00  0.00    -0.200 F 
ENDBRANCH  47  61
BRANCH  48  72
ATOM     72  C   UNL A   1      40.816  28.401  28.323  1.00  0.00     0.064 A 
ATOM     73  C   UNL A   1      39.807  28.951  27.520  1.00  0.00     0.173 A 
ATOM     74  C   UNL A   1      40.463  27.984  29.615  1.00  0.00     0.173 A 
ATOM     75  F   UNL A   1      40.100  29.390  26.286  1.00  0.00    -0.203 F 
ATOM     76  C   UNL A   1      38.506  29.101  27.997  1.00  0.00     0.198 A 
ATOM     77  C   UNL A   1      39.154  28.104  30.079  1.00  0.00     0.198 A 
ATOM     78  F   UNL A   1      41.389  27.454  30.427  1.00  0.00    -0.203 F 
ATOM     79  F   UNL A   1      37.576  29.682  27.227  1.00  0.00    -0.200 F 
ATOM     80  C   UNL A   1      38.180  28.671  29.273  1.00  0.00     0.200 A 
ATOM     81  F   UNL A   1      38.840  27.675  31.309  1.00  0.00    -0.200 F 
ATOM     82  F   UNL A   1      36.928  28.813  29.731  1.00  0.00    -0.200 F 
ENDBRANCH  48  72
BRANCH  60  83
ATOM     83  C   UNL A   1      46.477  32.457  28.914  1.00  0.00     0.064 A 
ATOM     84  C   UNL A   1      46.256  33.640  28.196  1.00  0.00     0.173 A 
ATOM     85  C   UNL A   1      46.831  32.567  30.270  1.00  0.00     0.173 A 
ATOM     86  F   UNL A   1      45.928  33.589  26.896  1.00  0.00    -0.203 F 
ATOM     87  C   UNL A   1      46.386  34.883  28.809  1.00  0.00     0.198 A 
ATOM     88  C   UNL A   1      46.928  33.810  30.887  1.00  0.00     0.198 A 
ATOM     89  F   UNL A   1      47.046  31.465  31.004  1.00  0.00    -0.203 F 
ATOM     90  F   UNL A   1      46.197  36.002  28.098  1.00  0.00    -0.200 F 
ATOM     91  C   UNL A   1      46.708  34.967  30.157  1.00  0.00     0.200 A 
ATOM     92  F   UNL A   1      47.220  33.887  32.193  1.00  0.00    -0.200 F 
ATOM     93  F   UNL A   1      46.806  36.164  30.751  1.00  0.00    -0.200 F 
ENDBRANCH  60  83
ENDBRANCH  34  35
ENDBRANCH  27  29
ENDBRANCH  26  27
ENDBRANCH  25  26
ENDBRANCH  24  25
ENDBRANCH  23  24
ENDBRANCH  22  23
ENDBRANCH   1  22
TORSDOF 19
ENDMDL
MODEL 2
REMARK VINA RESULT:     -10.8      3.732      9.136
REMARK SMILES C[C@H]1[C@H](C(=O)OCCOCCOCCOC(=O)c2ccc(-c3c4nc(c(-c5c(F)c(F)c(F)c(F)c5F)c5ccc([nH]5)c(-c5c(F)c(F)c(F)c(F)c5F)c5nc(c(-c6c(F)c(F)c(F)c(F)c6F)c6ccc3[nH]6)C=C5)C=C4)cc2)CCN1C(=O)[C@H]1CC=CCC1
REMARK SMILES IDX 10 1 9 2 8 3 7 4 6 5 4 6 5 7 3 8 1 9 2 10 83 11 81 12 82 13
REMARK SMILES IDX 84 14 85 15 86 16 87 17 91 18 88 19 90 20 89 21 11 22 12 23
REMARK SMILES IDX 13 24 14 25 15 26 16 27 17 28 18 29 19 30 80 31 20 32 79 33
REMARK SMILES IDX 21 34 22 35 23 36 73 37 24 38 78 39 72 40 74 41 25 42 77 43
REMARK SMILES IDX 71 44 70 45 26 47 58 48 38 49 57 50 39 51 42 52 56 53 75 54
REMARK SMILES IDX 40 55 41 56 55 58 76 59 43 60 27 61 28 62 36 63 29 64 30 65
REMARK SMILES IDX 34 66 37 67 31 68 32 69 35 70 33 71 59 72 60 73 68 74 61 75
REMARK SMILES IDX 62 76 66 77 69 78 63 79 64 80 67 81 65 82 44 83 45 84 53 85
REMARK SMILES IDX 46 86 47 87 51 88 54 89 48 90 49 91 52 92 50 93
REMARK H PARENT 74 46 42 57
REMARK Flexibility Score: inf
ROOT
ATOM      1  C   UNL A   1      33.568  30.692  27.088  1.00  0.00     0.188 C 
ENDROOT
BRANCH   1   2
ATOM      2  O   UNL A   1      34.005  29.378  27.413  1.00  0.00    -0.376 OA
BRANCH   2   3
ATOM      3  C   UNL A   1      33.927  28.339  26.447  1.00  0.00     0.202 C 
BRANCH   3   4
ATOM      4  C   UNL A   1      33.677  28.712  24.974  1.00  0.00     0.261 C 
BRANCH   4   5
ATOM      5  O   UNL A   1      32.385  28.384  24.402  1.00  0.00    -0.463 OA
BRANCH   5   6
ATOM      6  C   UNL A   1      32.347  27.252  23.657  1.00  0.00     0.311 C 
ATOM      7  O   UNL A   1      33.012  27.086  22.636  1.00  0.00    -0.252 OA
BRANCH   6   8
ATOM      8  C   UNL A   1      31.351  26.187  24.097  1.00  0.00     0.123 C 
ATOM      9  C   UNL A   1      31.083  23.833  23.308  1.00  0.00     0.032 C 
ATOM     10  C   UNL A   1      31.749  24.711  24.384  1.00  0.00     0.096 C 
ATOM     11  N   UNL A   1      31.210  24.398  25.714  1.00  0.00    -0.339 N 
ATOM     12  C   UNL A   1      30.634  26.661  25.355  1.00  0.00     0.039 C 
ATOM     13  C   UNL A   1      30.214  25.394  26.070  1.00  0.00     0.121 C 
BRANCH  11  14
ATOM     14  C   UNL A   1      31.435  23.362  26.598  1.00  0.00     0.226 C 
ATOM     15  O   UNL A   1      30.563  23.115  27.449  1.00  0.00    -0.275 OA
BRANCH  14  16
ATOM     16  C   UNL A   1      32.693  22.467  26.655  1.00  0.00     0.083 C 
ATOM     17  C   UNL A   1      32.781  21.305  25.664  1.00  0.00     0.040 C 
ATOM     18  C   UNL A   1      34.027  23.173  26.902  1.00  0.00     0.018 C 
ATOM     19  C   UNL A   1      33.764  21.505  24.552  1.00  0.00    -0.030 C 
ATOM     20  C   UNL A   1      34.840  23.482  25.654  1.00  0.00     0.028 C 
ATOM     21  C   UNL A   1      34.674  22.486  24.549  1.00  0.00    -0.031 C 
ENDBRANCH  14  16
ENDBRANCH  11  14
ENDBRANCH   6   8
ENDBRANCH   5   6
ENDBRANCH   4   5
ENDBRANCH   3   4
ENDBRANCH   2   3
ENDBRANCH   1   2
BRANCH   1  22
ATOM     22  C   UNL A   1      34.201  31.907  27.780  1.00  0.00     0.188 C 
BRANCH  22  23
ATOM     23  O   UNL A   1      33.333  33.002  27.943  1.00  0.00    -0.376 OA
BRANCH  23  24
ATOM     24  C   UNL A   1      33.827  34.220  28.458  1.00  0.00     0.202 C 
BRANCH  24  25
ATOM     25  C   UNL A   1      34.003  34.382  29.972  1.00  0.00     0.261 C 
BRANCH  25  26
ATOM     26  O   UNL A   1      35.235  33.894  30.520  1.00  0.00    -0.460 OA
BRANCH  26  27
ATOM     27  C   UNL A   1      35.186  32.779  31.282  1.00  0.00     0.338 C 
ATOM     28  O   UNL A   1      34.266  32.395  31.984  1.00  0.00    -0.246 OA
BRANCH  27  29
ATOM     29  C   UNL A   1      36.399  31.998  30.971  1.00  0.00     0.060 A 
ATOM     30  C   UNL A   1      37.104  31.343  31.993  1.00  0.00     0.016 A 
ATOM     31  C   UNL A   1      36.810  31.892  29.645  1.00  0.00     0.016 A 
ATOM     32  C   UNL A   1      38.228  30.573  31.686  1.00  0.00     0.010 A 
ATOM     33  C   UNL A   1      37.948  31.149  29.343  1.00  0.00     0.010 A 
ATOM     34  C   UNL A   1      38.673  30.502  30.361  1.00  0.00    -0.014 A 
BRANCH  34  35
ATOM     35  C   UNL A   1      39.991  29.927  30.010  1.00  0.00     0.031 A 
ATOM     36  C   UNL A   1      41.168  30.857  29.972  1.00  0.00     0.074 A 
ATOM     37  C   UNL A   1      40.124  28.643  29.638  1.00  0.00     0.049 A 
ATOM     38  N   UNL A   1      42.348  30.689  29.437  1.00  0.00    -0.248 NA
ATOM     39  C   UNL A   1      40.971  32.171  30.606  1.00  0.00     0.031 C 
ATOM     40  C   UNL A   1      39.071  27.632  29.691  1.00  0.00     0.029 A 
ATOM     41  N   UNL A   1      41.200  27.985  29.095  1.00  0.00    -0.354 N 
ATOM     42  C   UNL A   1      43.022  31.886  29.639  1.00  0.00     0.074 A 
ATOM     43  C   UNL A   1      42.116  32.776  30.332  1.00  0.00     0.031 C 
ATOM     44  C   UNL A   1      39.542  26.488  29.165  1.00  0.00     0.029 A 
ATOM     45  C   UNL A   1      40.906  26.707  28.685  1.00  0.00     0.049 A 
ATOM     46  H   UNL A   1      42.094  28.388  29.008  1.00  0.00     0.167 HD
ATOM     47  C   UNL A   1      44.283  32.210  29.270  1.00  0.00     0.037 A 
ATOM     48  C   UNL A   1      41.638  25.840  27.955  1.00  0.00     0.037 A 
ATOM     49  C   UNL A   1      45.169  31.314  28.578  1.00  0.00     0.049 A 
ATOM     50  C   UNL A   1      43.009  26.253  27.477  1.00  0.00     0.074 A 
ATOM     51  C   UNL A   1      46.472  31.534  28.171  1.00  0.00     0.029 A 
ATOM     52  N   UNL A   1      44.837  30.025  28.185  1.00  0.00    -0.354 N 
ATOM     53  N   UNL A   1      43.649  27.382  27.667  1.00  0.00    -0.248 NA
ATOM     54  C   UNL A   1      43.758  25.274  26.675  1.00  0.00     0.031 C 
ATOM     55  C   UNL A   1      46.905  30.403  27.474  1.00  0.00     0.029 A 
ATOM     56  C   UNL A   1      45.902  29.448  27.516  1.00  0.00     0.049 A 
ATOM     57  H   UNL A   1      43.971  29.588  28.356  1.00  0.00     0.167 HD
ATOM     58  C   UNL A   1      44.887  27.231  27.053  1.00  0.00     0.074 A 
ATOM     59  C   UNL A   1      44.908  25.904  26.477  1.00  0.00     0.031 C 
ATOM     60  C   UNL A   1      45.916  28.110  26.979  1.00  0.00     0.037 A 
BRANCH  47  61
ATOM     61  C   UNL A   1      44.760  33.602  29.565  1.00  0.00     0.064 A 
ATOM     62  C   UNL A   1      44.527  34.669  28.685  1.00  0.00     0.173 A 
ATOM     63  C   UNL A   1      45.438  33.877  30.762  1.00  0.00     0.173 A 
ATOM     64  F   UNL A   1      43.898  34.458  27.518  1.00  0.00    -0.203 F 
ATOM     65  C   UNL A   1      44.979  35.953  28.979  1.00  0.00     0.198 A 
ATOM     66  C   UNL A   1      45.856  35.168  31.071  1.00  0.00     0.198 A 
ATOM     67  F   UNL A   1      45.687  32.894  31.641  1.00  0.00    -0.203 F 
ATOM     68  F   UNL A   1      44.791  36.945  28.098  1.00  0.00    -0.200 F 
ATOM     69  C   UNL A   1      45.634  36.203  30.175  1.00  0.00     0.200 A 
ATOM     70  F   UNL A   1      46.477  35.410  32.233  1.00  0.00    -0.200 F 
ATOM     71  F   UNL A   1      46.060  37.441  30.462  1.00  0.00    -0.200 F 
ENDBRANCH  47  61
BRANCH  48  72
ATOM     72  C   UNL A   1      41.082  24.506  27.602  1.00  0.00     0.064 A 
ATOM     73  C   UNL A   1      40.038  24.385  26.674  1.00  0.00     0.173 A 
ATOM     74  C   UNL A   1      41.564  23.330  28.196  1.00  0.00     0.173 A 
ATOM     75  F   UNL A   1      39.524  25.482  26.099  1.00  0.00    -0.203 F 
ATOM     76  C   UNL A   1      39.484  23.143  26.370  1.00  0.00     0.198 A 
ATOM     77  C   UNL A   1      41.030  22.085  27.867  1.00  0.00     0.198 A 
ATOM     78  F   UNL A   1      42.559  23.388  29.094  1.00  0.00    -0.203 F 
ATOM     79  F   UNL A   1      38.450  23.063  25.521  1.00  0.00    -0.200 F 
ATOM     80  C   UNL A   1      39.985  21.994  26.961  1.00  0.00     0.200 A 
ATOM     81  F   UNL A   1      41.526  20.975  28.432  1.00  0.00    -0.200 F 
ATOM     82  F   UNL A   1      39.453  20.799  26.668  1.00  0.00    -0.200 F 
ENDBRANCH  48  72
BRANCH  60  83
ATOM     83  C   UNL A   1      47.190  27.654  26.327  1.00  0.00     0.064 A 
ATOM     84  C   UNL A   1      48.232  27.065  27.057  1.00  0.00     0.173 A 
ATOM     85  C   UNL A   1      47.321  27.720  24.930  1.00  0.00     0.173 A 
ATOM     86  F   UNL A   1      48.162  26.989  28.394  1.00  0.00    -0.203 F 
ATOM     87  C   UNL A   1      49.360  26.562  26.412  1.00  0.00     0.198 A 
ATOM     88  C   UNL A   1      48.434  27.187  24.287  1.00  0.00     0.198 A 
ATOM     89  F   UNL A   1      46.348  28.267  24.185  1.00  0.00    -0.203 F 
ATOM     90  F   UNL A   1      50.357  26.028  27.130  1.00  0.00    -0.200 F 
ATOM     91  C   UNL A   1      49.454  26.612  25.029  1.00  0.00     0.200 A 
ATOM     92  F   UNL A   1      48.512  27.219  22.950  1.00  0.00    -0.200 F 
ATOM     93  F   UNL A   1      50.528  26.104  24.409  1.00  0.00    -0.200 F 
ENDBRANCH  60  83
ENDBRANCH  34  35
ENDBRANCH  27  29
ENDBRANCH  26  27
ENDBRANCH  25  26
ENDBRANCH  24  25
ENDBRANCH  23  24
ENDBRANCH  22  23
ENDBRANCH   1  22
TORSDOF 19
ENDMDL
MODEL 3
REMARK VINA RESULT:     -10.7      6.370     10.803
REMARK SMILES C[C@H]1[C@H](C(=O)OCCOCCOCCOC(=O)c2ccc(-c3c4nc(c(-c5c(F)c(F)c(F)c(F)c5F)c5ccc([nH]5)c(-c5c(F)c(F)c(F)c(F)c5F)c5nc(c(-c6c(F)c(F)c(F)c(F)c6F)c6ccc3[nH]6)C=C5)C=C4)cc2)CCN1C(=O)[C@H]1CC=CCC1
REMARK SMILES IDX 10 1 9 2 8 3 7 4 6 5 4 6 5 7 3 8 1 9 2 10 83 11 81 12 82 13
REMARK SMILES IDX 84 14 85 15 86 16 87 17 91 18 88 19 90 20 89 21 11 22 12 23
REMARK SMILES IDX 13 24 14 25 15 26 16 27 17 28 18 29 19 30 80 31 20 32 79 33
REMARK SMILES IDX 21 34 22 35 23 36 73 37 24 38 78 39 72 40 74 41 25 42 77 43
REMARK SMILES IDX 71 44 70 45 26 47 58 48 38 49 57 50 39 51 42 52 56 53 75 54
REMARK SMILES IDX 40 55 41 56 55 58 76 59 43 60 27 61 28 62 36 63 29 64 30 65
REMARK SMILES IDX 34 66 37 67 31 68 32 69 35 70 33 71 59 72 60 73 68 74 61 75
REMARK SMILES IDX 62 76 66 77 69 78 63 79 64 80 67 81 65 82 44 83 45 84 53 85
REMARK SMILES IDX 46 86 47 87 51 88 54 89 48 90 49 91 52 92 50 93
REMARK H PARENT 74 46 42 57
REMARK Flexibility Score: inf
ROOT
ATOM      1  C   UNL A   1      33.663  29.220  26.245  1.00  0.00     0.188 C 
ENDROOT
BRANCH   1   2
ATOM      2  O   UNL A   1      33.381  28.288  25.209  1.00  0.00    -0.376 OA
BRANCH   2   3
ATOM      3  C   UNL A   1      33.928  28.473  23.911  1.00  0.00     0.202 C 
BRANCH   3   4
ATOM      4  C   UNL A   1      32.974  28.545  22.706  1.00  0.00     0.261 C 
BRANCH   4   5
ATOM      5  O   UNL A   1      31.599  28.130  22.905  1.00  0.00    -0.463 OA
BRANCH   5   6
ATOM      6  C   UNL A   1      31.277  26.911  22.406  1.00  0.00     0.311 C 
ATOM      7  O   UNL A   1      31.383  26.611  21.218  1.00  0.00    -0.252 OA
BRANCH   6   8
ATOM      8  C   UNL A   1      30.678  25.914  23.390  1.00  0.00     0.123 C 
ATOM      9  C   UNL A   1      30.690  23.419  23.337  1.00  0.00     0.032 C 
ATOM     10  C   UNL A   1      31.430  24.649  23.891  1.00  0.00     0.096 C 
ATOM     11  N   UNL A   1      31.349  24.686  25.358  1.00  0.00    -0.339 N 
ATOM     12  C   UNL A   1      30.250  26.653  24.652  1.00  0.00     0.039 C 
ATOM     13  C   UNL A   1      30.307  25.617  25.754  1.00  0.00     0.121 C 
BRANCH  11  14
ATOM     14  C   UNL A   1      32.013  23.994  26.352  1.00  0.00     0.226 C 
ATOM     15  O   UNL A   1      31.462  23.886  27.460  1.00  0.00    -0.275 OA
BRANCH  14  16
ATOM     16  C   UNL A   1      33.408  23.341  26.234  1.00  0.00     0.083 C 
ATOM     17  C   UNL A   1      33.499  21.985  25.532  1.00  0.00     0.040 C 
ATOM     18  C   UNL A   1      34.580  24.275  25.931  1.00  0.00     0.018 C 
ATOM     19  C   UNL A   1      34.117  22.027  24.169  1.00  0.00    -0.030 C 
ATOM     20  C   UNL A   1      34.981  24.361  24.466  1.00  0.00     0.028 C 
ATOM     21  C   UNL A   1      34.768  23.095  23.695  1.00  0.00    -0.031 C 
ENDBRANCH  14  16
ENDBRANCH  11  14
ENDBRANCH   6   8
ENDBRANCH   5   6
ENDBRANCH   4   5
ENDBRANCH   3   4
ENDBRANCH   2   3
ENDBRANCH   1   2
BRANCH   1  22
ATOM     22  C   UNL A   1      32.517  29.962  26.947  1.00  0.00     0.188 C 
BRANCH  22  23
ATOM     23  O   UNL A   1      31.968  31.023  26.204  1.00  0.00    -0.376 OA
BRANCH  23  24
ATOM     24  C   UNL A   1      31.494  32.175  26.866  1.00  0.00     0.202 C 
BRANCH  24  25
ATOM     25  C   UNL A   1      32.488  33.261  27.293  1.00  0.00     0.261 C 
BRANCH  25  26
ATOM     26  O   UNL A   1      32.128  34.028  28.449  1.00  0.00    -0.460 OA
BRANCH  26  27
ATOM     27  C   UNL A   1      32.968  35.012  28.839  1.00  0.00     0.338 C 
ATOM     28  O   UNL A   1      32.746  36.211  28.878  1.00  0.00    -0.246 OA
BRANCH  27  29
ATOM     29  C   UNL A   1      34.166  34.354  29.393  1.00  0.00     0.060 A 
ATOM     30  C   UNL A   1      34.065  33.526  30.523  1.00  0.00     0.016 A 
ATOM     31  C   UNL A   1      35.391  34.539  28.756  1.00  0.00     0.016 A 
ATOM     32  C   UNL A   1      35.197  32.875  31.018  1.00  0.00     0.010 A 
ATOM     33  C   UNL A   1      36.525  33.913  29.268  1.00  0.00     0.010 A 
ATOM     34  C   UNL A   1      36.439  33.095  30.410  1.00  0.00    -0.014 A 
BRANCH  34  35
ATOM     35  C   UNL A   1      37.704  32.650  31.036  1.00  0.00     0.031 A 
ATOM     36  C   UNL A   1      38.454  31.533  30.370  1.00  0.00     0.074 A 
ATOM     37  C   UNL A   1      38.123  33.149  32.211  1.00  0.00     0.049 A 
ATOM     38  N   UNL A   1      39.411  30.776  30.837  1.00  0.00    -0.248 NA
ATOM     39  C   UNL A   1      38.046  31.215  28.992  1.00  0.00     0.031 C 
ATOM     40  C   UNL A   1      37.514  34.270  32.920  1.00  0.00     0.029 A 
ATOM     41  N   UNL A   1      39.140  32.735  33.036  1.00  0.00    -0.354 N 
ATOM     42  C   UNL A   1      39.695  29.869  29.825  1.00  0.00     0.074 A 
ATOM     43  C   UNL A   1      38.802  30.162  28.725  1.00  0.00     0.031 C 
ATOM     44  C   UNL A   1      38.148  34.434  34.096  1.00  0.00     0.029 A 
ATOM     45  C   UNL A   1      39.162  33.392  34.243  1.00  0.00     0.049 A 
ATOM     46  H   UNL A   1      39.790  32.039  32.787  1.00  0.00     0.167 HD
ATOM     47  C   UNL A   1      40.616  28.878  29.822  1.00  0.00     0.037 A 
ATOM     48  C   UNL A   1      39.881  33.137  35.355  1.00  0.00     0.037 A 
ATOM     49  C   UNL A   1      41.495  28.599  30.925  1.00  0.00     0.049 A 
ATOM     50  C   UNL A   1      40.841  31.972  35.363  1.00  0.00     0.074 A 
ATOM     51  C   UNL A   1      42.476  27.630  31.022  1.00  0.00     0.029 A 
ATOM     52  N   UNL A   1      41.490  29.290  32.129  1.00  0.00    -0.354 N 
ATOM     53  N   UNL A   1      41.112  31.114  34.408  1.00  0.00    -0.248 NA
ATOM     54  C   UNL A   1      41.589  31.733  36.606  1.00  0.00     0.031 C 
ATOM     55  C   UNL A   1      43.020  27.690  32.308  1.00  0.00     0.029 A 
ATOM     56  C   UNL A   1      42.434  28.749  32.985  1.00  0.00     0.049 A 
ATOM     57  H   UNL A   1      40.902  30.050  32.342  1.00  0.00     0.167 HD
ATOM     58  C   UNL A   1      42.092  30.269  34.917  1.00  0.00     0.074 A 
ATOM     59  C   UNL A   1      42.364  30.711  36.268  1.00  0.00     0.031 C 
ATOM     60  C   UNL A   1      42.716  29.226  34.316  1.00  0.00     0.037 A 
BRANCH  47  61
ATOM     61  C   UNL A   1      40.689  27.996  28.609  1.00  0.00     0.064 A 
ATOM     62  C   UNL A   1      41.487  28.321  27.502  1.00  0.00     0.173 A 
ATOM     63  C   UNL A   1      39.969  26.792  28.567  1.00  0.00     0.173 A 
ATOM     64  F   UNL A   1      42.182  29.469  27.484  1.00  0.00    -0.203 F 
ATOM     65  C   UNL A   1      41.540  27.487  26.388  1.00  0.00     0.198 A 
ATOM     66  C   UNL A   1      40.053  25.944  27.468  1.00  0.00     0.198 A 
ATOM     67  F   UNL A   1      39.191  26.432  29.600  1.00  0.00    -0.203 F 
ATOM     68  F   UNL A   1      42.267  27.845  25.320  1.00  0.00    -0.200 F 
ATOM     69  C   UNL A   1      40.830  26.296  26.375  1.00  0.00     0.200 A 
ATOM     70  F   UNL A   1      39.378  24.786  27.464  1.00  0.00    -0.200 F 
ATOM     71  F   UNL A   1      40.890  25.489  25.307  1.00  0.00    -0.200 F 
ENDBRANCH  47  61
BRANCH  48  72
ATOM     72  C   UNL A   1      39.702  33.979  36.568  1.00  0.00     0.064 A 
ATOM     73  C   UNL A   1      40.375  35.203  36.699  1.00  0.00     0.173 A 
ATOM     74  C   UNL A   1      38.877  33.576  37.628  1.00  0.00     0.173 A 
ATOM     75  F   UNL A   1      41.198  35.620  35.726  1.00  0.00    -0.203 F 
ATOM     76  C   UNL A   1      40.246  35.977  37.851  1.00  0.00     0.198 A 
ATOM     77  C   UNL A   1      38.723  34.367  38.765  1.00  0.00     0.198 A 
ATOM     78  F   UNL A   1      38.212  32.412  37.558  1.00  0.00    -0.203 F 
ATOM     79  F   UNL A   1      40.945  37.114  37.972  1.00  0.00    -0.200 F 
ATOM     80  C   UNL A   1      39.415  35.562  38.879  1.00  0.00     0.200 A 
ATOM     81  F   UNL A   1      37.909  33.967  39.752  1.00  0.00    -0.200 F 
ATOM     82  F   UNL A   1      39.290  36.308  39.986  1.00  0.00    -0.200 F 
ENDBRANCH  48  72
BRANCH  60  83
ATOM     83  C   UNL A   1      43.814  28.530  35.068  1.00  0.00     0.064 A 
ATOM     84  C   UNL A   1      45.135  28.997  35.059  1.00  0.00     0.173 A 
ATOM     85  C   UNL A   1      43.509  27.434  35.892  1.00  0.00     0.173 A 
ATOM     86  F   UNL A   1      45.481  30.033  34.280  1.00  0.00    -0.203 F 
ATOM     87  C   UNL A   1      46.112  28.389  35.844  1.00  0.00     0.198 A 
ATOM     88  C   UNL A   1      44.480  26.851  36.700  1.00  0.00     0.198 A 
ATOM     89  F   UNL A   1      42.257  26.954  35.943  1.00  0.00    -0.203 F 
ATOM     90  F   UNL A   1      47.376  28.833  35.801  1.00  0.00    -0.200 F 
ATOM     91  C   UNL A   1      45.781  27.327  36.673  1.00  0.00     0.200 A 
ATOM     92  F   UNL A   1      44.152  25.838  37.514  1.00  0.00    -0.200 F 
ATOM     93  F   UNL A   1      46.717  26.761  37.448  1.00  0.00    -0.200 F 
ENDBRANCH  60  83
ENDBRANCH  34  35
ENDBRANCH  27  29
ENDBRANCH  26  27
ENDBRANCH  25  26
ENDBRANCH  24  25
ENDBRANCH  23  24
ENDBRANCH  22  23
ENDBRANCH   1  22
TORSDOF 19
ENDMDL
