MODEL 1
REMARK VINA RESULT:     -10.1      0.000      0.000
REMARK SMILES O=C(/C=N\OCc1ccccc1)OCCOCCOCCOC(=O)c1ccc(-c2c3nc(c(-c4c(F)c(F)c(F)c(F)c4F)c4ccc([nH]4)c(-c4c(F)c(F)c(F)c(F)c4F)c4nc(c(-c5c(F)c(F)c(F)c(F)c5F)c5ccc2[nH]5)C=C4)C=C3)cc1
REMARK SMILES IDX 17 1 16 2 15 3 14 4 13 5 2 6 1 7 3 8 4 9 5 10 6 11 7 12 8 13
REMARK SMILES IDX 12 14 9 15 11 16 10 17 18 18 19 19 20 20 21 21 22 22 23 23
REMARK SMILES IDX 24 24 25 25 26 26 87 27 27 28 86 29 28 30 29 31 30 32 80 33
REMARK SMILES IDX 31 34 85 35 79 36 81 37 32 38 84 39 78 40 77 41 33 43 65 44
REMARK SMILES IDX 45 45 64 46 46 47 49 48 63 49 82 50 47 51 48 52 62 54 83 55
REMARK SMILES IDX 50 56 34 57 35 58 43 59 36 60 37 61 41 62 44 63 38 64 39 65
REMARK SMILES IDX 42 66 40 67 66 68 67 69 75 70 68 71 69 72 73 73 76 74 70 75
REMARK SMILES IDX 71 76 74 77 72 78 51 79 52 80 60 81 53 82 54 83 58 84 61 85
REMARK SMILES IDX 55 86 56 87 59 88 57 89
REMARK H PARENT 81 42 49 53
REMARK Flexibility Score: inf
ROOT
ATOM      1  C   UNL A   1      31.766  27.857  26.833  1.00  0.00     0.188 C 
ENDROOT
BRANCH   1   2
ATOM      2  O   UNL A   1      32.444  27.452  25.651  1.00  0.00    -0.376 OA
BRANCH   2   3
ATOM      3  C   UNL A   1      33.570  26.604  25.858  1.00  0.00     0.202 C 
BRANCH   3   4
ATOM      4  C   UNL A   1      33.337  25.098  25.713  1.00  0.00     0.261 C 
BRANCH   4   5
ATOM      5  O   UNL A   1      32.018  24.760  25.285  1.00  0.00    -0.459 OA
BRANCH   5   6
ATOM      6  C   UNL A   1      31.326  24.003  26.151  1.00  0.00     0.352 C 
ATOM      7  O   UNL A   1      31.330  24.155  27.362  1.00  0.00    -0.245 OA
BRANCH   6   8
ATOM      8  C   UNL A   1      30.876  22.686  25.568  1.00  0.00     0.247 C 
ATOM      9  N   UNL A   1      31.534  21.568  25.555  1.00  0.00    -0.087 NA
BRANCH   9  10
ATOM     10  O   UNL A   1      32.713  21.641  26.305  1.00  0.00    -0.391 OA
BRANCH  10  11
ATOM     11  C   UNL A   1      33.720  20.779  25.755  1.00  0.00     0.299 C 
BRANCH  11  12
ATOM     12  C   UNL A   1      34.727  21.440  24.831  1.00  0.00    -0.008 A 
ATOM     13  C   UNL A   1      36.102  21.220  25.018  1.00  0.00     0.007 A 
ATOM     14  C   UNL A   1      34.337  22.374  23.860  1.00  0.00     0.007 A 
ATOM     15  C   UNL A   1      37.050  21.916  24.260  1.00  0.00     0.000 A 
ATOM     16  C   UNL A   1      35.283  23.066  23.100  1.00  0.00     0.000 A 
ATOM     17  C   UNL A   1      36.640  22.842  23.305  1.00  0.00     0.000 A 
ENDBRANCH  11  12
ENDBRANCH  10  11
ENDBRANCH   9  10
ENDBRANCH   6   8
ENDBRANCH   5   6
ENDBRANCH   4   5
ENDBRANCH   3   4
ENDBRANCH   2   3
ENDBRANCH   1   2
BRANCH   1  18
ATOM     18  C   UNL A   1      31.806  29.342  27.236  1.00  0.00     0.188 C 
BRANCH  18  19
ATOM     19  O   UNL A   1      32.128  30.335  26.288  1.00  0.00    -0.376 OA
BRANCH  19  20
ATOM     20  C   UNL A   1      31.415  31.563  26.250  1.00  0.00     0.202 C 
BRANCH  20  21
ATOM     21  C   UNL A   1      31.918  32.884  26.856  1.00  0.00     0.261 C 
BRANCH  21  22
ATOM     22  O   UNL A   1      32.740  32.806  28.022  1.00  0.00    -0.460 OA
BRANCH  22  23
ATOM     23  C   UNL A   1      33.790  33.655  28.024  1.00  0.00     0.338 C 
ATOM     24  O   UNL A   1      33.778  34.871  27.888  1.00  0.00    -0.246 OA
BRANCH  23  25
ATOM     25  C   UNL A   1      35.027  32.911  28.278  1.00  0.00     0.060 A 
ATOM     26  C   UNL A   1      34.938  31.578  28.686  1.00  0.00     0.016 A 
ATOM     27  C   UNL A   1      36.252  33.582  28.273  1.00  0.00     0.016 A 
ATOM     28  C   UNL A   1      36.079  30.921  29.137  1.00  0.00     0.010 A 
ATOM     29  C   UNL A   1      37.396  32.922  28.726  1.00  0.00     0.010 A 
ATOM     30  C   UNL A   1      37.305  31.602  29.202  1.00  0.00    -0.014 A 
BRANCH  30  31
ATOM     31  C   UNL A   1      38.438  30.969  29.917  1.00  0.00     0.031 A 
ATOM     32  C   UNL A   1      38.670  31.304  31.364  1.00  0.00     0.074 A 
ATOM     33  C   UNL A   1      39.204  30.052  29.301  1.00  0.00     0.049 A 
ATOM     34  N   UNL A   1      39.546  30.806  32.201  1.00  0.00    -0.248 NA
ATOM     35  C   UNL A   1      37.798  32.334  31.949  1.00  0.00     0.031 C 
ATOM     36  C   UNL A   1      39.068  29.639  27.907  1.00  0.00     0.029 A 
ATOM     37  N   UNL A   1      40.243  29.296  29.780  1.00  0.00    -0.354 N 
ATOM     38  C   UNL A   1      39.318  31.447  33.412  1.00  0.00     0.074 A 
ATOM     39  C   UNL A   1      38.255  32.404  33.192  1.00  0.00     0.031 C 
ATOM     40  C   UNL A   1      39.991  28.700  27.640  1.00  0.00     0.029 A 
ATOM     41  C   UNL A   1      40.787  28.456  28.842  1.00  0.00     0.049 A 
ATOM     42  H   UNL A   1      40.567  29.352  30.709  1.00  0.00     0.167 HD
ATOM     43  C   UNL A   1      39.926  31.242  34.604  1.00  0.00     0.037 A 
ATOM     44  C   UNL A   1      41.813  27.590  28.946  1.00  0.00     0.037 A 
ATOM     45  C   UNL A   1      40.993  30.301  34.823  1.00  0.00     0.049 A 
ATOM     46  C   UNL A   1      42.499  27.410  30.274  1.00  0.00     0.074 A 
ATOM     47  C   UNL A   1      41.678  30.027  35.993  1.00  0.00     0.029 A 
ATOM     48  N   UNL A   1      41.532  29.482  33.843  1.00  0.00    -0.354 N 
ATOM     49  N   UNL A   1      42.254  27.996  31.421  1.00  0.00    -0.248 NA
ATOM     50  C   UNL A   1      43.596  26.434  30.325  1.00  0.00     0.031 C 
ATOM     51  C   UNL A   1      42.657  29.067  35.713  1.00  0.00     0.029 A 
ATOM     52  C   UNL A   1      42.551  28.711  34.379  1.00  0.00     0.049 A 
ATOM     53  H   UNL A   1      41.235  29.453  32.905  1.00  0.00     0.167 HD
ATOM     54  C   UNL A   1      43.151  27.451  32.329  1.00  0.00     0.074 A 
ATOM     55  C   UNL A   1      43.930  26.467  31.607  1.00  0.00     0.031 C 
ATOM     56  C   UNL A   1      43.320  27.740  33.643  1.00  0.00     0.037 A 
BRANCH  43  57
ATOM     57  C   UNL A   1      39.450  32.060  35.768  1.00  0.00     0.064 A 
ATOM     58  C   UNL A   1      38.454  31.583  36.634  1.00  0.00     0.173 A 
ATOM     59  C   UNL A   1      40.017  33.312  36.043  1.00  0.00     0.173 A 
ATOM     60  F   UNL A   1      37.871  30.397  36.404  1.00  0.00    -0.203 F 
ATOM     61  C   UNL A   1      38.029  32.341  37.722  1.00  0.00     0.198 A 
ATOM     62  C   UNL A   1      39.607  34.056  37.146  1.00  0.00     0.198 A 
ATOM     63  F   UNL A   1      40.975  33.810  35.247  1.00  0.00    -0.203 F 
ATOM     64  F   UNL A   1      37.050  31.884  38.514  1.00  0.00    -0.200 F 
ATOM     65  C   UNL A   1      38.611  33.573  37.981  1.00  0.00     0.200 A 
ATOM     66  F   UNL A   1      40.176  35.243  37.401  1.00  0.00    -0.200 F 
ATOM     67  F   UNL A   1      38.206  34.298  39.033  1.00  0.00    -0.200 F 
ENDBRANCH  43  57
BRANCH  44  68
ATOM     68  C   UNL A   1      42.252  26.820  27.755  1.00  0.00     0.064 A 
ATOM     69  C   UNL A   1      41.733  25.549  27.478  1.00  0.00     0.173 A 
ATOM     70  C   UNL A   1      43.220  27.336  26.881  1.00  0.00     0.173 A 
ATOM     71  F   UNL A   1      40.823  25.004  28.299  1.00  0.00    -0.203 F 
ATOM     72  C   UNL A   1      42.180  24.812  26.382  1.00  0.00     0.198 A 
ATOM     73  C   UNL A   1      43.648  26.610  25.771  1.00  0.00     0.198 A 
ATOM     74  F   UNL A   1      43.749  28.547  27.104  1.00  0.00    -0.203 F 
ATOM     75  F   UNL A   1      41.703  23.579  26.167  1.00  0.00    -0.200 F 
ATOM     76  C   UNL A   1      43.133  25.346  25.528  1.00  0.00     0.200 A 
ATOM     77  F   UNL A   1      44.561  27.133  24.943  1.00  0.00    -0.200 F 
ATOM     78  F   UNL A   1      43.564  24.637  24.475  1.00  0.00    -0.200 F 
ENDBRANCH  44  68
BRANCH  56  79
ATOM     79  C   UNL A   1      44.377  26.974  34.382  1.00  0.00     0.064 A 
ATOM     80  C   UNL A   1      44.095  25.750  35.005  1.00  0.00     0.173 A 
ATOM     81  C   UNL A   1      45.691  27.461  34.453  1.00  0.00     0.173 A 
ATOM     82  F   UNL A   1      42.851  25.249  34.975  1.00  0.00    -0.203 F 
ATOM     83  C   UNL A   1      45.082  25.056  35.700  1.00  0.00     0.198 A 
ATOM     84  C   UNL A   1      46.682  26.752  35.127  1.00  0.00     0.198 A 
ATOM     85  F   UNL A   1      46.015  28.624  33.869  1.00  0.00    -0.203 F 
ATOM     86  F   UNL A   1      44.776  23.914  36.332  1.00  0.00    -0.200 F 
ATOM     87  C   UNL A   1      46.374  25.555  35.757  1.00  0.00     0.200 A 
ATOM     88  F   UNL A   1      47.933  27.229  35.172  1.00  0.00    -0.200 F 
ATOM     89  F   UNL A   1      47.323  24.887  36.428  1.00  0.00    -0.200 F 
ENDBRANCH  56  79
ENDBRANCH  30  31
ENDBRANCH  23  25
ENDBRANCH  22  23
ENDBRANCH  21  22
ENDBRANCH  20  21
ENDBRANCH  19  20
ENDBRANCH  18  19
ENDBRANCH   1  18
TORSDOF 20
ENDMDL
MODEL 2
REMARK VINA RESULT:     -10.0      7.724     14.763
REMARK SMILES O=C(/C=N\OCc1ccccc1)OCCOCCOCCOC(=O)c1ccc(-c2c3nc(c(-c4c(F)c(F)c(F)c(F)c4F)c4ccc([nH]4)c(-c4c(F)c(F)c(F)c(F)c4F)c4nc(c(-c5c(F)c(F)c(F)c(F)c5F)c5ccc2[nH]5)C=C4)C=C3)cc1
REMARK SMILES IDX 17 1 16 2 15 3 14 4 13 5 2 6 1 7 3 8 4 9 5 10 6 11 7 12 8 13
REMARK SMILES IDX 12 14 9 15 11 16 10 17 18 18 19 19 20 20 21 21 22 22 23 23
REMARK SMILES IDX 24 24 25 25 26 26 87 27 27 28 86 29 28 30 29 31 30 32 80 33
REMARK SMILES IDX 31 34 85 35 79 36 81 37 32 38 84 39 78 40 77 41 33 43 65 44
REMARK SMILES IDX 45 45 64 46 46 47 49 48 63 49 82 50 47 51 48 52 62 54 83 55
REMARK SMILES IDX 50 56 34 57 35 58 43 59 36 60 37 61 41 62 44 63 38 64 39 65
REMARK SMILES IDX 42 66 40 67 66 68 67 69 75 70 68 71 69 72 73 73 76 74 70 75
REMARK SMILES IDX 71 76 74 77 72 78 51 79 52 80 60 81 53 82 54 83 58 84 61 85
REMARK SMILES IDX 55 86 56 87 59 88 57 89
REMARK H PARENT 81 42 49 53
REMARK Flexibility Score: inf
ROOT
ATOM      1  C   UNL A   1      47.691  19.238  38.806  1.00  0.00     0.188 C 
ENDROOT
BRANCH   1   2
ATOM      2  O   UNL A   1      47.494  18.159  39.711  1.00  0.00    -0.376 OA
BRANCH   2   3
ATOM      3  C   UNL A   1      46.135  17.863  40.015  1.00  0.00     0.202 C 
BRANCH   3   4
ATOM      4  C   UNL A   1      45.805  16.411  40.368  1.00  0.00     0.261 C 
BRANCH   4   5
ATOM      5  O   UNL A   1      44.519  16.244  40.963  1.00  0.00    -0.459 OA
BRANCH   5   6
ATOM      6  C   UNL A   1      43.485  16.493  40.144  1.00  0.00     0.352 C 
ATOM      7  O   UNL A   1      42.693  17.410  40.287  1.00  0.00    -0.245 OA
BRANCH   6   8
ATOM      8  C   UNL A   1      43.112  15.318  39.274  1.00  0.00     0.247 C 
ATOM      9  N   UNL A   1      42.496  14.236  39.638  1.00  0.00    -0.087 NA
BRANCH   9  10
ATOM     10  O   UNL A   1      42.038  14.309  40.959  1.00  0.00    -0.391 OA
BRANCH  10  11
ATOM     11  C   UNL A   1      41.497  13.049  41.380  1.00  0.00     0.299 C 
BRANCH  11  12
ATOM     12  C   UNL A   1      42.098  12.456  42.642  1.00  0.00    -0.008 A 
ATOM     13  C   UNL A   1      42.993  13.214  43.416  1.00  0.00     0.007 A 
ATOM     14  C   UNL A   1      41.889  11.117  43.002  1.00  0.00     0.007 A 
ATOM     15  C   UNL A   1      43.655  12.645  44.510  1.00  0.00     0.000 A 
ATOM     16  C   UNL A   1      42.547  10.550  44.097  1.00  0.00     0.000 A 
ATOM     17  C   UNL A   1      43.435  11.313  44.847  1.00  0.00     0.000 A 
ENDBRANCH  11  12
ENDBRANCH  10  11
ENDBRANCH   9  10
ENDBRANCH   6   8
ENDBRANCH   5   6
ENDBRANCH   4   5
ENDBRANCH   3   4
ENDBRANCH   2   3
ENDBRANCH   1   2
BRANCH   1  18
ATOM     18  C   UNL A   1      46.643  19.480  37.705  1.00  0.00     0.188 C 
BRANCH  18  19
ATOM     19  O   UNL A   1      45.775  20.590  37.772  1.00  0.00    -0.376 OA
BRANCH  19  20
ATOM     20  C   UNL A   1      46.003  21.741  36.973  1.00  0.00     0.202 C 
BRANCH  20  21
ATOM     21  C   UNL A   1      47.235  22.655  37.090  1.00  0.00     0.261 C 
BRANCH  21  22
ATOM     22  O   UNL A   1      47.022  24.066  37.017  1.00  0.00    -0.460 OA
BRANCH  22  23
ATOM     23  C   UNL A   1      47.266  24.607  35.804  1.00  0.00     0.338 C 
ATOM     24  O   UNL A   1      48.177  24.344  35.031  1.00  0.00    -0.246 OA
BRANCH  23  25
ATOM     25  C   UNL A   1      46.213  25.570  35.471  1.00  0.00     0.060 A 
ATOM     26  C   UNL A   1      44.879  25.160  35.539  1.00  0.00     0.016 A 
ATOM     27  C   UNL A   1      46.557  26.814  34.936  1.00  0.00     0.016 A 
ATOM     28  C   UNL A   1      43.882  25.983  35.025  1.00  0.00     0.010 A 
ATOM     29  C   UNL A   1      45.554  27.639  34.421  1.00  0.00     0.010 A 
ATOM     30  C   UNL A   1      44.217  27.206  34.424  1.00  0.00    -0.014 A 
BRANCH  30  31
ATOM     31  C   UNL A   1      43.176  27.938  33.665  1.00  0.00     0.031 A 
ATOM     32  C   UNL A   1      42.994  27.645  32.201  1.00  0.00     0.074 A 
ATOM     33  C   UNL A   1      42.357  28.800  34.292  1.00  0.00     0.049 A 
ATOM     34  N   UNL A   1      42.094  28.106  31.368  1.00  0.00    -0.248 NA
ATOM     35  C   UNL A   1      43.950  26.706  31.595  1.00  0.00     0.031 C 
ATOM     36  C   UNL A   1      42.431  29.157  35.706  1.00  0.00     0.029 A 
ATOM     37  N   UNL A   1      41.295  29.523  33.814  1.00  0.00    -0.354 N 
ATOM     38  C   UNL A   1      42.364  27.500  30.149  1.00  0.00     0.074 A 
ATOM     39  C   UNL A   1      43.539  26.676  30.335  1.00  0.00     0.031 C 
ATOM     40  C   UNL A   1      41.452  30.033  35.985  1.00  0.00     0.029 A 
ATOM     41  C   UNL A   1      40.692  30.305  34.766  1.00  0.00     0.049 A 
ATOM     42  H   UNL A   1      40.994  29.484  32.877  1.00  0.00     0.167 HD
ATOM     43  C   UNL A   1      41.683  27.605  28.984  1.00  0.00     0.037 A 
ATOM     44  C   UNL A   1      39.645  31.145  34.661  1.00  0.00     0.037 A 
ATOM     45  C   UNL A   1      40.522  28.435  28.791  1.00  0.00     0.049 A 
ATOM     46  C   UNL A   1      38.928  31.275  33.343  1.00  0.00     0.074 A 
ATOM     47  C   UNL A   1      39.767  28.614  27.646  1.00  0.00     0.029 A 
ATOM     48  N   UNL A   1      39.952  29.229  29.775  1.00  0.00    -0.354 N 
ATOM     49  N   UNL A   1      39.170  30.672  32.204  1.00  0.00    -0.248 NA
ATOM     50  C   UNL A   1      37.781  32.192  33.301  1.00  0.00     0.031 C 
ATOM     51  C   UNL A   1      38.760  29.545  27.927  1.00  0.00     0.029 A 
ATOM     52  C   UNL A   1      38.862  29.912  29.258  1.00  0.00     0.049 A 
ATOM     53  H   UNL A   1      40.275  29.299  30.702  1.00  0.00     0.167 HD
ATOM     54  C   UNL A   1      38.200  31.122  31.319  1.00  0.00     0.074 A 
ATOM     55  C   UNL A   1      37.348  32.030  32.058  1.00  0.00     0.031 C 
ATOM     56  C   UNL A   1      38.029  30.816  30.009  1.00  0.00     0.037 A 
BRANCH  43  57
ATOM     57  C   UNL A   1      42.181  26.801  27.820  1.00  0.00     0.064 A 
ATOM     58  C   UNL A   1      41.703  25.505  27.572  1.00  0.00     0.173 A 
ATOM     59  C   UNL A   1      43.115  27.340  26.925  1.00  0.00     0.173 A 
ATOM     60  F   UNL A   1      40.819  24.940  28.408  1.00  0.00    -0.203 F 
ATOM     61  C   UNL A   1      42.158  24.771  26.480  1.00  0.00     0.198 A 
ATOM     62  C   UNL A   1      43.550  26.612  25.820  1.00  0.00     0.198 A 
ATOM     63  F   UNL A   1      43.601  28.575  27.117  1.00  0.00    -0.203 F 
ATOM     64  F   UNL A   1      41.717  23.521  26.283  1.00  0.00    -0.200 F 
ATOM     65  C   UNL A   1      43.076  25.328  25.601  1.00  0.00     0.200 A 
ATOM     66  F   UNL A   1      44.431  27.154  24.967  1.00  0.00    -0.200 F 
ATOM     67  F   UNL A   1      43.508  24.623  24.547  1.00  0.00    -0.200 F 
ENDBRANCH  43  57
BRANCH  44  68
ATOM     68  C   UNL A   1      39.206  31.930  35.843  1.00  0.00     0.064 A 
ATOM     69  C   UNL A   1      39.700  33.218  36.086  1.00  0.00     0.173 A 
ATOM     70  C   UNL A   1      38.297  31.393  36.766  1.00  0.00     0.173 A 
ATOM     71  F   UNL A   1      40.591  33.763  35.243  1.00  0.00    -0.203 F 
ATOM     72  C   UNL A   1      39.318  33.933  37.219  1.00  0.00     0.198 A 
ATOM     73  C   UNL A   1      37.894  32.119  37.885  1.00  0.00     0.198 A 
ATOM     74  F   UNL A   1      37.796  30.164  36.579  1.00  0.00    -0.203 F 
ATOM     75  F   UNL A   1      39.842  35.143  37.453  1.00  0.00    -0.200 F 
ATOM     76  C   UNL A   1      38.412  33.385  38.114  1.00  0.00     0.200 A 
ATOM     77  F   UNL A   1      37.012  31.590  38.742  1.00  0.00    -0.200 F 
ATOM     78  F   UNL A   1      38.045  34.073  39.205  1.00  0.00    -0.200 F 
ENDBRANCH  44  68
BRANCH  56  79
ATOM     79  C   UNL A   1      36.873  31.459  29.301  1.00  0.00     0.064 A 
ATOM     80  C   UNL A   1      35.726  30.729  28.958  1.00  0.00     0.173 A 
ATOM     81  C   UNL A   1      36.906  32.824  28.976  1.00  0.00     0.173 A 
ATOM     82  F   UNL A   1      35.652  29.419  29.235  1.00  0.00    -0.203 F 
ATOM     83  C   UNL A   1      34.666  31.334  28.288  1.00  0.00     0.198 A 
ATOM     84  C   UNL A   1      35.834  33.432  28.330  1.00  0.00     0.198 A 
ATOM     85  F   UNL A   1      37.978  33.568  29.288  1.00  0.00    -0.203 F 
ATOM     86  F   UNL A   1      33.602  30.605  27.924  1.00  0.00    -0.200 F 
ATOM     87  C   UNL A   1      34.719  32.684  27.978  1.00  0.00     0.200 A 
ATOM     88  F   UNL A   1      35.882  34.739  28.040  1.00  0.00    -0.200 F 
ATOM     89  F   UNL A   1      33.699  33.266  27.331  1.00  0.00    -0.200 F 
ENDBRANCH  56  79
ENDBRANCH  30  31
ENDBRANCH  23  25
ENDBRANCH  22  23
ENDBRANCH  21  22
ENDBRANCH  20  21
ENDBRANCH  19  20
ENDBRANCH  18  19
ENDBRANCH   1  18
TORSDOF 20
ENDMDL
MODEL 3
REMARK VINA RESULT:      -9.8      4.896     10.407
REMARK SMILES O=C(/C=N\OCc1ccccc1)OCCOCCOCCOC(=O)c1ccc(-c2c3nc(c(-c4c(F)c(F)c(F)c(F)c4F)c4ccc([nH]4)c(-c4c(F)c(F)c(F)c(F)c4F)c4nc(c(-c5c(F)c(F)c(F)c(F)c5F)c5ccc2[nH]5)C=C4)C=C3)cc1
REMARK SMILES IDX 17 1 16 2 15 3 14 4 13 5 2 6 1 7 3 8 4 9 5 10 6 11 7 12 8 13
REMARK SMILES IDX 12 14 9 15 11 16 10 17 18 18 19 19 20 20 21 21 22 22 23 23
REMARK SMILES IDX 24 24 25 25 26 26 87 27 27 28 86 29 28 30 29 31 30 32 80 33
REMARK SMILES IDX 31 34 85 35 79 36 81 37 32 38 84 39 78 40 77 41 33 43 65 44
REMARK SMILES IDX 45 45 64 46 46 47 49 48 63 49 82 50 47 51 48 52 62 54 83 55
REMARK SMILES IDX 50 56 34 57 35 58 43 59 36 60 37 61 41 62 44 63 38 64 39 65
REMARK SMILES IDX 42 66 40 67 66 68 67 69 75 70 68 71 69 72 73 73 76 74 70 75
REMARK SMILES IDX 71 76 74 77 72 78 51 79 52 80 60 81 53 82 54 83 58 84 61 85
REMARK SMILES IDX 55 86 56 87 59 88 57 89
REMARK H PARENT 81 42 49 53
REMARK Flexibility Score: inf
ROOT
ATOM      1  C   UNL A   1      35.944  22.952  23.678  1.00  0.00     0.188 C 
ENDROOT
BRANCH   1   2
ATOM      2  O   UNL A   1      34.807  23.768  23.926  1.00  0.00    -0.376 OA
BRANCH   2   3
ATOM      3  C   UNL A   1      34.962  24.725  24.969  1.00  0.00     0.202 C 
BRANCH   3   4
ATOM      4  C   UNL A   1      33.704  25.103  25.756  1.00  0.00     0.261 C 
BRANCH   4   5
ATOM      5  O   UNL A   1      32.587  24.255  25.491  1.00  0.00    -0.459 OA
BRANCH   5   6
ATOM      6  C   UNL A   1      32.096  23.623  26.568  1.00  0.00     0.352 C 
ATOM      7  O   UNL A   1      31.171  24.034  27.251  1.00  0.00    -0.245 OA
BRANCH   6   8
ATOM      8  C   UNL A   1      33.033  22.585  27.133  1.00  0.00     0.247 C 
ATOM      9  N   UNL A   1      33.432  21.491  26.560  1.00  0.00    -0.087 NA
BRANCH   9  10
ATOM     10  O   UNL A   1      33.017  21.414  25.225  1.00  0.00    -0.391 OA
BRANCH  10  11
ATOM     11  C   UNL A   1      32.153  20.286  25.026  1.00  0.00     0.299 C 
BRANCH  11  12
ATOM     12  C   UNL A   1      32.794  19.062  24.396  1.00  0.00    -0.008 A 
ATOM     13  C   UNL A   1      34.006  18.565  24.904  1.00  0.00     0.007 A 
ATOM     14  C   UNL A   1      32.279  18.475  23.232  1.00  0.00     0.007 A 
ATOM     15  C   UNL A   1      34.677  17.518  24.262  1.00  0.00     0.000 A 
ATOM     16  C   UNL A   1      32.947  17.427  22.593  1.00  0.00     0.000 A 
ATOM     17  C   UNL A   1      34.150  16.953  23.105  1.00  0.00     0.000 A 
ENDBRANCH  11  12
ENDBRANCH  10  11
ENDBRANCH   9  10
ENDBRANCH   6   8
ENDBRANCH   5   6
ENDBRANCH   4   5
ENDBRANCH   3   4
ENDBRANCH   2   3
ENDBRANCH   1   2
BRANCH   1  18
ATOM     18  C   UNL A   1      36.497  22.087  24.824  1.00  0.00     0.188 C 
BRANCH  18  19
ATOM     19  O   UNL A   1      37.690  21.352  24.659  1.00  0.00    -0.376 OA
BRANCH  19  20
ATOM     20  C   UNL A   1      37.744  19.970  24.980  1.00  0.00     0.202 C 
BRANCH  20  21
ATOM     21  C   UNL A   1      39.024  19.217  25.384  1.00  0.00     0.261 C 
BRANCH  21  22
ATOM     22  O   UNL A   1      39.892  19.847  26.327  1.00  0.00    -0.460 OA
BRANCH  22  23
ATOM     23  C   UNL A   1      41.204  19.590  26.139  1.00  0.00     0.338 C 
ATOM     24  O   UNL A   1      41.721  18.550  25.752  1.00  0.00    -0.246 OA
BRANCH  23  25
ATOM     25  C   UNL A   1      41.990  20.795  26.416  1.00  0.00     0.060 A 
ATOM     26  C   UNL A   1      42.275  21.122  27.744  1.00  0.00     0.016 A 
ATOM     27  C   UNL A   1      42.295  21.677  25.377  1.00  0.00     0.016 A 
ATOM     28  C   UNL A   1      42.829  22.363  28.042  1.00  0.00     0.010 A 
ATOM     29  C   UNL A   1      42.851  22.923  25.677  1.00  0.00     0.010 A 
ATOM     30  C   UNL A   1      43.079  23.287  27.016  1.00  0.00    -0.014 A 
BRANCH  30  31
ATOM     31  C   UNL A   1      43.427  24.681  27.378  1.00  0.00     0.031 A 
ATOM     32  C   UNL A   1      44.821  25.180  27.116  1.00  0.00     0.074 A 
ATOM     33  C   UNL A   1      42.490  25.511  27.867  1.00  0.00     0.049 A 
ATOM     34  N   UNL A   1      45.316  26.383  27.277  1.00  0.00    -0.248 NA
ATOM     35  C   UNL A   1      45.786  24.197  26.601  1.00  0.00     0.031 C 
ATOM     36  C   UNL A   1      41.106  25.144  28.154  1.00  0.00     0.029 A 
ATOM     37  N   UNL A   1      42.565  26.839  28.199  1.00  0.00    -0.354 N 
ATOM     38  C   UNL A   1      46.640  26.304  26.867  1.00  0.00     0.074 A 
ATOM     39  C   UNL A   1      46.887  24.927  26.494  1.00  0.00     0.031 C 
ATOM     40  C   UNL A   1      40.457  26.225  28.619  1.00  0.00     0.029 A 
ATOM     41  C   UNL A   1      41.385  27.354  28.672  1.00  0.00     0.049 A 
ATOM     42  H   UNL A   1      43.388  27.373  28.106  1.00  0.00     0.167 HD
ATOM     43  C   UNL A   1      47.561  27.292  26.788  1.00  0.00     0.037 A 
ATOM     44  C   UNL A   1      41.090  28.596  29.099  1.00  0.00     0.037 A 
ATOM     45  C   UNL A   1      47.323  28.659  27.170  1.00  0.00     0.049 A 
ATOM     46  C   UNL A   1      42.145  29.670  29.039  1.00  0.00     0.074 A 
ATOM     47  C   UNL A   1      48.195  29.732  27.135  1.00  0.00     0.029 A 
ATOM     48  N   UNL A   1      46.120  29.138  27.665  1.00  0.00    -0.354 N 
ATOM     49  N   UNL A   1      43.384  29.593  28.617  1.00  0.00    -0.248 NA
ATOM     50  C   UNL A   1      41.753  31.009  29.500  1.00  0.00     0.031 C 
ATOM     51  C   UNL A   1      47.530  30.855  27.641  1.00  0.00     0.029 A 
ATOM     52  C   UNL A   1      46.230  30.490  27.951  1.00  0.00     0.049 A 
ATOM     53  H   UNL A   1      45.307  28.598  27.794  1.00  0.00     0.167 HD
ATOM     54  C   UNL A   1      43.912  30.869  28.747  1.00  0.00     0.074 A 
ATOM     55  C   UNL A   1      42.853  31.710  29.262  1.00  0.00     0.031 C 
ATOM     56  C   UNL A   1      45.165  31.309  28.468  1.00  0.00     0.037 A 
BRANCH  43  57
ATOM     57  C   UNL A   1      48.920  26.927  26.268  1.00  0.00     0.064 A 
ATOM     58  C   UNL A   1      49.230  27.027  24.903  1.00  0.00     0.173 A 
ATOM     59  C   UNL A   1      49.932  26.509  27.143  1.00  0.00     0.173 A 
ATOM     60  F   UNL A   1      48.290  27.409  24.025  1.00  0.00    -0.203 F 
ATOM     61  C   UNL A   1      50.498  26.703  24.432  1.00  0.00     0.198 A 
ATOM     62  C   UNL A   1      51.207  26.207  26.671  1.00  0.00     0.198 A 
ATOM     63  F   UNL A   1      49.688  26.399  28.457  1.00  0.00    -0.203 F 
ATOM     64  F   UNL A   1      50.762  26.769  23.119  1.00  0.00    -0.200 F 
ATOM     65  C   UNL A   1      51.488  26.299  25.316  1.00  0.00     0.200 A 
ATOM     66  F   UNL A   1      52.165  25.826  27.528  1.00  0.00    -0.200 F 
ATOM     67  F   UNL A   1      52.711  25.994  24.862  1.00  0.00    -0.200 F 
ENDBRANCH  43  57
BRANCH  44  68
ATOM     68  C   UNL A   1      39.732  28.896  29.620  1.00  0.00     0.064 A 
ATOM     69  C   UNL A   1      39.401  28.669  30.962  1.00  0.00     0.173 A 
ATOM     70  C   UNL A   1      38.731  29.396  28.775  1.00  0.00     0.173 A 
ATOM     71  F   UNL A   1      40.319  28.168  31.802  1.00  0.00    -0.203 F 
ATOM     72  C   UNL A   1      38.114  28.912  31.436  1.00  0.00     0.198 A 
ATOM     73  C   UNL A   1      37.451  29.664  29.254  1.00  0.00     0.198 A 
ATOM     74  F   UNL A   1      38.999  29.629  27.481  1.00  0.00    -0.203 F 
ATOM     75  F   UNL A   1      37.810  28.641  32.712  1.00  0.00    -0.200 F 
ATOM     76  C   UNL A   1      37.142  29.414  30.583  1.00  0.00     0.200 A 
ATOM     77  F   UNL A   1      36.519  30.157  28.430  1.00  0.00    -0.200 F 
ATOM     78  F   UNL A   1      35.903  29.646  31.039  1.00  0.00    -0.200 F 
ENDBRANCH  44  68
BRANCH  56  79
ATOM     79  C   UNL A   1      45.448  32.764  28.705  1.00  0.00     0.064 A 
ATOM     80  C   UNL A   1      45.967  33.221  29.925  1.00  0.00     0.173 A 
ATOM     81  C   UNL A   1      45.212  33.709  27.695  1.00  0.00     0.173 A 
ATOM     82  F   UNL A   1      46.196  32.357  30.926  1.00  0.00    -0.203 F 
ATOM     83  C   UNL A   1      46.211  34.575  30.137  1.00  0.00     0.198 A 
ATOM     84  C   UNL A   1      45.483  35.059  27.901  1.00  0.00     0.198 A 
ATOM     85  F   UNL A   1      44.722  33.323  26.508  1.00  0.00    -0.203 F 
ATOM     86  F   UNL A   1      46.659  34.994  31.329  1.00  0.00    -0.200 F 
ATOM     87  C   UNL A   1      45.973  35.491  29.125  1.00  0.00     0.200 A 
ATOM     88  F   UNL A   1      45.262  35.943  26.919  1.00  0.00    -0.200 F 
ATOM     89  F   UNL A   1      46.207  36.795  29.331  1.00  0.00    -0.200 F 
ENDBRANCH  56  79
ENDBRANCH  30  31
ENDBRANCH  23  25
ENDBRANCH  22  23
ENDBRANCH  21  22
ENDBRANCH  20  21
ENDBRANCH  19  20
ENDBRANCH  18  19
ENDBRANCH   1  18
TORSDOF 20
ENDMDL
