MODEL 1
REMARK VINA RESULT:     -11.6      0.000      0.000
REMARK SMILES CC1=C(C(=O)OCCOCCOCCOC(=O)c2ccc(-c3c4nc(c(-c5c(F)c(F)c(F)c(F)c5F)c5ccc([nH]5)c(-c5c(F)c(F)c(F)c(F)c5F)c5nc(c(-c6c(F)c(F)c(F)c(F)c6F)c6ccc3[nH]6)C=C5)C=C4)cc2)N2C(=O)[C@@H](NC(=O)c3ccn(C)n3)[C@H]2SC1
REMARK SMILES IDX 10 1 9 2 8 3 7 4 6 5 4 6 5 7 3 8 1 9 2 10 96 11 81 12 95 13
REMARK SMILES IDX 82 14 94 15 83 16 84 17 85 18 86 19 87 21 88 22 89 23 93 24
REMARK SMILES IDX 90 25 91 26 92 27 11 28 12 29 13 30 14 31 15 32 16 33 17 34
REMARK SMILES IDX 18 35 19 36 80 37 20 38 79 39 21 40 22 41 23 42 73 43 24 44
REMARK SMILES IDX 78 45 72 46 74 47 25 48 77 49 71 50 70 51 26 53 58 54 38 55
REMARK SMILES IDX 57 56 39 57 42 58 56 59 75 60 40 61 41 62 55 64 76 65 43 66
REMARK SMILES IDX 27 67 28 68 36 69 29 70 30 71 34 72 37 73 31 74 32 75 35 76
REMARK SMILES IDX 33 77 59 78 60 79 68 80 61 81 62 82 66 83 69 84 63 85 64 86
REMARK SMILES IDX 67 87 65 88 44 89 45 90 53 91 46 92 47 93 51 94 54 95 48 96
REMARK SMILES IDX 49 97 52 98 50 99
REMARK H PARENT 85 20 74 52 42 63
REMARK Flexibility Score: inf
ROOT
ATOM      1  C   UNL A   1      39.665  21.976  26.495  1.00  0.00     0.188 C 
ENDROOT
BRANCH   1   2
ATOM      2  O   UNL A   1      38.513  22.042  25.667  1.00  0.00    -0.376 OA
BRANCH   2   3
ATOM      3  C   UNL A   1      37.869  20.826  25.296  1.00  0.00     0.202 C 
BRANCH   3   4
ATOM      4  C   UNL A   1      36.346  20.834  25.204  1.00  0.00     0.261 C 
BRANCH   4   5
ATOM      5  O   UNL A   1      35.789  21.618  26.270  1.00  0.00    -0.459 OA
BRANCH   5   6
ATOM      6  C   UNL A   1      34.448  21.515  26.432  1.00  0.00     0.355 C 
ATOM      7  O   UNL A   1      33.866  21.261  27.476  1.00  0.00    -0.244 OA
BRANCH   6   8
ATOM      8  C   UNL A   1      33.722  21.839  25.160  1.00  0.00     0.131 C 
ATOM      9  C   UNL A   1      32.937  19.468  24.720  1.00  0.00     0.043 C 
ATOM     10  C   UNL A   1      33.067  20.935  24.392  1.00  0.00    -0.032 C 
ATOM     11  C   UNL A   1      32.381  21.282  23.074  1.00  0.00     0.105 C 
ATOM     12  N   UNL A   1      33.692  23.155  24.822  1.00  0.00    -0.289 N 
ATOM     13  S   UNL A   1      32.874  22.887  22.359  1.00  0.00    -0.129 SA
ATOM     14  C   UNL A   1      34.481  24.241  24.964  1.00  0.00     0.253 C 
ATOM     15  C   UNL A   1      32.710  23.741  23.945  1.00  0.00     0.181 C 
ATOM     16  O   UNL A   1      35.573  24.408  25.449  1.00  0.00    -0.272 OA
ATOM     17  C   UNL A   1      33.456  25.087  24.141  1.00  0.00     0.206 C 
BRANCH  17  18
ATOM     18  N   UNL A   1      33.947  25.779  22.926  1.00  0.00    -0.336 N 
ATOM     19  C   UNL A   1      33.423  26.941  22.389  1.00  0.00     0.272 C 
ATOM     20  H   UNL A   1      34.714  25.376  22.458  1.00  0.00     0.164 HD
ATOM     21  O   UNL A   1      33.801  27.320  21.283  1.00  0.00    -0.267 OA
BRANCH  19  22
ATOM     22  C   UNL A   1      32.422  27.645  23.199  1.00  0.00     0.150 A 
ATOM     23  C   UNL A   1      31.010  27.533  23.091  1.00  0.00     0.056 A 
ATOM     24  N   UNL A   1      32.756  28.603  24.083  1.00  0.00    -0.168 NA
ATOM     25  C   UNL A   1      30.498  28.451  23.974  1.00  0.00     0.109 A 
ATOM     26  N   UNL A   1      31.578  29.044  24.557  1.00  0.00    -0.275 N 
ATOM     27  C   UNL A   1      31.539  30.113  25.527  1.00  0.00     0.173 C 
ENDBRANCH  19  22
ENDBRANCH  17  18
ENDBRANCH   6   8
ENDBRANCH   5   6
ENDBRANCH   4   5
ENDBRANCH   3   4
ENDBRANCH   2   3
ENDBRANCH   1   2
BRANCH   1  28
ATOM     28  C   UNL A   1      40.711  20.865  26.262  1.00  0.00     0.188 C 
BRANCH  28  29
ATOM     29  O   UNL A   1      42.046  20.993  26.719  1.00  0.00    -0.376 OA
BRANCH  29  30
ATOM     30  C   UNL A   1      43.124  20.685  25.851  1.00  0.00     0.202 C 
BRANCH  30  31
ATOM     31  C   UNL A   1      43.892  21.805  25.142  1.00  0.00     0.261 C 
BRANCH  31  32
ATOM     32  O   UNL A   1      43.141  23.011  24.960  1.00  0.00    -0.460 OA
BRANCH  32  33
ATOM     33  C   UNL A   1      43.854  24.155  25.096  1.00  0.00     0.338 C 
ATOM     34  O   UNL A   1      44.839  24.500  24.468  1.00  0.00    -0.246 OA
BRANCH  33  35
ATOM     35  C   UNL A   1      43.157  25.050  26.037  1.00  0.00     0.060 A 
ATOM     36  C   UNL A   1      43.532  26.400  26.067  1.00  0.00     0.016 A 
ATOM     37  C   UNL A   1      42.184  24.559  26.908  1.00  0.00     0.016 A 
ATOM     38  C   UNL A   1      42.950  27.263  26.993  1.00  0.00     0.010 A 
ATOM     39  C   UNL A   1      41.619  25.418  27.851  1.00  0.00     0.010 A 
ATOM     40  C   UNL A   1      42.021  26.765  27.916  1.00  0.00    -0.014 A 
BRANCH  40  41
ATOM     41  C   UNL A   1      41.599  27.607  29.056  1.00  0.00     0.031 A 
ATOM     42  C   UNL A   1      42.380  27.529  30.337  1.00  0.00     0.074 A 
ATOM     43  C   UNL A   1      40.534  28.420  28.959  1.00  0.00     0.049 A 
ATOM     44  N   UNL A   1      42.173  28.137  31.476  1.00  0.00    -0.248 NA
ATOM     45  C   UNL A   1      43.546  26.631  30.332  1.00  0.00     0.031 C 
ATOM     46  C   UNL A   1      39.710  28.591  27.767  1.00  0.00     0.029 A 
ATOM     47  N   UNL A   1      39.966  29.250  29.891  1.00  0.00    -0.354 N 
ATOM     48  C   UNL A   1      43.178  27.694  32.324  1.00  0.00     0.074 A 
ATOM     49  C   UNL A   1      43.977  26.745  31.579  1.00  0.00     0.031 C 
ATOM     50  C   UNL A   1      38.732  29.472  28.043  1.00  0.00     0.029 A 
ATOM     51  C   UNL A   1      38.858  29.914  29.431  1.00  0.00     0.049 A 
ATOM     52  H   UNL A   1      40.318  29.358  30.804  1.00  0.00     0.167 HD
ATOM     53  C   UNL A   1      43.413  28.047  33.610  1.00  0.00     0.037 A 
ATOM     54  C   UNL A   1      38.038  30.776  30.063  1.00  0.00     0.037 A 
ATOM     55  C   UNL A   1      42.614  28.984  34.354  1.00  0.00     0.049 A 
ATOM     56  C   UNL A   1      38.289  31.112  31.510  1.00  0.00     0.074 A 
ATOM     57  C   UNL A   1      42.782  29.420  35.655  1.00  0.00     0.029 A 
ATOM     58  N   UNL A   1      41.484  29.620  33.860  1.00  0.00    -0.354 N 
ATOM     59  N   UNL A   1      39.255  30.711  32.302  1.00  0.00    -0.248 NA
ATOM     60  C   UNL A   1      37.324  32.013  32.157  1.00  0.00     0.031 C 
ATOM     61  C   UNL A   1      41.724  30.282  35.967  1.00  0.00     0.029 A 
ATOM     62  C   UNL A   1      40.926  30.422  34.843  1.00  0.00     0.049 A 
ATOM     63  H   UNL A   1      41.132  29.520  32.946  1.00  0.00     0.167 HD
ATOM     64  C   UNL A   1      39.028  31.325  33.526  1.00  0.00     0.074 A 
ATOM     65  C   UNL A   1      37.839  32.136  33.372  1.00  0.00     0.031 C 
ATOM     66  C   UNL A   1      39.741  31.224  34.676  1.00  0.00     0.037 A 
BRANCH  53  67
ATOM     67  C   UNL A   1      44.563  27.380  34.303  1.00  0.00     0.064 A 
ATOM     68  C   UNL A   1      44.409  26.162  34.983  1.00  0.00     0.173 A 
ATOM     69  C   UNL A   1      45.837  27.964  34.281  1.00  0.00     0.173 A 
ATOM     70  F   UNL A   1      43.206  25.572  35.048  1.00  0.00    -0.203 F 
ATOM     71  C   UNL A   1      45.483  25.571  35.642  1.00  0.00     0.198 A 
ATOM     72  C   UNL A   1      46.916  27.354  34.917  1.00  0.00     0.198 A 
ATOM     73  F   UNL A   1      46.038  29.127  33.643  1.00  0.00    -0.203 F 
ATOM     74  F   UNL A   1      45.303  24.435  36.330  1.00  0.00    -0.200 F 
ATOM     75  C   UNL A   1      46.736  26.164  35.604  1.00  0.00     0.200 A 
ATOM     76  F   UNL A   1      48.127  27.925  34.871  1.00  0.00    -0.200 F 
ATOM     77  F   UNL A   1      47.769  25.593  36.239  1.00  0.00    -0.200 F 
ENDBRANCH  53  67
BRANCH  54  78
ATOM     78  C   UNL A   1      36.898  31.384  29.333  1.00  0.00     0.064 A 
ATOM     79  C   UNL A   1      36.914  32.741  28.980  1.00  0.00     0.173 A 
ATOM     80  C   UNL A   1      35.771  30.630  28.980  1.00  0.00     0.173 A 
ATOM     81  F   UNL A   1      37.959  33.511  29.317  1.00  0.00    -0.203 F 
ATOM     82  C   UNL A   1      35.840  33.322  28.310  1.00  0.00     0.198 A 
ATOM     83  C   UNL A   1      34.707  31.207  28.290  1.00  0.00     0.198 A 
ATOM     84  F   UNL A   1      35.706  29.329  29.298  1.00  0.00    -0.203 F 
ATOM     85  F   UNL A   1      35.869  34.627  28.008  1.00  0.00    -0.200 F 
ATOM     86  C   UNL A   1      34.740  32.553  27.962  1.00  0.00     0.200 A 
ATOM     87  F   UNL A   1      33.650  30.459  27.945  1.00  0.00    -0.200 F 
ATOM     88  F   UNL A   1      33.710  33.113  27.312  1.00  0.00    -0.200 F 
ENDBRANCH  54  78
BRANCH  66  89
ATOM     89  C   UNL A   1      39.270  32.026  35.854  1.00  0.00     0.064 A 
ATOM     90  C   UNL A   1      39.680  33.353  36.052  1.00  0.00     0.173 A 
ATOM     91  C   UNL A   1      38.356  31.477  36.768  1.00  0.00     0.173 A 
ATOM     92  F   UNL A   1      40.563  33.919  35.215  1.00  0.00    -0.203 F 
ATOM     93  C   UNL A   1      39.209  34.093  37.133  1.00  0.00     0.198 A 
ATOM     94  C   UNL A   1      37.867  32.230  37.832  1.00  0.00     0.198 A 
ATOM     95  F   UNL A   1      37.927  30.215  36.619  1.00  0.00    -0.203 F 
ATOM     96  F   UNL A   1      39.647  35.345  37.327  1.00  0.00    -0.200 F 
ATOM     97  C   UNL A   1      38.298  33.534  38.017  1.00  0.00     0.200 A 
ATOM     98  F   UNL A   1      36.976  31.693  38.677  1.00  0.00    -0.200 F 
ATOM     99  F   UNL A   1      37.840  34.251  39.053  1.00  0.00    -0.200 F 
ENDBRANCH  66  89
ENDBRANCH  40  41
ENDBRANCH  33  35
ENDBRANCH  32  33
ENDBRANCH  31  32
ENDBRANCH  30  31
ENDBRANCH  29  30
ENDBRANCH  28  29
ENDBRANCH   1  28
TORSDOF 19
ENDMDL
MODEL 2
REMARK VINA RESULT:     -11.2      5.033      7.319
REMARK SMILES CC1=C(C(=O)OCCOCCOCCOC(=O)c2ccc(-c3c4nc(c(-c5c(F)c(F)c(F)c(F)c5F)c5ccc([nH]5)c(-c5c(F)c(F)c(F)c(F)c5F)c5nc(c(-c6c(F)c(F)c(F)c(F)c6F)c6ccc3[nH]6)C=C5)C=C4)cc2)N2C(=O)[C@@H](NC(=O)c3ccn(C)n3)[C@H]2SC1
REMARK SMILES IDX 10 1 9 2 8 3 7 4 6 5 4 6 5 7 3 8 1 9 2 10 96 11 81 12 95 13
REMARK SMILES IDX 82 14 94 15 83 16 84 17 85 18 86 19 87 21 88 22 89 23 93 24
REMARK SMILES IDX 90 25 91 26 92 27 11 28 12 29 13 30 14 31 15 32 16 33 17 34
REMARK SMILES IDX 18 35 19 36 80 37 20 38 79 39 21 40 22 41 23 42 73 43 24 44
REMARK SMILES IDX 78 45 72 46 74 47 25 48 77 49 71 50 70 51 26 53 58 54 38 55
REMARK SMILES IDX 57 56 39 57 42 58 56 59 75 60 40 61 41 62 55 64 76 65 43 66
REMARK SMILES IDX 27 67 28 68 36 69 29 70 30 71 34 72 37 73 31 74 32 75 35 76
REMARK SMILES IDX 33 77 59 78 60 79 68 80 61 81 62 82 66 83 69 84 63 85 64 86
REMARK SMILES IDX 67 87 65 88 44 89 45 90 53 91 46 92 47 93 51 94 54 95 48 96
REMARK SMILES IDX 49 97 52 98 50 99
REMARK H PARENT 85 20 74 52 42 63
REMARK Flexibility Score: inf
ROOT
ATOM      1  C   UNL A   1      40.011  22.581  26.909  1.00  0.00     0.188 C 
ENDROOT
BRANCH   1   2
ATOM      2  O   UNL A   1      38.804  22.605  26.162  1.00  0.00    -0.376 OA
BRANCH   2   3
ATOM      3  C   UNL A   1      38.393  21.417  25.490  1.00  0.00     0.202 C 
BRANCH   3   4
ATOM      4  C   UNL A   1      37.103  21.477  24.677  1.00  0.00     0.261 C 
BRANCH   4   5
ATOM      5  O   UNL A   1      36.089  20.669  25.296  1.00  0.00    -0.459 OA
BRANCH   5   6
ATOM      6  C   UNL A   1      34.971  21.329  25.682  1.00  0.00     0.355 C 
ATOM      7  O   UNL A   1      34.853  22.022  26.682  1.00  0.00    -0.244 OA
BRANCH   6   8
ATOM      8  C   UNL A   1      33.875  21.180  24.669  1.00  0.00     0.131 C 
ATOM      9  C   UNL A   1      33.435  18.729  25.149  1.00  0.00     0.043 C 
ATOM     10  C   UNL A   1      33.205  20.029  24.419  1.00  0.00    -0.032 C 
ATOM     11  C   UNL A   1      32.131  19.891  23.344  1.00  0.00     0.105 C 
ATOM     12  N   UNL A   1      33.519  22.319  24.020  1.00  0.00    -0.289 N 
ATOM     13  S   UNL A   1      32.111  21.234  22.110  1.00  0.00    -0.129 SA
ATOM     14  C   UNL A   1      34.109  23.462  23.609  1.00  0.00     0.253 C 
ATOM     15  C   UNL A   1      32.244  22.518  23.378  1.00  0.00     0.181 C 
ATOM     16  O   UNL A   1      35.245  23.866  23.660  1.00  0.00    -0.272 OA
ATOM     17  C   UNL A   1      32.763  23.919  22.961  1.00  0.00     0.206 C 
BRANCH  17  18
ATOM     18  N   UNL A   1      32.765  24.243  21.515  1.00  0.00    -0.336 N 
ATOM     19  C   UNL A   1      32.556  25.495  20.966  1.00  0.00     0.272 C 
ATOM     20  H   UNL A   1      32.930  23.501  20.889  1.00  0.00     0.164 HD
ATOM     21  O   UNL A   1      32.407  25.605  19.751  1.00  0.00    -0.267 OA
BRANCH  19  22
ATOM     22  C   UNL A   1      32.517  26.625  21.902  1.00  0.00     0.150 A 
ATOM     23  C   UNL A   1      33.630  27.253  22.521  1.00  0.00     0.056 A 
ATOM     24  N   UNL A   1      31.363  27.122  22.383  1.00  0.00    -0.168 NA
ATOM     25  C   UNL A   1      33.099  28.179  23.384  1.00  0.00     0.109 A 
ATOM     26  N   UNL A   1      31.746  28.079  23.246  1.00  0.00    -0.275 N 
ATOM     27  C   UNL A   1      30.759  28.827  23.988  1.00  0.00     0.173 C 
ENDBRANCH  19  22
ENDBRANCH  17  18
ENDBRANCH   6   8
ENDBRANCH   5   6
ENDBRANCH   4   5
ENDBRANCH   3   4
ENDBRANCH   2   3
ENDBRANCH   1   2
BRANCH   1  28
ATOM     28  C   UNL A   1      41.227  21.797  26.370  1.00  0.00     0.188 C 
BRANCH  28  29
ATOM     29  O   UNL A   1      41.971  20.920  27.198  1.00  0.00    -0.376 OA
BRANCH  29  30
ATOM     30  C   UNL A   1      41.897  19.518  26.990  1.00  0.00     0.202 C 
BRANCH  30  31
ATOM     31  C   UNL A   1      42.890  18.821  26.055  1.00  0.00     0.261 C 
BRANCH  31  32
ATOM     32  O   UNL A   1      43.076  19.479  24.796  1.00  0.00    -0.460 OA
BRANCH  32  33
ATOM     33  C   UNL A   1      44.368  19.657  24.430  1.00  0.00     0.338 C 
ATOM     34  O   UNL A   1      45.079  18.891  23.804  1.00  0.00    -0.246 OA
BRANCH  33  35
ATOM     35  C   UNL A   1      44.777  21.034  24.757  1.00  0.00     0.060 A 
ATOM     36  C   UNL A   1      45.311  21.282  26.028  1.00  0.00     0.016 A 
ATOM     37  C   UNL A   1      44.594  22.073  23.844  1.00  0.00     0.016 A 
ATOM     38  C   UNL A   1      45.641  22.582  26.403  1.00  0.00     0.010 A 
ATOM     39  C   UNL A   1      44.902  23.379  24.229  1.00  0.00     0.010 A 
ATOM     40  C   UNL A   1      45.398  23.641  25.518  1.00  0.00    -0.014 A 
BRANCH  40  41
ATOM     41  C   UNL A   1      45.501  25.036  26.000  1.00  0.00     0.031 A 
ATOM     42  C   UNL A   1      46.832  25.727  25.924  1.00  0.00     0.074 A 
ATOM     43  C   UNL A   1      44.433  25.674  26.505  1.00  0.00     0.049 A 
ATOM     44  N   UNL A   1      47.171  26.925  26.324  1.00  0.00    -0.248 NA
ATOM     45  C   UNL A   1      47.932  24.953  25.328  1.00  0.00     0.031 C 
ATOM     46  C   UNL A   1      43.090  25.113  26.616  1.00  0.00     0.029 A 
ATOM     47  N   UNL A   1      44.320  26.938  27.025  1.00  0.00    -0.354 N 
ATOM     48  C   UNL A   1      48.523  27.049  26.031  1.00  0.00     0.074 A 
ATOM     49  C   UNL A   1      48.948  25.795  25.447  1.00  0.00     0.031 C 
ATOM     50  C   UNL A   1      42.285  26.032  27.178  1.00  0.00     0.029 A 
ATOM     51  C   UNL A   1      43.059  27.236  27.474  1.00  0.00     0.049 A 
ATOM     52  H   UNL A   1      45.072  27.571  27.073  1.00  0.00     0.167 HD
ATOM     53  C   UNL A   1      49.335  28.113  26.231  1.00  0.00     0.037 A 
ATOM     54  C   UNL A   1      42.589  28.352  28.063  1.00  0.00     0.037 A 
ATOM     55  C   UNL A   1      48.914  29.357  26.820  1.00  0.00     0.049 A 
ATOM     56  C   UNL A   1      43.526  29.504  28.324  1.00  0.00     0.074 A 
ATOM     57  C   UNL A   1      49.659  30.500  27.048  1.00  0.00     0.029 A 
ATOM     58  N   UNL A   1      47.632  29.614  27.284  1.00  0.00    -0.354 N 
ATOM     59  N   UNL A   1      44.796  29.627  28.023  1.00  0.00    -0.248 NA
ATOM     60  C   UNL A   1      42.963  30.669  29.022  1.00  0.00     0.031 C 
ATOM     61  C   UNL A   1      48.841  31.431  27.698  1.00  0.00     0.029 A 
ATOM     62  C   UNL A   1      47.573  30.887  27.828  1.00  0.00     0.049 A 
ATOM     63  H   UNL A   1      46.875  28.986  27.232  1.00  0.00     0.167 HD
ATOM     64  C   UNL A   1      45.178  30.884  28.472  1.00  0.00     0.074 A 
ATOM     65  C   UNL A   1      44.001  31.493  29.056  1.00  0.00     0.031 C 
ATOM     66  C   UNL A   1      46.394  31.480  28.406  1.00  0.00     0.037 A 
BRANCH  53  67
ATOM     67  C   UNL A   1      50.775  27.955  25.846  1.00  0.00     0.064 A 
ATOM     68  C   UNL A   1      51.206  28.110  24.519  1.00  0.00     0.173 A 
ATOM     69  C   UNL A   1      51.738  27.651  26.819  1.00  0.00     0.173 A 
ATOM     70  F   UNL A   1      50.321  28.384  23.549  1.00  0.00    -0.203 F 
ATOM     71  C   UNL A   1      52.544  27.935  24.177  1.00  0.00     0.198 A 
ATOM     72  C   UNL A   1      53.080  27.504  26.477  1.00  0.00     0.198 A 
ATOM     73  F   UNL A   1      51.378  27.493  28.102  1.00  0.00    -0.203 F 
ATOM     74  F   UNL A   1      52.926  28.035  22.897  1.00  0.00    -0.200 F 
ATOM     75  C   UNL A   1      53.480  27.637  25.157  1.00  0.00     0.200 A 
ATOM     76  F   UNL A   1      53.984  27.226  27.426  1.00  0.00    -0.200 F 
ATOM     77  F   UNL A   1      54.768  27.469  24.826  1.00  0.00    -0.200 F 
ENDBRANCH  53  67
BRANCH  54  78
ATOM     78  C   UNL A   1      41.159  28.440  28.448  1.00  0.00     0.064 A 
ATOM     79  C   UNL A   1      40.208  28.970  27.564  1.00  0.00     0.173 A 
ATOM     80  C   UNL A   1      40.713  28.007  29.705  1.00  0.00     0.173 A 
ATOM     81  F   UNL A   1      40.589  29.422  26.361  1.00  0.00    -0.203 F 
ATOM     82  C   UNL A   1      38.868  29.071  27.927  1.00  0.00     0.198 A 
ATOM     83  C   UNL A   1      39.369  28.087  30.057  1.00  0.00     0.198 A 
ATOM     84  F   UNL A   1      41.584  27.496  30.587  1.00  0.00    -0.203 F 
ATOM     85  F   UNL A   1      37.984  29.606  27.073  1.00  0.00    -0.200 F 
ATOM     86  C   UNL A   1      38.448  28.625  29.171  1.00  0.00     0.200 A 
ATOM     87  F   UNL A   1      38.964  27.646  31.257  1.00  0.00    -0.200 F 
ATOM     88  F   UNL A   1      37.156  28.719  29.516  1.00  0.00    -0.200 F 
ENDBRANCH  54  78
BRANCH  66  89
ATOM     89  C   UNL A   1      46.514  32.870  28.960  1.00  0.00     0.064 A 
ATOM     90  C   UNL A   1      46.895  33.102  30.290  1.00  0.00     0.173 A 
ATOM     91  C   UNL A   1      46.294  33.985  28.136  1.00  0.00     0.173 A 
ATOM     92  F   UNL A   1      47.102  32.070  31.123  1.00  0.00    -0.203 F 
ATOM     93  C   UNL A   1      47.031  34.398  30.780  1.00  0.00     0.198 A 
ATOM     94  C   UNL A   1      46.458  35.279  28.622  1.00  0.00     0.198 A 
ATOM     95  F   UNL A   1      45.935  33.818  26.854  1.00  0.00    -0.203 F 
ATOM     96  F   UNL A   1      47.355  34.597  32.065  1.00  0.00    -0.200 F 
ATOM     97  C   UNL A   1      46.820  35.485  29.944  1.00  0.00     0.200 A 
ATOM     98  F   UNL A   1      46.267  36.328  27.809  1.00  0.00    -0.200 F 
ATOM     99  F   UNL A   1      46.960  36.732  30.415  1.00  0.00    -0.200 F 
ENDBRANCH  66  89
ENDBRANCH  40  41
ENDBRANCH  33  35
ENDBRANCH  32  33
ENDBRANCH  31  32
ENDBRANCH  30  31
ENDBRANCH  29  30
ENDBRANCH  28  29
ENDBRANCH   1  28
TORSDOF 19
ENDMDL
MODEL 3
REMARK VINA RESULT:     -11.1      5.114      9.162
REMARK SMILES CC1=C(C(=O)OCCOCCOCCOC(=O)c2ccc(-c3c4nc(c(-c5c(F)c(F)c(F)c(F)c5F)c5ccc([nH]5)c(-c5c(F)c(F)c(F)c(F)c5F)c5nc(c(-c6c(F)c(F)c(F)c(F)c6F)c6ccc3[nH]6)C=C5)C=C4)cc2)N2C(=O)[C@@H](NC(=O)c3ccn(C)n3)[C@H]2SC1
REMARK SMILES IDX 10 1 9 2 8 3 7 4 6 5 4 6 5 7 3 8 1 9 2 10 96 11 81 12 95 13
REMARK SMILES IDX 82 14 94 15 83 16 84 17 85 18 86 19 87 21 88 22 89 23 93 24
REMARK SMILES IDX 90 25 91 26 92 27 11 28 12 29 13 30 14 31 15 32 16 33 17 34
REMARK SMILES IDX 18 35 19 36 80 37 20 38 79 39 21 40 22 41 23 42 73 43 24 44
REMARK SMILES IDX 78 45 72 46 74 47 25 48 77 49 71 50 70 51 26 53 58 54 38 55
REMARK SMILES IDX 57 56 39 57 42 58 56 59 75 60 40 61 41 62 55 64 76 65 43 66
REMARK SMILES IDX 27 67 28 68 36 69 29 70 30 71 34 72 37 73 31 74 32 75 35 76
REMARK SMILES IDX 33 77 59 78 60 79 68 80 61 81 62 82 66 83 69 84 63 85 64 86
REMARK SMILES IDX 67 87 65 88 44 89 45 90 53 91 46 92 47 93 51 94 54 95 48 96
REMARK SMILES IDX 49 97 52 98 50 99
REMARK H PARENT 85 20 74 52 42 63
REMARK Flexibility Score: inf
ROOT
ATOM      1  C   UNL A   1      40.277  22.471  26.885  1.00  0.00     0.188 C 
ENDROOT
BRANCH   1   2
ATOM      2  O   UNL A   1      38.946  22.386  26.395  1.00  0.00    -0.376 OA
BRANCH   2   3
ATOM      3  C   UNL A   1      38.553  21.213  25.687  1.00  0.00     0.202 C 
BRANCH   3   4
ATOM      4  C   UNL A   1      37.452  21.358  24.641  1.00  0.00     0.261 C 
BRANCH   4   5
ATOM      5  O   UNL A   1      36.312  20.564  25.008  1.00  0.00    -0.459 OA
BRANCH   5   6
ATOM      6  C   UNL A   1      35.248  21.256  25.481  1.00  0.00     0.355 C 
ATOM      7  O   UNL A   1      35.228  21.945  26.491  1.00  0.00    -0.244 OA
BRANCH   6   8
ATOM      8  C   UNL A   1      34.073  21.146  24.555  1.00  0.00     0.131 C 
ATOM      9  C   UNL A   1      33.556  18.725  25.106  1.00  0.00     0.043 C 
ATOM     10  C   UNL A   1      33.334  20.025  24.373  1.00  0.00    -0.032 C 
ATOM     11  C   UNL A   1      32.177  19.926  23.384  1.00  0.00     0.105 C 
ATOM     12  N   UNL A   1      33.723  22.293  23.916  1.00  0.00    -0.289 N 
ATOM     13  S   UNL A   1      32.128  21.252  22.133  1.00  0.00    -0.129 SA
ATOM     14  C   UNL A   1      34.334  23.401  23.444  1.00  0.00     0.253 C 
ATOM     15  C   UNL A   1      32.414  22.544  23.367  1.00  0.00     0.181 C 
ATOM     16  O   UNL A   1      35.488  23.751  23.404  1.00  0.00    -0.272 OA
ATOM     17  C   UNL A   1      32.966  23.914  22.890  1.00  0.00     0.206 C 
BRANCH  17  18
ATOM     18  N   UNL A   1      32.875  24.219  21.443  1.00  0.00    -0.336 N 
ATOM     19  C   UNL A   1      32.579  25.453  20.893  1.00  0.00     0.272 C 
ATOM     20  H   UNL A   1      33.041  23.478  20.816  1.00  0.00     0.164 HD
ATOM     21  O   UNL A   1      32.360  25.541  19.687  1.00  0.00    -0.267 OA
BRANCH  19  22
ATOM     22  C   UNL A   1      32.539  26.591  21.818  1.00  0.00     0.150 A 
ATOM     23  C   UNL A   1      33.646  27.356  22.273  1.00  0.00     0.056 A 
ATOM     24  N   UNL A   1      31.412  26.965  22.450  1.00  0.00    -0.168 NA
ATOM     25  C   UNL A   1      33.135  28.235  23.195  1.00  0.00     0.109 A 
ATOM     26  N   UNL A   1      31.796  27.978  23.246  1.00  0.00    -0.275 N 
ATOM     27  C   UNL A   1      30.841  28.626  24.113  1.00  0.00     0.173 C 
ENDBRANCH  19  22
ENDBRANCH  17  18
ENDBRANCH   6   8
ENDBRANCH   5   6
ENDBRANCH   4   5
ENDBRANCH   3   4
ENDBRANCH   2   3
ENDBRANCH   1   2
BRANCH   1  28
ATOM     28  C   UNL A   1      41.402  21.681  26.181  1.00  0.00     0.188 C 
BRANCH  28  29
ATOM     29  O   UNL A   1      41.978  20.528  26.767  1.00  0.00    -0.376 OA
BRANCH  29  30
ATOM     30  C   UNL A   1      42.008  19.306  26.046  1.00  0.00     0.202 C 
BRANCH  30  31
ATOM     31  C   UNL A   1      43.327  18.773  25.480  1.00  0.00     0.261 C 
BRANCH  31  32
ATOM     32  O   UNL A   1      43.727  19.380  24.245  1.00  0.00    -0.460 OA
BRANCH  32  33
ATOM     33  C   UNL A   1      44.988  19.873  24.233  1.00  0.00     0.338 C 
ATOM     34  O   UNL A   1      45.974  19.390  23.705  1.00  0.00    -0.246 OA
BRANCH  33  35
ATOM     35  C   UNL A   1      44.986  21.221  24.829  1.00  0.00     0.060 A 
ATOM     36  C   UNL A   1      44.688  22.311  24.002  1.00  0.00     0.016 A 
ATOM     37  C   UNL A   1      45.319  21.412  26.171  1.00  0.00     0.016 A 
ATOM     38  C   UNL A   1      44.748  23.607  24.508  1.00  0.00     0.010 A 
ATOM     39  C   UNL A   1      45.403  22.712  26.672  1.00  0.00     0.010 A 
ATOM     40  C   UNL A   1      45.147  23.813  25.836  1.00  0.00    -0.014 A 
BRANCH  40  41
ATOM     41  C   UNL A   1      45.462  25.182  26.301  1.00  0.00     0.031 A 
ATOM     42  C   UNL A   1      44.361  26.011  26.898  1.00  0.00     0.074 A 
ATOM     43  C   UNL A   1      46.703  25.683  26.186  1.00  0.00     0.049 A 
ATOM     44  N   UNL A   1      44.390  27.244  27.332  1.00  0.00    -0.248 NA
ATOM     45  C   UNL A   1      43.045  25.361  27.006  1.00  0.00     0.031 C 
ATOM     46  C   UNL A   1      47.853  24.971  25.638  1.00  0.00     0.029 A 
ATOM     47  N   UNL A   1      47.193  26.919  26.522  1.00  0.00    -0.354 N 
ATOM     48  C   UNL A   1      43.099  27.519  27.762  1.00  0.00     0.074 A 
ATOM     49  C   UNL A   1      42.304  26.336  27.510  1.00  0.00     0.031 C 
ATOM     50  C   UNL A   1      48.920  25.788  25.671  1.00  0.00     0.029 A 
ATOM     51  C   UNL A   1      48.523  27.079  26.230  1.00  0.00     0.049 A 
ATOM     52  H   UNL A   1      46.643  27.624  26.933  1.00  0.00     0.167 HD
ATOM     53  C   UNL A   1      42.619  28.657  28.316  1.00  0.00     0.037 A 
ATOM     54  C   UNL A   1      49.324  28.150  26.391  1.00  0.00     0.037 A 
ATOM     55  C   UNL A   1      43.406  29.837  28.558  1.00  0.00     0.049 A 
ATOM     56  C   UNL A   1      48.754  29.423  26.961  1.00  0.00     0.074 A 
ATOM     57  C   UNL A   1      43.016  31.034  29.132  1.00  0.00     0.029 A 
ATOM     58  N   UNL A   1      44.748  29.970  28.227  1.00  0.00    -0.354 N 
ATOM     59  N   UNL A   1      47.540  29.672  27.389  1.00  0.00    -0.248 NA
ATOM     60  C   UNL A   1      49.666  30.572  27.056  1.00  0.00     0.031 C 
ATOM     61  C   UNL A   1      44.107  31.909  29.101  1.00  0.00     0.029 A 
ATOM     62  C   UNL A   1      45.191  31.241  28.555  1.00  0.00     0.049 A 
ATOM     63  H   UNL A   1      45.302  29.265  27.822  1.00  0.00     0.167 HD
ATOM     64  C   UNL A   1      47.548  30.991  27.823  1.00  0.00     0.074 A 
ATOM     65  C   UNL A   1      48.892  31.489  27.618  1.00  0.00     0.031 C 
ATOM     66  C   UNL A   1      46.533  31.724  28.344  1.00  0.00     0.037 A 
BRANCH  53  67
ATOM     67  C   UNL A   1      41.160  28.689  28.659  1.00  0.00     0.064 A 
ATOM     68  C   UNL A   1      40.690  28.311  29.926  1.00  0.00     0.173 A 
ATOM     69  C   UNL A   1      40.219  29.109  27.707  1.00  0.00     0.173 A 
ATOM     70  F   UNL A   1      41.548  27.885  30.865  1.00  0.00    -0.203 F 
ATOM     71  C   UNL A   1      39.329  28.322  30.216  1.00  0.00     0.198 A 
ATOM     72  C   UNL A   1      38.861  29.146  28.011  1.00  0.00     0.198 A 
ATOM     73  F   UNL A   1      40.617  29.481  26.481  1.00  0.00    -0.203 F 
ATOM     74  F   UNL A   1      38.897  27.908  31.415  1.00  0.00    -0.200 F 
ATOM     75  C   UNL A   1      38.416  28.745  29.261  1.00  0.00     0.200 A 
ATOM     76  F   UNL A   1      37.982  29.563  27.090  1.00  0.00    -0.200 F 
ATOM     77  F   UNL A   1      37.106  28.756  29.543  1.00  0.00    -0.200 F 
ENDBRANCH  53  67
BRANCH  54  78
ATOM     78  C   UNL A   1      50.755  28.069  26.007  1.00  0.00     0.064 A 
ATOM     79  C   UNL A   1      51.147  28.185  24.666  1.00  0.00     0.173 A 
ATOM     80  C   UNL A   1      51.758  27.867  26.966  1.00  0.00     0.173 A 
ATOM     81  F   UNL A   1      50.223  28.353  23.709  1.00  0.00    -0.203 F 
ATOM     82  C   UNL A   1      52.487  28.091  24.298  1.00  0.00     0.198 A 
ATOM     83  C   UNL A   1      53.099  27.797  26.599  1.00  0.00     0.198 A 
ATOM     84  F   UNL A   1      51.435  27.746  28.262  1.00  0.00    -0.203 F 
ATOM     85  F   UNL A   1      52.831  28.179  23.005  1.00  0.00    -0.200 F 
ATOM     86  C   UNL A   1      53.462  27.903  25.265  1.00  0.00     0.200 A 
ATOM     87  F   UNL A   1      54.042  27.625  27.537  1.00  0.00    -0.200 F 
ATOM     88  F   UNL A   1      54.751  27.819  24.909  1.00  0.00    -0.200 F 
ENDBRANCH  54  78
BRANCH  66  89
ATOM     89  C   UNL A   1      46.837  33.136  28.751  1.00  0.00     0.064 A 
ATOM     90  C   UNL A   1      46.655  34.211  27.868  1.00  0.00     0.173 A 
ATOM     91  C   UNL A   1      47.268  33.423  30.056  1.00  0.00     0.173 A 
ATOM     92  F   UNL A   1      46.259  33.989  26.606  1.00  0.00    -0.203 F 
ATOM     93  C   UNL A   1      46.913  35.519  28.271  1.00  0.00     0.198 A 
ATOM     94  C   UNL A   1      47.497  34.735  30.463  1.00  0.00     0.198 A 
ATOM     95  F   UNL A   1      47.450  32.432  30.941  1.00  0.00    -0.203 F 
ATOM     96  F   UNL A   1      46.772  36.527  27.398  1.00  0.00    -0.200 F 
ATOM     97  C   UNL A   1      47.326  35.780  29.569  1.00  0.00     0.200 A 
ATOM     98  F   UNL A   1      47.883  34.986  31.721  1.00  0.00    -0.200 F 
ATOM     99  F   UNL A   1      47.565  37.041  29.957  1.00  0.00    -0.200 F 
ENDBRANCH  66  89
ENDBRANCH  40  41
ENDBRANCH  33  35
ENDBRANCH  32  33
ENDBRANCH  31  32
ENDBRANCH  30  31
ENDBRANCH  29  30
ENDBRANCH  28  29
ENDBRANCH   1  28
TORSDOF 19
ENDMDL
