MODEL 1
REMARK VINA RESULT:     -12.9      0.000      0.000
REMARK SMILES Cc1nn(C(C)C)c(C)c1S(=O)(=O)Nc1cccc(C(=O)OCCOCCOCCOC(=O)c2ccc(-c3c4nc(c(-c5c(F)c(F)c(F)c(F)c5F)c5ccc([nH]5)c(-c5c(F)c(F)c(F)c(F)c5F)c5nc(c(-c6c(F)c(F)c(F)c(F)c6F)c6ccc3[nH]6)C=C5)C=C4)cc2)c1C
REMARK SMILES IDX 26 1 25 2 24 3 23 4 22 5 20 6 21 7 19 8 15 9 16 10 97 11
REMARK SMILES IDX 17 12 98 13 18 14 14 15 11 17 12 18 13 19 10 20 1 21 2 22
REMARK SMILES IDX 3 23 4 24 8 25 9 26 5 27 6 28 7 29 27 30 28 31 29 32 30 33
REMARK SMILES IDX 31 34 32 35 33 36 34 37 35 38 96 39 36 40 95 41 37 42 38 43
REMARK SMILES IDX 39 44 89 45 40 46 94 47 88 48 90 49 41 50 93 51 87 52 86 53
REMARK SMILES IDX 42 55 74 56 54 57 73 58 55 59 58 60 72 61 91 62 56 63 57 64
REMARK SMILES IDX 71 66 92 67 59 68 43 69 44 70 52 71 45 72 46 73 50 74 53 75
REMARK SMILES IDX 47 76 48 77 51 78 49 79 75 80 76 81 84 82 77 83 78 84 82 85
REMARK SMILES IDX 85 86 79 87 80 88 83 89 81 90 60 91 61 92 69 93 62 94 63 95
REMARK SMILES IDX 67 96 70 97 64 98 65 99 68 100 66 101
REMARK H PARENT 14 16 90 54 58 65
REMARK Flexibility Score: inf
ROOT
ATOM      1  C   UNL A   1      32.950  34.107  27.931  1.00  0.00     0.188 C 
ENDROOT
BRANCH   1   2
ATOM      2  O   UNL A   1      31.770  33.341  27.586  1.00  0.00    -0.376 OA
BRANCH   2   3
ATOM      3  C   UNL A   1      31.602  32.522  26.417  1.00  0.00     0.202 C 
BRANCH   3   4
ATOM      4  C   UNL A   1      31.782  30.830  26.418  1.00  0.00     0.261 C 
BRANCH   4   5
ATOM      5  O   UNL A   1      31.379  29.689  25.232  1.00  0.00    -0.460 OA
BRANCH   5   6
ATOM      6  C   UNL A   1      32.080  28.893  24.277  1.00  0.00     0.338 C 
ATOM      7  O   UNL A   1      33.002  29.230  23.543  1.00  0.00    -0.246 OA
BRANCH   6   8
ATOM      8  C   UNL A   1      31.833  27.486  23.909  1.00  0.00     0.065 A 
ATOM      9  C   UNL A   1      32.438  25.109  24.231  1.00  0.00     0.053 A 
ATOM     10  C   UNL A   1      32.253  24.915  22.868  1.00  0.00     0.027 A 
ATOM     11  C   UNL A   1      32.270  26.394  24.780  1.00  0.00    -0.012 A 
ATOM     12  C   UNL A   1      31.855  25.976  22.042  1.00  0.00     0.003 A 
ATOM     13  C   UNL A   1      32.621  26.520  26.256  1.00  0.00     0.047 C 
ATOM     14  C   UNL A   1      31.636  27.255  22.555  1.00  0.00     0.016 A 
BRANCH   9  15
ATOM     15  N   UNL A   1      32.707  23.981  25.058  1.00  0.00    -0.279 N 
ATOM     16  H   UNL A   1      31.950  23.624  25.576  1.00  0.00     0.180 HD
BRANCH  15  17
ATOM     17  S   UNL A   1      34.180  23.199  25.243  1.00  0.00     0.265 S 
ATOM     18  O   UNL A   1      34.458  23.312  26.663  1.00  0.00    -0.201 OA
ATOM     19  O   UNL A   1      35.085  23.803  24.287  1.00  0.00    -0.201 OA
BRANCH  17  20
ATOM     20  C   UNL A   1      34.333  21.512  24.922  1.00  0.00     0.131 A 
ATOM     21  C   UNL A   1      36.887  20.996  25.376  1.00  0.00     0.070 C 
ATOM     22  C   UNL A   1      35.492  20.699  24.976  1.00  0.00     0.080 A 
ATOM     23  N   UNL A   1      35.207  19.426  24.671  1.00  0.00    -0.176 NA
ATOM     24  N   UNL A   1      33.867  19.377  24.620  1.00  0.00    -0.266 N 
ATOM     25  C   UNL A   1      33.279  20.598  24.835  1.00  0.00     0.056 A 
ATOM     26  C   UNL A   1      31.806  20.756  25.003  1.00  0.00     0.068 C 
BRANCH  24  27
ATOM     27  C   UNL A   1      33.220  18.082  24.408  1.00  0.00     0.101 C 
ATOM     28  C   UNL A   1      34.072  17.193  23.503  1.00  0.00     0.033 C 
ATOM     29  C   UNL A   1      32.896  17.384  25.731  1.00  0.00     0.033 C 
ENDBRANCH  24  27
ENDBRANCH  17  20
ENDBRANCH  15  17
ENDBRANCH   9  15
ENDBRANCH   6   8
ENDBRANCH   5   6
ENDBRANCH   4   5
ENDBRANCH   3   4
ENDBRANCH   2   3
ENDBRANCH   1   2
BRANCH   1  30
ATOM     30  C   UNL A   1      33.028  35.135  29.064  1.00  0.00     0.188 C 
BRANCH  30  31
ATOM     31  O   UNL A   1      34.291  35.079  29.696  1.00  0.00    -0.376 OA
BRANCH  31  32
ATOM     32  C   UNL A   1      34.457  34.028  30.635  1.00  0.00     0.202 C 
BRANCH  32  33
ATOM     33  C   UNL A   1      35.684  33.149  30.329  1.00  0.00     0.261 C 
BRANCH  33  34
ATOM     34  O   UNL A   1      35.271  31.828  29.905  1.00  0.00    -0.460 OA
BRANCH  34  35
ATOM     35  C   UNL A   1      35.626  31.430  28.640  1.00  0.00     0.338 C 
ATOM     36  O   UNL A   1      35.185  31.913  27.607  1.00  0.00    -0.246 OA
BRANCH  35  37
ATOM     37  C   UNL A   1      36.415  30.151  28.704  1.00  0.00     0.060 A 
ATOM     38  C   UNL A   1      36.777  29.462  29.872  1.00  0.00     0.016 A 
ATOM     39  C   UNL A   1      37.153  29.862  27.609  1.00  0.00     0.016 A 
ATOM     40  C   UNL A   1      37.988  28.640  29.938  1.00  0.00     0.010 A 
ATOM     41  C   UNL A   1      38.413  29.311  27.853  1.00  0.00     0.010 A 
ATOM     42  C   UNL A   1      38.943  28.565  28.910  1.00  0.00    -0.014 A 
BRANCH  42  43
ATOM     43  C   UNL A   1      40.491  28.023  29.008  1.00  0.00     0.031 A 
ATOM     44  C   UNL A   1      41.372  26.647  28.517  1.00  0.00     0.074 A 
ATOM     45  C   UNL A   1      41.313  28.890  29.651  1.00  0.00     0.049 A 
ATOM     46  N   UNL A   1      42.491  26.255  29.118  1.00  0.00    -0.248 NA
ATOM     47  C   UNL A   1      41.121  25.578  27.469  1.00  0.00     0.031 C 
ATOM     48  C   UNL A   1      42.773  28.926  29.618  1.00  0.00     0.029 A 
ATOM     49  N   UNL A   1      40.978  29.900  30.568  1.00  0.00    -0.354 N 
ATOM     50  C   UNL A   1      43.048  25.199  28.388  1.00  0.00     0.074 A 
ATOM     51  C   UNL A   1      42.011  24.621  27.650  1.00  0.00     0.031 C 
ATOM     52  C   UNL A   1      43.211  29.643  30.660  1.00  0.00     0.029 A 
ATOM     53  C   UNL A   1      42.058  29.990  31.462  1.00  0.00     0.049 A 
ATOM     54  H   UNL A   1      40.153  30.438  30.580  1.00  0.00     0.167 HD
ATOM     55  C   UNL A   1      44.377  24.972  28.229  1.00  0.00     0.037 A 
ATOM     56  C   UNL A   1      41.906  29.793  32.799  1.00  0.00     0.037 A 
ATOM     57  C   UNL A   1      45.105  25.600  29.292  1.00  0.00     0.049 A 
ATOM     58  C   UNL A   1      42.824  28.744  33.373  1.00  0.00     0.074 A 
ATOM     59  C   UNL A   1      45.952  26.681  29.381  1.00  0.00     0.029 A 
ATOM     60  N   UNL A   1      44.757  25.240  30.584  1.00  0.00    -0.354 N 
ATOM     61  N   UNL A   1      43.620  28.004  32.652  1.00  0.00    -0.248 NA
ATOM     62  C   UNL A   1      42.891  28.400  34.791  1.00  0.00     0.031 C 
ATOM     63  C   UNL A   1      46.001  27.055  30.755  1.00  0.00     0.029 A 
ATOM     64  C   UNL A   1      45.241  26.157  31.487  1.00  0.00     0.049 A 
ATOM     65  H   UNL A   1      44.236  24.440  30.823  1.00  0.00     0.167 HD
ATOM     66  C   UNL A   1      44.182  27.033  33.434  1.00  0.00     0.074 A 
ATOM     67  C   UNL A   1      43.749  27.364  34.776  1.00  0.00     0.031 C 
ATOM     68  C   UNL A   1      44.896  26.004  32.892  1.00  0.00     0.037 A 
BRANCH  55  69
ATOM     69  C   UNL A   1      44.998  24.249  27.023  1.00  0.00     0.064 A 
ATOM     70  C   UNL A   1      44.766  22.874  26.823  1.00  0.00     0.173 A 
ATOM     71  C   UNL A   1      45.922  24.813  26.099  1.00  0.00     0.173 A 
ATOM     72  F   UNL A   1      43.960  22.190  27.645  1.00  0.00    -0.203 F 
ATOM     73  C   UNL A   1      45.378  22.145  25.788  1.00  0.00     0.198 A 
ATOM     74  C   UNL A   1      46.466  24.105  25.021  1.00  0.00     0.198 A 
ATOM     75  F   UNL A   1      46.415  26.051  26.234  1.00  0.00    -0.203 F 
ATOM     76  F   UNL A   1      45.173  20.824  25.691  1.00  0.00    -0.200 F 
ATOM     77  C   UNL A   1      46.206  22.764  24.872  1.00  0.00     0.200 A 
ATOM     78  F   UNL A   1      47.278  24.733  24.155  1.00  0.00    -0.200 F 
ATOM     79  F   UNL A   1      46.781  22.071  23.879  1.00  0.00    -0.200 F 
ENDBRANCH  55  69
BRANCH  56  80
ATOM     80  C   UNL A   1      40.560  30.189  33.296  1.00  0.00     0.064 A 
ATOM     81  C   UNL A   1      40.285  31.572  33.375  1.00  0.00     0.173 A 
ATOM     82  C   UNL A   1      39.463  29.317  33.287  1.00  0.00     0.173 A 
ATOM     83  F   UNL A   1      41.298  32.454  33.367  1.00  0.00    -0.203 F 
ATOM     84  C   UNL A   1      38.984  32.064  33.318  1.00  0.00     0.198 A 
ATOM     85  C   UNL A   1      38.153  29.816  33.257  1.00  0.00     0.198 A 
ATOM     86  F   UNL A   1      39.648  27.997  33.157  1.00  0.00    -0.203 F 
ATOM     87  F   UNL A   1      38.771  33.386  33.244  1.00  0.00    -0.200 F 
ATOM     88  C   UNL A   1      37.919  31.186  33.234  1.00  0.00     0.200 A 
ATOM     89  F   UNL A   1      37.121  28.974  33.097  1.00  0.00    -0.200 F 
ATOM     90  F   UNL A   1      36.676  31.655  33.048  1.00  0.00    -0.200 F 
ENDBRANCH  56  80
BRANCH  68  91
ATOM     91  C   UNL A   1      45.307  24.737  33.607  1.00  0.00     0.064 A 
ATOM     92  C   UNL A   1      44.506  23.586  33.695  1.00  0.00     0.173 A 
ATOM     93  C   UNL A   1      46.632  24.595  34.088  1.00  0.00     0.173 A 
ATOM     94  F   UNL A   1      43.277  23.549  33.166  1.00  0.00    -0.203 F 
ATOM     95  C   UNL A   1      44.972  22.405  34.279  1.00  0.00     0.198 A 
ATOM     96  C   UNL A   1      47.112  23.396  34.610  1.00  0.00     0.198 A 
ATOM     97  F   UNL A   1      47.506  25.612  34.034  1.00  0.00    -0.203 F 
ATOM     98  F   UNL A   1      44.153  21.348  34.381  1.00  0.00    -0.200 F 
ATOM     99  C   UNL A   1      46.277  22.305  34.724  1.00  0.00     0.200 A 
ATOM    100  F   UNL A   1      48.397  23.298  34.983  1.00  0.00    -0.200 F 
ATOM    101  F   UNL A   1      46.731  21.156  35.240  1.00  0.00    -0.200 F 
ENDBRANCH  68  91
ENDBRANCH  42  43
ENDBRANCH  35  37
ENDBRANCH  34  35
ENDBRANCH  33  34
ENDBRANCH  32  33
ENDBRANCH  31  32
ENDBRANCH  30  31
ENDBRANCH   1  30
TORSDOF 21
ENDMDL
MODEL 2
REMARK VINA RESULT:     -12.5      1.424      2.067
REMARK SMILES Cc1nn(C(C)C)c(C)c1S(=O)(=O)Nc1cccc(C(=O)OCCOCCOCCOC(=O)c2ccc(-c3c4nc(c(-c5c(F)c(F)c(F)c(F)c5F)c5ccc([nH]5)c(-c5c(F)c(F)c(F)c(F)c5F)c5nc(c(-c6c(F)c(F)c(F)c(F)c6F)c6ccc3[nH]6)C=C5)C=C4)cc2)c1C
REMARK SMILES IDX 26 1 25 2 24 3 23 4 22 5 20 6 21 7 19 8 15 9 16 10 97 11
REMARK SMILES IDX 17 12 98 13 18 14 14 15 11 17 12 18 13 19 10 20 1 21 2 22
REMARK SMILES IDX 3 23 4 24 8 25 9 26 5 27 6 28 7 29 27 30 28 31 29 32 30 33
REMARK SMILES IDX 31 34 32 35 33 36 34 37 35 38 96 39 36 40 95 41 37 42 38 43
REMARK SMILES IDX 39 44 89 45 40 46 94 47 88 48 90 49 41 50 93 51 87 52 86 53
REMARK SMILES IDX 42 55 74 56 54 57 73 58 55 59 58 60 72 61 91 62 56 63 57 64
REMARK SMILES IDX 71 66 92 67 59 68 43 69 44 70 52 71 45 72 46 73 50 74 53 75
REMARK SMILES IDX 47 76 48 77 51 78 49 79 75 80 76 81 84 82 77 83 78 84 82 85
REMARK SMILES IDX 85 86 79 87 80 88 83 89 81 90 60 91 61 92 69 93 62 94 63 95
REMARK SMILES IDX 67 96 70 97 64 98 65 99 68 100 66 101
REMARK H PARENT 14 16 90 54 58 65
REMARK Flexibility Score: inf
ROOT
ATOM      1  C   UNL A   1      33.020  34.230  27.993  1.00  0.00     0.188 C 
ENDROOT
BRANCH   1   2
ATOM      2  O   UNL A   1      31.786  33.632  27.525  1.00  0.00    -0.376 OA
BRANCH   2   3
ATOM      3  C   UNL A   1      31.646  32.746  26.402  1.00  0.00     0.202 C 
BRANCH   3   4
ATOM      4  C   UNL A   1      31.665  31.050  26.533  1.00  0.00     0.261 C 
BRANCH   4   5
ATOM      5  O   UNL A   1      31.215  29.864  25.409  1.00  0.00    -0.460 OA
BRANCH   5   6
ATOM      6  C   UNL A   1      31.877  29.032  24.457  1.00  0.00     0.338 C 
ATOM      7  O   UNL A   1      32.982  29.193  23.951  1.00  0.00    -0.246 OA
BRANCH   6   8
ATOM      8  C   UNL A   1      31.371  27.804  23.814  1.00  0.00     0.065 A 
ATOM      9  C   UNL A   1      31.038  25.358  23.964  1.00  0.00     0.053 A 
ATOM     10  C   UNL A   1      31.347  25.269  22.613  1.00  0.00     0.027 A 
ATOM     11  C   UNL A   1      31.075  26.610  24.606  1.00  0.00    -0.012 A 
ATOM     12  C   UNL A   1      31.650  26.420  21.872  1.00  0.00     0.003 A 
ATOM     13  C   UNL A   1      30.844  26.575  26.111  1.00  0.00     0.047 C 
ATOM     14  C   UNL A   1      31.656  27.685  22.461  1.00  0.00     0.016 A 
BRANCH   9  15
ATOM     15  N   UNL A   1      30.600  24.189  24.651  1.00  0.00    -0.279 N 
ATOM     16  H   UNL A   1      29.667  24.183  24.961  1.00  0.00     0.180 HD
BRANCH  15  17
ATOM     17  S   UNL A   1      31.512  22.820  24.986  1.00  0.00     0.265 S 
ATOM     18  O   UNL A   1      31.551  22.110  23.721  1.00  0.00    -0.201 OA
ATOM     19  O   UNL A   1      30.898  22.194  26.138  1.00  0.00    -0.201 OA
BRANCH  17  20
ATOM     20  C   UNL A   1      33.170  22.951  25.442  1.00  0.00     0.131 A 
ATOM     21  C   UNL A   1      33.197  22.225  27.986  1.00  0.00     0.070 C 
ATOM     22  C   UNL A   1      33.764  22.712  26.706  1.00  0.00     0.080 A 
ATOM     23  N   UNL A   1      35.088  22.908  26.665  1.00  0.00    -0.176 NA
ATOM     24  N   UNL A   1      35.371  23.070  25.363  1.00  0.00    -0.266 N 
ATOM     25  C   UNL A   1      34.255  23.035  24.565  1.00  0.00     0.056 A 
ATOM     26  C   UNL A   1      34.338  23.012  23.077  1.00  0.00     0.068 C 
BRANCH  24  27
ATOM     27  C   UNL A   1      36.771  23.203  24.961  1.00  0.00     0.101 C 
ATOM     28  C   UNL A   1      37.543  24.063  25.960  1.00  0.00     0.033 C 
ATOM     29  C   UNL A   1      37.438  21.839  24.766  1.00  0.00     0.033 C 
ENDBRANCH  24  27
ENDBRANCH  17  20
ENDBRANCH  15  17
ENDBRANCH   9  15
ENDBRANCH   6   8
ENDBRANCH   5   6
ENDBRANCH   4   5
ENDBRANCH   3   4
ENDBRANCH   2   3
ENDBRANCH   1   2
BRANCH   1  30
ATOM     30  C   UNL A   1      33.143  35.142  29.218  1.00  0.00     0.188 C 
BRANCH  30  31
ATOM     31  O   UNL A   1      34.461  35.109  29.728  1.00  0.00    -0.376 OA
BRANCH  31  32
ATOM     32  C   UNL A   1      34.741  34.049  30.628  1.00  0.00     0.202 C 
BRANCH  32  33
ATOM     33  C   UNL A   1      35.929  33.182  30.169  1.00  0.00     0.261 C 
BRANCH  33  34
ATOM     34  O   UNL A   1      35.531  31.796  30.045  1.00  0.00    -0.460 OA
BRANCH  34  35
ATOM     35  C   UNL A   1      35.576  31.235  28.793  1.00  0.00     0.338 C 
ATOM     36  O   UNL A   1      34.862  31.563  27.855  1.00  0.00    -0.246 OA
BRANCH  35  37
ATOM     37  C   UNL A   1      36.424  29.994  28.814  1.00  0.00     0.060 A 
ATOM     38  C   UNL A   1      36.831  29.291  29.959  1.00  0.00     0.016 A 
ATOM     39  C   UNL A   1      37.162  29.768  27.704  1.00  0.00     0.016 A 
ATOM     40  C   UNL A   1      38.079  28.525  29.990  1.00  0.00     0.010 A 
ATOM     41  C   UNL A   1      38.449  29.271  27.920  1.00  0.00     0.010 A 
ATOM     42  C   UNL A   1      39.025  28.522  28.951  1.00  0.00    -0.014 A 
BRANCH  42  43
ATOM     43  C   UNL A   1      40.598  28.051  29.019  1.00  0.00     0.031 A 
ATOM     44  C   UNL A   1      41.531  26.717  28.506  1.00  0.00     0.074 A 
ATOM     45  C   UNL A   1      41.391  28.951  29.651  1.00  0.00     0.049 A 
ATOM     46  N   UNL A   1      42.678  26.375  29.085  1.00  0.00    -0.248 NA
ATOM     47  C   UNL A   1      41.310  25.643  27.458  1.00  0.00     0.031 C 
ATOM     48  C   UNL A   1      42.847  29.054  29.592  1.00  0.00     0.029 A 
ATOM     49  N   UNL A   1      41.027  29.943  30.578  1.00  0.00    -0.354 N 
ATOM     50  C   UNL A   1      43.268  25.347  28.340  1.00  0.00     0.074 A 
ATOM     51  C   UNL A   1      42.245  24.727  27.619  1.00  0.00     0.031 C 
ATOM     52  C   UNL A   1      43.271  29.786  30.629  1.00  0.00     0.029 A 
ATOM     53  C   UNL A   1      42.119  30.078  31.453  1.00  0.00     0.049 A 
ATOM     54  H   UNL A   1      40.179  30.442  30.608  1.00  0.00     0.167 HD
ATOM     55  C   UNL A   1      44.603  25.182  28.156  1.00  0.00     0.037 A 
ATOM     56  C   UNL A   1      42.000  29.869  32.792  1.00  0.00     0.037 A 
ATOM     57  C   UNL A   1      45.321  25.838  29.209  1.00  0.00     0.049 A 
ATOM     58  C   UNL A   1      42.975  28.861  33.344  1.00  0.00     0.074 A 
ATOM     59  C   UNL A   1      46.120  26.956  29.287  1.00  0.00     0.029 A 
ATOM     60  N   UNL A   1      45.013  25.459  30.505  1.00  0.00    -0.354 N 
ATOM     61  N   UNL A   1      43.790  28.160  32.606  1.00  0.00    -0.248 NA
ATOM     62  C   UNL A   1      43.083  28.515  34.759  1.00  0.00     0.031 C 
ATOM     63  C   UNL A   1      46.177  27.327  30.662  1.00  0.00     0.029 A 
ATOM     64  C   UNL A   1      45.472  26.393  31.403  1.00  0.00     0.049 A 
ATOM     65  H   UNL A   1      44.533  24.635  30.750  1.00  0.00     0.167 HD
ATOM     66  C   UNL A   1      44.409  27.213  33.373  1.00  0.00     0.074 A 
ATOM     67  C   UNL A   1      43.987  27.519  34.724  1.00  0.00     0.031 C 
ATOM     68  C   UNL A   1      45.159  26.219  32.814  1.00  0.00     0.037 A 
BRANCH  55  69
ATOM     69  C   UNL A   1      45.234  24.492  26.936  1.00  0.00     0.064 A 
ATOM     70  C   UNL A   1      45.068  23.108  26.738  1.00  0.00     0.173 A 
ATOM     71  C   UNL A   1      46.108  25.103  25.994  1.00  0.00     0.173 A 
ATOM     72  F   UNL A   1      44.315  22.382  27.576  1.00  0.00    -0.203 F 
ATOM     73  C   UNL A   1      45.694  22.411  25.689  1.00  0.00     0.198 A 
ATOM     74  C   UNL A   1      46.664  24.425  24.902  1.00  0.00     0.198 A 
ATOM     75  F   UNL A   1      46.540  26.365  26.120  1.00  0.00    -0.203 F 
ATOM     76  F   UNL A   1      45.554  21.081  25.595  1.00  0.00    -0.200 F 
ATOM     77  C   UNL A   1      46.470  23.073  24.756  1.00  0.00     0.200 A 
ATOM     78  F   UNL A   1      47.425  25.093  24.020  1.00  0.00    -0.200 F 
ATOM     79  F   UNL A   1      47.057  22.410  23.751  1.00  0.00    -0.200 F 
ENDBRANCH  55  69
BRANCH  56  80
ATOM     80  C   UNL A   1      40.646  30.202  33.314  1.00  0.00     0.064 A 
ATOM     81  C   UNL A   1      40.305  31.570  33.388  1.00  0.00     0.173 A 
ATOM     82  C   UNL A   1      39.595  29.276  33.337  1.00  0.00     0.173 A 
ATOM     83  F   UNL A   1      41.271  32.502  33.350  1.00  0.00    -0.203 F 
ATOM     84  C   UNL A   1      38.979  31.995  33.355  1.00  0.00     0.198 A 
ATOM     85  C   UNL A   1      38.262  29.708  33.332  1.00  0.00     0.198 A 
ATOM     86  F   UNL A   1      39.844  27.966  33.215  1.00  0.00    -0.203 F 
ATOM     87  F   UNL A   1      38.698  33.304  33.275  1.00  0.00    -0.200 F 
ATOM     88  C   UNL A   1      37.958  31.064  33.302  1.00  0.00     0.200 A 
ATOM     89  F   UNL A   1      37.270  28.814  33.202  1.00  0.00    -0.200 F 
ATOM     90  F   UNL A   1      36.690  31.468  33.139  1.00  0.00    -0.200 F 
ENDBRANCH  56  80
BRANCH  68  91
ATOM     91  C   UNL A   1      45.640  24.969  33.516  1.00  0.00     0.064 A 
ATOM     92  C   UNL A   1      46.957  24.775  33.965  1.00  0.00     0.173 A 
ATOM     93  C   UNL A   1      44.709  23.979  33.913  1.00  0.00     0.173 A 
ATOM     94  F   UNL A   1      47.907  25.697  33.762  1.00  0.00    -0.203 F 
ATOM     95  C   UNL A   1      47.328  23.645  34.699  1.00  0.00     0.198 A 
ATOM     96  C   UNL A   1      45.069  22.888  34.701  1.00  0.00     0.198 A 
ATOM     97  F   UNL A   1      43.413  24.065  33.574  1.00  0.00    -0.203 F 
ATOM     98  F   UNL A   1      48.608  23.482  35.064  1.00  0.00    -0.200 F 
ATOM     99  C   UNL A   1      46.384  22.709  35.078  1.00  0.00     0.200 A 
ATOM    100  F   UNL A   1      44.131  22.021  35.110  1.00  0.00    -0.200 F 
ATOM    101  F   UNL A   1      46.737  21.653  35.821  1.00  0.00    -0.200 F 
ENDBRANCH  68  91
ENDBRANCH  42  43
ENDBRANCH  35  37
ENDBRANCH  34  35
ENDBRANCH  33  34
ENDBRANCH  32  33
ENDBRANCH  31  32
ENDBRANCH  30  31
ENDBRANCH   1  30
TORSDOF 21
ENDMDL
MODEL 3
REMARK VINA RESULT:     -12.2      4.128     10.861
REMARK SMILES Cc1nn(C(C)C)c(C)c1S(=O)(=O)Nc1cccc(C(=O)OCCOCCOCCOC(=O)c2ccc(-c3c4nc(c(-c5c(F)c(F)c(F)c(F)c5F)c5ccc([nH]5)c(-c5c(F)c(F)c(F)c(F)c5F)c5nc(c(-c6c(F)c(F)c(F)c(F)c6F)c6ccc3[nH]6)C=C5)C=C4)cc2)c1C
REMARK SMILES IDX 26 1 25 2 24 3 23 4 22 5 20 6 21 7 19 8 15 9 16 10 97 11
REMARK SMILES IDX 17 12 98 13 18 14 14 15 11 17 12 18 13 19 10 20 1 21 2 22
REMARK SMILES IDX 3 23 4 24 8 25 9 26 5 27 6 28 7 29 27 30 28 31 29 32 30 33
REMARK SMILES IDX 31 34 32 35 33 36 34 37 35 38 96 39 36 40 95 41 37 42 38 43
REMARK SMILES IDX 39 44 89 45 40 46 94 47 88 48 90 49 41 50 93 51 87 52 86 53
REMARK SMILES IDX 42 55 74 56 54 57 73 58 55 59 58 60 72 61 91 62 56 63 57 64
REMARK SMILES IDX 71 66 92 67 59 68 43 69 44 70 52 71 45 72 46 73 50 74 53 75
REMARK SMILES IDX 47 76 48 77 51 78 49 79 75 80 76 81 84 82 77 83 78 84 82 85
REMARK SMILES IDX 85 86 79 87 80 88 83 89 81 90 60 91 61 92 69 93 62 94 63 95
REMARK SMILES IDX 67 96 70 97 64 98 65 99 68 100 66 101
REMARK H PARENT 14 16 90 54 58 65
REMARK Flexibility Score: inf
ROOT
ATOM      1  C   UNL A   1      39.542  21.048  26.101  1.00  0.00     0.188 C 
ENDROOT
BRANCH   1   2
ATOM      2  O   UNL A   1      38.508  21.538  25.212  1.00  0.00    -0.376 OA
BRANCH   2   3
ATOM      3  C   UNL A   1      37.099  21.276  25.323  1.00  0.00     0.202 C 
BRANCH   3   4
ATOM      4  C   UNL A   1      36.384  19.786  24.920  1.00  0.00     0.261 C 
BRANCH   4   5
ATOM      5  O   UNL A   1      34.753  19.386  24.688  1.00  0.00    -0.460 OA
BRANCH   5   6
ATOM      6  C   UNL A   1      33.488  19.937  25.052  1.00  0.00     0.338 C 
ATOM      7  O   UNL A   1      32.396  19.381  25.061  1.00  0.00    -0.246 OA
BRANCH   6   8
ATOM      8  C   UNL A   1      33.182  21.321  25.458  1.00  0.00     0.065 A 
ATOM      9  C   UNL A   1      33.273  23.729  24.895  1.00  0.00     0.053 A 
ATOM     10  C   UNL A   1      33.558  23.993  26.229  1.00  0.00     0.027 A 
ATOM     11  C   UNL A   1      33.113  22.397  24.468  1.00  0.00    -0.012 A 
ATOM     12  C   UNL A   1      33.643  22.950  27.162  1.00  0.00     0.003 A 
ATOM     13  C   UNL A   1      32.930  22.214  22.968  1.00  0.00     0.047 C 
ATOM     14  C   UNL A   1      33.449  21.619  26.787  1.00  0.00     0.016 A 
BRANCH   9  15
ATOM     15  N   UNL A   1      33.058  24.820  24.006  1.00  0.00    -0.279 N 
ATOM     16  H   UNL A   1      33.819  25.087  23.443  1.00  0.00     0.180 HD
BRANCH  15  17
ATOM     17  S   UNL A   1      31.640  25.699  23.819  1.00  0.00     0.265 S 
ATOM     18  O   UNL A   1      30.717  25.072  24.745  1.00  0.00    -0.201 OA
ATOM     19  O   UNL A   1      31.343  25.695  22.401  1.00  0.00    -0.201 OA
BRANCH  17  20
ATOM     20  C   UNL A   1      31.575  27.372  24.232  1.00  0.00     0.131 A 
ATOM     21  C   UNL A   1      29.281  28.201  23.208  1.00  0.00     0.070 C 
ATOM     22  C   UNL A   1      30.578  28.327  23.913  1.00  0.00     0.080 A 
ATOM     23  N   UNL A   1      30.875  29.528  24.426  1.00  0.00    -0.176 NA
ATOM     24  N   UNL A   1      31.930  29.309  25.226  1.00  0.00    -0.266 N 
ATOM     25  C   UNL A   1      32.355  28.004  25.204  1.00  0.00     0.056 A 
ATOM     26  C   UNL A   1      33.391  27.487  26.143  1.00  0.00     0.068 C 
BRANCH  24  27
ATOM     27  C   UNL A   1      32.443  30.418  26.030  1.00  0.00     0.101 C 
ATOM     28  C   UNL A   1      31.325  31.403  26.371  1.00  0.00     0.033 C 
ATOM     29  C   UNL A   1      33.156  29.925  27.291  1.00  0.00     0.033 C 
ENDBRANCH  24  27
ENDBRANCH  17  20
ENDBRANCH  15  17
ENDBRANCH   9  15
ENDBRANCH   6   8
ENDBRANCH   5   6
ENDBRANCH   4   5
ENDBRANCH   3   4
ENDBRANCH   2   3
ENDBRANCH   1   2
BRANCH   1  30
ATOM     30  C   UNL A   1      40.116  19.628  26.081  1.00  0.00     0.188 C 
BRANCH  30  31
ATOM     31  O   UNL A   1      41.476  19.640  26.466  1.00  0.00    -0.376 OA
BRANCH  31  32
ATOM     32  C   UNL A   1      42.250  18.542  26.008  1.00  0.00     0.202 C 
BRANCH  32  33
ATOM     33  C   UNL A   1      43.565  18.984  25.339  1.00  0.00     0.261 C 
BRANCH  33  34
ATOM     34  O   UNL A   1      43.885  20.350  25.696  1.00  0.00    -0.460 OA
BRANCH  34  35
ATOM     35  C   UNL A   1      44.443  21.143  24.724  1.00  0.00     0.338 C 
ATOM     36  O   UNL A   1      45.405  20.832  24.036  1.00  0.00    -0.246 OA
BRANCH  35  37
ATOM     37  C   UNL A   1      43.884  22.536  24.811  1.00  0.00     0.060 A 
ATOM     38  C   UNL A   1      44.576  23.723  24.519  1.00  0.00     0.016 A 
ATOM     39  C   UNL A   1      42.789  22.683  25.589  1.00  0.00     0.016 A 
ATOM     40  C   UNL A   1      44.243  24.991  25.172  1.00  0.00     0.010 A 
ATOM     41  C   UNL A   1      42.742  23.845  26.361  1.00  0.00     0.010 A 
ATOM     42  C   UNL A   1      43.310  25.115  26.215  1.00  0.00    -0.014 A 
BRANCH  42  43
ATOM     43  C   UNL A   1      43.141  26.359  27.275  1.00  0.00     0.031 A 
ATOM     44  C   UNL A   1      41.922  27.464  27.728  1.00  0.00     0.074 A 
ATOM     45  C   UNL A   1      44.264  26.590  28.000  1.00  0.00     0.049 A 
ATOM     46  N   UNL A   1      42.189  28.648  28.273  1.00  0.00    -0.248 NA
ATOM     47  C   UNL A   1      40.412  27.458  27.578  1.00  0.00     0.031 C 
ATOM     48  C   UNL A   1      44.381  27.342  29.247  1.00  0.00     0.029 A 
ATOM     49  N   UNL A   1      45.591  26.245  27.695  1.00  0.00    -0.354 N 
ATOM     50  C   UNL A   1      40.985  29.242  28.668  1.00  0.00     0.074 A 
ATOM     51  C   UNL A   1      39.971  28.656  27.906  1.00  0.00     0.031 C 
ATOM     52  C   UNL A   1      45.665  27.675  29.431  1.00  0.00     0.029 A 
ATOM     53  C   UNL A   1      46.394  27.253  28.255  1.00  0.00     0.049 A 
ATOM     54  H   UNL A   1      45.897  25.456  27.191  1.00  0.00     0.167 HD
ATOM     55  C   UNL A   1      40.822  30.026  29.765  1.00  0.00     0.037 A 
ATOM     56  C   UNL A   1      47.230  28.014  27.497  1.00  0.00     0.037 A 
ATOM     57  C   UNL A   1      42.085  30.585  30.150  1.00  0.00     0.049 A 
ATOM     58  C   UNL A   1      47.016  29.499  27.651  1.00  0.00     0.074 A 
ATOM     59  C   UNL A   1      42.948  30.394  31.205  1.00  0.00     0.029 A 
ATOM     60  N   UNL A   1      42.761  31.320  29.191  1.00  0.00    -0.354 N 
ATOM     61  N   UNL A   1      46.052  30.024  28.356  1.00  0.00    -0.248 NA
ATOM     62  C   UNL A   1      47.828  30.517  26.991  1.00  0.00     0.031 C 
ATOM     63  C   UNL A   1      44.212  30.914  30.803  1.00  0.00     0.029 A 
ATOM     64  C   UNL A   1      44.081  31.474  29.543  1.00  0.00     0.049 A 
ATOM     65  H   UNL A   1      42.354  31.682  28.371  1.00  0.00     0.167 HD
ATOM     66  C   UNL A   1      46.015  31.375  28.152  1.00  0.00     0.074 A 
ATOM     67  C   UNL A   1      47.188  31.645  27.346  1.00  0.00     0.031 C 
ATOM     68  C   UNL A   1      44.980  32.138  28.611  1.00  0.00     0.037 A 
BRANCH  55  69
ATOM     69  C   UNL A   1      39.500  30.185  30.532  1.00  0.00     0.064 A 
ATOM     70  C   UNL A   1      38.754  31.374  30.423  1.00  0.00     0.173 A 
ATOM     71  C   UNL A   1      38.971  29.263  31.479  1.00  0.00     0.173 A 
ATOM     72  F   UNL A   1      39.155  32.360  29.609  1.00  0.00    -0.203 F 
ATOM     73  C   UNL A   1      37.584  31.607  31.168  1.00  0.00     0.198 A 
ATOM     74  C   UNL A   1      37.763  29.462  32.159  1.00  0.00     0.198 A 
ATOM     75  F   UNL A   1      39.630  28.162  31.864  1.00  0.00    -0.203 F 
ATOM     76  F   UNL A   1      36.957  32.788  31.073  1.00  0.00    -0.200 F 
ATOM     77  C   UNL A   1      37.075  30.642  32.016  1.00  0.00     0.200 A 
ATOM     78  F   UNL A   1      37.301  28.510  32.986  1.00  0.00    -0.200 F 
ATOM     79  F   UNL A   1      35.955  30.860  32.718  1.00  0.00    -0.200 F 
ENDBRANCH  55  69
BRANCH  56  80
ATOM     80  C   UNL A   1      47.753  27.293  26.305  1.00  0.00     0.064 A 
ATOM     81  C   UNL A   1      47.179  27.615  25.056  1.00  0.00     0.173 A 
ATOM     82  C   UNL A   1      49.001  26.657  26.292  1.00  0.00     0.173 A 
ATOM     83  F   UNL A   1      45.993  28.244  25.009  1.00  0.00    -0.203 F 
ATOM     84  C   UNL A   1      47.873  27.431  23.863  1.00  0.00     0.198 A 
ATOM     85  C   UNL A   1      49.684  26.447  25.087  1.00  0.00     0.198 A 
ATOM     86  F   UNL A   1      49.628  26.372  27.441  1.00  0.00    -0.203 F 
ATOM     87  F   UNL A   1      47.358  27.887  22.712  1.00  0.00    -0.200 F 
ATOM     88  C   UNL A   1      49.136  26.869  23.881  1.00  0.00     0.200 A 
ATOM     89  F   UNL A   1      50.940  25.976  25.103  1.00  0.00    -0.200 F 
ATOM     90  F   UNL A   1      49.859  26.809  22.753  1.00  0.00    -0.200 F 
ENDBRANCH  56  80
BRANCH  68  91
ATOM     91  C   UNL A   1      44.682  33.564  28.204  1.00  0.00     0.064 A 
ATOM     92  C   UNL A   1      45.078  34.692  28.941  1.00  0.00     0.173 A 
ATOM     93  C   UNL A   1      44.118  33.833  26.933  1.00  0.00     0.173 A 
ATOM     94  F   UNL A   1      45.734  34.573  30.102  1.00  0.00    -0.203 F 
ATOM     95  C   UNL A   1      44.868  35.992  28.472  1.00  0.00     0.198 A 
ATOM     96  C   UNL A   1      43.970  35.128  26.441  1.00  0.00     0.198 A 
ATOM     97  F   UNL A   1      43.726  32.840  26.120  1.00  0.00    -0.203 F 
ATOM     98  F   UNL A   1      45.221  37.037  29.233  1.00  0.00    -0.200 F 
ATOM     99  C   UNL A   1      44.327  36.210  27.218  1.00  0.00     0.200 A 
ATOM    100  F   UNL A   1      43.499  35.321  25.200  1.00  0.00    -0.200 F 
ATOM    101  F   UNL A   1      44.171  37.456  26.755  1.00  0.00    -0.200 F 
ENDBRANCH  68  91
ENDBRANCH  42  43
ENDBRANCH  35  37
ENDBRANCH  34  35
ENDBRANCH  33  34
ENDBRANCH  32  33
ENDBRANCH  31  32
ENDBRANCH  30  31
ENDBRANCH   1  30
TORSDOF 21
ENDMDL
