MODEL 1
REMARK VINA RESULT:     -11.3      0.000      0.000
REMARK SMILES O=C(OCCOCCOCCOC(=O)c1cc(-c2ccn(C(F)F)c(=O)c2)ccc1O)c1ccc(-c2c3nc(c(-c4c(F)c(F)c(F)c(F)c4F)c4ccc([nH]4)c(-c4c(F)c(F)c(F)c(F)c4F)c4nc(c(-c5c(F)c(F)c(F)c(F)c5F)c5ccc2[nH]5)C=C4)C=C3)cc1
REMARK SMILES IDX 7 1 6 2 5 3 4 4 3 5 2 6 1 7 32 8 33 9 94 10 34 11 93 12
REMARK SMILES IDX 35 13 36 14 37 15 87 16 38 17 92 18 86 19 88 20 39 21 91 22
REMARK SMILES IDX 85 23 84 24 40 26 72 27 52 28 71 29 53 30 56 31 70 32 89 33
REMARK SMILES IDX 54 34 55 35 69 37 90 38 57 39 41 40 42 41 50 42 43 43 44 44
REMARK SMILES IDX 48 45 51 46 45 47 46 48 49 49 47 50 73 51 74 52 82 53 75 54
REMARK SMILES IDX 76 55 80 56 83 57 77 58 78 59 81 60 79 61 58 62 59 63 67 64
REMARK SMILES IDX 60 65 61 66 65 67 68 68 62 69 63 70 66 71 64 72 8 73 9 74
REMARK SMILES IDX 10 75 11 76 12 77 13 78 14 79 15 80 16 81 30 82 17 83 29 84
REMARK SMILES IDX 28 85 31 86 18 88 19 89 27 90 20 91 25 92 21 93 26 94 22 95
REMARK SMILES IDX 23 96 24 97
REMARK H PARENT 88 25 56 36 31 87
REMARK Flexibility Score: inf
ROOT
ATOM      1  C   UNL A   1      32.374  28.981  26.337  1.00  0.00     0.188 C 
ENDROOT
BRANCH   1   2
ATOM      2  O   UNL A   1      31.996  30.029  27.242  1.00  0.00    -0.376 OA
BRANCH   2   3
ATOM      3  C   UNL A   1      32.544  31.303  26.889  1.00  0.00     0.202 C 
BRANCH   3   4
ATOM      4  C   UNL A   1      31.628  32.484  27.222  1.00  0.00     0.261 C 
BRANCH   4   5
ATOM      5  O   UNL A   1      32.330  33.732  27.219  1.00  0.00    -0.460 OA
BRANCH   5   6
ATOM      6  C   UNL A   1      32.981  34.337  28.242  1.00  0.00     0.338 C 
ATOM      7  O   UNL A   1      32.484  35.370  28.694  1.00  0.00    -0.246 OA
BRANCH   6   8
ATOM      8  C   UNL A   1      34.251  33.844  28.879  1.00  0.00     0.060 A 
ATOM      9  C   UNL A   1      34.094  32.934  29.938  1.00  0.00     0.016 A 
ATOM     10  C   UNL A   1      35.558  34.231  28.566  1.00  0.00     0.016 A 
ATOM     11  C   UNL A   1      35.194  32.433  30.645  1.00  0.00     0.010 A 
ATOM     12  C   UNL A   1      36.666  33.695  29.235  1.00  0.00     0.010 A 
ATOM     13  C   UNL A   1      36.496  32.800  30.289  1.00  0.00    -0.014 A 
BRANCH  13  14
ATOM     14  C   UNL A   1      37.669  32.154  30.920  1.00  0.00     0.031 A 
ATOM     15  C   UNL A   1      38.206  32.583  32.253  1.00  0.00     0.074 A 
ATOM     16  C   UNL A   1      38.306  31.199  30.218  1.00  0.00     0.049 A 
ATOM     17  N   UNL A   1      39.161  32.037  32.967  1.00  0.00    -0.248 NA
ATOM     18  C   UNL A   1      37.623  33.788  32.862  1.00  0.00     0.031 C 
ATOM     19  C   UNL A   1      37.934  30.764  28.870  1.00  0.00     0.029 A 
ATOM     20  N   UNL A   1      39.402  30.438  30.528  1.00  0.00    -0.354 N 
ATOM     21  C   UNL A   1      39.249  32.791  34.126  1.00  0.00     0.074 A 
ATOM     22  C   UNL A   1      38.331  33.896  33.980  1.00  0.00     0.031 C 
ATOM     23  C   UNL A   1      38.780  29.803  28.472  1.00  0.00     0.029 A 
ATOM     24  C   UNL A   1      39.760  29.571  29.527  1.00  0.00     0.049 A 
ATOM     25  H   UNL A   1      39.885  30.507  31.382  1.00  0.00     0.167 HD
ATOM     26  C   UNL A   1      40.002  32.557  35.227  1.00  0.00     0.037 A 
ATOM     27  C   UNL A   1      40.765  28.680  29.466  1.00  0.00     0.037 A 
ATOM     28  C   UNL A   1      40.973  31.502  35.333  1.00  0.00     0.049 A 
ATOM     29  C   UNL A   1      41.659  28.503  30.656  1.00  0.00     0.074 A 
ATOM     30  C   UNL A   1      41.749  31.147  36.421  1.00  0.00     0.029 A 
ATOM     31  N   UNL A   1      41.330  30.663  34.290  1.00  0.00    -0.354 N 
ATOM     32  N   UNL A   1      41.611  29.108  31.818  1.00  0.00    -0.248 NA
ATOM     33  C   UNL A   1      42.737  27.515  30.534  1.00  0.00     0.031 C 
ATOM     34  C   UNL A   1      42.620  30.130  36.018  1.00  0.00     0.029 A 
ATOM     35  C   UNL A   1      42.357  29.826  34.691  1.00  0.00     0.049 A 
ATOM     36  H   UNL A   1      40.915  30.660  33.397  1.00  0.00     0.167 HD
ATOM     37  C   UNL A   1      42.639  28.564  32.573  1.00  0.00     0.074 A 
ATOM     38  C   UNL A   1      43.288  27.572  31.740  1.00  0.00     0.031 C 
ATOM     39  C   UNL A   1      43.004  28.858  33.844  1.00  0.00     0.037 A 
BRANCH  26  40
ATOM     40  C   UNL A   1      39.778  33.415  36.434  1.00  0.00     0.064 A 
ATOM     41  C   UNL A   1      38.833  33.041  37.401  1.00  0.00     0.173 A 
ATOM     42  C   UNL A   1      40.563  34.547  36.686  1.00  0.00     0.173 A 
ATOM     43  F   UNL A   1      38.045  31.973  37.201  1.00  0.00    -0.203 F 
ATOM     44  C   UNL A   1      38.671  33.781  38.569  1.00  0.00     0.198 A 
ATOM     45  C   UNL A   1      40.408  35.277  37.864  1.00  0.00     0.198 A 
ATOM     46  F   UNL A   1      41.489  34.938  35.798  1.00  0.00    -0.203 F 
ATOM     47  F   UNL A   1      37.727  33.431  39.453  1.00  0.00    -0.200 F 
ATOM     48  C   UNL A   1      39.461  34.894  38.802  1.00  0.00     0.200 A 
ATOM     49  F   UNL A   1      41.175  36.352  38.091  1.00  0.00    -0.200 F 
ATOM     50  F   UNL A   1      39.296  35.610  39.924  1.00  0.00    -0.200 F 
ENDBRANCH  26  40
BRANCH  27  51
ATOM     51  C   UNL A   1      40.915  27.865  28.236  1.00  0.00     0.064 A 
ATOM     52  C   UNL A   1      41.713  28.314  27.177  1.00  0.00     0.173 A 
ATOM     53  C   UNL A   1      40.357  26.583  28.144  1.00  0.00     0.173 A 
ATOM     54  F   UNL A   1      42.256  29.539  27.219  1.00  0.00    -0.203 F 
ATOM     55  C   UNL A   1      41.958  27.502  26.071  1.00  0.00     0.198 A 
ATOM     56  C   UNL A   1      40.621  25.762  27.048  1.00  0.00     0.198 A 
ATOM     57  F   UNL A   1      39.598  26.106  29.142  1.00  0.00    -0.203 F 
ATOM     58  F   UNL A   1      42.720  27.955  25.067  1.00  0.00    -0.200 F 
ATOM     59  C   UNL A   1      41.422  26.223  26.015  1.00  0.00     0.200 A 
ATOM     60  F   UNL A   1      40.118  24.522  27.007  1.00  0.00    -0.200 F 
ATOM     61  F   UNL A   1      41.682  25.433  24.965  1.00  0.00    -0.200 F 
ENDBRANCH  27  51
BRANCH  39  62
ATOM     62  C   UNL A   1      44.172  28.114  34.412  1.00  0.00     0.064 A 
ATOM     63  C   UNL A   1      45.467  28.647  34.357  1.00  0.00     0.173 A 
ATOM     64  C   UNL A   1      43.986  26.893  35.079  1.00  0.00     0.173 A 
ATOM     65  F   UNL A   1      45.693  29.806  33.721  1.00  0.00    -0.203 F 
ATOM     66  C   UNL A   1      46.539  27.976  34.938  1.00  0.00     0.198 A 
ATOM     67  C   UNL A   1      45.055  26.239  35.680  1.00  0.00     0.198 A 
ATOM     68  F   UNL A   1      42.761  26.351  35.167  1.00  0.00    -0.203 F 
ATOM     69  F   UNL A   1      47.773  28.489  34.848  1.00  0.00    -0.200 F 
ATOM     70  C   UNL A   1      46.331  26.779  35.606  1.00  0.00     0.200 A 
ATOM     71  F   UNL A   1      44.850  25.090  36.338  1.00  0.00    -0.200 F 
ATOM     72  F   UNL A   1      47.362  26.143  36.177  1.00  0.00    -0.200 F 
ENDBRANCH  39  62
ENDBRANCH  13  14
ENDBRANCH   6   8
ENDBRANCH   5   6
ENDBRANCH   4   5
ENDBRANCH   3   4
ENDBRANCH   2   3
ENDBRANCH   1   2
BRANCH   1  73
ATOM     73  C   UNL A   1      31.316  28.783  25.249  1.00  0.00     0.188 C 
BRANCH  73  74
ATOM     74  O   UNL A   1      31.189  27.452  24.750  1.00  0.00    -0.376 OA
BRANCH  74  75
ATOM     75  C   UNL A   1      30.319  27.250  23.642  1.00  0.00     0.202 C 
BRANCH  75  76
ATOM     76  C   UNL A   1      30.957  26.850  22.306  1.00  0.00     0.261 C 
BRANCH  76  77
ATOM     77  O   UNL A   1      31.512  25.525  22.247  1.00  0.00    -0.460 OA
BRANCH  77  78
ATOM     78  C   UNL A   1      32.855  25.507  22.040  1.00  0.00     0.342 C 
ATOM     79  O   UNL A   1      33.468  25.978  21.098  1.00  0.00    -0.246 OA
BRANCH  78  80
ATOM     80  C   UNL A   1      33.537  24.768  23.111  1.00  0.00     0.102 A 
ATOM     81  C   UNL A   1      33.512  23.365  23.146  1.00  0.00     0.028 A 
ATOM     82  C   UNL A   1      34.016  25.498  24.199  1.00  0.00     0.130 A 
ATOM     83  C   UNL A   1      33.975  22.690  24.288  1.00  0.00    -0.017 A 
ATOM     84  C   UNL A   1      34.453  24.836  25.339  1.00  0.00     0.048 A 
ATOM     85  C   UNL A   1      34.448  23.442  25.375  1.00  0.00     0.012 A 
BRANCH  82  86
ATOM     86  O   UNL A   1      34.070  26.861  24.149  1.00  0.00    -0.507 OA
ATOM     87  H   UNL A   1      33.456  27.372  24.639  1.00  0.00     0.293 HD
ENDBRANCH  82  86
BRANCH  83  88
ATOM     88  C   UNL A   1      33.978  21.215  24.422  1.00  0.00    -0.011 A 
ATOM     89  C   UNL A   1      35.116  20.478  24.941  1.00  0.00     0.027 A 
ATOM     90  C   UNL A   1      32.935  20.523  23.939  1.00  0.00     0.080 A 
ATOM     91  C   UNL A   1      35.162  19.142  24.864  1.00  0.00     0.095 A 
ATOM     92  C   UNL A   1      32.968  19.034  23.842  1.00  0.00     0.255 A 
ATOM     93  N   UNL A   1      34.118  18.424  24.312  1.00  0.00    -0.258 N 
ATOM     94  O   UNL A   1      32.013  18.459  23.329  1.00  0.00    -0.269 OA
BRANCH  93  95
ATOM     95  C   UNL A   1      34.214  16.994  24.158  1.00  0.00     0.451 C 
ATOM     96  F   UNL A   1      34.354  16.644  22.857  1.00  0.00    -0.185 F 
ATOM     97  F   UNL A   1      35.280  16.507  24.840  1.00  0.00    -0.185 F 
ENDBRANCH  93  95
ENDBRANCH  83  88
ENDBRANCH  78  80
ENDBRANCH  77  78
ENDBRANCH  76  77
ENDBRANCH  75  76
ENDBRANCH  74  75
ENDBRANCH  73  74
ENDBRANCH   1  73
TORSDOF 20
ENDMDL
MODEL 2
REMARK VINA RESULT:     -11.2      4.464      9.375
REMARK SMILES O=C(OCCOCCOCCOC(=O)c1cc(-c2ccn(C(F)F)c(=O)c2)ccc1O)c1ccc(-c2c3nc(c(-c4c(F)c(F)c(F)c(F)c4F)c4ccc([nH]4)c(-c4c(F)c(F)c(F)c(F)c4F)c4nc(c(-c5c(F)c(F)c(F)c(F)c5F)c5ccc2[nH]5)C=C4)C=C3)cc1
REMARK SMILES IDX 7 1 6 2 5 3 4 4 3 5 2 6 1 7 32 8 33 9 94 10 34 11 93 12
REMARK SMILES IDX 35 13 36 14 37 15 87 16 38 17 92 18 86 19 88 20 39 21 91 22
REMARK SMILES IDX 85 23 84 24 40 26 72 27 52 28 71 29 53 30 56 31 70 32 89 33
REMARK SMILES IDX 54 34 55 35 69 37 90 38 57 39 41 40 42 41 50 42 43 43 44 44
REMARK SMILES IDX 48 45 51 46 45 47 46 48 49 49 47 50 73 51 74 52 82 53 75 54
REMARK SMILES IDX 76 55 80 56 83 57 77 58 78 59 81 60 79 61 58 62 59 63 67 64
REMARK SMILES IDX 60 65 61 66 65 67 68 68 62 69 63 70 66 71 64 72 8 73 9 74
REMARK SMILES IDX 10 75 11 76 12 77 13 78 14 79 15 80 16 81 30 82 17 83 29 84
REMARK SMILES IDX 28 85 31 86 18 88 19 89 27 90 20 91 25 92 21 93 26 94 22 95
REMARK SMILES IDX 23 96 24 97
REMARK H PARENT 88 25 56 36 31 87
REMARK Flexibility Score: inf
ROOT
ATOM      1  C   UNL A   1      46.447  19.428  24.790  1.00  0.00     0.188 C 
ENDROOT
BRANCH   1   2
ATOM      2  O   UNL A   1      46.792  20.821  24.770  1.00  0.00    -0.376 OA
BRANCH   2   3
ATOM      3  C   UNL A   1      45.652  21.684  24.814  1.00  0.00     0.202 C 
BRANCH   3   4
ATOM      4  C   UNL A   1      45.883  22.975  25.604  1.00  0.00     0.261 C 
BRANCH   4   5
ATOM      5  O   UNL A   1      45.215  24.097  25.016  1.00  0.00    -0.460 OA
BRANCH   5   6
ATOM      6  C   UNL A   1      45.414  25.417  25.248  1.00  0.00     0.338 C 
ATOM      7  O   UNL A   1      46.178  26.014  24.490  1.00  0.00    -0.246 OA
BRANCH   6   8
ATOM      8  C   UNL A   1      44.766  26.214  26.347  1.00  0.00     0.060 A 
ATOM      9  C   UNL A   1      43.782  25.545  27.095  1.00  0.00     0.016 A 
ATOM     10  C   UNL A   1      45.002  27.555  26.669  1.00  0.00     0.016 A 
ATOM     11  C   UNL A   1      43.072  26.188  28.116  1.00  0.00     0.010 A 
ATOM     12  C   UNL A   1      44.332  28.189  27.723  1.00  0.00     0.010 A 
ATOM     13  C   UNL A   1      43.351  27.517  28.450  1.00  0.00    -0.014 A 
BRANCH  13  14
ATOM     14  C   UNL A   1      42.725  28.154  29.630  1.00  0.00     0.031 A 
ATOM     15  C   UNL A   1      43.312  28.054  31.007  1.00  0.00     0.074 A 
ATOM     16  C   UNL A   1      41.546  28.777  29.449  1.00  0.00     0.049 A 
ATOM     17  N   UNL A   1      42.924  28.648  32.109  1.00  0.00    -0.248 NA
ATOM     18  C   UNL A   1      44.466  27.160  31.187  1.00  0.00     0.031 C 
ATOM     19  C   UNL A   1      40.830  28.857  28.174  1.00  0.00     0.029 A 
ATOM     20  N   UNL A   1      40.738  29.442  30.332  1.00  0.00    -0.354 N 
ATOM     21  C   UNL A   1      43.815  28.249  33.092  1.00  0.00     0.074 A 
ATOM     22  C   UNL A   1      44.700  27.280  32.489  1.00  0.00     0.031 C 
ATOM     23  C   UNL A   1      39.693  29.544  28.354  1.00  0.00     0.029 A 
ATOM     24  C   UNL A   1      39.594  29.934  29.756  1.00  0.00     0.049 A 
ATOM     25  H   UNL A   1      40.954  29.555  31.286  1.00  0.00     0.167 HD
ATOM     26  C   UNL A   1      43.908  28.685  34.370  1.00  0.00     0.037 A 
ATOM     27  C   UNL A   1      38.577  30.629  30.295  1.00  0.00     0.037 A 
ATOM     28  C   UNL A   1      42.975  29.587  34.987  1.00  0.00     0.049 A 
ATOM     29  C   UNL A   1      38.642  31.016  31.742  1.00  0.00     0.074 A 
ATOM     30  C   UNL A   1      43.008  30.131  36.258  1.00  0.00     0.029 A 
ATOM     31  N   UNL A   1      41.813  30.041  34.383  1.00  0.00    -0.354 N 
ATOM     32  N   UNL A   1      39.590  30.779  32.615  1.00  0.00    -0.248 NA
ATOM     33  C   UNL A   1      37.507  31.777  32.276  1.00  0.00     0.031 C 
ATOM     34  C   UNL A   1      41.833  30.867  36.445  1.00  0.00     0.029 A 
ATOM     35  C   UNL A   1      41.090  30.813  35.276  1.00  0.00     0.049 A 
ATOM     36  H   UNL A   1      41.542  29.845  33.457  1.00  0.00     0.167 HD
ATOM     37  C   UNL A   1      39.177  31.373  33.797  1.00  0.00     0.074 A 
ATOM     38  C   UNL A   1      37.895  31.993  33.526  1.00  0.00     0.031 C 
ATOM     39  C   UNL A   1      39.808  31.406  34.996  1.00  0.00     0.037 A 
BRANCH  26  40
ATOM     40  C   UNL A   1      45.084  28.242  35.186  1.00  0.00     0.064 A 
ATOM     41  C   UNL A   1      45.020  27.055  35.931  1.00  0.00     0.173 A 
ATOM     42  C   UNL A   1      46.303  28.931  35.152  1.00  0.00     0.173 A 
ATOM     43  F   UNL A   1      43.872  26.365  36.008  1.00  0.00    -0.203 F 
ATOM     44  C   UNL A   1      46.130  26.584  36.627  1.00  0.00     0.198 A 
ATOM     45  C   UNL A   1      47.417  28.449  35.838  1.00  0.00     0.198 A 
ATOM     46  F   UNL A   1      46.419  30.064  34.443  1.00  0.00    -0.203 F 
ATOM     47  F   UNL A   1      46.027  25.475  37.372  1.00  0.00    -0.200 F 
ATOM     48  C   UNL A   1      47.328  27.278  36.577  1.00  0.00     0.200 A 
ATOM     49  F   UNL A   1      48.576  29.118  35.787  1.00  0.00    -0.200 F 
ATOM     50  F   UNL A   1      48.392  26.827  37.256  1.00  0.00    -0.200 F 
ENDBRANCH  26  40
BRANCH  27  51
ATOM     51  C   UNL A   1      37.453  31.034  29.418  1.00  0.00     0.064 A 
ATOM     52  C   UNL A   1      36.458  30.114  29.065  1.00  0.00     0.173 A 
ATOM     53  C   UNL A   1      37.294  32.366  29.011  1.00  0.00     0.173 A 
ATOM     54  F   UNL A   1      36.576  28.828  29.424  1.00  0.00    -0.203 F 
ATOM     55  C   UNL A   1      35.335  30.516  28.344  1.00  0.00     0.198 A 
ATOM     56  C   UNL A   1      36.160  32.771  28.310  1.00  0.00     0.198 A 
ATOM     57  F   UNL A   1      38.216  33.284  29.338  1.00  0.00    -0.203 F 
ATOM     58  F   UNL A   1      34.399  29.618  28.014  1.00  0.00    -0.200 F 
ATOM     59  C   UNL A   1      35.182  31.846  27.979  1.00  0.00     0.200 A 
ATOM     60  F   UNL A   1      36.007  34.060  27.975  1.00  0.00    -0.200 F 
ATOM     61  F   UNL A   1      34.088  32.237  27.311  1.00  0.00    -0.200 F 
ENDBRANCH  27  51
BRANCH  39  62
ATOM     62  C   UNL A   1      39.117  32.119  36.116  1.00  0.00     0.064 A 
ATOM     63  C   UNL A   1      38.224  31.447  36.961  1.00  0.00     0.173 A 
ATOM     64  C   UNL A   1      39.404  33.465  36.391  1.00  0.00     0.173 A 
ATOM     65  F   UNL A   1      37.913  30.163  36.729  1.00  0.00    -0.203 F 
ATOM     66  C   UNL A   1      37.630  32.101  38.035  1.00  0.00     0.198 A 
ATOM     67  C   UNL A   1      38.827  34.109  37.481  1.00  0.00     0.198 A 
ATOM     68  F   UNL A   1      40.263  34.145  35.616  1.00  0.00    -0.203 F 
ATOM     69  F   UNL A   1      36.756  31.449  38.813  1.00  0.00    -0.200 F 
ATOM     70  C   UNL A   1      37.938  33.428  38.299  1.00  0.00     0.200 A 
ATOM     71  F   UNL A   1      39.139  35.385  37.744  1.00  0.00    -0.200 F 
ATOM     72  F   UNL A   1      37.376  34.051  39.343  1.00  0.00    -0.200 F 
ENDBRANCH  39  62
ENDBRANCH  13  14
ENDBRANCH   6   8
ENDBRANCH   5   6
ENDBRANCH   4   5
ENDBRANCH   3   4
ENDBRANCH   2   3
ENDBRANCH   1   2
BRANCH   1  73
ATOM     73  C   UNL A   1      45.138  19.173  24.038  1.00  0.00     0.188 C 
BRANCH  73  74
ATOM     74  O   UNL A   1      44.191  18.348  24.716  1.00  0.00    -0.376 OA
BRANCH  74  75
ATOM     75  C   UNL A   1      43.478  18.929  25.802  1.00  0.00     0.202 C 
BRANCH  75  76
ATOM     76  C   UNL A   1      41.980  19.190  25.604  1.00  0.00     0.261 C 
BRANCH  76  77
ATOM     77  O   UNL A   1      41.541  20.538  25.840  1.00  0.00    -0.460 OA
BRANCH  77  78
ATOM     78  C   UNL A   1      40.900  20.701  27.026  1.00  0.00     0.342 C 
ATOM     79  O   UNL A   1      40.928  19.961  27.994  1.00  0.00    -0.246 OA
BRANCH  78  80
ATOM     80  C   UNL A   1      40.072  21.915  27.008  1.00  0.00     0.102 A 
ATOM     81  C   UNL A   1      38.886  21.966  26.257  1.00  0.00     0.028 A 
ATOM     82  C   UNL A   1      40.605  23.073  27.574  1.00  0.00     0.130 A 
ATOM     83  C   UNL A   1      38.231  23.196  26.076  1.00  0.00    -0.017 A 
ATOM     84  C   UNL A   1      39.974  24.294  27.377  1.00  0.00     0.048 A 
ATOM     85  C   UNL A   1      38.787  24.351  26.648  1.00  0.00     0.012 A 
BRANCH  82  86
ATOM     86  O   UNL A   1      41.740  23.014  28.331  1.00  0.00    -0.507 OA
ATOM     87  H   UNL A   1      42.577  22.946  27.914  1.00  0.00     0.293 HD
ENDBRANCH  82  86
BRANCH  83  88
ATOM     88  C   UNL A   1      36.984  23.351  25.293  1.00  0.00    -0.011 A 
ATOM     89  C   UNL A   1      36.830  22.819  23.951  1.00  0.00     0.027 A 
ATOM     90  C   UNL A   1      36.000  24.113  25.795  1.00  0.00     0.080 A 
ATOM     91  C   UNL A   1      35.771  23.145  23.200  1.00  0.00     0.095 A 
ATOM     92  C   UNL A   1      34.813  24.491  24.973  1.00  0.00     0.255 A 
ATOM     93  N   UNL A   1      34.782  23.979  23.687  1.00  0.00    -0.258 N 
ATOM     94  O   UNL A   1      33.977  25.245  25.461  1.00  0.00    -0.269 OA
BRANCH  93  95
ATOM     95  C   UNL A   1      33.690  24.391  22.841  1.00  0.00     0.451 C 
ATOM     96  F   UNL A   1      33.923  25.604  22.288  1.00  0.00    -0.185 F 
ATOM     97  F   UNL A   1      33.497  23.501  21.837  1.00  0.00    -0.185 F 
ENDBRANCH  93  95
ENDBRANCH  83  88
ENDBRANCH  78  80
ENDBRANCH  77  78
ENDBRANCH  76  77
ENDBRANCH  75  76
ENDBRANCH  74  75
ENDBRANCH  73  74
ENDBRANCH   1  73
TORSDOF 20
ENDMDL
MODEL 3
REMARK VINA RESULT:     -11.1      1.245      7.253
REMARK SMILES O=C(OCCOCCOCCOC(=O)c1cc(-c2ccn(C(F)F)c(=O)c2)ccc1O)c1ccc(-c2c3nc(c(-c4c(F)c(F)c(F)c(F)c4F)c4ccc([nH]4)c(-c4c(F)c(F)c(F)c(F)c4F)c4nc(c(-c5c(F)c(F)c(F)c(F)c5F)c5ccc2[nH]5)C=C4)C=C3)cc1
REMARK SMILES IDX 7 1 6 2 5 3 4 4 3 5 2 6 1 7 32 8 33 9 94 10 34 11 93 12
REMARK SMILES IDX 35 13 36 14 37 15 87 16 38 17 92 18 86 19 88 20 39 21 91 22
REMARK SMILES IDX 85 23 84 24 40 26 72 27 52 28 71 29 53 30 56 31 70 32 89 33
REMARK SMILES IDX 54 34 55 35 69 37 90 38 57 39 41 40 42 41 50 42 43 43 44 44
REMARK SMILES IDX 48 45 51 46 45 47 46 48 49 49 47 50 73 51 74 52 82 53 75 54
REMARK SMILES IDX 76 55 80 56 83 57 77 58 78 59 81 60 79 61 58 62 59 63 67 64
REMARK SMILES IDX 60 65 61 66 65 67 68 68 62 69 63 70 66 71 64 72 8 73 9 74
REMARK SMILES IDX 10 75 11 76 12 77 13 78 14 79 15 80 16 81 30 82 17 83 29 84
REMARK SMILES IDX 28 85 31 86 18 88 19 89 27 90 20 91 25 92 21 93 26 94 22 95
REMARK SMILES IDX 23 96 24 97
REMARK H PARENT 88 25 56 36 31 87
REMARK Flexibility Score: inf
ROOT
ATOM      1  C   UNL A   1      32.075  29.520  26.243  1.00  0.00     0.188 C 
ENDROOT
BRANCH   1   2
ATOM      2  O   UNL A   1      32.568  30.823  26.587  1.00  0.00    -0.376 OA
BRANCH   2   3
ATOM      3  C   UNL A   1      31.526  31.759  26.885  1.00  0.00     0.202 C 
BRANCH   3   4
ATOM      4  C   UNL A   1      31.916  33.218  26.637  1.00  0.00     0.261 C 
BRANCH   4   5
ATOM      5  O   UNL A   1      32.569  33.804  27.769  1.00  0.00    -0.460 OA
BRANCH   5   6
ATOM      6  C   UNL A   1      33.879  34.116  27.922  1.00  0.00     0.338 C 
ATOM      7  O   UNL A   1      34.250  35.214  27.506  1.00  0.00    -0.246 OA
BRANCH   6   8
ATOM      8  C   UNL A   1      34.913  33.236  28.570  1.00  0.00     0.060 A 
ATOM      9  C   UNL A   1      36.222  33.745  28.599  1.00  0.00     0.016 A 
ATOM     10  C   UNL A   1      34.720  31.955  29.096  1.00  0.00     0.016 A 
ATOM     11  C   UNL A   1      37.286  33.007  29.133  1.00  0.00     0.010 A 
ATOM     12  C   UNL A   1      35.770  31.231  29.679  1.00  0.00     0.010 A 
ATOM     13  C   UNL A   1      37.065  31.744  29.693  1.00  0.00    -0.014 A 
BRANCH  13  14
ATOM     14  C   UNL A   1      38.147  31.027  30.404  1.00  0.00     0.031 A 
ATOM     15  C   UNL A   1      38.956  29.942  29.758  1.00  0.00     0.074 A 
ATOM     16  C   UNL A   1      38.343  31.326  31.702  1.00  0.00     0.049 A 
ATOM     17  N   UNL A   1      40.000  29.304  30.232  1.00  0.00    -0.248 NA
ATOM     18  C   UNL A   1      38.539  29.490  28.422  1.00  0.00     0.031 C 
ATOM     19  C   UNL A   1      37.554  32.295  32.465  1.00  0.00     0.029 A 
ATOM     20  N   UNL A   1      39.246  30.838  32.609  1.00  0.00    -0.354 N 
ATOM     21  C   UNL A   1      40.395  28.427  29.236  1.00  0.00     0.074 A 
ATOM     22  C   UNL A   1      39.422  28.531  28.173  1.00  0.00     0.031 C 
ATOM     23  C   UNL A   1      38.016  32.341  33.722  1.00  0.00     0.029 A 
ATOM     24  C   UNL A   1      39.116  31.393  33.856  1.00  0.00     0.049 A 
ATOM     25  H   UNL A   1      39.920  30.156  32.388  1.00  0.00     0.167 HD
ATOM     26  C   UNL A   1      41.493  27.636  29.198  1.00  0.00     0.037 A 
ATOM     27  C   UNL A   1      39.810  31.169  34.985  1.00  0.00     0.037 A 
ATOM     28  C   UNL A   1      42.412  27.477  30.292  1.00  0.00     0.049 A 
ATOM     29  C   UNL A   1      40.962  30.209  34.957  1.00  0.00     0.074 A 
ATOM     30  C   UNL A   1      43.583  26.742  30.338  1.00  0.00     0.029 A 
ATOM     31  N   UNL A   1      42.233  28.030  31.549  1.00  0.00    -0.354 N 
ATOM     32  N   UNL A   1      41.433  29.519  33.948  1.00  0.00    -0.248 NA
ATOM     33  C   UNL A   1      41.685  30.006  36.218  1.00  0.00     0.031 C 
ATOM     34  C   UNL A   1      44.081  26.802  31.644  1.00  0.00     0.029 A 
ATOM     35  C   UNL A   1      43.242  27.608  32.397  1.00  0.00     0.049 A 
ATOM     36  H   UNL A   1      41.499  28.635  31.802  1.00  0.00     0.167 HD
ATOM     37  C   UNL A   1      42.518  28.812  34.443  1.00  0.00     0.074 A 
ATOM     38  C   UNL A   1      42.642  29.166  35.843  1.00  0.00     0.031 C 
ATOM     39  C   UNL A   1      43.339  27.953  33.792  1.00  0.00     0.037 A 
BRANCH  26  40
ATOM     40  C   UNL A   1      41.806  26.918  27.921  1.00  0.00     0.064 A 
ATOM     41  C   UNL A   1      42.617  27.523  26.951  1.00  0.00     0.173 A 
ATOM     42  C   UNL A   1      41.391  25.598  27.701  1.00  0.00     0.173 A 
ATOM     43  F   UNL A   1      43.030  28.791  27.107  1.00  0.00    -0.203 F 
ATOM     44  C   UNL A   1      42.987  26.839  25.796  1.00  0.00     0.198 A 
ATOM     45  C   UNL A   1      41.775  24.911  26.550  1.00  0.00     0.198 A 
ATOM     46  F   UNL A   1      40.625  24.971  28.605  1.00  0.00    -0.203 F 
ATOM     47  F   UNL A   1      43.721  27.458  24.861  1.00  0.00    -0.200 F 
ATOM     48  C   UNL A   1      42.570  25.533  25.599  1.00  0.00     0.200 A 
ATOM     49  F   UNL A   1      41.375  23.646  26.361  1.00  0.00    -0.200 F 
ATOM     50  F   UNL A   1      42.920  24.880  24.481  1.00  0.00    -0.200 F 
ENDBRANCH  26  40
BRANCH  27  51
ATOM     51  C   UNL A   1      39.441  31.925  36.206  1.00  0.00     0.064 A 
ATOM     52  C   UNL A   1      40.072  33.137  36.512  1.00  0.00     0.173 A 
ATOM     53  C   UNL A   1      38.380  31.510  37.023  1.00  0.00     0.173 A 
ATOM     54  F   UNL A   1      41.098  33.565  35.763  1.00  0.00    -0.203 F 
ATOM     55  C   UNL A   1      39.647  33.914  37.587  1.00  0.00     0.198 A 
ATOM     56  C   UNL A   1      37.940  32.298  38.084  1.00  0.00     0.198 A 
ATOM     57  F   UNL A   1      37.737  30.362  36.758  1.00  0.00    -0.203 F 
ATOM     58  F   UNL A   1      40.269  35.067  37.864  1.00  0.00    -0.200 F 
ATOM     59  C   UNL A   1      38.574  33.499  38.364  1.00  0.00     0.200 A 
ATOM     60  F   UNL A   1      36.892  31.904  38.819  1.00  0.00    -0.200 F 
ATOM     61  F   UNL A   1      38.147  34.262  39.380  1.00  0.00    -0.200 F 
ENDBRANCH  27  51
BRANCH  39  62
ATOM     62  C   UNL A   1      44.436  27.317  34.586  1.00  0.00     0.064 A 
ATOM     63  C   UNL A   1      45.664  27.967  34.774  1.00  0.00     0.173 A 
ATOM     64  C   UNL A   1      44.235  26.084  35.224  1.00  0.00     0.173 A 
ATOM     65  F   UNL A   1      45.904  29.143  34.175  1.00  0.00    -0.203 F 
ATOM     66  C   UNL A   1      46.659  27.396  35.562  1.00  0.00     0.198 A 
ATOM     67  C   UNL A   1      45.223  25.529  36.030  1.00  0.00     0.198 A 
ATOM     68  F   UNL A   1      43.071  25.432  35.082  1.00  0.00    -0.203 F 
ATOM     69  F   UNL A   1      47.836  28.019  35.704  1.00  0.00    -0.200 F 
ATOM     70  C   UNL A   1      46.434  26.183  36.195  1.00  0.00     0.200 A 
ATOM     71  F   UNL A   1      44.998  24.364  36.655  1.00  0.00    -0.200 F 
ATOM     72  F   UNL A   1      47.389  25.643  36.965  1.00  0.00    -0.200 F 
ENDBRANCH  39  62
ENDBRANCH  13  14
ENDBRANCH   6   8
ENDBRANCH   5   6
ENDBRANCH   4   5
ENDBRANCH   3   4
ENDBRANCH   2   3
ENDBRANCH   1   2
BRANCH   1  73
ATOM     73  C   UNL A   1      31.288  29.557  24.930  1.00  0.00     0.188 C 
BRANCH  73  74
ATOM     74  O   UNL A   1      31.821  28.762  23.871  1.00  0.00    -0.376 OA
BRANCH  74  75
ATOM     75  C   UNL A   1      32.964  29.265  23.190  1.00  0.00     0.202 C 
BRANCH  75  76
ATOM     76  C   UNL A   1      34.109  28.282  22.910  1.00  0.00     0.261 C 
BRANCH  76  77
ATOM     77  O   UNL A   1      33.913  26.940  23.387  1.00  0.00    -0.460 OA
BRANCH  77  78
ATOM     78  C   UNL A   1      33.489  26.079  22.427  1.00  0.00     0.342 C 
ATOM     79  O   UNL A   1      33.691  26.145  21.226  1.00  0.00    -0.246 OA
BRANCH  78  80
ATOM     80  C   UNL A   1      32.664  25.013  23.011  1.00  0.00     0.102 A 
ATOM     81  C   UNL A   1      33.213  23.752  23.295  1.00  0.00     0.028 A 
ATOM     82  C   UNL A   1      31.285  25.217  23.068  1.00  0.00     0.130 A 
ATOM     83  C   UNL A   1      32.364  22.687  23.641  1.00  0.00    -0.017 A 
ATOM     84  C   UNL A   1      30.441  24.161  23.386  1.00  0.00     0.048 A 
ATOM     85  C   UNL A   1      30.979  22.911  23.687  1.00  0.00     0.012 A 
BRANCH  82  86
ATOM     86  O   UNL A   1      30.758  26.453  22.823  1.00  0.00    -0.507 OA
ATOM     87  H   UNL A   1      31.272  27.101  22.382  1.00  0.00     0.293 HD
ENDBRANCH  82  86
BRANCH  83  88
ATOM     88  C   UNL A   1      32.847  21.321  23.947  1.00  0.00    -0.011 A 
ATOM     89  C   UNL A   1      34.028  21.070  24.753  1.00  0.00     0.027 A 
ATOM     90  C   UNL A   1      32.240  20.277  23.361  1.00  0.00     0.080 A 
ATOM     91  C   UNL A   1      34.548  19.839  24.844  1.00  0.00     0.095 A 
ATOM     92  C   UNL A   1      32.806  18.899  23.448  1.00  0.00     0.255 A 
ATOM     93  N   UNL A   1      33.964  18.769  24.194  1.00  0.00    -0.258 N 
ATOM     94  O   UNL A   1      32.246  17.995  22.836  1.00  0.00    -0.269 OA
BRANCH  93  95
ATOM     95  C   UNL A   1      34.580  17.466  24.231  1.00  0.00     0.451 C 
ATOM     96  F   UNL A   1      35.761  17.494  24.893  1.00  0.00    -0.185 F 
ATOM     97  F   UNL A   1      33.773  16.569  24.849  1.00  0.00    -0.185 F 
ENDBRANCH  93  95
ENDBRANCH  83  88
ENDBRANCH  78  80
ENDBRANCH  77  78
ENDBRANCH  76  77
ENDBRANCH  75  76
ENDBRANCH  74  75
ENDBRANCH  73  74
ENDBRANCH   1  73
TORSDOF 20
ENDMDL
