MODEL 1
REMARK VINA RESULT:     -12.3      0.000      0.000
REMARK SMILES Cc1ccc(NC(=O)C[C@H]2SC[C@H](C(=O)OCCOCCOCCOC(=O)c3ccc(-c4c5nc(c(-c6c(F)c(F)c(F)c(F)c6F)c6ccc([nH]6)c(-c6c(F)c(F)c(F)c(F)c6F)c6nc(c(-c7c(F)c(F)c(F)c(F)c7F)c7ccc4[nH]7)C=C6)C=C5)cc3)NC2=O)cc1
REMARK SMILES IDX 20 1 19 2 18 3 17 4 16 5 14 6 15 7 13 8 10 9 11 10 92 11
REMARK SMILES IDX 12 12 91 13 93 14 9 16 7 17 6 18 8 20 5 21 1 22 2 23 3 24
REMARK SMILES IDX 95 25 4 26 94 27 21 28 22 29 23 30 24 31 25 32 26 33 27 34
REMARK SMILES IDX 28 35 29 36 90 37 30 38 89 39 31 40 32 41 33 42 83 43 34 44
REMARK SMILES IDX 88 45 82 46 84 47 35 48 87 49 81 50 80 51 36 53 68 54 48 55
REMARK SMILES IDX 67 56 49 57 52 58 66 59 85 60 50 61 51 62 65 64 86 65 53 66
REMARK SMILES IDX 37 67 38 68 46 69 39 70 40 71 44 72 47 73 41 74 42 75 45 76
REMARK SMILES IDX 43 77 69 78 70 79 78 80 71 81 72 82 76 83 79 84 73 85 74 86
REMARK SMILES IDX 77 87 75 88 54 89 55 90 63 91 56 92 57 93 61 94 64 95 58 96
REMARK SMILES IDX 59 97 62 98 60 99
REMARK H PARENT 91 15 6 19 84 52 52 63
REMARK Flexibility Score: inf
ROOT
ATOM      1  C   UNL A   1      34.088  27.868  24.064  1.00  0.00     0.188 C 
ENDROOT
BRANCH   1   2
ATOM      2  O   UNL A   1      33.261  27.049  24.856  1.00  0.00    -0.376 OA
BRANCH   2   3
ATOM      3  C   UNL A   1      31.958  27.550  25.069  1.00  0.00     0.202 C 
BRANCH   3   4
ATOM      4  C   UNL A   1      31.639  28.561  26.198  1.00  0.00     0.261 C 
BRANCH   4   5
ATOM      5  O   UNL A   1      32.015  30.151  26.138  1.00  0.00    -0.462 OA
BRANCH   5   6
ATOM      6  C   UNL A   1      31.788  31.534  26.381  1.00  0.00     0.329 C 
ATOM      7  O   UNL A   1      30.811  31.966  25.752  1.00  0.00    -0.250 OA
BRANCH   6   8
ATOM      8  C   UNL A   1      32.513  32.731  27.463  1.00  0.00     0.202 C 
ATOM      9  C   UNL A   1      34.249  34.576  29.428  1.00  0.00     0.145 C 
ATOM     10  S   UNL A   1      34.176  32.774  29.754  1.00  0.00    -0.145 SA
ATOM     11  C   UNL A   1      32.936  35.006  28.685  1.00  0.00     0.234 C 
ATOM     12  C   UNL A   1      33.873  32.273  28.059  1.00  0.00     0.107 C 
ATOM     13  N   UNL A   1      32.477  34.241  27.579  1.00  0.00    -0.341 N 
ATOM     14  O   UNL A   1      32.365  36.068  28.937  1.00  0.00    -0.274 OA
ATOM     15  H   UNL A   1      32.099  34.738  26.817  1.00  0.00     0.164 HD
BRANCH   9  16
ATOM     16  C   UNL A   1      34.799  35.180  30.744  1.00  0.00     0.124 C 
BRANCH  16  17
ATOM     17  C   UNL A   1      34.133  34.919  32.066  1.00  0.00     0.226 C 
ATOM     18  N   UNL A   1      34.807  34.424  33.129  1.00  0.00    -0.326 N 
ATOM     19  H   UNL A   1      34.286  34.416  33.965  1.00  0.00     0.169 HD
ATOM     20  O   UNL A   1      32.927  35.146  32.204  1.00  0.00    -0.275 OA
BRANCH  18  21
ATOM     21  C   UNL A   1      36.101  33.920  33.264  1.00  0.00     0.041 A 
ATOM     22  C   UNL A   1      39.887  31.938  33.746  1.00  0.00     0.044 C 
ATOM     23  C   UNL A   1      38.588  32.672  33.613  1.00  0.00    -0.051 A 
ATOM     24  C   UNL A   1      38.414  33.645  32.621  1.00  0.00     0.005 A 
ATOM     25  C   UNL A   1      37.509  32.335  34.433  1.00  0.00     0.005 A 
ATOM     26  C   UNL A   1      37.175  34.272  32.448  1.00  0.00     0.026 A 
ATOM     27  C   UNL A   1      36.271  32.938  34.240  1.00  0.00     0.026 A 
ENDBRANCH  18  21
ENDBRANCH  16  17
ENDBRANCH   9  16
ENDBRANCH   6   8
ENDBRANCH   5   6
ENDBRANCH   4   5
ENDBRANCH   3   4
ENDBRANCH   2   3
ENDBRANCH   1   2
BRANCH   1  28
ATOM     28  C   UNL A   1      33.585  28.056  22.621  1.00  0.00     0.188 C 
BRANCH  28  29
ATOM     29  O   UNL A   1      33.778  26.935  21.762  1.00  0.00    -0.376 OA
BRANCH  29  30
ATOM     30  C   UNL A   1      32.682  26.045  21.573  1.00  0.00     0.202 C 
BRANCH  30  31
ATOM     31  C   UNL A   1      33.079  24.576  21.769  1.00  0.00     0.261 C 
BRANCH  31  32
ATOM     32  O   UNL A   1      34.133  24.502  22.754  1.00  0.00    -0.460 OA
BRANCH  32  33
ATOM     33  C   UNL A   1      33.794  23.797  23.854  1.00  0.00     0.338 C 
ATOM     34  O   UNL A   1      32.661  23.710  24.323  1.00  0.00    -0.246 OA
BRANCH  33  35
ATOM     35  C   UNL A   1      35.039  23.512  24.611  1.00  0.00     0.060 A 
ATOM     36  C   UNL A   1      35.024  23.965  25.896  1.00  0.00     0.016 A 
ATOM     37  C   UNL A   1      36.283  23.183  24.061  1.00  0.00     0.016 A 
ATOM     38  C   UNL A   1      36.252  24.259  26.499  1.00  0.00     0.010 A 
ATOM     39  C   UNL A   1      37.507  23.422  24.772  1.00  0.00     0.010 A 
ATOM     40  C   UNL A   1      37.556  24.010  26.049  1.00  0.00    -0.014 A 
BRANCH  40  41
ATOM     41  C   UNL A   1      38.936  24.437  26.686  1.00  0.00     0.031 A 
ATOM     42  C   UNL A   1      39.944  23.340  26.888  1.00  0.00     0.074 A 
ATOM     43  C   UNL A   1      39.547  25.575  27.222  1.00  0.00     0.049 A 
ATOM     44  N   UNL A   1      41.150  23.525  27.328  1.00  0.00    -0.248 NA
ATOM     45  C   UNL A   1      39.652  21.932  26.669  1.00  0.00     0.031 C 
ATOM     46  C   UNL A   1      40.887  26.014  26.700  1.00  0.00     0.029 A 
ATOM     47  N   UNL A   1      39.182  26.760  27.885  1.00  0.00    -0.354 N 
ATOM     48  C   UNL A   1      41.878  22.431  26.981  1.00  0.00     0.074 A 
ATOM     49  C   UNL A   1      40.878  21.411  26.783  1.00  0.00     0.031 C 
ATOM     50  C   UNL A   1      41.220  27.229  27.159  1.00  0.00     0.029 A 
ATOM     51  C   UNL A   1      40.196  27.680  28.071  1.00  0.00     0.049 A 
ATOM     52  H   UNL A   1      38.264  26.925  28.198  1.00  0.00     0.167 HD
ATOM     53  C   UNL A   1      43.205  22.594  26.707  1.00  0.00     0.037 A 
ATOM     54  C   UNL A   1      40.263  28.574  29.094  1.00  0.00     0.037 A 
ATOM     55  C   UNL A   1      43.743  23.903  27.141  1.00  0.00     0.049 A 
ATOM     56  C   UNL A   1      41.525  28.281  29.852  1.00  0.00     0.074 A 
ATOM     57  C   UNL A   1      44.335  24.975  26.489  1.00  0.00     0.029 A 
ATOM     58  N   UNL A   1      43.588  24.321  28.465  1.00  0.00    -0.354 N 
ATOM     59  N   UNL A   1      42.415  27.474  29.358  1.00  0.00    -0.248 NA
ATOM     60  C   UNL A   1      41.852  28.689  31.214  1.00  0.00     0.031 C 
ATOM     61  C   UNL A   1      44.600  25.999  27.447  1.00  0.00     0.029 A 
ATOM     62  C   UNL A   1      44.183  25.555  28.689  1.00  0.00     0.049 A 
ATOM     63  H   UNL A   1      43.114  23.803  29.155  1.00  0.00     0.167 HD
ATOM     64  C   UNL A   1      43.301  27.113  30.308  1.00  0.00     0.074 A 
ATOM     65  C   UNL A   1      42.931  27.919  31.461  1.00  0.00     0.031 C 
ATOM     66  C   UNL A   1      44.215  26.145  30.031  1.00  0.00     0.037 A 
BRANCH  53  67
ATOM     67  C   UNL A   1      44.027  21.610  25.885  1.00  0.00     0.064 A 
ATOM     68  C   UNL A   1      43.534  20.314  25.614  1.00  0.00     0.173 A 
ATOM     69  C   UNL A   1      45.332  21.842  25.393  1.00  0.00     0.173 A 
ATOM     70  F   UNL A   1      42.333  19.917  26.053  1.00  0.00    -0.203 F 
ATOM     71  C   UNL A   1      44.263  19.363  24.888  1.00  0.00     0.198 A 
ATOM     72  C   UNL A   1      46.025  20.923  24.602  1.00  0.00     0.198 A 
ATOM     73  F   UNL A   1      46.029  22.941  25.691  1.00  0.00    -0.203 F 
ATOM     74  F   UNL A   1      43.763  18.133  24.715  1.00  0.00    -0.200 F 
ATOM     75  C   UNL A   1      45.495  19.679  24.355  1.00  0.00     0.200 A 
ATOM     76  F   UNL A   1      47.225  21.256  24.104  1.00  0.00    -0.200 F 
ATOM     77  F   UNL A   1      46.179  18.786  23.630  1.00  0.00    -0.200 F 
ENDBRANCH  53  67
BRANCH  54  78
ATOM     78  C   UNL A   1      38.973  29.068  29.652  1.00  0.00     0.064 A 
ATOM     79  C   UNL A   1      38.453  28.438  30.806  1.00  0.00     0.173 A 
ATOM     80  C   UNL A   1      38.359  30.262  29.262  1.00  0.00     0.173 A 
ATOM     81  F   UNL A   1      39.006  27.298  31.249  1.00  0.00    -0.203 F 
ATOM     82  C   UNL A   1      37.420  29.004  31.560  1.00  0.00     0.198 A 
ATOM     83  C   UNL A   1      37.314  30.824  30.009  1.00  0.00     0.198 A 
ATOM     84  F   UNL A   1      38.832  30.942  28.210  1.00  0.00    -0.203 F 
ATOM     85  F   UNL A   1      37.031  28.425  32.706  1.00  0.00    -0.200 F 
ATOM     86  C   UNL A   1      36.854  30.204  31.165  1.00  0.00     0.200 A 
ATOM     87  F   UNL A   1      36.823  32.024  29.663  1.00  0.00    -0.200 F 
ATOM     88  F   UNL A   1      35.933  30.802  31.936  1.00  0.00    -0.200 F 
ENDBRANCH  54  78
BRANCH  66  89
ATOM     89  C   UNL A   1      45.241  25.719  31.021  1.00  0.00     0.064 A 
ATOM     90  C   UNL A   1      44.935  24.884  32.106  1.00  0.00     0.173 A 
ATOM     91  C   UNL A   1      46.554  26.218  30.955  1.00  0.00     0.173 A 
ATOM     92  F   UNL A   1      43.682  24.447  32.309  1.00  0.00    -0.203 F 
ATOM     93  C   UNL A   1      45.908  24.498  33.022  1.00  0.00     0.198 A 
ATOM     94  C   UNL A   1      47.509  25.880  31.906  1.00  0.00     0.198 A 
ATOM     95  F   UNL A   1      46.948  27.027  29.960  1.00  0.00    -0.203 F 
ATOM     96  F   UNL A   1      45.596  23.640  34.002  1.00  0.00    -0.200 F 
ATOM     97  C   UNL A   1      47.194  25.000  32.925  1.00  0.00     0.200 A 
ATOM     98  F   UNL A   1      48.740  26.404  31.822  1.00  0.00    -0.200 F 
ATOM     99  F   UNL A   1      48.128  24.639  33.814  1.00  0.00    -0.200 F 
ENDBRANCH  66  89
ENDBRANCH  40  41
ENDBRANCH  33  35
ENDBRANCH  32  33
ENDBRANCH  31  32
ENDBRANCH  30  31
ENDBRANCH  29  30
ENDBRANCH  28  29
ENDBRANCH   1  28
TORSDOF 20
ENDMDL
MODEL 2
REMARK VINA RESULT:     -12.2      1.461      2.597
REMARK SMILES Cc1ccc(NC(=O)C[C@H]2SC[C@H](C(=O)OCCOCCOCCOC(=O)c3ccc(-c4c5nc(c(-c6c(F)c(F)c(F)c(F)c6F)c6ccc([nH]6)c(-c6c(F)c(F)c(F)c(F)c6F)c6nc(c(-c7c(F)c(F)c(F)c(F)c7F)c7ccc4[nH]7)C=C6)C=C5)cc3)NC2=O)cc1
REMARK SMILES IDX 20 1 19 2 18 3 17 4 16 5 14 6 15 7 13 8 10 9 11 10 92 11
REMARK SMILES IDX 12 12 91 13 93 14 9 16 7 17 6 18 8 20 5 21 1 22 2 23 3 24
REMARK SMILES IDX 95 25 4 26 94 27 21 28 22 29 23 30 24 31 25 32 26 33 27 34
REMARK SMILES IDX 28 35 29 36 90 37 30 38 89 39 31 40 32 41 33 42 83 43 34 44
REMARK SMILES IDX 88 45 82 46 84 47 35 48 87 49 81 50 80 51 36 53 68 54 48 55
REMARK SMILES IDX 67 56 49 57 52 58 66 59 85 60 50 61 51 62 65 64 86 65 53 66
REMARK SMILES IDX 37 67 38 68 46 69 39 70 40 71 44 72 47 73 41 74 42 75 45 76
REMARK SMILES IDX 43 77 69 78 70 79 78 80 71 81 72 82 76 83 79 84 73 85 74 86
REMARK SMILES IDX 77 87 75 88 54 89 55 90 63 91 56 92 57 93 61 94 64 95 58 96
REMARK SMILES IDX 59 97 62 98 60 99
REMARK H PARENT 91 15 6 19 84 52 52 63
REMARK Flexibility Score: inf
ROOT
ATOM      1  C   UNL A   1      33.549  28.545  26.659  1.00  0.00     0.188 C 
ENDROOT
BRANCH   1   2
ATOM      2  O   UNL A   1      32.960  29.555  27.443  1.00  0.00    -0.376 OA
BRANCH   2   3
ATOM      3  C   UNL A   1      33.515  30.842  27.269  1.00  0.00     0.202 C 
BRANCH   3   4
ATOM      4  C   UNL A   1      32.679  32.133  27.458  1.00  0.00     0.261 C 
BRANCH   4   5
ATOM      5  O   UNL A   1      33.248  33.501  28.147  1.00  0.00    -0.462 OA
BRANCH   5   6
ATOM      6  C   UNL A   1      33.582  34.343  29.244  1.00  0.00     0.329 C 
ATOM      7  O   UNL A   1      32.832  35.327  29.324  1.00  0.00    -0.250 OA
BRANCH   6   8
ATOM      8  C   UNL A   1      34.744  34.234  30.573  1.00  0.00     0.202 C 
ATOM      9  C   UNL A   1      36.483  33.735  33.219  1.00  0.00     0.145 C 
ATOM     10  S   UNL A   1      34.718  34.190  33.404  1.00  0.00    -0.145 SA
ATOM     11  C   UNL A   1      37.017  34.325  31.867  1.00  0.00     0.234 C 
ATOM     12  C   UNL A   1      34.172  33.524  31.831  1.00  0.00     0.107 C 
ATOM     13  N   UNL A   1      36.254  34.154  30.681  1.00  0.00    -0.341 N 
ATOM     14  O   UNL A   1      38.145  34.810  31.770  1.00  0.00    -0.274 OA
ATOM     15  H   UNL A   1      36.751  33.967  29.852  1.00  0.00     0.164 HD
BRANCH   9  16
ATOM     16  C   UNL A   1      37.087  33.971  34.626  1.00  0.00     0.124 C 
BRANCH  16  17
ATOM     17  C   UNL A   1      37.725  32.854  35.404  1.00  0.00     0.226 C 
ATOM     18  N   UNL A   1      38.913  32.312  35.049  1.00  0.00    -0.326 N 
ATOM     19  H   UNL A   1      39.276  31.678  35.708  1.00  0.00     0.169 HD
ATOM     20  O   UNL A   1      37.155  32.390  36.397  1.00  0.00    -0.275 OA
BRANCH  18  21
ATOM     21  C   UNL A   1      39.719  32.484  33.923  1.00  0.00     0.041 A 
ATOM     22  C   UNL A   1      41.807  32.943  30.192  1.00  0.00     0.044 C 
ATOM     23  C   UNL A   1      41.124  32.749  31.510  1.00  0.00    -0.051 A 
ATOM     24  C   UNL A   1      41.397  33.600  32.589  1.00  0.00     0.005 A 
ATOM     25  C   UNL A   1      40.148  31.761  31.652  1.00  0.00     0.005 A 
ATOM     26  C   UNL A   1      40.700  33.466  33.795  1.00  0.00     0.026 A 
ATOM     27  C   UNL A   1      39.436  31.649  32.842  1.00  0.00     0.026 A 
ENDBRANCH  18  21
ENDBRANCH  16  17
ENDBRANCH   9  16
ENDBRANCH   6   8
ENDBRANCH   5   6
ENDBRANCH   4   5
ENDBRANCH   3   4
ENDBRANCH   2   3
ENDBRANCH   1   2
BRANCH   1  28
ATOM     28  C   UNL A   1      33.012  28.477  25.217  1.00  0.00     0.188 C 
BRANCH  28  29
ATOM     29  O   UNL A   1      33.213  27.231  24.555  1.00  0.00    -0.376 OA
BRANCH  29  30
ATOM     30  C   UNL A   1      32.189  26.770  23.679  1.00  0.00     0.202 C 
BRANCH  30  31
ATOM     31  C   UNL A   1      32.244  25.252  23.459  1.00  0.00     0.261 C 
BRANCH  31  32
ATOM     32  O   UNL A   1      33.612  24.808  23.594  1.00  0.00    -0.460 OA
BRANCH  32  33
ATOM     33  C   UNL A   1      33.730  23.477  23.783  1.00  0.00     0.338 C 
ATOM     34  O   UNL A   1      32.826  22.656  23.650  1.00  0.00    -0.246 OA
BRANCH  33  35
ATOM     35  C   UNL A   1      34.971  23.238  24.563  1.00  0.00     0.060 A 
ATOM     36  C   UNL A   1      34.932  23.729  25.834  1.00  0.00     0.016 A 
ATOM     37  C   UNL A   1      36.228  22.918  24.037  1.00  0.00     0.016 A 
ATOM     38  C   UNL A   1      36.146  24.064  26.442  1.00  0.00     0.010 A 
ATOM     39  C   UNL A   1      37.438  23.201  24.755  1.00  0.00     0.010 A 
ATOM     40  C   UNL A   1      37.460  23.828  26.015  1.00  0.00    -0.014 A 
BRANCH  40  41
ATOM     41  C   UNL A   1      38.824  24.301  26.655  1.00  0.00     0.031 A 
ATOM     42  C   UNL A   1      39.864  23.236  26.868  1.00  0.00     0.074 A 
ATOM     43  C   UNL A   1      39.398  25.459  27.187  1.00  0.00     0.049 A 
ATOM     44  N   UNL A   1      41.061  23.460  27.312  1.00  0.00    -0.248 NA
ATOM     45  C   UNL A   1      39.615  21.818  26.656  1.00  0.00     0.031 C 
ATOM     46  C   UNL A   1      40.726  25.935  26.668  1.00  0.00     0.029 A 
ATOM     47  N   UNL A   1      38.994  26.637  27.841  1.00  0.00    -0.354 N 
ATOM     48  C   UNL A   1      41.823  22.386  26.975  1.00  0.00     0.074 A 
ATOM     49  C   UNL A   1      40.856  21.335  26.778  1.00  0.00     0.031 C 
ATOM     50  C   UNL A   1      41.019  27.163  27.121  1.00  0.00     0.029 A 
ATOM     51  C   UNL A   1      39.979  27.588  28.026  1.00  0.00     0.049 A 
ATOM     52  H   UNL A   1      38.069  26.775  28.149  1.00  0.00     0.167 HD
ATOM     53  C   UNL A   1      43.146  22.587  26.705  1.00  0.00     0.037 A 
ATOM     54  C   UNL A   1      40.014  28.490  29.043  1.00  0.00     0.037 A 
ATOM     55  C   UNL A   1      43.642  23.915  27.134  1.00  0.00     0.049 A 
ATOM     56  C   UNL A   1      41.281  28.239  29.809  1.00  0.00     0.074 A 
ATOM     57  C   UNL A   1      44.205  25.001  26.478  1.00  0.00     0.029 A 
ATOM     58  N   UNL A   1      43.469  24.336  28.454  1.00  0.00    -0.354 N 
ATOM     59  N   UNL A   1      42.197  27.457  29.324  1.00  0.00    -0.248 NA
ATOM     60  C   UNL A   1      41.589  28.666  31.169  1.00  0.00     0.031 C 
ATOM     61  C   UNL A   1      44.434  26.038  27.431  1.00  0.00     0.029 A 
ATOM     62  C   UNL A   1      44.026  25.589  28.674  1.00  0.00     0.049 A 
ATOM     63  H   UNL A   1      43.008  23.808  29.146  1.00  0.00     0.167 HD
ATOM     64  C   UNL A   1      43.089  27.129  30.280  1.00  0.00     0.074 A 
ATOM     65  C   UNL A   1      42.690  27.930  31.426  1.00  0.00     0.031 C 
ATOM     66  C   UNL A   1      44.033  26.187  30.012  1.00  0.00     0.037 A 
BRANCH  53  67
ATOM     67  C   UNL A   1      44.001  21.624  25.893  1.00  0.00     0.064 A 
ATOM     68  C   UNL A   1      45.253  22.032  25.382  1.00  0.00     0.173 A 
ATOM     69  C   UNL A   1      43.627  20.314  25.517  1.00  0.00     0.173 A 
ATOM     70  F   UNL A   1      45.733  23.261  25.606  1.00  0.00    -0.203 F 
ATOM     71  C   UNL A   1      46.063  21.193  24.605  1.00  0.00     0.198 A 
ATOM     72  C   UNL A   1      44.468  19.451  24.810  1.00  0.00     0.198 A 
ATOM     73  F   UNL A   1      42.413  19.813  25.760  1.00  0.00    -0.203 F 
ATOM     74  F   UNL A   1      47.215  21.659  24.103  1.00  0.00    -0.200 F 
ATOM     75  C   UNL A   1      45.685  19.892  24.346  1.00  0.00     0.200 A 
ATOM     76  F   UNL A   1      44.068  18.195  24.567  1.00  0.00    -0.200 F 
ATOM     77  F   UNL A   1      46.472  19.076  23.636  1.00  0.00    -0.200 F 
ENDBRANCH  53  67
BRANCH  54  78
ATOM     78  C   UNL A   1      38.707  28.948  29.594  1.00  0.00     0.064 A 
ATOM     79  C   UNL A   1      38.312  28.482  30.868  1.00  0.00     0.173 A 
ATOM     80  C   UNL A   1      37.952  29.991  29.048  1.00  0.00     0.173 A 
ATOM     81  F   UNL A   1      39.003  27.495  31.460  1.00  0.00    -0.203 F 
ATOM     82  C   UNL A   1      37.261  29.069  31.582  1.00  0.00     0.198 A 
ATOM     83  C   UNL A   1      36.890  30.572  29.757  1.00  0.00     0.198 A 
ATOM     84  F   UNL A   1      38.300  30.520  27.868  1.00  0.00    -0.203 F 
ATOM     85  F   UNL A   1      36.991  28.663  32.832  1.00  0.00    -0.200 F 
ATOM     86  C   UNL A   1      36.555  30.121  31.028  1.00  0.00     0.200 A 
ATOM     87  F   UNL A   1      36.260  31.640  29.246  1.00  0.00    -0.200 F 
ATOM     88  F   UNL A   1      35.613  30.754  31.746  1.00  0.00    -0.200 F 
ENDBRANCH  54  78
BRANCH  66  89
ATOM     89  C   UNL A   1      45.067  25.799  31.009  1.00  0.00     0.064 A 
ATOM     90  C   UNL A   1      44.840  24.811  31.979  1.00  0.00     0.173 A 
ATOM     91  C   UNL A   1      46.296  26.480  31.073  1.00  0.00     0.173 A 
ATOM     92  F   UNL A   1      43.656  24.184  32.063  1.00  0.00    -0.203 F 
ATOM     93  C   UNL A   1      45.819  24.463  32.904  1.00  0.00     0.198 A 
ATOM     94  C   UNL A   1      47.249  26.172  32.037  1.00  0.00     0.198 A 
ATOM     95  F   UNL A   1      46.611  27.443  30.194  1.00  0.00    -0.203 F 
ATOM     96  F   UNL A   1      45.593  23.464  33.768  1.00  0.00    -0.200 F 
ATOM     97  C   UNL A   1      47.022  25.147  32.935  1.00  0.00     0.200 A 
ATOM     98  F   UNL A   1      48.393  26.867  32.080  1.00  0.00    -0.200 F 
ATOM     99  F   UNL A   1      47.960  24.821  33.834  1.00  0.00    -0.200 F 
ENDBRANCH  66  89
ENDBRANCH  40  41
ENDBRANCH  33  35
ENDBRANCH  32  33
ENDBRANCH  31  32
ENDBRANCH  30  31
ENDBRANCH  29  30
ENDBRANCH  28  29
ENDBRANCH   1  28
TORSDOF 20
ENDMDL
MODEL 3
REMARK VINA RESULT:     -12.2      4.283      8.262
REMARK SMILES Cc1ccc(NC(=O)C[C@H]2SC[C@H](C(=O)OCCOCCOCCOC(=O)c3ccc(-c4c5nc(c(-c6c(F)c(F)c(F)c(F)c6F)c6ccc([nH]6)c(-c6c(F)c(F)c(F)c(F)c6F)c6nc(c(-c7c(F)c(F)c(F)c(F)c7F)c7ccc4[nH]7)C=C6)C=C5)cc3)NC2=O)cc1
REMARK SMILES IDX 20 1 19 2 18 3 17 4 16 5 14 6 15 7 13 8 10 9 11 10 92 11
REMARK SMILES IDX 12 12 91 13 93 14 9 16 7 17 6 18 8 20 5 21 1 22 2 23 3 24
REMARK SMILES IDX 95 25 4 26 94 27 21 28 22 29 23 30 24 31 25 32 26 33 27 34
REMARK SMILES IDX 28 35 29 36 90 37 30 38 89 39 31 40 32 41 33 42 83 43 34 44
REMARK SMILES IDX 88 45 82 46 84 47 35 48 87 49 81 50 80 51 36 53 68 54 48 55
REMARK SMILES IDX 67 56 49 57 52 58 66 59 85 60 50 61 51 62 65 64 86 65 53 66
REMARK SMILES IDX 37 67 38 68 46 69 39 70 40 71 44 72 47 73 41 74 42 75 45 76
REMARK SMILES IDX 43 77 69 78 70 79 78 80 71 81 72 82 76 83 79 84 73 85 74 86
REMARK SMILES IDX 77 87 75 88 54 89 55 90 63 91 56 92 57 93 61 94 64 95 58 96
REMARK SMILES IDX 59 97 62 98 60 99
REMARK H PARENT 91 15 6 19 84 52 52 63
REMARK Flexibility Score: inf
ROOT
ATOM      1  C   UNL A   1      34.078  29.128  26.622  1.00  0.00     0.188 C 
ENDROOT
BRANCH   1   2
ATOM      2  O   UNL A   1      32.875  28.766  27.258  1.00  0.00    -0.376 OA
BRANCH   2   3
ATOM      3  C   UNL A   1      31.795  29.647  27.032  1.00  0.00     0.202 C 
BRANCH   3   4
ATOM      4  C   UNL A   1      31.631  30.424  25.701  1.00  0.00     0.261 C 
BRANCH   4   5
ATOM      5  O   UNL A   1      30.861  29.834  24.385  1.00  0.00    -0.462 OA
BRANCH   5   6
ATOM      6  C   UNL A   1      30.702  28.959  23.275  1.00  0.00     0.329 C 
ATOM      7  O   UNL A   1      29.939  29.425  22.417  1.00  0.00    -0.250 OA
BRANCH   6   8
ATOM      8  C   UNL A   1      31.438  27.422  22.802  1.00  0.00     0.202 C 
ATOM      9  C   UNL A   1      32.554  24.444  22.390  1.00  0.00     0.145 C 
ATOM     10  S   UNL A   1      32.714  25.220  24.043  1.00  0.00    -0.145 SA
ATOM     11  C   UNL A   1      32.532  25.576  21.303  1.00  0.00     0.234 C 
ATOM     12  C   UNL A   1      31.306  26.319  23.888  1.00  0.00     0.107 C 
ATOM     13  N   UNL A   1      31.692  26.707  21.490  1.00  0.00    -0.341 N 
ATOM     14  O   UNL A   1      33.110  25.451  20.223  1.00  0.00    -0.274 OA
ATOM     15  H   UNL A   1      31.234  27.060  20.693  1.00  0.00     0.164 HD
BRANCH   9  16
ATOM     16  C   UNL A   1      33.524  23.237  22.440  1.00  0.00     0.124 C 
BRANCH  16  17
ATOM     17  C   UNL A   1      33.224  22.024  23.274  1.00  0.00     0.226 C 
ATOM     18  N   UNL A   1      34.017  21.639  24.300  1.00  0.00    -0.326 N 
ATOM     19  H   UNL A   1      33.645  20.905  24.840  1.00  0.00     0.169 HD
ATOM     20  O   UNL A   1      32.231  21.333  23.024  1.00  0.00    -0.275 OA
BRANCH  18  21
ATOM     21  C   UNL A   1      35.265  22.087  24.736  1.00  0.00     0.041 A 
ATOM     22  C   UNL A   1      38.904  23.549  26.501  1.00  0.00     0.044 C 
ATOM     23  C   UNL A   1      37.648  23.072  25.839  1.00  0.00    -0.051 A 
ATOM     24  C   UNL A   1      37.662  21.947  25.004  1.00  0.00     0.005 A 
ATOM     25  C   UNL A   1      36.432  23.703  26.109  1.00  0.00     0.005 A 
ATOM     26  C   UNL A   1      36.476  21.457  24.449  1.00  0.00     0.026 A 
ATOM     27  C   UNL A   1      35.250  23.196  25.581  1.00  0.00     0.026 A 
ENDBRANCH  18  21
ENDBRANCH  16  17
ENDBRANCH   9  16
ENDBRANCH   6   8
ENDBRANCH   5   6
ENDBRANCH   4   5
ENDBRANCH   3   4
ENDBRANCH   2   3
ENDBRANCH   1   2
BRANCH   1  28
ATOM     28  C   UNL A   1      35.077  29.858  27.539  1.00  0.00     0.188 C 
BRANCH  28  29
ATOM     29  O   UNL A   1      34.900  31.270  27.622  1.00  0.00    -0.376 OA
BRANCH  29  30
ATOM     30  C   UNL A   1      35.230  31.910  28.852  1.00  0.00     0.202 C 
BRANCH  30  31
ATOM     31  C   UNL A   1      36.746  32.053  29.050  1.00  0.00     0.261 C 
BRANCH  31  32
ATOM     32  O   UNL A   1      37.078  31.679  30.406  1.00  0.00    -0.460 OA
BRANCH  32  33
ATOM     33  C   UNL A   1      36.825  30.383  30.684  1.00  0.00     0.338 C 
ATOM     34  O   UNL A   1      35.920  29.973  31.408  1.00  0.00    -0.246 OA
BRANCH  33  35
ATOM     35  C   UNL A   1      38.035  29.598  30.329  1.00  0.00     0.060 A 
ATOM     36  C   UNL A   1      39.123  29.878  31.099  1.00  0.00     0.016 A 
ATOM     37  C   UNL A   1      38.258  28.926  29.122  1.00  0.00     0.016 A 
ATOM     38  C   UNL A   1      40.389  29.657  30.546  1.00  0.00     0.010 A 
ATOM     39  C   UNL A   1      39.584  28.642  28.653  1.00  0.00     0.010 A 
ATOM     40  C   UNL A   1      40.747  29.026  29.347  1.00  0.00    -0.014 A 
BRANCH  40  41
ATOM     41  C   UNL A   1      42.169  28.872  28.679  1.00  0.00     0.031 A 
ATOM     42  C   UNL A   1      42.788  27.503  28.737  1.00  0.00     0.074 A 
ATOM     43  C   UNL A   1      43.141  29.668  28.063  1.00  0.00     0.049 A 
ATOM     44  N   UNL A   1      43.913  27.183  28.177  1.00  0.00    -0.248 NA
ATOM     45  C   UNL A   1      42.217  26.396  29.489  1.00  0.00     0.031 C 
ATOM     46  C   UNL A   1      43.660  29.286  26.705  1.00  0.00     0.029 A 
ATOM     47  N   UNL A   1      43.598  30.997  28.097  1.00  0.00    -0.354 N 
ATOM     48  C   UNL A   1      43.939  25.828  28.070  1.00  0.00     0.074 A 
ATOM     49  C   UNL A   1      42.997  25.394  29.071  1.00  0.00     0.031 C 
ATOM     50  C   UNL A   1      44.409  30.263  26.173  1.00  0.00     0.029 A 
ATOM     51  C   UNL A   1      44.524  31.337  27.129  1.00  0.00     0.049 A 
ATOM     52  H   UNL A   1      43.281  31.644  28.767  1.00  0.00     0.167 HD
ATOM     53  C   UNL A   1      44.595  25.274  27.009  1.00  0.00     0.037 A 
ATOM     54  C   UNL A   1      45.483  32.292  27.266  1.00  0.00     0.037 A 
ATOM     55  C   UNL A   1      45.470  26.227  26.289  1.00  0.00     0.049 A 
ATOM     56  C   UNL A   1      46.811  31.609  27.107  1.00  0.00     0.074 A 
ATOM     57  C   UNL A   1      45.517  26.712  24.990  1.00  0.00     0.029 A 
ATOM     58  N   UNL A   1      46.442  26.951  26.985  1.00  0.00    -0.354 N 
ATOM     59  N   UNL A   1      46.872  30.389  26.666  1.00  0.00    -0.248 NA
ATOM     60  C   UNL A   1      48.114  32.103  27.536  1.00  0.00     0.031 C 
ATOM     61  C   UNL A   1      46.572  27.669  24.901  1.00  0.00     0.029 A 
ATOM     62  C   UNL A   1      47.182  27.766  26.139  1.00  0.00     0.049 A 
ATOM     63  H   UNL A   1      46.585  26.889  27.957  1.00  0.00     0.167 HD
ATOM     64  C   UNL A   1      48.096  29.871  26.888  1.00  0.00     0.074 A 
ATOM     65  C   UNL A   1      48.863  30.989  27.415  1.00  0.00     0.031 C 
ATOM     66  C   UNL A   1      48.312  28.550  26.645  1.00  0.00     0.037 A 
BRANCH  53  67
ATOM     67  C   UNL A   1      44.337  23.863  26.498  1.00  0.00     0.064 A 
ATOM     68  C   UNL A   1      45.414  22.998  26.203  1.00  0.00     0.173 A 
ATOM     69  C   UNL A   1      43.066  23.316  26.206  1.00  0.00     0.173 A 
ATOM     70  F   UNL A   1      46.686  23.380  26.377  1.00  0.00    -0.203 F 
ATOM     71  C   UNL A   1      45.229  21.702  25.704  1.00  0.00     0.198 A 
ATOM     72  C   UNL A   1      42.879  21.998  25.784  1.00  0.00     0.198 A 
ATOM     73  F   UNL A   1      41.943  24.036  26.259  1.00  0.00    -0.203 F 
ATOM     74  F   UNL A   1      46.295  20.952  25.391  1.00  0.00    -0.200 F 
ATOM     75  C   UNL A   1      43.962  21.191  25.524  1.00  0.00     0.200 A 
ATOM     76  F   UNL A   1      41.634  21.533  25.611  1.00  0.00    -0.200 F 
ATOM     77  F   UNL A   1      43.780  19.941  25.082  1.00  0.00    -0.200 F 
ENDBRANCH  53  67
BRANCH  54  78
ATOM     78  C   UNL A   1      45.169  33.452  28.148  1.00  0.00     0.064 A 
ATOM     79  C   UNL A   1      44.377  34.501  27.627  1.00  0.00     0.173 A 
ATOM     80  C   UNL A   1      45.398  33.468  29.527  1.00  0.00     0.173 A 
ATOM     81  F   UNL A   1      44.102  34.536  26.314  1.00  0.00    -0.203 F 
ATOM     82  C   UNL A   1      43.797  35.473  28.448  1.00  0.00     0.198 A 
ATOM     83  C   UNL A   1      44.828  34.450  30.351  1.00  0.00     0.198 A 
ATOM     84  F   UNL A   1      46.094  32.478  30.100  1.00  0.00    -0.203 F 
ATOM     85  F   UNL A   1      42.968  36.386  27.922  1.00  0.00    -0.200 F 
ATOM     86  C   UNL A   1      44.017  35.443  29.814  1.00  0.00     0.200 A 
ATOM     87  F   UNL A   1      44.983  34.370  31.681  1.00  0.00    -0.200 F 
ATOM     88  F   UNL A   1      43.384  36.312  30.618  1.00  0.00    -0.200 F 
ENDBRANCH  54  78
BRANCH  66  89
ATOM     89  C   UNL A   1      49.645  27.918  26.838  1.00  0.00     0.064 A 
ATOM     90  C   UNL A   1      50.627  27.917  25.836  1.00  0.00     0.173 A 
ATOM     91  C   UNL A   1      49.941  27.210  28.017  1.00  0.00     0.173 A 
ATOM     92  F   UNL A   1      50.392  28.476  24.638  1.00  0.00    -0.203 F 
ATOM     93  C   UNL A   1      51.867  27.319  26.035  1.00  0.00     0.198 A 
ATOM     94  C   UNL A   1      51.159  26.561  28.189  1.00  0.00     0.198 A 
ATOM     95  F   UNL A   1      49.070  27.146  29.034  1.00  0.00    -0.203 F 
ATOM     96  F   UNL A   1      52.806  27.403  25.083  1.00  0.00    -0.200 F 
ATOM     97  C   UNL A   1      52.131  26.637  27.210  1.00  0.00     0.200 A 
ATOM     98  F   UNL A   1      51.386  25.872  29.315  1.00  0.00    -0.200 F 
ATOM     99  F   UNL A   1      53.320  26.050  27.397  1.00  0.00    -0.200 F 
ENDBRANCH  66  89
ENDBRANCH  40  41
ENDBRANCH  33  35
ENDBRANCH  32  33
ENDBRANCH  31  32
ENDBRANCH  30  31
ENDBRANCH  29  30
ENDBRANCH  28  29
ENDBRANCH   1  28
TORSDOF 20
ENDMDL
