MODEL 1
REMARK VINA RESULT:     -10.6      0.000      0.000
REMARK SMILES C[C@H]1[C@H](C(=O)OCCOCCOCCOC(=O)c2ccc(-c3c4nc(c(-c5c(F)c(F)c(F)c(F)c5F)c5ccc([nH]5)c(-c5c(F)c(F)c(F)c(F)c5F)c5nc(c(-c6c(F)c(F)c(F)c(F)c6F)c6ccc3[nH]6)C=C5)C=C4)cc2)CCN1C(=O)COc1ccccc1F
REMARK SMILES IDX 10 1 9 2 8 3 7 4 6 5 4 6 5 7 3 8 1 9 2 10 83 11 81 12 82 13
REMARK SMILES IDX 84 14 85 15 86 16 87 17 88 18 89 19 93 20 90 21 92 22 94 23
REMARK SMILES IDX 91 24 11 25 12 26 13 27 14 28 15 29 16 30 17 31 18 32 19 33
REMARK SMILES IDX 80 34 20 35 79 36 21 37 22 38 23 39 73 40 24 41 78 42 72 43
REMARK SMILES IDX 74 44 25 45 77 46 71 47 70 48 26 50 58 51 38 52 57 53 39 54
REMARK SMILES IDX 42 55 56 56 75 57 40 58 41 59 55 61 76 62 43 63 27 64 28 65
REMARK SMILES IDX 36 66 29 67 30 68 34 69 37 70 31 71 32 72 35 73 33 74 59 75
REMARK SMILES IDX 60 76 68 77 61 78 62 79 66 80 69 81 63 82 64 83 67 84 65 85
REMARK SMILES IDX 44 86 45 87 53 88 46 89 47 90 51 91 54 92 48 93 49 94 52 95
REMARK SMILES IDX 50 96
REMARK H PARENT 74 49 42 60
REMARK Flexibility Score: inf
ROOT
ATOM      1  C   UNL A   1      34.505  21.814  27.020  1.00  0.00     0.188 C 
ENDROOT
BRANCH   1   2
ATOM      2  O   UNL A   1      33.421  22.726  27.123  1.00  0.00    -0.376 OA
BRANCH   2   3
ATOM      3  C   UNL A   1      33.275  23.749  26.143  1.00  0.00     0.202 C 
BRANCH   3   4
ATOM      4  C   UNL A   1      34.480  24.648  25.806  1.00  0.00     0.261 C 
BRANCH   4   5
ATOM      5  O   UNL A   1      34.430  25.338  24.532  1.00  0.00    -0.463 OA
BRANCH   5   6
ATOM      6  C   UNL A   1      34.197  24.564  23.445  1.00  0.00     0.311 C 
ATOM      7  O   UNL A   1      34.976  23.705  23.037  1.00  0.00    -0.252 OA
BRANCH   6   8
ATOM      8  C   UNL A   1      32.893  24.826  22.704  1.00  0.00     0.123 C 
ATOM      9  C   UNL A   1      30.652  23.790  23.127  1.00  0.00     0.032 C 
ATOM     10  C   UNL A   1      31.549  24.998  23.455  1.00  0.00     0.096 C 
ATOM     11  N   UNL A   1      30.983  26.252  22.950  1.00  0.00    -0.336 N 
ATOM     12  C   UNL A   1      33.065  26.096  21.873  1.00  0.00     0.039 C 
ATOM     13  C   UNL A   1      31.682  26.692  21.765  1.00  0.00     0.121 C 
BRANCH  11  14
ATOM     14  C   UNL A   1      29.937  27.015  23.438  1.00  0.00     0.260 C 
ATOM     15  O   UNL A   1      28.946  26.483  23.954  1.00  0.00    -0.271 OA
BRANCH  14  16
ATOM     16  C   UNL A   1      29.993  28.551  23.351  1.00  0.00     0.329 C 
BRANCH  16  17
ATOM     17  O   UNL A   1      30.646  29.381  24.292  1.00  0.00    -0.481 OA
BRANCH  17  18
ATOM     18  C   UNL A   1      31.708  28.918  25.016  1.00  0.00     0.155 A 
ATOM     19  C   UNL A   1      31.404  28.573  26.339  1.00  0.00     0.049 A 
ATOM     20  C   UNL A   1      33.050  28.913  24.634  1.00  0.00     0.165 A 
ATOM     21  C   UNL A   1      32.413  28.229  27.247  1.00  0.00     0.004 A 
ATOM     22  C   UNL A   1      34.061  28.573  25.533  1.00  0.00     0.043 A 
ATOM     23  F   UNL A   1      33.447  29.320  23.428  1.00  0.00    -0.203 F 
ATOM     24  C   UNL A   1      33.746  28.234  26.844  1.00  0.00     0.003 A 
ENDBRANCH  17  18
ENDBRANCH  16  17
ENDBRANCH  14  16
ENDBRANCH  11  14
ENDBRANCH   6   8
ENDBRANCH   5   6
ENDBRANCH   4   5
ENDBRANCH   3   4
ENDBRANCH   2   3
ENDBRANCH   1   2
BRANCH   1  25
ATOM     25  C   UNL A   1      34.756  21.094  25.689  1.00  0.00     0.188 C 
BRANCH  25  26
ATOM     26  O   UNL A   1      36.037  21.266  25.144  1.00  0.00    -0.376 OA
BRANCH  26  27
ATOM     27  C   UNL A   1      37.025  21.965  25.873  1.00  0.00     0.202 C 
BRANCH  27  28
ATOM     28  C   UNL A   1      38.524  21.636  25.751  1.00  0.00     0.261 C 
BRANCH  28  29
ATOM     29  O   UNL A   1      39.414  22.704  25.405  1.00  0.00    -0.460 OA
BRANCH  29  30
ATOM     30  C   UNL A   1      40.509  22.877  26.185  1.00  0.00     0.338 C 
ATOM     31  O   UNL A   1      41.505  22.184  26.225  1.00  0.00    -0.246 OA
BRANCH  30  32
ATOM     32  C   UNL A   1      40.374  24.205  26.825  1.00  0.00     0.060 A 
ATOM     33  C   UNL A   1      41.233  25.248  26.443  1.00  0.00     0.016 A 
ATOM     34  C   UNL A   1      39.382  24.420  27.781  1.00  0.00     0.016 A 
ATOM     35  C   UNL A   1      41.104  26.512  27.023  1.00  0.00     0.010 A 
ATOM     36  C   UNL A   1      39.276  25.674  28.383  1.00  0.00     0.010 A 
ATOM     37  C   UNL A   1      40.148  26.719  28.024  1.00  0.00    -0.014 A 
BRANCH  37  38
ATOM     38  C   UNL A   1      40.167  27.941  28.863  1.00  0.00     0.031 A 
ATOM     39  C   UNL A   1      41.182  28.011  29.968  1.00  0.00     0.074 A 
ATOM     40  C   UNL A   1      39.275  28.932  28.698  1.00  0.00     0.049 A 
ATOM     41  N   UNL A   1      41.258  28.833  30.981  1.00  0.00    -0.248 NA
ATOM     42  C   UNL A   1      42.251  26.999  29.928  1.00  0.00     0.031 C 
ATOM     43  C   UNL A   1      38.292  29.017  27.622  1.00  0.00     0.029 A 
ATOM     44  N   UNL A   1      39.033  30.043  29.469  1.00  0.00    -0.354 N 
ATOM     45  C   UNL A   1      42.361  28.418  31.716  1.00  0.00     0.074 A 
ATOM     46  C   UNL A   1      42.917  27.267  31.040  1.00  0.00     0.031 C 
ATOM     47  C   UNL A   1      37.527  30.105  27.820  1.00  0.00     0.029 A 
ATOM     48  C   UNL A   1      37.930  30.756  29.067  1.00  0.00     0.049 A 
ATOM     49  H   UNL A   1      39.595  30.302  30.234  1.00  0.00     0.167 HD
ATOM     50  C   UNL A   1      42.856  28.949  32.857  1.00  0.00     0.037 A 
ATOM     51  C   UNL A   1      37.293  31.781  29.668  1.00  0.00     0.037 A 
ATOM     52  C   UNL A   1      42.294  30.092  33.522  1.00  0.00     0.049 A 
ATOM     53  C   UNL A   1      37.806  32.299  30.991  1.00  0.00     0.074 A 
ATOM     54  C   UNL A   1      42.724  30.714  34.681  1.00  0.00     0.029 A 
ATOM     55  N   UNL A   1      41.171  30.782  33.087  1.00  0.00    -0.354 N 
ATOM     56  N   UNL A   1      38.842  31.904  31.691  1.00  0.00    -0.248 NA
ATOM     57  C   UNL A   1      37.055  33.400  31.614  1.00  0.00     0.031 C 
ATOM     58  C   UNL A   1      41.827  31.742  34.981  1.00  0.00     0.029 A 
ATOM     59  C   UNL A   1      40.880  31.808  33.971  1.00  0.00     0.049 A 
ATOM     60  H   UNL A   1      40.658  30.573  32.274  1.00  0.00     0.167 HD
ATOM     61  C   UNL A   1      38.893  32.733  32.807  1.00  0.00     0.074 A 
ATOM     62  C   UNL A   1      37.781  33.651  32.696  1.00  0.00     0.031 C 
ATOM     63  C   UNL A   1      39.787  32.736  33.826  1.00  0.00     0.037 A 
BRANCH  50  64
ATOM     64  C   UNL A   1      44.037  28.268  33.485  1.00  0.00     0.064 A 
ATOM     65  C   UNL A   1      43.890  27.174  34.350  1.00  0.00     0.173 A 
ATOM     66  C   UNL A   1      45.340  28.703  33.192  1.00  0.00     0.173 A 
ATOM     67  F   UNL A   1      42.667  26.730  34.676  1.00  0.00    -0.203 F 
ATOM     68  C   UNL A   1      45.001  26.558  34.920  1.00  0.00     0.198 A 
ATOM     69  C   UNL A   1      46.449  28.063  33.736  1.00  0.00     0.198 A 
ATOM     70  F   UNL A   1      45.536  29.745  32.371  1.00  0.00    -0.203 F 
ATOM     71  F   UNL A   1      44.835  25.548  35.785  1.00  0.00    -0.200 F 
ATOM     72  C   UNL A   1      46.279  26.997  34.606  1.00  0.00     0.200 A 
ATOM     73  F   UNL A   1      47.683  28.481  33.420  1.00  0.00    -0.200 F 
ATOM     74  F   UNL A   1      47.348  26.396  35.148  1.00  0.00    -0.200 F 
ENDBRANCH  50  64
BRANCH  51  75
ATOM     75  C   UNL A   1      36.075  32.370  29.049  1.00  0.00     0.064 A 
ATOM     76  C   UNL A   1      36.004  33.739  28.755  1.00  0.00     0.173 A 
ATOM     77  C   UNL A   1      34.947  31.585  28.763  1.00  0.00     0.173 A 
ATOM     78  F   UNL A   1      37.043  34.539  29.038  1.00  0.00    -0.203 F 
ATOM     79  C   UNL A   1      34.847  34.304  28.220  1.00  0.00     0.198 A 
ATOM     80  C   UNL A   1      33.803  32.144  28.197  1.00  0.00     0.198 A 
ATOM     81  F   UNL A   1      34.957  30.271  29.030  1.00  0.00    -0.203 F 
ATOM     82  F   UNL A   1      34.788  35.624  28.001  1.00  0.00    -0.200 F 
ATOM     83  C   UNL A   1      33.750  33.505  27.935  1.00  0.00     0.200 A 
ATOM     84  F   UNL A   1      32.749  31.367  27.915  1.00  0.00    -0.200 F 
ATOM     85  F   UNL A   1      32.639  34.048  27.420  1.00  0.00    -0.200 F 
ENDBRANCH  51  75
BRANCH  63  86
ATOM     86  C   UNL A   1      39.662  33.807  34.872  1.00  0.00     0.064 A 
ATOM     87  C   UNL A   1      38.963  33.600  36.069  1.00  0.00     0.173 A 
ATOM     88  C   UNL A   1      40.344  35.024  34.710  1.00  0.00     0.173 A 
ATOM     89  F   UNL A   1      38.286  32.460  36.267  1.00  0.00    -0.203 F 
ATOM     90  C   UNL A   1      38.946  34.576  37.063  1.00  0.00     0.198 A 
ATOM     91  C   UNL A   1      40.350  35.983  35.718  1.00  0.00     0.198 A 
ATOM     92  F   UNL A   1      41.034  35.268  33.586  1.00  0.00    -0.203 F 
ATOM     93  F   UNL A   1      38.250  34.369  38.190  1.00  0.00    -0.200 F 
ATOM     94  C   UNL A   1      39.649  35.760  36.893  1.00  0.00     0.200 A 
ATOM     95  F   UNL A   1      41.047  37.117  35.558  1.00  0.00    -0.200 F 
ATOM     96  F   UNL A   1      39.653  36.685  37.863  1.00  0.00    -0.200 F 
ENDBRANCH  63  86
ENDBRANCH  37  38
ENDBRANCH  30  32
ENDBRANCH  29  30
ENDBRANCH  28  29
ENDBRANCH  27  28
ENDBRANCH  26  27
ENDBRANCH  25  26
ENDBRANCH   1  25
TORSDOF 21
ENDMDL
MODEL 2
REMARK VINA RESULT:     -10.6      3.306      8.929
REMARK SMILES C[C@H]1[C@H](C(=O)OCCOCCOCCOC(=O)c2ccc(-c3c4nc(c(-c5c(F)c(F)c(F)c(F)c5F)c5ccc([nH]5)c(-c5c(F)c(F)c(F)c(F)c5F)c5nc(c(-c6c(F)c(F)c(F)c(F)c6F)c6ccc3[nH]6)C=C5)C=C4)cc2)CCN1C(=O)COc1ccccc1F
REMARK SMILES IDX 10 1 9 2 8 3 7 4 6 5 4 6 5 7 3 8 1 9 2 10 83 11 81 12 82 13
REMARK SMILES IDX 84 14 85 15 86 16 87 17 88 18 89 19 93 20 90 21 92 22 94 23
REMARK SMILES IDX 91 24 11 25 12 26 13 27 14 28 15 29 16 30 17 31 18 32 19 33
REMARK SMILES IDX 80 34 20 35 79 36 21 37 22 38 23 39 73 40 24 41 78 42 72 43
REMARK SMILES IDX 74 44 25 45 77 46 71 47 70 48 26 50 58 51 38 52 57 53 39 54
REMARK SMILES IDX 42 55 56 56 75 57 40 58 41 59 55 61 76 62 43 63 27 64 28 65
REMARK SMILES IDX 36 66 29 67 30 68 34 69 37 70 31 71 32 72 35 73 33 74 59 75
REMARK SMILES IDX 60 76 68 77 61 78 62 79 66 80 69 81 63 82 64 83 67 84 65 85
REMARK SMILES IDX 44 86 45 87 53 88 46 89 47 90 51 91 54 92 48 93 49 94 52 95
REMARK SMILES IDX 50 96
REMARK H PARENT 74 49 42 60
REMARK Flexibility Score: inf
ROOT
ATOM      1  C   UNL A   1      35.622  33.081  28.117  1.00  0.00     0.188 C 
ENDROOT
BRANCH   1   2
ATOM      2  O   UNL A   1      35.568  31.778  27.555  1.00  0.00    -0.376 OA
BRANCH   2   3
ATOM      3  C   UNL A   1      34.562  30.870  27.994  1.00  0.00     0.202 C 
BRANCH   3   4
ATOM      4  C   UNL A   1      33.794  30.034  26.953  1.00  0.00     0.261 C 
BRANCH   4   5
ATOM      5  O   UNL A   1      33.618  28.629  27.261  1.00  0.00    -0.463 OA
BRANCH   5   6
ATOM      6  C   UNL A   1      32.419  28.093  26.929  1.00  0.00     0.311 C 
ATOM      7  O   UNL A   1      31.563  27.770  27.749  1.00  0.00    -0.252 OA
BRANCH   6   8
ATOM      8  C   UNL A   1      32.174  27.871  25.443  1.00  0.00     0.123 C 
ATOM      9  C   UNL A   1      33.501  28.769  23.518  1.00  0.00     0.032 C 
ATOM     10  C   UNL A   1      33.333  27.564  24.462  1.00  0.00     0.096 C 
ATOM     11  N   UNL A   1      32.919  26.358  23.741  1.00  0.00    -0.336 N 
ATOM     12  C   UNL A   1      31.190  26.712  25.291  1.00  0.00     0.039 C 
ATOM     13  C   UNL A   1      31.518  26.083  23.958  1.00  0.00     0.121 C 
BRANCH  11  14
ATOM     14  C   UNL A   1      33.657  25.506  22.937  1.00  0.00     0.260 C 
ATOM     15  O   UNL A   1      33.718  25.677  21.714  1.00  0.00    -0.271 OA
BRANCH  14  16
ATOM     16  C   UNL A   1      34.424  24.325  23.560  1.00  0.00     0.329 C 
BRANCH  16  17
ATOM     17  O   UNL A   1      33.919  23.503  24.595  1.00  0.00    -0.481 OA
BRANCH  17  18
ATOM     18  C   UNL A   1      33.698  22.171  24.385  1.00  0.00     0.155 A 
ATOM     19  C   UNL A   1      32.706  21.889  23.437  1.00  0.00     0.049 A 
ATOM     20  C   UNL A   1      34.222  21.105  25.116  1.00  0.00     0.165 A 
ATOM     21  C   UNL A   1      32.261  20.578  23.225  1.00  0.00     0.004 A 
ATOM     22  C   UNL A   1      33.782  19.797  24.913  1.00  0.00     0.043 A 
ATOM     23  F   UNL A   1      35.097  21.283  26.107  1.00  0.00    -0.203 F 
ATOM     24  C   UNL A   1      32.797  19.529  23.969  1.00  0.00     0.003 A 
ENDBRANCH  17  18
ENDBRANCH  16  17
ENDBRANCH  14  16
ENDBRANCH  11  14
ENDBRANCH   6   8
ENDBRANCH   5   6
ENDBRANCH   4   5
ENDBRANCH   3   4
ENDBRANCH   2   3
ENDBRANCH   1   2
BRANCH   1  25
ATOM     25  C   UNL A   1      34.459  33.570  28.990  1.00  0.00     0.188 C 
BRANCH  25  26
ATOM     26  O   UNL A   1      34.160  34.936  28.884  1.00  0.00    -0.376 OA
BRANCH  26  27
ATOM     27  C   UNL A   1      32.925  35.427  29.366  1.00  0.00     0.202 C 
BRANCH  27  28
ATOM     28  C   UNL A   1      32.760  36.864  29.893  1.00  0.00     0.261 C 
BRANCH  28  29
ATOM     29  O   UNL A   1      33.155  37.127  31.245  1.00  0.00    -0.460 OA
BRANCH  29  30
ATOM     30  C   UNL A   1      32.738  36.254  32.194  1.00  0.00     0.338 C 
ATOM     31  O   UNL A   1      31.629  36.164  32.679  1.00  0.00    -0.246 OA
BRANCH  30  32
ATOM     32  C   UNL A   1      33.826  35.265  32.375  1.00  0.00     0.060 A 
ATOM     33  C   UNL A   1      33.512  33.959  32.786  1.00  0.00     0.016 A 
ATOM     34  C   UNL A   1      35.146  35.626  32.113  1.00  0.00     0.016 A 
ATOM     35  C   UNL A   1      34.525  33.010  32.941  1.00  0.00     0.010 A 
ATOM     36  C   UNL A   1      36.160  34.686  32.300  1.00  0.00     0.010 A 
ATOM     37  C   UNL A   1      35.858  33.382  32.735  1.00  0.00    -0.014 A 
BRANCH  37  38
ATOM     38  C   UNL A   1      36.974  32.506  33.163  1.00  0.00     0.031 A 
ATOM     39  C   UNL A   1      37.629  32.806  34.480  1.00  0.00     0.074 A 
ATOM     40  C   UNL A   1      37.440  31.514  32.385  1.00  0.00     0.049 A 
ATOM     41  N   UNL A   1      38.756  32.366  34.972  1.00  0.00    -0.248 NA
ATOM     42  C   UNL A   1      36.915  33.751  35.356  1.00  0.00     0.031 C 
ATOM     43  C   UNL A   1      36.848  31.077  31.124  1.00  0.00     0.029 A 
ATOM     44  N   UNL A   1      38.551  30.720  32.534  1.00  0.00    -0.354 N 
ATOM     45  C   UNL A   1      38.903  33.002  36.198  1.00  0.00     0.074 A 
ATOM     46  C   UNL A   1      37.756  33.866  36.371  1.00  0.00     0.031 C 
ATOM     47  C   UNL A   1      37.622  30.114  30.594  1.00  0.00     0.029 A 
ATOM     48  C   UNL A   1      38.792  29.911  31.449  1.00  0.00     0.049 A 
ATOM     49  H   UNL A   1      39.118  30.729  33.338  1.00  0.00     0.167 HD
ATOM     50  C   UNL A   1      39.911  32.879  37.092  1.00  0.00     0.037 A 
ATOM     51  C   UNL A   1      39.861  29.141  31.162  1.00  0.00     0.037 A 
ATOM     52  C   UNL A   1      41.047  32.018  36.909  1.00  0.00     0.049 A 
ATOM     53  C   UNL A   1      41.019  29.090  32.129  1.00  0.00     0.074 A 
ATOM     54  C   UNL A   1      42.121  31.814  37.757  1.00  0.00     0.029 A 
ATOM     55  N   UNL A   1      41.259  31.221  35.793  1.00  0.00    -0.354 N 
ATOM     56  N   UNL A   1      41.164  29.697  33.283  1.00  0.00    -0.248 NA
ATOM     57  C   UNL A   1      42.171  28.256  31.750  1.00  0.00     0.031 C 
ATOM     58  C   UNL A   1      43.012  30.942  37.129  1.00  0.00     0.029 A 
ATOM     59  C   UNL A   1      42.460  30.544  35.921  1.00  0.00     0.049 A 
ATOM     60  H   UNL A   1      40.648  31.149  35.025  1.00  0.00     0.167 HD
ATOM     61  C   UNL A   1      42.393  29.283  33.786  1.00  0.00     0.074 A 
ATOM     62  C   UNL A   1      42.960  28.378  32.809  1.00  0.00     0.031 C 
ATOM     63  C   UNL A   1      42.993  29.618  34.954  1.00  0.00     0.037 A 
BRANCH  50  64
ATOM     64  C   UNL A   1      39.853  33.731  38.326  1.00  0.00     0.064 A 
ATOM     65  C   UNL A   1      39.143  33.335  39.469  1.00  0.00     0.173 A 
ATOM     66  C   UNL A   1      40.544  34.952  38.372  1.00  0.00     0.173 A 
ATOM     67  F   UNL A   1      38.451  32.186  39.471  1.00  0.00    -0.203 F 
ATOM     68  C   UNL A   1      39.104  34.143  40.603  1.00  0.00     0.198 A 
ATOM     69  C   UNL A   1      40.532  35.740  39.520  1.00  0.00     0.198 A 
ATOM     70  F   UNL A   1      41.239  35.377  37.307  1.00  0.00    -0.203 F 
ATOM     71  F   UNL A   1      38.376  33.769  41.664  1.00  0.00    -0.200 F 
ATOM     72  C   UNL A   1      39.805  35.339  40.630  1.00  0.00     0.200 A 
ATOM     73  F   UNL A   1      41.221  36.889  39.548  1.00  0.00    -0.200 F 
ATOM     74  F   UNL A   1      39.774  36.111  41.726  1.00  0.00    -0.200 F 
ENDBRANCH  50  64
BRANCH  51  75
ATOM     75  C   UNL A   1      39.911  28.378  29.885  1.00  0.00     0.064 A 
ATOM     76  C   UNL A   1      39.354  27.095  29.788  1.00  0.00     0.173 A 
ATOM     77  C   UNL A   1      40.538  28.902  28.744  1.00  0.00     0.173 A 
ATOM     78  F   UNL A   1      38.770  26.537  30.859  1.00  0.00    -0.203 F 
ATOM     79  C   UNL A   1      39.441  26.357  28.608  1.00  0.00     0.198 A 
ATOM     80  C   UNL A   1      40.595  28.177  27.555  1.00  0.00     0.198 A 
ATOM     81  F   UNL A   1      41.094  30.122  28.782  1.00  0.00    -0.203 F 
ATOM     82  F   UNL A   1      38.948  25.113  28.562  1.00  0.00    -0.200 F 
ATOM     83  C   UNL A   1      40.055  26.902  27.490  1.00  0.00     0.200 A 
ATOM     84  F   UNL A   1      41.182  28.711  26.475  1.00  0.00    -0.200 F 
ATOM     85  F   UNL A   1      40.137  26.193  26.357  1.00  0.00    -0.200 F 
ENDBRANCH  51  75
BRANCH  63  86
ATOM     86  C   UNL A   1      44.296  28.953  35.296  1.00  0.00     0.064 A 
ATOM     87  C   UNL A   1      44.350  27.692  35.906  1.00  0.00     0.173 A 
ATOM     88  C   UNL A   1      45.507  29.549  34.910  1.00  0.00     0.173 A 
ATOM     89  F   UNL A   1      43.222  27.086  36.305  1.00  0.00    -0.203 F 
ATOM     90  C   UNL A   1      45.570  27.056  36.123  1.00  0.00     0.198 A 
ATOM     91  C   UNL A   1      46.721  28.897  35.100  1.00  0.00     0.198 A 
ATOM     92  F   UNL A   1      45.509  30.752  34.314  1.00  0.00    -0.203 F 
ATOM     93  F   UNL A   1      45.602  25.862  36.731  1.00  0.00    -0.200 F 
ATOM     94  C   UNL A   1      46.753  27.652  35.708  1.00  0.00     0.200 A 
ATOM     95  F   UNL A   1      47.859  29.467  34.679  1.00  0.00    -0.200 F 
ATOM     96  F   UNL A   1      47.923  27.025  35.894  1.00  0.00    -0.200 F 
ENDBRANCH  63  86
ENDBRANCH  37  38
ENDBRANCH  30  32
ENDBRANCH  29  30
ENDBRANCH  28  29
ENDBRANCH  27  28
ENDBRANCH  26  27
ENDBRANCH  25  26
ENDBRANCH   1  25
TORSDOF 21
ENDMDL
MODEL 3
REMARK VINA RESULT:     -10.5      3.345      8.933
REMARK SMILES C[C@H]1[C@H](C(=O)OCCOCCOCCOC(=O)c2ccc(-c3c4nc(c(-c5c(F)c(F)c(F)c(F)c5F)c5ccc([nH]5)c(-c5c(F)c(F)c(F)c(F)c5F)c5nc(c(-c6c(F)c(F)c(F)c(F)c6F)c6ccc3[nH]6)C=C5)C=C4)cc2)CCN1C(=O)COc1ccccc1F
REMARK SMILES IDX 10 1 9 2 8 3 7 4 6 5 4 6 5 7 3 8 1 9 2 10 83 11 81 12 82 13
REMARK SMILES IDX 84 14 85 15 86 16 87 17 88 18 89 19 93 20 90 21 92 22 94 23
REMARK SMILES IDX 91 24 11 25 12 26 13 27 14 28 15 29 16 30 17 31 18 32 19 33
REMARK SMILES IDX 80 34 20 35 79 36 21 37 22 38 23 39 73 40 24 41 78 42 72 43
REMARK SMILES IDX 74 44 25 45 77 46 71 47 70 48 26 50 58 51 38 52 57 53 39 54
REMARK SMILES IDX 42 55 56 56 75 57 40 58 41 59 55 61 76 62 43 63 27 64 28 65
REMARK SMILES IDX 36 66 29 67 30 68 34 69 37 70 31 71 32 72 35 73 33 74 59 75
REMARK SMILES IDX 60 76 68 77 61 78 62 79 66 80 69 81 63 82 64 83 67 84 65 85
REMARK SMILES IDX 44 86 45 87 53 88 46 89 47 90 51 91 54 92 48 93 49 94 52 95
REMARK SMILES IDX 50 96
REMARK H PARENT 74 49 42 60
REMARK Flexibility Score: inf
ROOT
ATOM      1  C   UNL A   1      35.430  33.159  28.437  1.00  0.00     0.188 C 
ENDROOT
BRANCH   1   2
ATOM      2  O   UNL A   1      35.244  32.069  27.545  1.00  0.00    -0.376 OA
BRANCH   2   3
ATOM      3  C   UNL A   1      34.062  31.280  27.645  1.00  0.00     0.202 C 
BRANCH   3   4
ATOM      4  C   UNL A   1      34.082  29.826  27.139  1.00  0.00     0.261 C 
BRANCH   4   5
ATOM      5  O   UNL A   1      32.790  29.212  26.898  1.00  0.00    -0.463 OA
BRANCH   5   6
ATOM      6  C   UNL A   1      32.519  28.882  25.613  1.00  0.00     0.311 C 
ATOM      7  O   UNL A   1      33.098  29.368  24.644  1.00  0.00    -0.252 OA
BRANCH   6   8
ATOM      8  C   UNL A   1      31.407  27.863  25.404  1.00  0.00     0.123 C 
ATOM      9  C   UNL A   1      29.910  27.611  23.412  1.00  0.00     0.032 C 
ATOM     10  C   UNL A   1      31.221  27.123  24.055  1.00  0.00     0.096 C 
ATOM     11  N   UNL A   1      31.165  25.700  24.400  1.00  0.00    -0.336 N 
ATOM     12  C   UNL A   1      31.564  26.766  26.456  1.00  0.00     0.039 C 
ATOM     13  C   UNL A   1      30.988  25.521  25.823  1.00  0.00     0.121 C 
BRANCH  11  14
ATOM     14  C   UNL A   1      31.259  24.585  23.586  1.00  0.00     0.260 C 
ATOM     15  O   UNL A   1      30.246  24.044  23.127  1.00  0.00    -0.271 OA
BRANCH  14  16
ATOM     16  C   UNL A   1      32.638  23.998  23.234  1.00  0.00     0.329 C 
BRANCH  16  17
ATOM     17  O   UNL A   1      33.032  22.667  23.506  1.00  0.00    -0.481 OA
BRANCH  17  18
ATOM     18  C   UNL A   1      34.297  22.386  23.937  1.00  0.00     0.155 A 
ATOM     19  C   UNL A   1      35.301  23.159  23.338  1.00  0.00     0.049 A 
ATOM     20  C   UNL A   1      34.692  21.329  24.759  1.00  0.00     0.165 A 
ATOM     21  C   UNL A   1      36.656  22.884  23.563  1.00  0.00     0.004 A 
ATOM     22  C   UNL A   1      36.039  21.048  24.986  1.00  0.00     0.043 A 
ATOM     23  F   UNL A   1      33.816  20.479  25.294  1.00  0.00    -0.203 F 
ATOM     24  C   UNL A   1      37.026  21.822  24.385  1.00  0.00     0.003 A 
ENDBRANCH  17  18
ENDBRANCH  16  17
ENDBRANCH  14  16
ENDBRANCH  11  14
ENDBRANCH   6   8
ENDBRANCH   5   6
ENDBRANCH   4   5
ENDBRANCH   3   4
ENDBRANCH   2   3
ENDBRANCH   1   2
BRANCH   1  25
ATOM     25  C   UNL A   1      34.212  33.757  29.153  1.00  0.00     0.188 C 
BRANCH  25  26
ATOM     26  O   UNL A   1      34.072  35.149  29.041  1.00  0.00    -0.376 OA
BRANCH  26  27
ATOM     27  C   UNL A   1      32.903  35.780  29.522  1.00  0.00     0.202 C 
BRANCH  27  28
ATOM     28  C   UNL A   1      32.924  37.189  30.142  1.00  0.00     0.261 C 
BRANCH  28  29
ATOM     29  O   UNL A   1      33.059  37.289  31.565  1.00  0.00    -0.460 OA
BRANCH  29  30
ATOM     30  C   UNL A   1      32.563  36.268  32.308  1.00  0.00     0.338 C 
ATOM     31  O   UNL A   1      31.404  36.068  32.608  1.00  0.00    -0.246 OA
BRANCH  30  32
ATOM     32  C   UNL A   1      33.668  35.302  32.500  1.00  0.00     0.060 A 
ATOM     33  C   UNL A   1      33.373  33.971  32.838  1.00  0.00     0.016 A 
ATOM     34  C   UNL A   1      34.989  35.709  32.321  1.00  0.00     0.016 A 
ATOM     35  C   UNL A   1      34.404  33.044  33.003  1.00  0.00     0.010 A 
ATOM     36  C   UNL A   1      36.019  34.789  32.518  1.00  0.00     0.010 A 
ATOM     37  C   UNL A   1      35.735  33.459  32.880  1.00  0.00    -0.014 A 
BRANCH  37  38
ATOM     38  C   UNL A   1      36.853  32.596  33.326  1.00  0.00     0.031 A 
ATOM     39  C   UNL A   1      37.482  32.900  34.655  1.00  0.00     0.074 A 
ATOM     40  C   UNL A   1      37.344  31.611  32.554  1.00  0.00     0.049 A 
ATOM     41  N   UNL A   1      38.605  32.472  35.166  1.00  0.00    -0.248 NA
ATOM     42  C   UNL A   1      36.741  33.834  35.520  1.00  0.00     0.031 C 
ATOM     43  C   UNL A   1      36.779  31.170  31.282  1.00  0.00     0.029 A 
ATOM     44  N   UNL A   1      38.462  30.829  32.720  1.00  0.00    -0.354 N 
ATOM     45  C   UNL A   1      38.724  33.107  36.395  1.00  0.00     0.074 A 
ATOM     46  C   UNL A   1      37.564  33.957  36.550  1.00  0.00     0.031 C 
ATOM     47  C   UNL A   1      37.574  30.217  30.763  1.00  0.00     0.029 A 
ATOM     48  C   UNL A   1      38.731  30.026  31.638  1.00  0.00     0.049 A 
ATOM     49  H   UNL A   1      39.014  30.843  33.534  1.00  0.00     0.167 HD
ATOM     50  C   UNL A   1      39.717  32.994  37.306  1.00  0.00     0.037 A 
ATOM     51  C   UNL A   1      39.814  29.270  31.368  1.00  0.00     0.037 A 
ATOM     52  C   UNL A   1      40.866  32.146  37.141  1.00  0.00     0.049 A 
ATOM     53  C   UNL A   1      40.955  29.230  32.355  1.00  0.00     0.074 A 
ATOM     54  C   UNL A   1      41.927  31.953  38.007  1.00  0.00     0.029 A 
ATOM     55  N   UNL A   1      41.107  31.355  36.027  1.00  0.00    -0.354 N 
ATOM     56  N   UNL A   1      41.073  29.835  33.512  1.00  0.00    -0.248 NA
ATOM     57  C   UNL A   1      42.123  28.409  31.994  1.00  0.00     0.031 C 
ATOM     58  C   UNL A   1      42.839  31.092  37.392  1.00  0.00     0.029 A 
ATOM     59  C   UNL A   1      42.313  30.691  36.175  1.00  0.00     0.049 A 
ATOM     60  H   UNL A   1      40.510  31.277  35.248  1.00  0.00     0.167 HD
ATOM     61  C   UNL A   1      42.298  29.435  34.036  1.00  0.00     0.074 A 
ATOM     62  C   UNL A   1      42.892  28.538  33.067  1.00  0.00     0.031 C 
ATOM     63  C   UNL A   1      42.874  29.774  35.215  1.00  0.00     0.037 A 
BRANCH  50  64
ATOM     64  C   UNL A   1      39.628  33.842  38.540  1.00  0.00     0.064 A 
ATOM     65  C   UNL A   1      38.916  33.428  39.676  1.00  0.00     0.173 A 
ATOM     66  C   UNL A   1      40.290  35.079  38.595  1.00  0.00     0.173 A 
ATOM     67  F   UNL A   1      38.251  32.263  39.670  1.00  0.00    -0.203 F 
ATOM     68  C   UNL A   1      38.848  34.233  40.811  1.00  0.00     0.198 A 
ATOM     69  C   UNL A   1      40.248  35.864  39.744  1.00  0.00     0.198 A 
ATOM     70  F   UNL A   1      40.985  35.521  37.538  1.00  0.00    -0.203 F 
ATOM     71  F   UNL A   1      38.118  33.841  41.864  1.00  0.00    -0.200 F 
ATOM     72  C   UNL A   1      39.521  35.445  40.846  1.00  0.00     0.200 A 
ATOM     73  F   UNL A   1      40.911  37.029  39.780  1.00  0.00    -0.200 F 
ATOM     74  F   UNL A   1      39.462  36.214  41.943  1.00  0.00    -0.200 F 
ENDBRANCH  50  64
BRANCH  51  75
ATOM     75  C   UNL A   1      39.894  28.510  30.090  1.00  0.00     0.064 A 
ATOM     76  C   UNL A   1      40.497  29.069  28.955  1.00  0.00     0.173 A 
ATOM     77  C   UNL A   1      39.346  27.224  29.968  1.00  0.00     0.173 A 
ATOM     78  F   UNL A   1      41.008  30.308  29.010  1.00  0.00    -0.203 F 
ATOM     79  C   UNL A   1      40.531  28.381  27.743  1.00  0.00     0.198 A 
ATOM     80  C   UNL A   1      39.410  26.523  28.765  1.00  0.00     0.198 A 
ATOM     81  F   UNL A   1      38.750  26.644  31.021  1.00  0.00    -0.203 F 
ATOM     82  F   UNL A   1      41.066  28.962  26.660  1.00  0.00    -0.200 F 
ATOM     83  C   UNL A   1      39.994  27.106  27.650  1.00  0.00     0.200 A 
ATOM     84  F   UNL A   1      38.898  25.288  28.684  1.00  0.00    -0.200 F 
ATOM     85  F   UNL A   1      40.028  26.445  26.487  1.00  0.00    -0.200 F 
ENDBRANCH  51  75
BRANCH  63  86
ATOM     86  C   UNL A   1      44.177  29.123  35.578  1.00  0.00     0.064 A 
ATOM     87  C   UNL A   1      45.413  29.709  35.273  1.00  0.00     0.173 A 
ATOM     88  C   UNL A   1      44.180  27.941  36.337  1.00  0.00     0.173 A 
ATOM     89  F   UNL A   1      45.465  30.832  34.540  1.00  0.00    -0.203 F 
ATOM     90  C   UNL A   1      46.604  29.133  35.707  1.00  0.00     0.198 A 
ATOM     91  C   UNL A   1      45.370  27.385  36.796  1.00  0.00     0.198 A 
ATOM     92  F   UNL A   1      43.024  27.344  36.663  1.00  0.00    -0.203 F 
ATOM     93  F   UNL A   1      47.777  29.695  35.383  1.00  0.00    -0.200 F 
ATOM     94  C   UNL A   1      46.582  27.980  36.479  1.00  0.00     0.200 A 
ATOM     95  F   UNL A   1      45.343  26.283  37.558  1.00  0.00    -0.200 F 
ATOM     96  F   UNL A   1      47.728  27.442  36.919  1.00  0.00    -0.200 F 
ENDBRANCH  63  86
ENDBRANCH  37  38
ENDBRANCH  30  32
ENDBRANCH  29  30
ENDBRANCH  28  29
ENDBRANCH  27  28
ENDBRANCH  26  27
ENDBRANCH  25  26
ENDBRANCH   1  25
TORSDOF 21
ENDMDL
