MODEL 1
REMARK VINA RESULT:     -11.0      0.000      0.000
REMARK SMILES Cc1ccc([C@H]2CC(c3cccs3)=NN2C(=O)CCC(=O)OCCOCCOCCOC(=O)c2ccc(-c3c4nc(c(-c5c(F)c(F)c(F)c(F)c5F)c5ccc([nH]5)c(-c5c(F)c(F)c(F)c(F)c5F)c5nc(c(-c6c(F)c(F)c(F)c(F)c6F)c6ccc3[nH]6)C=C5)C=C4)cc2)o1
REMARK SMILES IDX 26 1 25 2 24 3 23 4 22 5 20 6 21 7 19 8 18 9 16 10 17 11
REMARK SMILES IDX 15 12 6 13 7 14 8 15 14 16 5 17 1 18 2 19 3 20 97 21 4 22
REMARK SMILES IDX 9 23 10 24 13 25 11 26 12 27 27 28 28 29 29 30 30 31 31 32
REMARK SMILES IDX 32 33 33 34 34 35 35 36 96 37 36 38 95 39 37 40 38 41 39 42
REMARK SMILES IDX 89 43 40 44 94 45 88 46 90 47 41 48 93 49 87 50 86 51 42 53
REMARK SMILES IDX 74 54 54 55 73 56 55 57 58 58 72 59 91 60 56 61 57 62 71 64
REMARK SMILES IDX 92 65 59 66 43 67 44 68 52 69 45 70 46 71 50 72 53 73 47 74
REMARK SMILES IDX 48 75 51 76 49 77 75 78 76 79 84 80 77 81 78 82 82 83 85 84
REMARK SMILES IDX 79 85 80 86 83 87 81 88 60 89 61 90 69 91 62 92 63 93 67 94
REMARK SMILES IDX 70 95 64 96 65 97 68 98 66 99
REMARK H PARENT 90 52 58 63
REMARK Flexibility Score: inf
ROOT
ATOM      1  C   UNL A   1      38.530  21.654  25.564  1.00  0.00     0.188 C 
ENDROOT
BRANCH   1   2
ATOM      2  O   UNL A   1      37.290  22.364  25.743  1.00  0.00    -0.376 OA
BRANCH   2   3
ATOM      3  C   UNL A   1      36.969  23.670  25.167  1.00  0.00     0.202 C 
BRANCH   3   4
ATOM      4  C   UNL A   1      35.297  24.090  24.745  1.00  0.00     0.261 C 
BRANCH   4   5
ATOM      5  O   UNL A   1      34.312  24.719  25.822  1.00  0.00    -0.463 OA
BRANCH   5   6
ATOM      6  C   UNL A   1      33.646  25.943  25.994  1.00  0.00     0.306 C 
ATOM      7  O   UNL A   1      34.025  26.955  25.403  1.00  0.00    -0.252 OA
BRANCH   6   8
ATOM      8  C   UNL A   1      32.087  25.933  26.645  1.00  0.00     0.132 C 
BRANCH   8   9
ATOM      9  C   UNL A   1      30.713  25.501  26.046  1.00  0.00     0.114 C 
BRANCH   9  10
ATOM     10  C   UNL A   1      30.530  24.062  26.298  1.00  0.00     0.243 C 
ATOM     11  O   UNL A   1      29.931  23.612  27.266  1.00  0.00    -0.273 OA
BRANCH  10  12
ATOM     12  N   UNL A   1      31.243  23.366  25.372  1.00  0.00    -0.222 N 
ATOM     13  C   UNL A   1      31.096  23.521  23.889  1.00  0.00     0.183 C 
ATOM     14  C   UNL A   1      31.799  22.171  23.491  1.00  0.00     0.095 C 
ATOM     15  C   UNL A   1      32.357  21.629  24.762  1.00  0.00     0.081 C 
ATOM     16  N   UNL A   1      31.967  22.262  25.814  1.00  0.00    -0.173 NA
BRANCH  13  17
ATOM     17  C   UNL A   1      31.319  25.136  23.089  1.00  0.00     0.129 A 
ATOM     18  C   UNL A   1      33.854  27.585  22.069  1.00  0.00     0.087 C 
ATOM     19  C   UNL A   1      32.606  26.844  22.290  1.00  0.00     0.101 A 
ATOM     20  C   UNL A   1      31.357  27.367  22.303  1.00  0.00     0.045 A 
ATOM     21  O   UNL A   1      32.608  25.502  22.635  1.00  0.00    -0.464 OA
ATOM     22  C   UNL A   1      30.570  26.319  22.776  1.00  0.00     0.048 A 
ENDBRANCH  13  17
BRANCH  15  23
ATOM     23  C   UNL A   1      33.263  20.497  24.743  1.00  0.00     0.050 A 
ATOM     24  C   UNL A   1      34.635  20.465  24.939  1.00  0.00     0.022 A 
ATOM     25  S   UNL A   1      32.666  18.954  24.311  1.00  0.00    -0.142 S 
ATOM     26  C   UNL A   1      35.194  19.167  24.722  1.00  0.00     0.012 A 
ATOM     27  C   UNL A   1      34.228  18.249  24.375  1.00  0.00     0.065 A 
ENDBRANCH  15  23
ENDBRANCH  10  12
ENDBRANCH   9  10
ENDBRANCH   8   9
ENDBRANCH   6   8
ENDBRANCH   5   6
ENDBRANCH   4   5
ENDBRANCH   3   4
ENDBRANCH   2   3
ENDBRANCH   1   2
BRANCH   1  28
ATOM     28  C   UNL A   1      39.715  22.142  26.481  1.00  0.00     0.188 C 
BRANCH  28  29
ATOM     29  O   UNL A   1      41.025  21.621  26.263  1.00  0.00    -0.376 OA
BRANCH  29  30
ATOM     30  C   UNL A   1      41.371  20.482  27.037  1.00  0.00     0.202 C 
BRANCH  30  31
ATOM     31  C   UNL A   1      41.913  19.287  26.237  1.00  0.00     0.261 C 
BRANCH  31  32
ATOM     32  O   UNL A   1      42.474  19.650  24.959  1.00  0.00    -0.460 OA
BRANCH  32  33
ATOM     33  C   UNL A   1      43.828  19.584  24.881  1.00  0.00     0.338 C 
ATOM     34  O   UNL A   1      44.506  18.612  24.554  1.00  0.00    -0.246 OA
BRANCH  33  35
ATOM     35  C   UNL A   1      44.420  20.927  25.076  1.00  0.00     0.060 A 
ATOM     36  C   UNL A   1      44.924  21.268  26.345  1.00  0.00     0.016 A 
ATOM     37  C   UNL A   1      44.453  21.855  24.036  1.00  0.00     0.016 A 
ATOM     38  C   UNL A   1      45.394  22.559  26.596  1.00  0.00     0.010 A 
ATOM     39  C   UNL A   1      44.895  23.156  24.295  1.00  0.00     0.010 A 
ATOM     40  C   UNL A   1      45.314  23.527  25.588  1.00  0.00    -0.014 A 
BRANCH  40  41
ATOM     41  C   UNL A   1      45.378  24.972  25.928  1.00  0.00     0.031 A 
ATOM     42  C   UNL A   1      46.714  25.649  25.814  1.00  0.00     0.074 A 
ATOM     43  C   UNL A   1      44.308  25.663  26.354  1.00  0.00     0.049 A 
ATOM     44  N   UNL A   1      47.082  26.839  26.210  1.00  0.00    -0.248 NA
ATOM     45  C   UNL A   1      47.787  24.864  25.181  1.00  0.00     0.031 C 
ATOM     46  C   UNL A   1      42.958  25.130  26.450  1.00  0.00     0.029 A 
ATOM     47  N   UNL A   1      44.190  26.952  26.809  1.00  0.00    -0.354 N 
ATOM     48  C   UNL A   1      48.430  26.935  25.895  1.00  0.00     0.074 A 
ATOM     49  C   UNL A   1      48.824  25.678  25.299  1.00  0.00     0.031 C 
ATOM     50  C   UNL A   1      42.140  26.071  26.947  1.00  0.00     0.029 A 
ATOM     51  C   UNL A   1      42.929  27.259  27.263  1.00  0.00     0.049 A 
ATOM     52  H   UNL A   1      44.935  27.595  26.810  1.00  0.00     0.167 HD
ATOM     53  C   UNL A   1      49.264  27.982  26.086  1.00  0.00     0.037 A 
ATOM     54  C   UNL A   1      42.480  28.357  27.902  1.00  0.00     0.037 A 
ATOM     55  C   UNL A   1      48.861  29.225  26.686  1.00  0.00     0.049 A 
ATOM     56  C   UNL A   1      43.447  29.478  28.181  1.00  0.00     0.074 A 
ATOM     57  C   UNL A   1      49.621  30.356  26.923  1.00  0.00     0.029 A 
ATOM     58  N   UNL A   1      47.581  29.497  27.150  1.00  0.00    -0.354 N 
ATOM     59  N   UNL A   1      44.721  29.568  27.881  1.00  0.00    -0.248 NA
ATOM     60  C   UNL A   1      42.916  30.652  28.889  1.00  0.00     0.031 C 
ATOM     61  C   UNL A   1      48.817  31.289  27.586  1.00  0.00     0.029 A 
ATOM     62  C   UNL A   1      47.538  30.768  27.699  1.00  0.00     0.049 A 
ATOM     63  H   UNL A   1      46.818  28.877  27.097  1.00  0.00     0.167 HD
ATOM     64  C   UNL A   1      45.135  30.815  28.331  1.00  0.00     0.074 A 
ATOM     65  C   UNL A   1      43.972  31.452  28.913  1.00  0.00     0.031 C 
ATOM     66  C   UNL A   1      46.364  31.385  28.264  1.00  0.00     0.037 A 
BRANCH  53  67
ATOM     67  C   UNL A   1      50.699  27.807  25.682  1.00  0.00     0.064 A 
ATOM     68  C   UNL A   1      51.696  27.468  26.610  1.00  0.00     0.173 A 
ATOM     69  C   UNL A   1      51.080  27.967  24.342  1.00  0.00     0.173 A 
ATOM     70  F   UNL A   1      51.390  27.322  27.908  1.00  0.00    -0.203 F 
ATOM     71  C   UNL A   1      53.024  27.326  26.215  1.00  0.00     0.198 A 
ATOM     72  C   UNL A   1      52.403  27.791  23.945  1.00  0.00     0.198 A 
ATOM     73  F   UNL A   1      50.168  28.295  23.413  1.00  0.00    -0.203 F 
ATOM     74  F   UNL A   1      53.968  27.058  27.128  1.00  0.00    -0.200 F 
ATOM     75  C   UNL A   1      53.375  27.479  24.882  1.00  0.00     0.200 A 
ATOM     76  F   UNL A   1      52.736  27.928  22.653  1.00  0.00    -0.200 F 
ATOM     77  F   UNL A   1      54.651  27.334  24.503  1.00  0.00    -0.200 F 
ENDBRANCH  53  67
BRANCH  54  78
ATOM     78  C   UNL A   1      41.061  28.442  28.347  1.00  0.00     0.064 A 
ATOM     79  C   UNL A   1      40.065  28.940  27.497  1.00  0.00     0.173 A 
ATOM     80  C   UNL A   1      40.675  28.047  29.637  1.00  0.00     0.173 A 
ATOM     81  F   UNL A   1      40.386  29.354  26.262  1.00  0.00    -0.203 F 
ATOM     82  C   UNL A   1      38.744  29.061  27.925  1.00  0.00     0.198 A 
ATOM     83  C   UNL A   1      39.348  28.137  30.053  1.00  0.00     0.198 A 
ATOM     84  F   UNL A   1      41.586  27.561  30.493  1.00  0.00    -0.203 F 
ATOM     85  F   UNL A   1      37.822  29.589  27.107  1.00  0.00    -0.200 F 
ATOM     86  C   UNL A   1      38.385  28.653  29.200  1.00  0.00     0.200 A 
ATOM     87  F   UNL A   1      39.004  27.725  31.281  1.00  0.00    -0.200 F 
ATOM     88  F   UNL A   1      37.113  28.763  29.609  1.00  0.00    -0.200 F 
ENDBRANCH  54  78
BRANCH  66  89
ATOM     89  C   UNL A   1      46.504  32.785  28.790  1.00  0.00     0.064 A 
ATOM     90  C   UNL A   1      46.882  33.047  30.115  1.00  0.00     0.173 A 
ATOM     91  C   UNL A   1      46.301  33.882  27.937  1.00  0.00     0.173 A 
ATOM     92  F   UNL A   1      47.076  32.034  30.973  1.00  0.00    -0.203 F 
ATOM     93  C   UNL A   1      47.023  34.353  30.574  1.00  0.00     0.198 A 
ATOM     94  C   UNL A   1      46.479  35.186  28.390  1.00  0.00     0.198 A 
ATOM     95  F   UNL A   1      45.948  33.688  26.657  1.00  0.00    -0.203 F 
ATOM     96  F   UNL A   1      47.332  34.580  31.858  1.00  0.00    -0.200 F 
ATOM     97  C   UNL A   1      46.829  35.421  29.709  1.00  0.00     0.200 A 
ATOM     98  F   UNL A   1      46.310  36.215  27.547  1.00  0.00    -0.200 F 
ATOM     99  F   UNL A   1      46.977  36.678  30.151  1.00  0.00    -0.200 F 
ENDBRANCH  66  89
ENDBRANCH  40  41
ENDBRANCH  33  35
ENDBRANCH  32  33
ENDBRANCH  31  32
ENDBRANCH  30  31
ENDBRANCH  29  30
ENDBRANCH  28  29
ENDBRANCH   1  28
TORSDOF 22
ENDMDL
MODEL 2
REMARK VINA RESULT:     -10.8      1.964      4.045
REMARK SMILES Cc1ccc([C@H]2CC(c3cccs3)=NN2C(=O)CCC(=O)OCCOCCOCCOC(=O)c2ccc(-c3c4nc(c(-c5c(F)c(F)c(F)c(F)c5F)c5ccc([nH]5)c(-c5c(F)c(F)c(F)c(F)c5F)c5nc(c(-c6c(F)c(F)c(F)c(F)c6F)c6ccc3[nH]6)C=C5)C=C4)cc2)o1
REMARK SMILES IDX 26 1 25 2 24 3 23 4 22 5 20 6 21 7 19 8 18 9 16 10 17 11
REMARK SMILES IDX 15 12 6 13 7 14 8 15 14 16 5 17 1 18 2 19 3 20 97 21 4 22
REMARK SMILES IDX 9 23 10 24 13 25 11 26 12 27 27 28 28 29 29 30 30 31 31 32
REMARK SMILES IDX 32 33 33 34 34 35 35 36 96 37 36 38 95 39 37 40 38 41 39 42
REMARK SMILES IDX 89 43 40 44 94 45 88 46 90 47 41 48 93 49 87 50 86 51 42 53
REMARK SMILES IDX 74 54 54 55 73 56 55 57 58 58 72 59 91 60 56 61 57 62 71 64
REMARK SMILES IDX 92 65 59 66 43 67 44 68 52 69 45 70 46 71 50 72 53 73 47 74
REMARK SMILES IDX 48 75 51 76 49 77 75 78 76 79 84 80 77 81 78 82 82 83 85 84
REMARK SMILES IDX 79 85 80 86 83 87 81 88 60 89 61 90 69 91 62 92 63 93 67 94
REMARK SMILES IDX 70 95 64 96 65 97 68 98 66 99
REMARK H PARENT 90 52 58 63
REMARK Flexibility Score: inf
ROOT
ATOM      1  C   UNL A   1      38.969  21.186  25.794  1.00  0.00     0.188 C 
ENDROOT
BRANCH   1   2
ATOM      2  O   UNL A   1      37.748  21.891  25.502  1.00  0.00    -0.376 OA
BRANCH   2   3
ATOM      3  C   UNL A   1      36.403  21.442  25.860  1.00  0.00     0.202 C 
BRANCH   3   4
ATOM      4  C   UNL A   1      35.139  21.287  24.624  1.00  0.00     0.261 C 
BRANCH   4   5
ATOM      5  O   UNL A   1      34.760  22.507  23.679  1.00  0.00    -0.463 OA
BRANCH   5   6
ATOM      6  C   UNL A   1      34.623  23.898  23.824  1.00  0.00     0.306 C 
ATOM      7  O   UNL A   1      35.139  24.485  24.775  1.00  0.00    -0.252 OA
BRANCH   6   8
ATOM      8  C   UNL A   1      34.145  24.808  22.484  1.00  0.00     0.132 C 
BRANCH   8   9
ATOM      9  C   UNL A   1      32.767  25.419  22.080  1.00  0.00     0.114 C 
BRANCH   9  10
ATOM     10  C   UNL A   1      32.856  26.883  22.204  1.00  0.00     0.243 C 
ATOM     11  O   UNL A   1      33.870  27.526  21.966  1.00  0.00    -0.273 OA
BRANCH  10  12
ATOM     12  N   UNL A   1      31.696  27.344  22.747  1.00  0.00    -0.222 N 
ATOM     13  C   UNL A   1      30.674  26.486  23.428  1.00  0.00     0.183 C 
ATOM     14  C   UNL A   1      29.488  27.517  23.355  1.00  0.00     0.095 C 
ATOM     15  C   UNL A   1      30.096  28.778  22.844  1.00  0.00     0.081 C 
ATOM     16  N   UNL A   1      31.309  28.643  22.431  1.00  0.00    -0.173 NA
BRANCH  13  17
ATOM     17  C   UNL A   1      31.119  25.444  24.847  1.00  0.00     0.129 A 
ATOM     18  C   UNL A   1      29.913  22.711  26.980  1.00  0.00     0.087 C 
ATOM     19  C   UNL A   1      30.717  23.755  26.330  1.00  0.00     0.101 A 
ATOM     20  C   UNL A   1      31.764  24.416  26.878  1.00  0.00     0.045 A 
ATOM     21  O   UNL A   1      30.384  24.258  25.082  1.00  0.00    -0.464 OA
ATOM     22  C   UNL A   1      32.018  25.437  25.964  1.00  0.00     0.048 A 
ENDBRANCH  13  17
BRANCH  15  23
ATOM     23  C   UNL A   1      29.339  30.015  22.853  1.00  0.00     0.050 A 
ATOM     24  C   UNL A   1      29.239  30.978  23.846  1.00  0.00     0.022 A 
ATOM     25  S   UNL A   1      28.296  30.369  21.545  1.00  0.00    -0.142 S 
ATOM     26  C   UNL A   1      28.294  32.003  23.529  1.00  0.00     0.012 A 
ATOM     27  C   UNL A   1      27.709  31.792  22.301  1.00  0.00     0.065 A 
ENDBRANCH  15  23
ENDBRANCH  10  12
ENDBRANCH   9  10
ENDBRANCH   8   9
ENDBRANCH   6   8
ENDBRANCH   5   6
ENDBRANCH   4   5
ENDBRANCH   3   4
ENDBRANCH   2   3
ENDBRANCH   1   2
BRANCH   1  28
ATOM     28  C   UNL A   1      40.119  22.071  26.408  1.00  0.00     0.188 C 
BRANCH  28  29
ATOM     29  O   UNL A   1      41.441  21.541  26.486  1.00  0.00    -0.376 OA
BRANCH  29  30
ATOM     30  C   UNL A   1      41.583  20.349  27.245  1.00  0.00     0.202 C 
BRANCH  30  31
ATOM     31  C   UNL A   1      42.332  19.209  26.537  1.00  0.00     0.261 C 
BRANCH  31  32
ATOM     32  O   UNL A   1      42.650  19.489  25.159  1.00  0.00    -0.460 OA
BRANCH  32  33
ATOM     33  C   UNL A   1      43.974  19.485  24.858  1.00  0.00     0.338 C 
ATOM     34  O   UNL A   1      44.638  18.537  24.442  1.00  0.00    -0.246 OA
BRANCH  33  35
ATOM     35  C   UNL A   1      44.520  20.860  24.924  1.00  0.00     0.060 A 
ATOM     36  C   UNL A   1      45.394  21.193  25.976  1.00  0.00     0.016 A 
ATOM     37  C   UNL A   1      44.157  21.823  23.984  1.00  0.00     0.016 A 
ATOM     38  C   UNL A   1      45.846  22.504  26.132  1.00  0.00     0.010 A 
ATOM     39  C   UNL A   1      44.585  23.143  24.157  1.00  0.00     0.010 A 
ATOM     40  C   UNL A   1      45.384  23.499  25.261  1.00  0.00    -0.014 A 
BRANCH  40  41
ATOM     41  C   UNL A   1      45.476  24.932  25.642  1.00  0.00     0.031 A 
ATOM     42  C   UNL A   1      46.822  25.588  25.538  1.00  0.00     0.074 A 
ATOM     43  C   UNL A   1      44.420  25.628  26.094  1.00  0.00     0.049 A 
ATOM     44  N   UNL A   1      47.213  26.760  25.966  1.00  0.00    -0.248 NA
ATOM     45  C   UNL A   1      47.878  24.804  24.877  1.00  0.00     0.031 C 
ATOM     46  C   UNL A   1      43.062  25.116  26.183  1.00  0.00     0.029 A 
ATOM     47  N   UNL A   1      44.326  26.905  26.586  1.00  0.00    -0.354 N 
ATOM     48  C   UNL A   1      48.560  26.843  25.645  1.00  0.00     0.074 A 
ATOM     49  C   UNL A   1      48.929  25.597  25.011  1.00  0.00     0.031 C 
ATOM     50  C   UNL A   1      42.262  26.056  26.711  1.00  0.00     0.029 A 
ATOM     51  C   UNL A   1      43.073  27.221  27.056  1.00  0.00     0.049 A 
ATOM     52  H   UNL A   1      45.082  27.536  26.601  1.00  0.00     0.167 HD
ATOM     53  C   UNL A   1      49.414  27.869  25.861  1.00  0.00     0.037 A 
ATOM     54  C   UNL A   1      42.647  28.308  27.729  1.00  0.00     0.037 A 
ATOM     55  C   UNL A   1      49.035  29.102  26.498  1.00  0.00     0.049 A 
ATOM     56  C   UNL A   1      43.635  29.404  28.034  1.00  0.00     0.074 A 
ATOM     57  C   UNL A   1      49.815  30.212  26.763  1.00  0.00     0.029 A 
ATOM     58  N   UNL A   1      47.763  29.381  26.978  1.00  0.00    -0.354 N 
ATOM     59  N   UNL A   1      44.909  29.481  27.729  1.00  0.00    -0.248 NA
ATOM     60  C   UNL A   1      43.129  30.565  28.778  1.00  0.00     0.031 C 
ATOM     61  C   UNL A   1      49.032  31.139  27.457  1.00  0.00     0.029 A 
ATOM     62  C   UNL A   1      47.744  30.637  27.563  1.00  0.00     0.049 A 
ATOM     63  H   UNL A   1      46.989  28.777  26.912  1.00  0.00     0.167 HD
ATOM     64  C   UNL A   1      45.346  30.707  28.211  1.00  0.00     0.074 A 
ATOM     65  C   UNL A   1      44.198  31.347  28.819  1.00  0.00     0.031 C 
ATOM     66  C   UNL A   1      46.585  31.258  28.153  1.00  0.00     0.037 A 
BRANCH  53  67
ATOM     67  C   UNL A   1      50.842  27.681  25.443  1.00  0.00     0.064 A 
ATOM     68  C   UNL A   1      51.265  27.898  24.123  1.00  0.00     0.173 A 
ATOM     69  C   UNL A   1      51.808  27.290  26.383  1.00  0.00     0.173 A 
ATOM     70  F   UNL A   1      50.379  28.254  23.180  1.00  0.00    -0.203 F 
ATOM     71  C   UNL A   1      52.593  27.702  23.753  1.00  0.00     0.198 A 
ATOM     72  C   UNL A   1      53.142  27.128  26.018  1.00  0.00     0.198 A 
ATOM     73  F   UNL A   1      51.459  27.065  27.659  1.00  0.00    -0.203 F 
ATOM     74  F   UNL A   1      52.962  27.860  22.474  1.00  0.00    -0.200 F 
ATOM     75  C   UNL A   1      53.532  27.326  24.703  1.00  0.00     0.200 A 
ATOM     76  F   UNL A   1      54.049  26.776  26.940  1.00  0.00    -0.200 F 
ATOM     77  F   UNL A   1      54.811  27.145  24.347  1.00  0.00    -0.200 F 
ENDBRANCH  53  67
BRANCH  54  78
ATOM     78  C   UNL A   1      41.233  28.404  28.185  1.00  0.00     0.064 A 
ATOM     79  C   UNL A   1      40.849  27.954  29.455  1.00  0.00     0.173 A 
ATOM     80  C   UNL A   1      40.231  28.929  27.353  1.00  0.00     0.173 A 
ATOM     81  F   UNL A   1      41.764  27.422  30.279  1.00  0.00    -0.203 F 
ATOM     82  C   UNL A   1      39.519  28.004  29.868  1.00  0.00     0.198 A 
ATOM     83  C   UNL A   1      38.907  29.009  27.779  1.00  0.00     0.198 A 
ATOM     84  F   UNL A   1      40.540  29.376  26.127  1.00  0.00    -0.203 F 
ATOM     85  F   UNL A   1      39.175  27.519  31.070  1.00  0.00    -0.200 F 
ATOM     86  C   UNL A   1      38.550  28.537  29.033  1.00  0.00     0.200 A 
ATOM     87  F   UNL A   1      37.977  29.541  26.975  1.00  0.00    -0.200 F 
ATOM     88  F   UNL A   1      37.272  28.591  29.433  1.00  0.00    -0.200 F 
ENDBRANCH  54  78
BRANCH  66  89
ATOM     89  C   UNL A   1      46.752  32.640  28.717  1.00  0.00     0.064 A 
ATOM     90  C   UNL A   1      47.138  32.857  30.048  1.00  0.00     0.173 A 
ATOM     91  C   UNL A   1      46.567  33.764  27.896  1.00  0.00     0.173 A 
ATOM     92  F   UNL A   1      47.315  31.817  30.877  1.00  0.00    -0.203 F 
ATOM     93  C   UNL A   1      47.304  34.147  30.543  1.00  0.00     0.198 A 
ATOM     94  C   UNL A   1      46.770  35.051  28.385  1.00  0.00     0.198 A 
ATOM     95  F   UNL A   1      46.207  33.612  26.612  1.00  0.00    -0.203 F 
ATOM     96  F   UNL A   1      47.620  34.332  31.832  1.00  0.00    -0.200 F 
ATOM     97  C   UNL A   1      47.128  35.242  29.709  1.00  0.00     0.200 A 
ATOM     98  F   UNL A   1      46.618  36.106  27.572  1.00  0.00    -0.200 F 
ATOM     99  F   UNL A   1      47.300  36.483  30.186  1.00  0.00    -0.200 F 
ENDBRANCH  66  89
ENDBRANCH  40  41
ENDBRANCH  33  35
ENDBRANCH  32  33
ENDBRANCH  31  32
ENDBRANCH  30  31
ENDBRANCH  29  30
ENDBRANCH  28  29
ENDBRANCH   1  28
TORSDOF 22
ENDMDL
MODEL 3
REMARK VINA RESULT:     -10.6      1.863      3.669
REMARK SMILES Cc1ccc([C@H]2CC(c3cccs3)=NN2C(=O)CCC(=O)OCCOCCOCCOC(=O)c2ccc(-c3c4nc(c(-c5c(F)c(F)c(F)c(F)c5F)c5ccc([nH]5)c(-c5c(F)c(F)c(F)c(F)c5F)c5nc(c(-c6c(F)c(F)c(F)c(F)c6F)c6ccc3[nH]6)C=C5)C=C4)cc2)o1
REMARK SMILES IDX 26 1 25 2 24 3 23 4 22 5 20 6 21 7 19 8 18 9 16 10 17 11
REMARK SMILES IDX 15 12 6 13 7 14 8 15 14 16 5 17 1 18 2 19 3 20 97 21 4 22
REMARK SMILES IDX 9 23 10 24 13 25 11 26 12 27 27 28 28 29 29 30 30 31 31 32
REMARK SMILES IDX 32 33 33 34 34 35 35 36 96 37 36 38 95 39 37 40 38 41 39 42
REMARK SMILES IDX 89 43 40 44 94 45 88 46 90 47 41 48 93 49 87 50 86 51 42 53
REMARK SMILES IDX 74 54 54 55 73 56 55 57 58 58 72 59 91 60 56 61 57 62 71 64
REMARK SMILES IDX 92 65 59 66 43 67 44 68 52 69 45 70 46 71 50 72 53 73 47 74
REMARK SMILES IDX 48 75 51 76 49 77 75 78 76 79 84 80 77 81 78 82 82 83 85 84
REMARK SMILES IDX 79 85 80 86 83 87 81 88 60 89 61 90 69 91 62 92 63 93 67 94
REMARK SMILES IDX 70 95 64 96 65 97 68 98 66 99
REMARK H PARENT 90 52 58 63
REMARK Flexibility Score: inf
ROOT
ATOM      1  C   UNL A   1      37.780  21.334  24.895  1.00  0.00     0.188 C 
ENDROOT
BRANCH   1   2
ATOM      2  O   UNL A   1      37.264  22.413  24.094  1.00  0.00    -0.376 OA
BRANCH   2   3
ATOM      3  C   UNL A   1      35.849  22.668  23.822  1.00  0.00     0.202 C 
BRANCH   3   4
ATOM      4  C   UNL A   1      35.024  24.066  24.537  1.00  0.00     0.261 C 
BRANCH   4   5
ATOM      5  O   UNL A   1      34.365  25.187  23.623  1.00  0.00    -0.463 OA
BRANCH   5   6
ATOM      6  C   UNL A   1      33.429  25.221  22.576  1.00  0.00     0.306 C 
ATOM      7  O   UNL A   1      33.471  24.391  21.668  1.00  0.00    -0.252 OA
BRANCH   6   8
ATOM      8  C   UNL A   1      32.004  26.101  22.793  1.00  0.00     0.132 C 
BRANCH   8   9
ATOM      9  C   UNL A   1      30.520  25.651  22.963  1.00  0.00     0.114 C 
BRANCH   9  10
ATOM     10  C   UNL A   1      29.856  26.585  23.888  1.00  0.00     0.243 C 
ATOM     11  O   UNL A   1      28.780  27.120  23.657  1.00  0.00    -0.273 OA
BRANCH  10  12
ATOM     12  N   UNL A   1      30.697  26.837  24.928  1.00  0.00    -0.222 N 
ATOM     13  C   UNL A   1      30.814  25.986  26.156  1.00  0.00     0.183 C 
ATOM     14  C   UNL A   1      31.533  27.058  27.055  1.00  0.00     0.095 C 
ATOM     15  C   UNL A   1      31.846  28.192  26.141  1.00  0.00     0.081 C 
ATOM     16  N   UNL A   1      31.300  28.090  24.978  1.00  0.00    -0.173 NA
BRANCH  13  17
ATOM     17  C   UNL A   1      31.220  24.221  26.038  1.00  0.00     0.129 A 
ATOM     18  C   UNL A   1      33.625  21.678  27.144  1.00  0.00     0.087 C 
ATOM     19  C   UNL A   1      32.483  22.390  26.556  1.00  0.00     0.101 A 
ATOM     20  C   UNL A   1      31.734  21.973  25.507  1.00  0.00     0.045 A 
ATOM     21  O   UNL A   1      32.128  23.665  26.970  1.00  0.00    -0.464 OA
ATOM     22  C   UNL A   1      30.953  23.086  25.202  1.00  0.00     0.048 A 
ENDBRANCH  13  17
BRANCH  15  23
ATOM     23  C   UNL A   1      32.707  29.273  26.580  1.00  0.00     0.050 A 
ATOM     24  C   UNL A   1      34.033  29.234  26.985  1.00  0.00     0.022 A 
ATOM     25  S   UNL A   1      32.051  30.841  26.771  1.00  0.00    -0.142 S 
ATOM     26  C   UNL A   1      34.503  30.497  27.461  1.00  0.00     0.012 A 
ATOM     27  C   UNL A   1      33.522  31.461  27.398  1.00  0.00     0.065 A 
ENDBRANCH  15  23
ENDBRANCH  10  12
ENDBRANCH   9  10
ENDBRANCH   8   9
ENDBRANCH   6   8
ENDBRANCH   5   6
ENDBRANCH   4   5
ENDBRANCH   3   4
ENDBRANCH   2   3
ENDBRANCH   1   2
BRANCH   1  28
ATOM     28  C   UNL A   1      38.714  21.774  26.085  1.00  0.00     0.188 C 
BRANCH  28  29
ATOM     29  O   UNL A   1      40.129  21.760  25.901  1.00  0.00    -0.376 OA
BRANCH  29  30
ATOM     30  C   UNL A   1      40.879  21.152  26.943  1.00  0.00     0.202 C 
BRANCH  30  31
ATOM     31  C   UNL A   1      41.414  19.747  26.627  1.00  0.00     0.261 C 
BRANCH  31  32
ATOM     32  O   UNL A   1      42.013  19.632  25.321  1.00  0.00    -0.460 OA
BRANCH  32  33
ATOM     33  C   UNL A   1      43.370  19.576  25.309  1.00  0.00     0.338 C 
ATOM     34  O   UNL A   1      44.070  18.579  25.147  1.00  0.00    -0.246 OA
BRANCH  33  35
ATOM     35  C   UNL A   1      43.940  20.943  25.340  1.00  0.00     0.060 A 
ATOM     36  C   UNL A   1      44.849  21.274  26.362  1.00  0.00     0.016 A 
ATOM     37  C   UNL A   1      43.567  21.899  24.397  1.00  0.00     0.016 A 
ATOM     38  C   UNL A   1      45.327  22.580  26.487  1.00  0.00     0.010 A 
ATOM     39  C   UNL A   1      44.021  23.213  24.539  1.00  0.00     0.010 A 
ATOM     40  C   UNL A   1      44.857  23.570  25.615  1.00  0.00    -0.014 A 
BRANCH  40  41
ATOM     41  C   UNL A   1      44.983  25.007  25.974  1.00  0.00     0.031 A 
ATOM     42  C   UNL A   1      46.343  25.633  25.847  1.00  0.00     0.074 A 
ATOM     43  C   UNL A   1      43.947  25.733  26.426  1.00  0.00     0.049 A 
ATOM     44  N   UNL A   1      46.762  26.802  26.253  1.00  0.00    -0.248 NA
ATOM     45  C   UNL A   1      47.374  24.816  25.187  1.00  0.00     0.031 C 
ATOM     46  C   UNL A   1      42.580  25.251  26.536  1.00  0.00     0.029 A 
ATOM     47  N   UNL A   1      43.886  27.018  26.899  1.00  0.00    -0.354 N 
ATOM     48  C   UNL A   1      48.108  26.851  25.918  1.00  0.00     0.074 A 
ATOM     49  C   UNL A   1      48.443  25.588  25.299  1.00  0.00     0.031 C 
ATOM     50  C   UNL A   1      41.806  26.216  27.057  1.00  0.00     0.029 A 
ATOM     51  C   UNL A   1      42.645  27.368  27.377  1.00  0.00     0.049 A 
ATOM     52  H   UNL A   1      44.655  27.632  26.897  1.00  0.00     0.167 HD
ATOM     53  C   UNL A   1      48.985  27.862  26.110  1.00  0.00     0.037 A 
ATOM     54  C   UNL A   1      42.249  28.474  28.037  1.00  0.00     0.037 A 
ATOM     55  C   UNL A   1      48.640  29.111  26.732  1.00  0.00     0.049 A 
ATOM     56  C   UNL A   1      43.263  29.553  28.316  1.00  0.00     0.074 A 
ATOM     57  C   UNL A   1      49.446  30.209  26.972  1.00  0.00     0.029 A 
ATOM     58  N   UNL A   1      47.379  29.426  27.220  1.00  0.00    -0.354 N 
ATOM     59  N   UNL A   1      44.535  29.597  27.997  1.00  0.00    -0.248 NA
ATOM     60  C   UNL A   1      42.789  30.736  29.047  1.00  0.00     0.031 C 
ATOM     61  C   UNL A   1      48.690  31.162  27.660  1.00  0.00     0.029 A 
ATOM     62  C   UNL A   1      47.393  30.690  27.786  1.00  0.00     0.049 A 
ATOM     63  H   UNL A   1      46.591  28.837  27.171  1.00  0.00     0.167 HD
ATOM     64  C   UNL A   1      45.003  30.821  28.456  1.00  0.00     0.074 A 
ATOM     65  C   UNL A   1      43.876  31.495  29.065  1.00  0.00     0.031 C 
ATOM     66  C   UNL A   1      46.253  31.344  28.377  1.00  0.00     0.037 A 
BRANCH  53  67
ATOM     67  C   UNL A   1      50.405  27.637  25.681  1.00  0.00     0.064 A 
ATOM     68  C   UNL A   1      50.813  27.795  24.347  1.00  0.00     0.173 A 
ATOM     69  C   UNL A   1      51.378  27.269  26.622  1.00  0.00     0.173 A 
ATOM     70  F   UNL A   1      49.919  28.127  23.403  1.00  0.00    -0.203 F 
ATOM     71  C   UNL A   1      52.133  27.566  23.968  1.00  0.00     0.198 A 
ATOM     72  C   UNL A   1      52.704  27.073  26.246  1.00  0.00     0.198 A 
ATOM     73  F   UNL A   1      51.044  27.099  27.910  1.00  0.00    -0.203 F 
ATOM     74  F   UNL A   1      52.486  27.668  22.679  1.00  0.00    -0.200 F 
ATOM     75  C   UNL A   1      53.079  27.213  24.919  1.00  0.00     0.200 A 
ATOM     76  F   UNL A   1      53.619  26.744  27.170  1.00  0.00    -0.200 F 
ATOM     77  F   UNL A   1      54.350  27.000  24.554  1.00  0.00    -0.200 F 
ENDBRANCH  53  67
BRANCH  54  78
ATOM     78  C   UNL A   1      40.842  28.608  28.505  1.00  0.00     0.064 A 
ATOM     79  C   UNL A   1      40.482  28.283  29.820  1.00  0.00     0.173 A 
ATOM     80  C   UNL A   1      39.823  29.042  27.643  1.00  0.00     0.173 A 
ATOM     81  F   UNL A   1      41.414  27.840  30.677  1.00  0.00    -0.203 F 
ATOM     82  C   UNL A   1      39.159  28.367  30.249  1.00  0.00     0.198 A 
ATOM     83  C   UNL A   1      38.505  29.157  28.082  1.00  0.00     0.198 A 
ATOM     84  F   UNL A   1      40.108  29.368  26.374  1.00  0.00    -0.203 F 
ATOM     85  F   UNL A   1      38.837  28.001  31.498  1.00  0.00    -0.200 F 
ATOM     86  C   UNL A   1      38.172  28.810  29.382  1.00  0.00     0.200 A 
ATOM     87  F   UNL A   1      37.558  29.603  27.244  1.00  0.00    -0.200 F 
ATOM     88  F   UNL A   1      36.901  28.896  29.796  1.00  0.00    -0.200 F 
ENDBRANCH  54  78
BRANCH  66  89
ATOM     89  C   UNL A   1      46.455  32.731  28.919  1.00  0.00     0.064 A 
ATOM     90  C   UNL A   1      46.866  32.959  30.240  1.00  0.00     0.173 A 
ATOM     91  C   UNL A   1      46.279  33.847  28.085  1.00  0.00     0.173 A 
ATOM     92  F   UNL A   1      47.037  31.928  31.081  1.00  0.00    -0.203 F 
ATOM     93  C   UNL A   1      47.065  34.253  30.714  1.00  0.00     0.198 A 
ATOM     94  C   UNL A   1      46.514  35.136  28.551  1.00  0.00     0.198 A 
ATOM     95  F   UNL A   1      45.895  33.683  26.809  1.00  0.00    -0.203 F 
ATOM     96  F   UNL A   1      47.405  34.450  31.995  1.00  0.00    -0.200 F 
ATOM     97  C   UNL A   1      46.897  35.339  29.867  1.00  0.00     0.200 A 
ATOM     98  F   UNL A   1      46.369  36.182  27.726  1.00  0.00    -0.200 F 
ATOM     99  F   UNL A   1      47.099  36.583  30.323  1.00  0.00    -0.200 F 
ENDBRANCH  66  89
ENDBRANCH  40  41
ENDBRANCH  33  35
ENDBRANCH  32  33
ENDBRANCH  31  32
ENDBRANCH  30  31
ENDBRANCH  29  30
ENDBRANCH  28  29
ENDBRANCH   1  28
TORSDOF 22
ENDMDL
