MODEL 1
REMARK VINA RESULT:     -10.7      0.000      0.000
REMARK SMILES O=C(OCCOCCOCCOC(=O)[C@@H]1CSCN1C(=O)c1cccc(Cl)c1)c1ccc(-c2c3nc(c(-c4c(F)c(F)c(F)c(F)c4F)c4ccc([nH]4)c(-c4c(F)c(F)c(F)c(F)c4F)c4nc(c(-c5c(F)c(F)c(F)c(F)c5F)c5ccc2[nH]5)C=C4)C=C3)cc1
REMARK SMILES IDX 7 1 6 2 5 3 4 4 3 5 2 6 1 7 29 8 30 9 91 10 31 11 90 12
REMARK SMILES IDX 32 13 33 14 34 15 84 16 35 17 89 18 83 19 85 20 36 21 88 22
REMARK SMILES IDX 82 23 81 24 37 26 69 27 49 28 68 29 50 30 53 31 67 32 86 33
REMARK SMILES IDX 51 34 52 35 66 37 87 38 54 39 38 40 39 41 47 42 40 43 41 44
REMARK SMILES IDX 45 45 48 46 42 47 43 48 46 49 44 50 70 51 71 52 79 53 72 54
REMARK SMILES IDX 73 55 77 56 80 57 74 58 75 59 78 60 76 61 55 62 56 63 64 64
REMARK SMILES IDX 57 65 58 66 62 67 65 68 59 69 60 70 63 71 61 72 8 73 9 74
REMARK SMILES IDX 10 75 11 76 12 77 13 78 14 79 15 80 16 81 19 82 17 83 18 84
REMARK SMILES IDX 20 85 21 86 22 87 23 88 28 89 24 90 26 91 25 92 27 93
REMARK H PARENT 85 25 53 36
REMARK Flexibility Score: inf
ROOT
ATOM      1  C   UNL A   1      35.540  30.747  28.424  1.00  0.00     0.188 C 
ENDROOT
BRANCH   1   2
ATOM      2  O   UNL A   1      35.399  32.035  27.826  1.00  0.00    -0.376 OA
BRANCH   2   3
ATOM      3  C   UNL A   1      34.144  32.704  27.993  1.00  0.00     0.202 C 
BRANCH   3   4
ATOM      4  C   UNL A   1      34.090  33.956  28.881  1.00  0.00     0.261 C 
BRANCH   4   5
ATOM      5  O   UNL A   1      34.136  33.709  30.289  1.00  0.00    -0.460 OA
BRANCH   5   6
ATOM      6  C   UNL A   1      35.159  33.919  31.141  1.00  0.00     0.338 C 
ATOM      7  O   UNL A   1      35.080  34.833  31.957  1.00  0.00    -0.246 OA
BRANCH   6   8
ATOM      8  C   UNL A   1      36.367  33.057  31.189  1.00  0.00     0.060 A 
ATOM      9  C   UNL A   1      37.835  33.192  30.181  1.00  0.00     0.016 A 
ATOM     10  C   UNL A   1      36.031  31.662  32.179  1.00  0.00     0.016 A 
ATOM     11  C   UNL A   1      39.042  31.918  30.017  1.00  0.00     0.010 A 
ATOM     12  C   UNL A   1      37.164  30.298  32.125  1.00  0.00     0.010 A 
ATOM     13  C   UNL A   1      38.826  30.401  30.967  1.00  0.00    -0.014 A 
BRANCH  13  14
ATOM     14  C   UNL A   1      40.141  29.631  30.638  1.00  0.00     0.031 A 
ATOM     15  C   UNL A   1      41.433  30.266  30.994  1.00  0.00     0.074 A 
ATOM     16  C   UNL A   1      40.173  28.370  30.157  1.00  0.00     0.049 A 
ATOM     17  N   UNL A   1      42.511  30.308  30.274  1.00  0.00    -0.248 NA
ATOM     18  C   UNL A   1      41.474  31.084  32.206  1.00  0.00     0.031 C 
ATOM     19  C   UNL A   1      39.027  27.495  29.987  1.00  0.00     0.029 A 
ATOM     20  N   UNL A   1      41.208  27.606  29.687  1.00  0.00    -0.354 N 
ATOM     21  C   UNL A   1      43.228  31.382  30.778  1.00  0.00     0.074 A 
ATOM     22  C   UNL A   1      42.506  31.869  31.929  1.00  0.00     0.031 C 
ATOM     23  C   UNL A   1      39.389  26.322  29.472  1.00  0.00     0.029 A 
ATOM     24  C   UNL A   1      40.778  26.428  29.113  1.00  0.00     0.049 A 
ATOM     25  H   UNL A   1      42.155  27.869  29.752  1.00  0.00     0.167 HD
ATOM     26  C   UNL A   1      44.317  31.919  30.183  1.00  0.00     0.037 A 
ATOM     27  C   UNL A   1      41.389  25.592  28.260  1.00  0.00     0.037 A 
ATOM     28  C   UNL A   1      45.031  31.159  29.182  1.00  0.00     0.049 A 
ATOM     29  C   UNL A   1      42.732  26.031  27.790  1.00  0.00     0.074 A 
ATOM     30  C   UNL A   1      46.239  31.424  28.572  1.00  0.00     0.029 A 
ATOM     31  N   UNL A   1      44.606  29.915  28.705  1.00  0.00    -0.354 N 
ATOM     32  N   UNL A   1      43.331  27.178  28.020  1.00  0.00    -0.248 NA
ATOM     33  C   UNL A   1      43.474  25.110  26.936  1.00  0.00     0.031 C 
ATOM     34  C   UNL A   1      46.540  30.343  27.733  1.00  0.00     0.029 A 
ATOM     35  C   UNL A   1      45.554  29.372  27.863  1.00  0.00     0.049 A 
ATOM     36  H   UNL A   1      43.751  29.486  28.939  1.00  0.00     0.167 HD
ATOM     37  C   UNL A   1      44.539  27.118  27.357  1.00  0.00     0.074 A 
ATOM     38  C   UNL A   1      44.580  25.810  26.715  1.00  0.00     0.031 C 
ATOM     39  C   UNL A   1      45.524  28.047  27.285  1.00  0.00     0.037 A 
BRANCH  26  40
ATOM     40  C   UNL A   1      44.689  33.346  30.502  1.00  0.00     0.064 A 
ATOM     41  C   UNL A   1      45.639  33.718  31.466  1.00  0.00     0.173 A 
ATOM     42  C   UNL A   1      43.998  34.395  29.864  1.00  0.00     0.173 A 
ATOM     43  F   UNL A   1      46.380  32.786  32.085  1.00  0.00    -0.203 F 
ATOM     44  C   UNL A   1      45.807  35.050  31.849  1.00  0.00     0.198 A 
ATOM     45  C   UNL A   1      44.222  35.732  30.194  1.00  0.00     0.198 A 
ATOM     46  F   UNL A   1      43.077  34.131  28.923  1.00  0.00    -0.203 F 
ATOM     47  F   UNL A   1      46.632  35.352  32.861  1.00  0.00    -0.200 F 
ATOM     48  C   UNL A   1      45.104  36.057  31.209  1.00  0.00     0.200 A 
ATOM     49  F   UNL A   1      43.563  36.702  29.545  1.00  0.00    -0.200 F 
ATOM     50  F   UNL A   1      45.272  37.334  31.574  1.00  0.00    -0.200 F 
ENDBRANCH  26  40
BRANCH  27  51
ATOM     51  C   UNL A   1      40.689  24.363  27.794  1.00  0.00     0.064 A 
ATOM     52  C   UNL A   1      39.683  24.448  26.824  1.00  0.00     0.173 A 
ATOM     53  C   UNL A   1      41.111  23.075  28.176  1.00  0.00     0.173 A 
ATOM     54  F   UNL A   1      39.246  25.651  26.421  1.00  0.00    -0.203 F 
ATOM     55  C   UNL A   1      39.132  23.303  26.249  1.00  0.00     0.198 A 
ATOM     56  C   UNL A   1      40.585  21.932  27.575  1.00  0.00     0.198 A 
ATOM     57  F   UNL A   1      42.097  22.930  29.074  1.00  0.00    -0.203 F 
ATOM     58  F   UNL A   1      38.166  23.417  25.328  1.00  0.00    -0.200 F 
ATOM     59  C   UNL A   1      39.593  22.046  26.613  1.00  0.00     0.200 A 
ATOM     60  F   UNL A   1      41.065  20.723  27.901  1.00  0.00    -0.200 F 
ATOM     61  F   UNL A   1      39.090  20.949  26.031  1.00  0.00    -0.200 F 
ENDBRANCH  27  51
BRANCH  39  62
ATOM     62  C   UNL A   1      46.763  27.621  26.574  1.00  0.00     0.064 A 
ATOM     63  C   UNL A   1      47.811  26.976  27.237  1.00  0.00     0.173 A 
ATOM     64  C   UNL A   1      46.844  27.797  25.186  1.00  0.00     0.173 A 
ATOM     65  F   UNL A   1      47.774  26.817  28.569  1.00  0.00    -0.203 F 
ATOM     66  C   UNL A   1      48.912  26.517  26.527  1.00  0.00     0.198 A 
ATOM     67  C   UNL A   1      47.930  27.305  24.476  1.00  0.00     0.198 A 
ATOM     68  F   UNL A   1      45.857  28.416  24.521  1.00  0.00    -0.203 F 
ATOM     69  F   UNL A   1      49.927  25.931  27.177  1.00  0.00    -0.200 F 
ATOM     70  C   UNL A   1      48.963  26.668  25.147  1.00  0.00     0.200 A 
ATOM     71  F   UNL A   1      47.968  27.436  23.143  1.00  0.00    -0.200 F 
ATOM     72  F   UNL A   1      50.012  26.197  24.461  1.00  0.00    -0.200 F 
ENDBRANCH  39  62
ENDBRANCH  13  14
ENDBRANCH   6   8
ENDBRANCH   5   6
ENDBRANCH   4   5
ENDBRANCH   3   4
ENDBRANCH   2   3
ENDBRANCH   1   2
BRANCH   1  73
ATOM     73  C   UNL A   1      35.001  29.547  27.653  1.00  0.00     0.188 C 
BRANCH  73  74
ATOM     74  O   UNL A   1      33.944  29.769  26.738  1.00  0.00    -0.376 OA
BRANCH  74  75
ATOM     75  C   UNL A   1      32.623  29.627  27.237  1.00  0.00     0.202 C 
BRANCH  75  76
ATOM     76  C   UNL A   1      31.841  28.351  26.877  1.00  0.00     0.261 C 
BRANCH  76  77
ATOM     77  O   UNL A   1      32.627  27.190  26.533  1.00  0.00    -0.462 OA
BRANCH  77  78
ATOM     78  C   UNL A   1      32.797  26.955  25.204  1.00  0.00     0.329 C 
ATOM     79  O   UNL A   1      33.074  27.829  24.387  1.00  0.00    -0.250 OA
BRANCH  78  80
ATOM     80  C   UNL A   1      32.583  25.475  24.787  1.00  0.00     0.206 C 
ATOM     81  C   UNL A   1      32.186  25.554  23.308  1.00  0.00     0.108 C 
ATOM     82  N   UNL A   1      31.540  24.648  25.472  1.00  0.00    -0.315 N 
ATOM     83  S   UNL A   1      30.377  25.695  23.342  1.00  0.00    -0.138 SA
ATOM     84  C   UNL A   1      30.234  25.158  25.081  1.00  0.00     0.191 C 
BRANCH  82  85
ATOM     85  C   UNL A   1      31.927  23.520  26.272  1.00  0.00     0.255 C 
ATOM     86  O   UNL A   1      31.747  23.582  27.494  1.00  0.00    -0.269 OA
BRANCH  85  87
ATOM     87  C   UNL A   1      32.740  22.193  25.792  1.00  0.00     0.041 A 
ATOM     88  C   UNL A   1      34.495  22.591  26.083  1.00  0.00     0.014 A 
ATOM     89  C   UNL A   1      32.380  20.340  25.037  1.00  0.00     0.034 A 
ATOM     90  C   UNL A   1      35.742  21.410  25.612  1.00  0.00     0.002 A 
ATOM     91  C   UNL A   1      33.740  19.245  24.671  1.00  0.00     0.041 A 
ATOM     92  C   UNL A   1      35.365  19.807  24.939  1.00  0.00     0.020 A 
ATOM     93  Cl  UNL A   1      33.405  17.625  24.200  1.00  0.00    -0.084 Cl
ENDBRANCH  85  87
ENDBRANCH  82  85
ENDBRANCH  78  80
ENDBRANCH  77  78
ENDBRANCH  76  77
ENDBRANCH  75  76
ENDBRANCH  74  75
ENDBRANCH  73  74
ENDBRANCH   1  73
TORSDOF 19
ENDMDL
MODEL 2
REMARK VINA RESULT:     -10.6      2.327      3.690
REMARK SMILES O=C(OCCOCCOCCOC(=O)[C@@H]1CSCN1C(=O)c1cccc(Cl)c1)c1ccc(-c2c3nc(c(-c4c(F)c(F)c(F)c(F)c4F)c4ccc([nH]4)c(-c4c(F)c(F)c(F)c(F)c4F)c4nc(c(-c5c(F)c(F)c(F)c(F)c5F)c5ccc2[nH]5)C=C4)C=C3)cc1
REMARK SMILES IDX 7 1 6 2 5 3 4 4 3 5 2 6 1 7 29 8 30 9 91 10 31 11 90 12
REMARK SMILES IDX 32 13 33 14 34 15 84 16 35 17 89 18 83 19 85 20 36 21 88 22
REMARK SMILES IDX 82 23 81 24 37 26 69 27 49 28 68 29 50 30 53 31 67 32 86 33
REMARK SMILES IDX 51 34 52 35 66 37 87 38 54 39 38 40 39 41 47 42 40 43 41 44
REMARK SMILES IDX 45 45 48 46 42 47 43 48 46 49 44 50 70 51 71 52 79 53 72 54
REMARK SMILES IDX 73 55 77 56 80 57 74 58 75 59 78 60 76 61 55 62 56 63 64 64
REMARK SMILES IDX 57 65 58 66 62 67 65 68 59 69 60 70 63 71 61 72 8 73 9 74
REMARK SMILES IDX 10 75 11 76 12 77 13 78 14 79 15 80 16 81 19 82 17 83 18 84
REMARK SMILES IDX 20 85 21 86 22 87 23 88 28 89 24 90 26 91 25 92 27 93
REMARK H PARENT 85 25 53 36
REMARK Flexibility Score: inf
ROOT
ATOM      1  C   UNL A   1      33.449  34.276  28.058  1.00  0.00     0.188 C 
ENDROOT
BRANCH   1   2
ATOM      2  O   UNL A   1      32.772  34.521  29.291  1.00  0.00    -0.376 OA
BRANCH   2   3
ATOM      3  C   UNL A   1      33.211  35.639  30.071  1.00  0.00     0.202 C 
BRANCH   3   4
ATOM      4  C   UNL A   1      33.710  35.387  31.502  1.00  0.00     0.261 C 
BRANCH   4   5
ATOM      5  O   UNL A   1      34.905  34.609  31.604  1.00  0.00    -0.460 OA
BRANCH   5   6
ATOM      6  C   UNL A   1      35.041  33.271  31.508  1.00  0.00     0.338 C 
ATOM      7  O   UNL A   1      34.034  32.573  31.425  1.00  0.00    -0.246 OA
BRANCH   6   8
ATOM      8  C   UNL A   1      36.358  32.591  31.434  1.00  0.00     0.060 A 
ATOM      9  C   UNL A   1      37.318  32.244  29.969  1.00  0.00     0.016 A 
ATOM     10  C   UNL A   1      36.715  31.876  32.984  1.00  0.00     0.016 A 
ATOM     11  C   UNL A   1      38.659  31.101  29.913  1.00  0.00     0.010 A 
ATOM     12  C   UNL A   1      38.047  30.707  33.086  1.00  0.00     0.010 A 
ATOM     13  C   UNL A   1      39.141  30.265  31.436  1.00  0.00    -0.014 A 
BRANCH  13  14
ATOM     14  C   UNL A   1      40.404  29.475  30.978  1.00  0.00     0.031 A 
ATOM     15  C   UNL A   1      41.738  30.039  31.300  1.00  0.00     0.074 A 
ATOM     16  C   UNL A   1      40.361  28.252  30.411  1.00  0.00     0.049 A 
ATOM     17  N   UNL A   1      42.774  30.095  30.523  1.00  0.00    -0.248 NA
ATOM     18  C   UNL A   1      41.878  30.768  32.561  1.00  0.00     0.031 C 
ATOM     19  C   UNL A   1      39.175  27.430  30.250  1.00  0.00     0.029 A 
ATOM     20  N   UNL A   1      41.338  27.487  29.830  1.00  0.00    -0.354 N 
ATOM     21  C   UNL A   1      43.559  31.106  31.056  1.00  0.00     0.074 A 
ATOM     22  C   UNL A   1      42.922  31.535  32.278  1.00  0.00     0.031 C 
ATOM     23  C   UNL A   1      39.463  26.284  29.634  1.00  0.00     0.029 A 
ATOM     24  C   UNL A   1      40.833  26.368  29.204  1.00  0.00     0.049 A 
ATOM     25  H   UNL A   1      42.297  27.713  29.857  1.00  0.00     0.167 HD
ATOM     26  C   UNL A   1      44.633  31.646  30.437  1.00  0.00     0.037 A 
ATOM     27  C   UNL A   1      41.363  25.573  28.261  1.00  0.00     0.037 A 
ATOM     28  C   UNL A   1      45.260  30.935  29.346  1.00  0.00     0.049 A 
ATOM     29  C   UNL A   1      42.693  25.999  27.744  1.00  0.00     0.074 A 
ATOM     30  C   UNL A   1      46.441  31.201  28.686  1.00  0.00     0.029 A 
ATOM     31  N   UNL A   1      44.762  29.743  28.811  1.00  0.00    -0.354 N 
ATOM     32  N   UNL A   1      43.347  27.106  28.016  1.00  0.00    -0.248 NA
ATOM     33  C   UNL A   1      43.350  25.115  26.787  1.00  0.00     0.031 C 
ATOM     34  C   UNL A   1      46.653  30.172  27.759  1.00  0.00     0.029 A 
ATOM     35  C   UNL A   1      45.640  29.229  27.879  1.00  0.00     0.049 A 
ATOM     36  H   UNL A   1      43.906  29.328  29.065  1.00  0.00     0.167 HD
ATOM     37  C   UNL A   1      44.512  27.051  27.281  1.00  0.00     0.074 A 
ATOM     38  C   UNL A   1      44.468  25.791  26.550  1.00  0.00     0.031 C 
ATOM     39  C   UNL A   1      45.527  27.949  27.215  1.00  0.00     0.037 A 
BRANCH  26  40
ATOM     40  C   UNL A   1      45.075  33.034  30.830  1.00  0.00     0.064 A 
ATOM     41  C   UNL A   1      44.567  34.214  30.267  1.00  0.00     0.173 A 
ATOM     42  C   UNL A   1      46.121  33.182  31.764  1.00  0.00     0.173 A 
ATOM     43  F   UNL A   1      43.536  34.170  29.410  1.00  0.00    -0.203 F 
ATOM     44  C   UNL A   1      45.143  35.458  30.535  1.00  0.00     0.198 A 
ATOM     45  C   UNL A   1      46.646  34.434  32.088  1.00  0.00     0.198 A 
ATOM     46  F   UNL A   1      46.662  32.106  32.357  1.00  0.00    -0.203 F 
ATOM     47  F   UNL A   1      44.712  36.545  29.881  1.00  0.00    -0.200 F 
ATOM     48  C   UNL A   1      46.178  35.568  31.449  1.00  0.00     0.200 A 
ATOM     49  F   UNL A   1      47.622  34.535  33.000  1.00  0.00    -0.200 F 
ATOM     50  F   UNL A   1      46.725  36.763  31.708  1.00  0.00    -0.200 F 
ENDBRANCH  26  40
BRANCH  27  51
ATOM     51  C   UNL A   1      40.592  24.405  27.754  1.00  0.00     0.064 A 
ATOM     52  C   UNL A   1      39.555  24.590  26.832  1.00  0.00     0.173 A 
ATOM     53  C   UNL A   1      40.969  23.081  28.044  1.00  0.00     0.173 A 
ATOM     54  F   UNL A   1      39.157  25.831  26.516  1.00  0.00    -0.203 F 
ATOM     55  C   UNL A   1      38.932  23.505  26.215  1.00  0.00     0.198 A 
ATOM     56  C   UNL A   1      40.370  21.998  27.400  1.00  0.00     0.198 A 
ATOM     57  F   UNL A   1      41.981  22.841  28.892  1.00  0.00    -0.203 F 
ATOM     58  F   UNL A   1      37.938  23.714  25.341  1.00  0.00    -0.200 F 
ATOM     59  C   UNL A   1      39.350  22.211  26.487  1.00  0.00     0.200 A 
ATOM     60  F   UNL A   1      40.808  20.753  27.637  1.00  0.00    -0.200 F 
ATOM     61  F   UNL A   1      38.777  21.172  25.864  1.00  0.00    -0.200 F 
ENDBRANCH  27  51
BRANCH  39  62
ATOM     62  C   UNL A   1      46.707  27.533  26.405  1.00  0.00     0.064 A 
ATOM     63  C   UNL A   1      47.725  26.736  26.938  1.00  0.00     0.173 A 
ATOM     64  C   UNL A   1      46.756  27.878  25.048  1.00  0.00     0.173 A 
ATOM     65  F   UNL A   1      47.719  26.410  28.239  1.00  0.00    -0.203 F 
ATOM     66  C   UNL A   1      48.765  26.297  26.130  1.00  0.00     0.198 A 
ATOM     67  C   UNL A   1      47.778  27.407  24.237  1.00  0.00     0.198 A 
ATOM     68  F   UNL A   1      45.796  28.644  24.508  1.00  0.00    -0.203 F 
ATOM     69  F   UNL A   1      49.754  25.562  26.658  1.00  0.00    -0.200 F 
ATOM     70  C   UNL A   1      48.782  26.619  24.779  1.00  0.00     0.200 A 
ATOM     71  F   UNL A   1      47.783  27.705  22.931  1.00  0.00    -0.200 F 
ATOM     72  F   UNL A   1      49.771  26.168  23.997  1.00  0.00    -0.200 F 
ENDBRANCH  39  62
ENDBRANCH  13  14
ENDBRANCH   6   8
ENDBRANCH   5   6
ENDBRANCH   4   5
ENDBRANCH   3   4
ENDBRANCH   2   3
ENDBRANCH   1   2
BRANCH   1  73
ATOM     73  C   UNL A   1      34.225  32.971  27.924  1.00  0.00     0.188 C 
BRANCH  73  74
ATOM     74  O   UNL A   1      33.523  31.828  27.473  1.00  0.00    -0.376 OA
BRANCH  74  75
ATOM     75  C   UNL A   1      34.068  30.563  27.814  1.00  0.00     0.202 C 
BRANCH  75  76
ATOM     76  C   UNL A   1      33.199  29.311  27.592  1.00  0.00     0.261 C 
BRANCH  76  77
ATOM     77  O   UNL A   1      33.789  28.248  26.814  1.00  0.00    -0.462 OA
BRANCH  77  78
ATOM     78  C   UNL A   1      33.447  28.210  25.498  1.00  0.00     0.329 C 
ATOM     79  O   UNL A   1      33.930  28.951  24.645  1.00  0.00    -0.250 OA
BRANCH  78  80
ATOM     80  C   UNL A   1      32.357  27.158  25.155  1.00  0.00     0.206 C 
ATOM     81  C   UNL A   1      32.460  26.128  26.286  1.00  0.00     0.108 C 
ATOM     82  N   UNL A   1      32.430  26.397  23.868  1.00  0.00    -0.315 N 
ATOM     83  S   UNL A   1      33.668  24.919  25.676  1.00  0.00    -0.138 SA
ATOM     84  C   UNL A   1      33.567  25.492  23.946  1.00  0.00     0.191 C 
BRANCH  82  85
ATOM     85  C   UNL A   1      31.419  26.580  22.866  1.00  0.00     0.255 C 
ATOM     86  O   UNL A   1      31.400  25.801  21.906  1.00  0.00    -0.269 OA
BRANCH  85  87
ATOM     87  C   UNL A   1      30.357  27.810  22.739  1.00  0.00     0.041 A 
ATOM     88  C   UNL A   1      28.814  27.169  23.467  1.00  0.00     0.014 A 
ATOM     89  C   UNL A   1      30.276  29.727  22.069  1.00  0.00     0.034 A 
ATOM     90  C   UNL A   1      27.359  28.197  23.457  1.00  0.00     0.002 A 
ATOM     91  C   UNL A   1      28.752  30.649  22.183  1.00  0.00     0.041 A 
ATOM     92  C   UNL A   1      27.344  29.865  22.840  1.00  0.00     0.020 A 
ATOM     93  Cl  UNL A   1      28.754  32.319  21.773  1.00  0.00    -0.084 Cl
ENDBRANCH  85  87
ENDBRANCH  82  85
ENDBRANCH  78  80
ENDBRANCH  77  78
ENDBRANCH  76  77
ENDBRANCH  75  76
ENDBRANCH  74  75
ENDBRANCH  73  74
ENDBRANCH   1  73
TORSDOF 19
ENDMDL
MODEL 3
REMARK VINA RESULT:     -10.3      1.184      2.238
REMARK SMILES O=C(OCCOCCOCCOC(=O)[C@@H]1CSCN1C(=O)c1cccc(Cl)c1)c1ccc(-c2c3nc(c(-c4c(F)c(F)c(F)c(F)c4F)c4ccc([nH]4)c(-c4c(F)c(F)c(F)c(F)c4F)c4nc(c(-c5c(F)c(F)c(F)c(F)c5F)c5ccc2[nH]5)C=C4)C=C3)cc1
REMARK SMILES IDX 7 1 6 2 5 3 4 4 3 5 2 6 1 7 29 8 30 9 91 10 31 11 90 12
REMARK SMILES IDX 32 13 33 14 34 15 84 16 35 17 89 18 83 19 85 20 36 21 88 22
REMARK SMILES IDX 82 23 81 24 37 26 69 27 49 28 68 29 50 30 53 31 67 32 86 33
REMARK SMILES IDX 51 34 52 35 66 37 87 38 54 39 38 40 39 41 47 42 40 43 41 44
REMARK SMILES IDX 45 45 48 46 42 47 43 48 46 49 44 50 70 51 71 52 79 53 72 54
REMARK SMILES IDX 73 55 77 56 80 57 74 58 75 59 78 60 76 61 55 62 56 63 64 64
REMARK SMILES IDX 57 65 58 66 62 67 65 68 59 69 60 70 63 71 61 72 8 73 9 74
REMARK SMILES IDX 10 75 11 76 12 77 13 78 14 79 15 80 16 81 19 82 17 83 18 84
REMARK SMILES IDX 20 85 21 86 22 87 23 88 28 89 24 90 26 91 25 92 27 93
REMARK H PARENT 85 25 53 36
REMARK Flexibility Score: inf
ROOT
ATOM      1  C   UNL A   1      33.523  33.952  28.132  1.00  0.00     0.188 C 
ENDROOT
BRANCH   1   2
ATOM      2  O   UNL A   1      32.848  34.562  29.232  1.00  0.00    -0.376 OA
BRANCH   2   3
ATOM      3  C   UNL A   1      33.561  35.560  29.969  1.00  0.00     0.202 C 
BRANCH   3   4
ATOM      4  C   UNL A   1      34.021  35.232  31.398  1.00  0.00     0.261 C 
BRANCH   4   5
ATOM      5  O   UNL A   1      35.229  34.471  31.491  1.00  0.00    -0.460 OA
BRANCH   5   6
ATOM      6  C   UNL A   1      35.379  33.133  31.420  1.00  0.00     0.338 C 
ATOM      7  O   UNL A   1      34.380  32.421  31.366  1.00  0.00    -0.246 OA
BRANCH   6   8
ATOM      8  C   UNL A   1      36.703  32.467  31.340  1.00  0.00     0.060 A 
ATOM      9  C   UNL A   1      37.614  32.040  29.865  1.00  0.00     0.016 A 
ATOM     10  C   UNL A   1      37.129  31.858  32.918  1.00  0.00     0.016 A 
ATOM     11  C   UNL A   1      38.970  30.913  29.831  1.00  0.00     0.010 A 
ATOM     12  C   UNL A   1      38.482  30.717  33.044  1.00  0.00     0.010 A 
ATOM     13  C   UNL A   1      39.520  30.183  31.385  1.00  0.00    -0.014 A 
BRANCH  13  14
ATOM     14  C   UNL A   1      40.779  29.383  30.931  1.00  0.00     0.031 A 
ATOM     15  C   UNL A   1      42.113  29.878  31.351  1.00  0.00     0.074 A 
ATOM     16  C   UNL A   1      40.724  28.202  30.281  1.00  0.00     0.049 A 
ATOM     17  N   UNL A   1      43.186  29.950  30.626  1.00  0.00    -0.248 NA
ATOM     18  C   UNL A   1      42.216  30.515  32.664  1.00  0.00     0.031 C 
ATOM     19  C   UNL A   1      39.521  27.435  30.011  1.00  0.00     0.029 A 
ATOM     20  N   UNL A   1      41.703  27.445  29.693  1.00  0.00    -0.354 N 
ATOM     21  C   UNL A   1      43.976  30.895  31.262  1.00  0.00     0.074 A 
ATOM     22  C   UNL A   1      43.296  31.263  32.481  1.00  0.00     0.031 C 
ATOM     23  C   UNL A   1      39.801  26.323  29.332  1.00  0.00     0.029 A 
ATOM     24  C   UNL A   1      41.192  26.389  28.969  1.00  0.00     0.049 A 
ATOM     25  H   UNL A   1      42.665  27.635  29.778  1.00  0.00     0.167 HD
ATOM     26  C   UNL A   1      45.094  31.438  30.729  1.00  0.00     0.037 A 
ATOM     27  C   UNL A   1      41.740  25.641  27.999  1.00  0.00     0.037 A 
ATOM     28  C   UNL A   1      45.749  30.780  29.621  1.00  0.00     0.049 A 
ATOM     29  C   UNL A   1      43.106  26.054  27.572  1.00  0.00     0.074 A 
ATOM     30  C   UNL A   1      46.968  31.048  29.034  1.00  0.00     0.029 A 
ATOM     31  N   UNL A   1      45.239  29.644  28.984  1.00  0.00    -0.354 N 
ATOM     32  N   UNL A   1      43.781  27.117  27.948  1.00  0.00    -0.248 NA
ATOM     33  C   UNL A   1      43.779  25.214  26.588  1.00  0.00     0.031 C 
ATOM     34  C   UNL A   1      47.190  30.077  28.049  1.00  0.00     0.029 A 
ATOM     35  C   UNL A   1      46.143  29.163  28.060  1.00  0.00     0.049 A 
ATOM     36  H   UNL A   1      44.360  29.243  29.170  1.00  0.00     0.167 HD
ATOM     37  C   UNL A   1      44.977  27.071  27.264  1.00  0.00     0.074 A 
ATOM     38  C   UNL A   1      44.927  25.865  26.447  1.00  0.00     0.031 C 
ATOM     39  C   UNL A   1      46.021  27.935  27.305  1.00  0.00     0.037 A 
BRANCH  26  40
ATOM     40  C   UNL A   1      45.561  32.780  31.236  1.00  0.00     0.064 A 
ATOM     41  C   UNL A   1      45.091  34.012  30.757  1.00  0.00     0.173 A 
ATOM     42  C   UNL A   1      46.592  32.831  32.196  1.00  0.00     0.173 A 
ATOM     43  F   UNL A   1      44.075  34.059  29.881  1.00  0.00    -0.203 F 
ATOM     44  C   UNL A   1      45.690  35.217  31.130  1.00  0.00     0.198 A 
ATOM     45  C   UNL A   1      47.140  34.040  32.624  1.00  0.00     0.198 A 
ATOM     46  F   UNL A   1      47.097  31.699  32.714  1.00  0.00    -0.203 F 
ATOM     47  F   UNL A   1      45.297  36.361  30.555  1.00  0.00    -0.200 F 
ATOM     48  C   UNL A   1      46.710  35.232  32.067  1.00  0.00     0.200 A 
ATOM     49  F   UNL A   1      48.100  34.047  33.558  1.00  0.00    -0.200 F 
ATOM     50  F   UNL A   1      47.279  36.389  32.427  1.00  0.00    -0.200 F 
ENDBRANCH  26  40
BRANCH  27  51
ATOM     51  C   UNL A   1      40.957  24.537  27.379  1.00  0.00     0.064 A 
ATOM     52  C   UNL A   1      41.180  23.210  27.765  1.00  0.00     0.173 A 
ATOM     53  C   UNL A   1      39.870  24.786  26.521  1.00  0.00     0.173 A 
ATOM     54  F   UNL A   1      42.200  22.916  28.585  1.00  0.00    -0.203 F 
ATOM     55  C   UNL A   1      40.348  22.178  27.327  1.00  0.00     0.198 A 
ATOM     56  C   UNL A   1      39.018  23.759  26.113  1.00  0.00     0.198 A 
ATOM     57  F   UNL A   1      39.584  26.042  26.145  1.00  0.00    -0.203 F 
ATOM     58  F   UNL A   1      40.592  20.918  27.709  1.00  0.00    -0.200 F 
ATOM     59  C   UNL A   1      39.260  22.455  26.514  1.00  0.00     0.200 A 
ATOM     60  F   UNL A   1      37.944  24.040  25.361  1.00  0.00    -0.200 F 
ATOM     61  F   UNL A   1      38.439  21.469  26.127  1.00  0.00    -0.200 F 
ENDBRANCH  27  51
BRANCH  39  62
ATOM     62  C   UNL A   1      47.224  27.534  26.522  1.00  0.00     0.064 A 
ATOM     63  C   UNL A   1      48.235  26.742  27.075  1.00  0.00     0.173 A 
ATOM     64  C   UNL A   1      47.304  27.889  25.169  1.00  0.00     0.173 A 
ATOM     65  F   UNL A   1      48.200  26.408  28.374  1.00  0.00    -0.203 F 
ATOM     66  C   UNL A   1      49.299  26.316  26.290  1.00  0.00     0.198 A 
ATOM     67  C   UNL A   1      48.349  27.431  24.381  1.00  0.00     0.198 A 
ATOM     68  F   UNL A   1      46.352  28.651  24.610  1.00  0.00    -0.203 F 
ATOM     69  F   UNL A   1      50.280  25.586  26.838  1.00  0.00    -0.200 F 
ATOM     70  C   UNL A   1      49.347  26.647  24.943  1.00  0.00     0.200 A 
ATOM     71  F   UNL A   1      48.385  27.737  23.077  1.00  0.00    -0.200 F 
ATOM     72  F   UNL A   1      50.358  26.209  24.182  1.00  0.00    -0.200 F 
ENDBRANCH  39  62
ENDBRANCH  13  14
ENDBRANCH   6   8
ENDBRANCH   5   6
ENDBRANCH   4   5
ENDBRANCH   3   4
ENDBRANCH   2   3
ENDBRANCH   1   2
BRANCH   1  73
ATOM     73  C   UNL A   1      33.858  32.469  28.242  1.00  0.00     0.188 C 
BRANCH  73  74
ATOM     74  O   UNL A   1      34.035  31.741  27.041  1.00  0.00    -0.376 OA
BRANCH  74  75
ATOM     75  C   UNL A   1      33.506  30.424  27.005  1.00  0.00     0.202 C 
BRANCH  75  76
ATOM     76  C   UNL A   1      32.056  30.234  26.524  1.00  0.00     0.261 C 
BRANCH  76  77
ATOM     77  O   UNL A   1      31.865  30.073  25.102  1.00  0.00    -0.462 OA
BRANCH  77  78
ATOM     78  C   UNL A   1      31.385  28.866  24.696  1.00  0.00     0.329 C 
ATOM     79  O   UNL A   1      30.279  28.708  24.187  1.00  0.00    -0.250 OA
BRANCH  78  80
ATOM     80  C   UNL A   1      32.351  27.679  24.958  1.00  0.00     0.206 C 
ATOM     81  C   UNL A   1      33.639  28.073  24.225  1.00  0.00     0.108 C 
ATOM     82  N   UNL A   1      31.989  26.303  24.490  1.00  0.00    -0.315 N 
ATOM     83  S   UNL A   1      33.424  27.392  22.556  1.00  0.00    -0.138 SA
ATOM     84  C   UNL A   1      32.047  26.294  23.036  1.00  0.00     0.191 C 
BRANCH  82  85
ATOM     85  C   UNL A   1      31.745  25.260  25.446  1.00  0.00     0.255 C 
ATOM     86  O   UNL A   1      31.060  25.528  26.440  1.00  0.00    -0.269 OA
BRANCH  85  87
ATOM     87  C   UNL A   1      32.398  23.768  25.477  1.00  0.00     0.041 A 
ATOM     88  C   UNL A   1      34.156  24.037  25.875  1.00  0.00     0.014 A 
ATOM     89  C   UNL A   1      31.844  21.826  25.240  1.00  0.00     0.034 A 
ATOM     90  C   UNL A   1      35.256  22.637  25.933  1.00  0.00     0.002 A 
ATOM     91  C   UNL A   1      33.058  20.527  25.387  1.00  0.00     0.041 A 
ATOM     92  C   UNL A   1      34.715  20.959  25.700  1.00  0.00     0.020 A 
ATOM     93  Cl  UNL A   1      32.537  18.888  25.357  1.00  0.00    -0.084 Cl
ENDBRANCH  85  87
ENDBRANCH  82  85
ENDBRANCH  78  80
ENDBRANCH  77  78
ENDBRANCH  76  77
ENDBRANCH  75  76
ENDBRANCH  74  75
ENDBRANCH  73  74
ENDBRANCH   1  73
TORSDOF 19
ENDMDL
