MODEL 1
REMARK VINA RESULT:     -10.8      0.000      0.000
REMARK SMILES C[C@@H](C(=O)OCCOCCOCCOC(=O)c1ccc(-c2c3nc(c(-c4c(F)c(F)c(F)c(F)c4F)c4ccc([nH]4)c(-c4c(F)c(F)c(F)c(F)c4F)c4nc(c(-c5c(F)c(F)c(F)c(F)c5F)c5ccc2[nH]5)C=C4)C=C3)cc1)c1ccc(C[C@H]2CCCC2=O)cc1
REMARK SMILES IDX 9 1 8 2 7 3 6 4 5 5 3 6 4 7 2 8 1 9 80 10 81 11 92 12 82 13
REMARK SMILES IDX 91 14 83 15 84 16 85 17 86 18 89 19 87 20 88 21 90 22 10 23
REMARK SMILES IDX 11 24 12 25 13 26 14 27 15 28 16 29 17 30 18 31 79 32 19 33
REMARK SMILES IDX 78 34 20 35 21 36 22 37 72 38 23 39 77 40 71 41 73 42 24 43
REMARK SMILES IDX 76 44 70 45 69 46 25 48 57 49 37 50 56 51 38 52 41 53 55 54
REMARK SMILES IDX 74 55 39 56 40 57 54 59 75 60 42 61 26 62 27 63 35 64 28 65
REMARK SMILES IDX 29 66 33 67 36 68 30 69 31 70 34 71 32 72 58 73 59 74 67 75
REMARK SMILES IDX 60 76 61 77 65 78 68 79 62 80 63 81 66 82 64 83 43 84 44 85
REMARK SMILES IDX 52 86 45 87 46 88 50 89 53 90 47 91 48 92 51 93 49 94
REMARK H PARENT 73 47 41 58
REMARK Flexibility Score: inf
ROOT
ATOM      1  C   UNL A   1      40.479  21.227  27.088  1.00  0.00     0.188 C 
ENDROOT
BRANCH   1   2
ATOM      2  O   UNL A   1      39.565  22.145  26.497  1.00  0.00    -0.376 OA
BRANCH   2   3
ATOM      3  C   UNL A   1      38.536  21.636  25.652  1.00  0.00     0.202 C 
BRANCH   3   4
ATOM      4  C   UNL A   1      37.196  22.388  25.597  1.00  0.00     0.261 C 
BRANCH   4   5
ATOM      5  O   UNL A   1      36.069  21.587  25.182  1.00  0.00    -0.463 OA
BRANCH   5   6
ATOM      6  C   UNL A   1      34.866  22.223  25.164  1.00  0.00     0.313 C 
ATOM      7  O   UNL A   1      34.132  22.266  24.181  1.00  0.00    -0.252 OA
BRANCH   6   8
ATOM      8  C   UNL A   1      34.466  22.862  26.504  1.00  0.00     0.126 C 
ATOM      9  C   UNL A   1      33.894  21.912  27.564  1.00  0.00     0.025 C 
BRANCH   8  10
ATOM     10  C   UNL A   1      33.702  24.170  26.289  1.00  0.00    -0.034 A 
ATOM     11  C   UNL A   1      34.442  25.324  25.981  1.00  0.00     0.005 A 
ATOM     12  C   UNL A   1      32.308  24.290  26.348  1.00  0.00     0.005 A 
ATOM     13  C   UNL A   1      33.819  26.550  25.737  1.00  0.00     0.004 A 
ATOM     14  C   UNL A   1      31.682  25.522  26.107  1.00  0.00     0.004 A 
ATOM     15  C   UNL A   1      32.429  26.664  25.801  1.00  0.00    -0.047 A 
BRANCH  15  16
ATOM     16  C   UNL A   1      31.761  28.000  25.573  1.00  0.00     0.047 C 
BRANCH  16  17
ATOM     17  C   UNL A   1      31.810  28.552  24.145  1.00  0.00     0.060 C 
ATOM     18  C   UNL A   1      31.951  27.519  23.026  1.00  0.00     0.012 C 
ATOM     19  C   UNL A   1      30.531  29.255  23.762  1.00  0.00     0.136 C 
ATOM     20  C   UNL A   1      30.540  27.225  22.531  1.00  0.00     0.009 C 
ATOM     21  C   UNL A   1      29.768  28.528  22.685  1.00  0.00     0.076 C 
ATOM     22  O   UNL A   1      30.155  30.307  24.268  1.00  0.00    -0.299 OA
ENDBRANCH  16  17
ENDBRANCH  15  16
ENDBRANCH   8  10
ENDBRANCH   6   8
ENDBRANCH   5   6
ENDBRANCH   4   5
ENDBRANCH   3   4
ENDBRANCH   2   3
ENDBRANCH   1   2
BRANCH   1  23
ATOM     23  C   UNL A   1      41.248  20.254  26.177  1.00  0.00     0.188 C 
BRANCH  23  24
ATOM     24  O   UNL A   1      42.607  20.090  26.522  1.00  0.00    -0.376 OA
BRANCH  24  25
ATOM     25  C   UNL A   1      43.559  20.107  25.474  1.00  0.00     0.202 C 
BRANCH  25  26
ATOM     26  C   UNL A   1      44.155  21.470  25.081  1.00  0.00     0.261 C 
BRANCH  26  27
ATOM     27  O   UNL A   1      43.908  22.557  25.991  1.00  0.00    -0.460 OA
BRANCH  27  28
ATOM     28  C   UNL A   1      44.062  23.807  25.514  1.00  0.00     0.338 C 
ATOM     29  O   UNL A   1      44.509  24.130  24.416  1.00  0.00    -0.246 OA
BRANCH  28  30
ATOM     30  C   UNL A   1      43.395  24.741  26.443  1.00  0.00     0.060 A 
ATOM     31  C   UNL A   1      43.810  26.077  26.461  1.00  0.00     0.016 A 
ATOM     32  C   UNL A   1      42.371  24.309  27.292  1.00  0.00     0.016 A 
ATOM     33  C   UNL A   1      43.208  26.983  27.334  1.00  0.00     0.010 A 
ATOM     34  C   UNL A   1      41.784  25.216  28.183  1.00  0.00     0.010 A 
ATOM     35  C   UNL A   1      42.210  26.556  28.218  1.00  0.00    -0.014 A 
BRANCH  35  36
ATOM     36  C   UNL A   1      41.756  27.475  29.290  1.00  0.00     0.031 A 
ATOM     37  C   UNL A   1      42.526  27.505  30.580  1.00  0.00     0.074 A 
ATOM     38  C   UNL A   1      40.727  28.321  29.105  1.00  0.00     0.049 A 
ATOM     39  N   UNL A   1      42.296  28.184  31.674  1.00  0.00    -0.248 NA
ATOM     40  C   UNL A   1      43.731  26.662  30.633  1.00  0.00     0.031 C 
ATOM     41  C   UNL A   1      39.957  28.459  27.872  1.00  0.00     0.029 A 
ATOM     42  N   UNL A   1      40.155  29.229  29.965  1.00  0.00    -0.354 N 
ATOM     43  C   UNL A   1      43.320  27.845  32.548  1.00  0.00     0.074 A 
ATOM     44  C   UNL A   1      44.168  26.894  31.862  1.00  0.00     0.031 C 
ATOM     45  C   UNL A   1      39.003  29.390  28.057  1.00  0.00     0.029 A 
ATOM     46  C   UNL A   1      39.067  29.878  29.435  1.00  0.00     0.049 A 
ATOM     47  H   UNL A   1      40.494  29.398  30.873  1.00  0.00     0.167 HD
ATOM     48  C   UNL A   1      43.534  28.286  33.811  1.00  0.00     0.037 A 
ATOM     49  C   UNL A   1      38.202  30.737  30.012  1.00  0.00     0.037 A 
ATOM     50  C   UNL A   1      42.680  29.214  34.501  1.00  0.00     0.049 A 
ATOM     51  C   UNL A   1      38.392  31.120  31.460  1.00  0.00     0.074 A 
ATOM     52  C   UNL A   1      42.791  29.691  35.796  1.00  0.00     0.029 A 
ATOM     53  N   UNL A   1      41.547  29.798  33.957  1.00  0.00    -0.354 N 
ATOM     54  N   UNL A   1      39.348  30.781  32.291  1.00  0.00    -0.248 NA
ATOM     55  C   UNL A   1      37.374  32.001  32.054  1.00  0.00     0.031 C 
ATOM     56  C   UNL A   1      41.696  30.523  36.051  1.00  0.00     0.029 A 
ATOM     57  C   UNL A   1      40.936  30.614  34.896  1.00  0.00     0.049 A 
ATOM     58  H   UNL A   1      41.224  29.656  33.038  1.00  0.00     0.167 HD
ATOM     59  C   UNL A   1      39.061  31.422  33.491  1.00  0.00     0.074 A 
ATOM     60  C   UNL A   1      37.852  32.188  33.276  1.00  0.00     0.031 C 
ATOM     61  C   UNL A   1      39.738  31.381  34.666  1.00  0.00     0.037 A 
BRANCH  48  62
ATOM     62  C   UNL A   1      44.712  27.716  34.543  1.00  0.00     0.064 A 
ATOM     63  C   UNL A   1      44.602  26.567  35.341  1.00  0.00     0.173 A 
ATOM     64  C   UNL A   1      45.971  28.327  34.442  1.00  0.00     0.173 A 
ATOM     65  F   UNL A   1      43.416  25.958  35.489  1.00  0.00    -0.203 F 
ATOM     66  C   UNL A   1      45.704  26.069  36.033  1.00  0.00     0.198 A 
ATOM     67  C   UNL A   1      47.076  27.809  35.110  1.00  0.00     0.198 A 
ATOM     68  F   UNL A   1      46.129  29.429  33.692  1.00  0.00    -0.203 F 
ATOM     69  F   UNL A   1      45.564  25.003  36.832  1.00  0.00    -0.200 F 
ATOM     70  C   UNL A   1      46.940  26.686  35.912  1.00  0.00     0.200 A 
ATOM     71  F   UNL A   1      48.271  28.402  34.984  1.00  0.00    -0.200 F 
ATOM     72  F   UNL A   1      47.999  26.205  36.577  1.00  0.00    -0.200 F 
ENDBRANCH  48  62
BRANCH  49  73
ATOM     73  C   UNL A   1      37.042  31.263  29.241  1.00  0.00     0.064 A 
ATOM     74  C   UNL A   1      36.996  32.599  28.816  1.00  0.00     0.173 A 
ATOM     75  C   UNL A   1      35.932  30.454  28.959  1.00  0.00     0.173 A 
ATOM     76  F   UNL A   1      38.016  33.425  29.092  1.00  0.00    -0.203 F 
ATOM     77  C   UNL A   1      35.875  33.108  28.160  1.00  0.00     0.198 A 
ATOM     78  C   UNL A   1      34.826  30.954  28.274  1.00  0.00     0.198 A 
ATOM     79  F   UNL A   1      35.917  29.173  29.357  1.00  0.00    -0.203 F 
ATOM     80  F   UNL A   1      35.830  34.405  27.824  1.00  0.00    -0.200 F 
ATOM     81  C   UNL A   1      34.795  32.284  27.884  1.00  0.00     0.200 A 
ATOM     82  F   UNL A   1      33.788  30.152  28.007  1.00  0.00    -0.200 F 
ATOM     83  F   UNL A   1      33.715  32.775  27.260  1.00  0.00    -0.200 F 
ENDBRANCH  49  73
BRANCH  61  84
ATOM     84  C   UNL A   1      39.217  32.217  35.801  1.00  0.00     0.064 A 
ATOM     85  C   UNL A   1      38.315  31.704  36.745  1.00  0.00     0.173 A 
ATOM     86  C   UNL A   1      39.672  33.533  35.979  1.00  0.00     0.173 A 
ATOM     87  F   UNL A   1      37.839  30.456  36.616  1.00  0.00    -0.203 F 
ATOM     88  C   UNL A   1      37.870  32.486  37.809  1.00  0.00     0.198 A 
ATOM     89  C   UNL A   1      39.250  34.300  37.060  1.00  0.00     0.198 A 
ATOM     90  F   UNL A   1      40.543  34.070  35.111  1.00  0.00    -0.203 F 
ATOM     91  F   UNL A   1      36.972  31.989  38.672  1.00  0.00    -0.200 F 
ATOM     92  C   UNL A   1      38.343  33.779  37.970  1.00  0.00     0.200 A 
ATOM     93  F   UNL A   1      39.724  35.544  37.225  1.00  0.00    -0.200 F 
ATOM     94  F   UNL A   1      37.923  34.525  39.002  1.00  0.00    -0.200 F 
ENDBRANCH  61  84
ENDBRANCH  35  36
ENDBRANCH  28  30
ENDBRANCH  27  28
ENDBRANCH  26  27
ENDBRANCH  25  26
ENDBRANCH  24  25
ENDBRANCH  23  24
ENDBRANCH   1  23
TORSDOF 20
ENDMDL
MODEL 2
REMARK VINA RESULT:     -10.7      4.718      9.351
REMARK SMILES C[C@@H](C(=O)OCCOCCOCCOC(=O)c1ccc(-c2c3nc(c(-c4c(F)c(F)c(F)c(F)c4F)c4ccc([nH]4)c(-c4c(F)c(F)c(F)c(F)c4F)c4nc(c(-c5c(F)c(F)c(F)c(F)c5F)c5ccc2[nH]5)C=C4)C=C3)cc1)c1ccc(C[C@H]2CCCC2=O)cc1
REMARK SMILES IDX 9 1 8 2 7 3 6 4 5 5 3 6 4 7 2 8 1 9 80 10 81 11 92 12 82 13
REMARK SMILES IDX 91 14 83 15 84 16 85 17 86 18 89 19 87 20 88 21 90 22 10 23
REMARK SMILES IDX 11 24 12 25 13 26 14 27 15 28 16 29 17 30 18 31 79 32 19 33
REMARK SMILES IDX 78 34 20 35 21 36 22 37 72 38 23 39 77 40 71 41 73 42 24 43
REMARK SMILES IDX 76 44 70 45 69 46 25 48 57 49 37 50 56 51 38 52 41 53 55 54
REMARK SMILES IDX 74 55 39 56 40 57 54 59 75 60 42 61 26 62 27 63 35 64 28 65
REMARK SMILES IDX 29 66 33 67 36 68 30 69 31 70 34 71 32 72 58 73 59 74 67 75
REMARK SMILES IDX 60 76 61 77 65 78 68 79 62 80 63 81 66 82 64 83 43 84 44 85
REMARK SMILES IDX 52 86 45 87 46 88 50 89 53 90 47 91 48 92 51 93 49 94
REMARK H PARENT 73 47 41 58
REMARK Flexibility Score: inf
ROOT
ATOM      1  C   UNL A   1      35.657  21.414  25.658  1.00  0.00     0.188 C 
ENDROOT
BRANCH   1   2
ATOM      2  O   UNL A   1      34.814  21.699  26.769  1.00  0.00    -0.376 OA
BRANCH   2   3
ATOM      3  C   UNL A   1      33.403  21.720  26.568  1.00  0.00     0.202 C 
BRANCH   3   4
ATOM      4  C   UNL A   1      32.582  22.825  27.253  1.00  0.00     0.261 C 
BRANCH   4   5
ATOM      5  O   UNL A   1      32.225  23.933  26.399  1.00  0.00    -0.463 OA
BRANCH   5   6
ATOM      6  C   UNL A   1      30.903  24.043  26.096  1.00  0.00     0.313 C 
ATOM      7  O   UNL A   1      30.009  24.061  26.938  1.00  0.00    -0.252 OA
BRANCH   6   8
ATOM      8  C   UNL A   1      30.605  24.189  24.595  1.00  0.00     0.126 C 
ATOM      9  C   UNL A   1      31.456  23.333  23.648  1.00  0.00     0.025 C 
BRANCH   8  10
ATOM     10  C   UNL A   1      30.432  25.657  24.203  1.00  0.00    -0.034 A 
ATOM     11  C   UNL A   1      31.580  26.466  24.143  1.00  0.00     0.005 A 
ATOM     12  C   UNL A   1      29.206  26.247  23.869  1.00  0.00     0.005 A 
ATOM     13  C   UNL A   1      31.513  27.807  23.761  1.00  0.00     0.004 A 
ATOM     14  C   UNL A   1      29.138  27.596  23.489  1.00  0.00     0.004 A 
ATOM     15  C   UNL A   1      30.287  28.389  23.432  1.00  0.00    -0.047 A 
BRANCH  15  16
ATOM     16  C   UNL A   1      30.213  29.851  23.056  1.00  0.00     0.047 C 
BRANCH  16  17
ATOM     17  C   UNL A   1      28.826  30.500  23.113  1.00  0.00     0.060 C 
ATOM     18  C   UNL A   1      28.732  31.824  23.874  1.00  0.00     0.012 C 
ATOM     19  C   UNL A   1      28.322  30.889  21.745  1.00  0.00     0.136 C 
ATOM     20  C   UNL A   1      28.863  32.929  22.833  1.00  0.00     0.009 C 
ATOM     21  C   UNL A   1      28.221  32.382  21.565  1.00  0.00     0.076 C 
ATOM     22  O   UNL A   1      28.023  30.078  20.875  1.00  0.00    -0.299 OA
ENDBRANCH  16  17
ENDBRANCH  15  16
ENDBRANCH   8  10
ENDBRANCH   6   8
ENDBRANCH   5   6
ENDBRANCH   4   5
ENDBRANCH   3   4
ENDBRANCH   2   3
ENDBRANCH   1   2
BRANCH   1  23
ATOM     23  C   UNL A   1      36.919  22.269  25.445  1.00  0.00     0.188 C 
BRANCH  23  24
ATOM     24  O   UNL A   1      38.114  21.524  25.355  1.00  0.00    -0.376 OA
BRANCH  24  25
ATOM     25  C   UNL A   1      38.013  20.163  24.976  1.00  0.00     0.202 C 
BRANCH  25  26
ATOM     26  C   UNL A   1      39.118  19.208  25.461  1.00  0.00     0.261 C 
BRANCH  26  27
ATOM     27  O   UNL A   1      40.036  19.742  26.433  1.00  0.00    -0.460 OA
BRANCH  27  28
ATOM     28  C   UNL A   1      41.349  19.527  26.222  1.00  0.00     0.338 C 
ATOM     29  O   UNL A   1      41.868  18.516  25.757  1.00  0.00    -0.246 OA
BRANCH  28  30
ATOM     30  C   UNL A   1      42.064  20.802  26.434  1.00  0.00     0.060 A 
ATOM     31  C   UNL A   1      42.315  21.218  27.747  1.00  0.00     0.016 A 
ATOM     32  C   UNL A   1      42.482  21.585  25.354  1.00  0.00     0.016 A 
ATOM     33  C   UNL A   1      42.978  22.422  27.983  1.00  0.00     0.010 A 
ATOM     34  C   UNL A   1      43.129  22.804  25.595  1.00  0.00     0.010 A 
ATOM     35  C   UNL A   1      43.368  23.235  26.912  1.00  0.00    -0.014 A 
BRANCH  35  36
ATOM     36  C   UNL A   1      43.855  24.609  27.191  1.00  0.00     0.031 A 
ATOM     37  C   UNL A   1      42.868  25.633  27.675  1.00  0.00     0.074 A 
ATOM     38  C   UNL A   1      45.157  24.930  27.088  1.00  0.00     0.049 A 
ATOM     39  N   UNL A   1      43.043  26.902  27.938  1.00  0.00    -0.248 NA
ATOM     40  C   UNL A   1      41.498  25.150  27.911  1.00  0.00     0.031 C 
ATOM     41  C   UNL A   1      46.228  24.009  26.720  1.00  0.00     0.029 A 
ATOM     42  N   UNL A   1      45.796  26.130  27.289  1.00  0.00    -0.354 N 
ATOM     43  C   UNL A   1      41.806  27.372  28.360  1.00  0.00     0.074 A 
ATOM     44  C   UNL A   1      40.888  26.255  28.311  1.00  0.00     0.031 C 
ATOM     45  C   UNL A   1      47.394  24.681  26.709  1.00  0.00     0.029 A 
ATOM     46  C   UNL A   1      47.143  26.086  27.024  1.00  0.00     0.049 A 
ATOM     47  H   UNL A   1      45.332  26.943  27.594  1.00  0.00     0.167 HD
ATOM     48  C   UNL A   1      41.467  28.623  28.752  1.00  0.00     0.037 A 
ATOM     49  C   UNL A   1      48.057  27.079  27.001  1.00  0.00     0.037 A 
ATOM     50  C   UNL A   1      42.374  29.739  28.779  1.00  0.00     0.049 A 
ATOM     51  C   UNL A   1      47.626  28.490  27.325  1.00  0.00     0.074 A 
ATOM     52  C   UNL A   1      42.114  31.054  29.124  1.00  0.00     0.029 A 
ATOM     53  N   UNL A   1      43.716  29.672  28.438  1.00  0.00    -0.354 N 
ATOM     54  N   UNL A   1      46.452  28.936  27.701  1.00  0.00    -0.248 NA
ATOM     55  C   UNL A   1      48.651  29.540  27.211  1.00  0.00     0.031 C 
ATOM     56  C   UNL A   1      43.287  31.793  28.940  1.00  0.00     0.029 A 
ATOM     57  C   UNL A   1      44.293  30.928  28.541  1.00  0.00     0.049 A 
ATOM     58  H   UNL A   1      44.189  28.854  28.163  1.00  0.00     0.167 HD
ATOM     59  C   UNL A   1      46.602  30.305  27.891  1.00  0.00     0.074 A 
ATOM     60  C   UNL A   1      47.987  30.616  27.607  1.00  0.00     0.031 C 
ATOM     61  C   UNL A   1      45.677  31.223  28.267  1.00  0.00     0.037 A 
BRANCH  48  62
ATOM     62  C   UNL A   1      40.033  28.857  29.125  1.00  0.00     0.064 A 
ATOM     63  C   UNL A   1      39.072  29.226  28.171  1.00  0.00     0.173 A 
ATOM     64  C   UNL A   1      39.614  28.706  30.455  1.00  0.00     0.173 A 
ATOM     65  F   UNL A   1      39.425  29.404  26.890  1.00  0.00    -0.203 F 
ATOM     66  C   UNL A   1      37.750  29.462  28.544  1.00  0.00     0.198 A 
ATOM     67  C   UNL A   1      38.287  28.914  30.818  1.00  0.00     0.198 A 
ATOM     68  F   UNL A   1      40.496  28.356  31.405  1.00  0.00    -0.203 F 
ATOM     69  F   UNL A   1      36.860  29.865  27.627  1.00  0.00    -0.200 F 
ATOM     70  C   UNL A   1      37.358  29.299  29.864  1.00  0.00     0.200 A 
ATOM     71  F   UNL A   1      37.910  28.747  32.093  1.00  0.00    -0.200 F 
ATOM     72  F   UNL A   1      36.086  29.527  30.220  1.00  0.00    -0.200 F 
ENDBRANCH  48  62
BRANCH  49  73
ATOM     73  C   UNL A   1      49.464  26.792  26.612  1.00  0.00     0.064 A 
ATOM     74  C   UNL A   1      50.439  26.491  27.575  1.00  0.00     0.173 A 
ATOM     75  C   UNL A   1      49.876  26.865  25.274  1.00  0.00     0.173 A 
ATOM     76  F   UNL A   1      50.105  26.445  28.873  1.00  0.00    -0.203 F 
ATOM     77  C   UNL A   1      51.772  26.297  27.215  1.00  0.00     0.198 A 
ATOM     78  C   UNL A   1      51.202  26.639  24.910  1.00  0.00     0.198 A 
ATOM     79  F   UNL A   1      48.988  27.166  24.314  1.00  0.00    -0.203 F 
ATOM     80  F   UNL A   1      52.695  26.077  28.162  1.00  0.00    -0.200 F 
ATOM     81  C   UNL A   1      52.151  26.365  25.883  1.00  0.00     0.200 A 
ATOM     82  F   UNL A   1      51.561  26.701  23.622  1.00  0.00    -0.200 F 
ATOM     83  F   UNL A   1      53.433  26.186  25.537  1.00  0.00    -0.200 F 
ENDBRANCH  49  73
BRANCH  61  84
ATOM     84  C   UNL A   1      46.133  32.645  28.436  1.00  0.00     0.064 A 
ATOM     85  C   UNL A   1      46.621  33.126  29.659  1.00  0.00     0.173 A 
ATOM     86  C   UNL A   1      46.132  33.523  27.341  1.00  0.00     0.173 A 
ATOM     87  F   UNL A   1      46.633  32.332  30.741  1.00  0.00    -0.203 F 
ATOM     88  C   UNL A   1      47.070  34.439  29.785  1.00  0.00     0.198 A 
ATOM     89  C   UNL A   1      46.610  34.825  27.462  1.00  0.00     0.198 A 
ATOM     90  F   UNL A   1      45.684  33.112  26.144  1.00  0.00    -0.203 F 
ATOM     91  F   UNL A   1      47.490  34.890  30.976  1.00  0.00    -0.200 F 
ATOM     92  C   UNL A   1      47.071  35.284  28.686  1.00  0.00     0.200 A 
ATOM     93  F   UNL A   1      46.628  35.634  26.393  1.00  0.00    -0.200 F 
ATOM     94  F   UNL A   1      47.515  36.543  28.807  1.00  0.00    -0.200 F 
ENDBRANCH  61  84
ENDBRANCH  35  36
ENDBRANCH  28  30
ENDBRANCH  27  28
ENDBRANCH  26  27
ENDBRANCH  25  26
ENDBRANCH  24  25
ENDBRANCH  23  24
ENDBRANCH   1  23
TORSDOF 20
ENDMDL
MODEL 3
REMARK VINA RESULT:     -10.7      2.907      8.191
REMARK SMILES C[C@@H](C(=O)OCCOCCOCCOC(=O)c1ccc(-c2c3nc(c(-c4c(F)c(F)c(F)c(F)c4F)c4ccc([nH]4)c(-c4c(F)c(F)c(F)c(F)c4F)c4nc(c(-c5c(F)c(F)c(F)c(F)c5F)c5ccc2[nH]5)C=C4)C=C3)cc1)c1ccc(C[C@H]2CCCC2=O)cc1
REMARK SMILES IDX 9 1 8 2 7 3 6 4 5 5 3 6 4 7 2 8 1 9 80 10 81 11 92 12 82 13
REMARK SMILES IDX 91 14 83 15 84 16 85 17 86 18 89 19 87 20 88 21 90 22 10 23
REMARK SMILES IDX 11 24 12 25 13 26 14 27 15 28 16 29 17 30 18 31 79 32 19 33
REMARK SMILES IDX 78 34 20 35 21 36 22 37 72 38 23 39 77 40 71 41 73 42 24 43
REMARK SMILES IDX 76 44 70 45 69 46 25 48 57 49 37 50 56 51 38 52 41 53 55 54
REMARK SMILES IDX 74 55 39 56 40 57 54 59 75 60 42 61 26 62 27 63 35 64 28 65
REMARK SMILES IDX 29 66 33 67 36 68 30 69 31 70 34 71 32 72 58 73 59 74 67 75
REMARK SMILES IDX 60 76 61 77 65 78 68 79 62 80 63 81 66 82 64 83 43 84 44 85
REMARK SMILES IDX 52 86 45 87 46 88 50 89 53 90 47 91 48 92 51 93 49 94
REMARK H PARENT 73 47 41 58
REMARK Flexibility Score: inf
ROOT
ATOM      1  C   UNL A   1      31.885  25.363  26.488  1.00  0.00     0.188 C 
ENDROOT
BRANCH   1   2
ATOM      2  O   UNL A   1      31.461  24.235  27.245  1.00  0.00    -0.376 OA
BRANCH   2   3
ATOM      3  C   UNL A   1      31.731  22.931  26.738  1.00  0.00     0.202 C 
BRANCH   3   4
ATOM      4  C   UNL A   1      33.037  22.238  27.158  1.00  0.00     0.261 C 
BRANCH   4   5
ATOM      5  O   UNL A   1      33.926  21.907  26.070  1.00  0.00    -0.463 OA
BRANCH   5   6
ATOM      6  C   UNL A   1      34.596  22.953  25.515  1.00  0.00     0.313 C 
ATOM      7  O   UNL A   1      35.250  23.765  26.164  1.00  0.00    -0.252 OA
BRANCH   6   8
ATOM      8  C   UNL A   1      34.508  23.023  23.982  1.00  0.00     0.126 C 
ATOM      9  C   UNL A   1      35.841  22.982  23.223  1.00  0.00     0.025 C 
BRANCH   8  10
ATOM     10  C   UNL A   1      33.509  24.089  23.531  1.00  0.00    -0.034 A 
ATOM     11  C   UNL A   1      33.956  25.419  23.441  1.00  0.00     0.005 A 
ATOM     12  C   UNL A   1      32.181  23.826  23.169  1.00  0.00     0.005 A 
ATOM     13  C   UNL A   1      33.117  26.446  23.005  1.00  0.00     0.004 A 
ATOM     14  C   UNL A   1      31.337  24.859  22.735  1.00  0.00     0.004 A 
ATOM     15  C   UNL A   1      31.794  26.178  22.649  1.00  0.00    -0.047 A 
BRANCH  15  16
ATOM     16  C   UNL A   1      30.878  27.298  22.214  1.00  0.00     0.047 C 
BRANCH  16  17
ATOM     17  C   UNL A   1      30.106  28.018  23.325  1.00  0.00     0.060 C 
ATOM     18  C   UNL A   1      29.921  29.527  23.149  1.00  0.00     0.012 C 
ATOM     19  C   UNL A   1      28.679  27.538  23.430  1.00  0.00     0.136 C 
ATOM     20  C   UNL A   1      28.555  29.720  22.502  1.00  0.00     0.009 C 
ATOM     21  C   UNL A   1      27.680  28.596  23.039  1.00  0.00     0.076 C 
ATOM     22  O   UNL A   1      28.367  26.412  23.799  1.00  0.00    -0.299 OA
ENDBRANCH  16  17
ENDBRANCH  15  16
ENDBRANCH   8  10
ENDBRANCH   6   8
ENDBRANCH   5   6
ENDBRANCH   4   5
ENDBRANCH   3   4
ENDBRANCH   2   3
ENDBRANCH   1   2
BRANCH   1  23
ATOM     23  C   UNL A   1      30.915  26.546  26.309  1.00  0.00     0.188 C 
BRANCH  23  24
ATOM     24  O   UNL A   1      31.375  27.759  26.865  1.00  0.00    -0.376 OA
BRANCH  24  25
ATOM     25  C   UNL A   1      32.328  28.501  26.126  1.00  0.00     0.202 C 
BRANCH  25  26
ATOM     26  C   UNL A   1      32.222  30.035  26.171  1.00  0.00     0.261 C 
BRANCH  26  27
ATOM     27  O   UNL A   1      32.644  30.664  27.395  1.00  0.00    -0.460 OA
BRANCH  27  28
ATOM     28  C   UNL A   1      33.482  31.713  27.291  1.00  0.00     0.338 C 
ATOM     29  O   UNL A   1      33.201  32.850  26.920  1.00  0.00    -0.246 OA
BRANCH  28  30
ATOM     30  C   UNL A   1      34.768  31.339  27.912  1.00  0.00     0.060 A 
ATOM     31  C   UNL A   1      34.940  30.022  28.354  1.00  0.00     0.016 A 
ATOM     32  C   UNL A   1      35.797  32.273  28.063  1.00  0.00     0.016 A 
ATOM     33  C   UNL A   1      36.138  29.638  28.955  1.00  0.00     0.010 A 
ATOM     34  C   UNL A   1      36.992  31.891  28.686  1.00  0.00     0.010 A 
ATOM     35  C   UNL A   1      37.163  30.573  29.148  1.00  0.00    -0.014 A 
BRANCH  35  36
ATOM     36  C   UNL A   1      38.324  30.204  29.995  1.00  0.00     0.031 A 
ATOM     37  C   UNL A   1      39.353  29.267  29.428  1.00  0.00     0.074 A 
ATOM     38  C   UNL A   1      38.507  30.742  31.214  1.00  0.00     0.049 A 
ATOM     39  N   UNL A   1      40.422  28.763  29.989  1.00  0.00    -0.248 NA
ATOM     40  C   UNL A   1      39.152  28.856  28.030  1.00  0.00     0.031 C 
ATOM     41  C   UNL A   1      37.637  31.732  31.841  1.00  0.00     0.029 A 
ATOM     42  N   UNL A   1      39.497  30.525  32.143  1.00  0.00    -0.354 N 
ATOM     43  C   UNL A   1      41.017  27.970  29.017  1.00  0.00     0.074 A 
ATOM     44  C   UNL A   1      40.187  28.051  27.835  1.00  0.00     0.031 C 
ATOM     45  C   UNL A   1      38.124  32.030  33.059  1.00  0.00     0.029 A 
ATOM     46  C   UNL A   1      39.313  31.218  33.314  1.00  0.00     0.049 A 
ATOM     47  H   UNL A   1      40.265  29.930  31.983  1.00  0.00     0.167 HD
ATOM     48  C   UNL A   1      42.153  27.237  29.103  1.00  0.00     0.037 A 
ATOM     49  C   UNL A   1      40.005  31.168  34.471  1.00  0.00     0.037 A 
ATOM     50  C   UNL A   1      42.966  27.138  30.285  1.00  0.00     0.049 A 
ATOM     51  C   UNL A   1      41.200  30.250  34.581  1.00  0.00     0.074 A 
ATOM     52  C   UNL A   1      44.115  26.391  30.482  1.00  0.00     0.029 A 
ATOM     53  N   UNL A   1      42.711  27.800  31.476  1.00  0.00    -0.354 N 
ATOM     54  N   UNL A   1      41.746  29.484  33.669  1.00  0.00    -0.248 NA
ATOM     55  C   UNL A   1      41.868  30.184  35.890  1.00  0.00     0.031 C 
ATOM     56  C   UNL A   1      44.523  26.560  31.809  1.00  0.00     0.029 A 
ATOM     57  C   UNL A   1      43.667  27.461  32.421  1.00  0.00     0.049 A 
ATOM     58  H   UNL A   1      41.962  28.421  31.628  1.00  0.00     0.167 HD
ATOM     59  C   UNL A   1      42.831  28.867  34.283  1.00  0.00     0.074 A 
ATOM     60  C   UNL A   1      42.878  29.363  35.642  1.00  0.00     0.031 C 
ATOM     61  C   UNL A   1      43.709  27.971  33.768  1.00  0.00     0.037 A 
BRANCH  48  62
ATOM     62  C   UNL A   1      42.544  26.438  27.896  1.00  0.00     0.064 A 
ATOM     63  C   UNL A   1      43.461  26.925  26.952  1.00  0.00     0.173 A 
ATOM     64  C   UNL A   1      41.994  25.165  27.682  1.00  0.00     0.173 A 
ATOM     65  F   UNL A   1      43.998  28.145  27.099  1.00  0.00    -0.203 F 
ATOM     66  C   UNL A   1      43.791  26.176  25.825  1.00  0.00     0.198 A 
ATOM     67  C   UNL A   1      42.349  24.407  26.571  1.00  0.00     0.198 A 
ATOM     68  F   UNL A   1      41.111  24.655  28.555  1.00  0.00    -0.203 F 
ATOM     69  F   UNL A   1      44.628  26.681  24.909  1.00  0.00    -0.200 F 
ATOM     70  C   UNL A   1      43.241  24.916  25.639  1.00  0.00     0.200 A 
ATOM     71  F   UNL A   1      41.823  23.187  26.398  1.00  0.00    -0.200 F 
ATOM     72  F   UNL A   1      43.560  24.197  24.554  1.00  0.00    -0.200 F 
ENDBRANCH  48  62
BRANCH  49  73
ATOM     73  C   UNL A   1      39.566  31.975  35.642  1.00  0.00     0.064 A 
ATOM     74  C   UNL A   1      38.608  31.487  36.543  1.00  0.00     0.173 A 
ATOM     75  C   UNL A   1      40.055  33.272  35.855  1.00  0.00     0.173 A 
ATOM     76  F   UNL A   1      38.080  30.267  36.364  1.00  0.00    -0.203 F 
ATOM     77  C   UNL A   1      38.142  32.274  37.596  1.00  0.00     0.198 A 
ATOM     78  C   UNL A   1      39.615  34.045  36.926  1.00  0.00     0.198 A 
ATOM     79  F   UNL A   1      40.961  33.793  35.014  1.00  0.00    -0.203 F 
ATOM     80  F   UNL A   1      37.178  31.809  38.402  1.00  0.00    -0.200 F 
ATOM     81  C   UNL A   1      38.650  33.550  37.790  1.00  0.00     0.200 A 
ATOM     82  F   UNL A   1      40.112  35.275  37.111  1.00  0.00    -0.200 F 
ATOM     83  F   UNL A   1      38.198  34.309  38.798  1.00  0.00    -0.200 F 
ENDBRANCH  49  73
BRANCH  61  84
ATOM     84  C   UNL A   1      44.824  27.495  34.657  1.00  0.00     0.064 A 
ATOM     85  C   UNL A   1      46.036  28.191  34.761  1.00  0.00     0.173 A 
ATOM     86  C   UNL A   1      44.652  26.357  35.460  1.00  0.00     0.173 A 
ATOM     87  F   UNL A   1      46.258  29.279  34.007  1.00  0.00    -0.203 F 
ATOM     88  C   UNL A   1      47.044  27.751  35.616  1.00  0.00     0.198 A 
ATOM     89  C   UNL A   1      45.648  25.938  36.337  1.00  0.00     0.198 A 
ATOM     90  F   UNL A   1      43.507  25.659  35.408  1.00  0.00    -0.203 F 
ATOM     91  F   UNL A   1      48.213  28.407  35.665  1.00  0.00    -0.200 F 
ATOM     92  C   UNL A   1      46.846  26.631  36.409  1.00  0.00     0.200 A 
ATOM     93  F   UNL A   1      45.447  24.866  37.116  1.00  0.00    -0.200 F 
ATOM     94  F   UNL A   1      47.813  26.216  37.241  1.00  0.00    -0.200 F 
ENDBRANCH  61  84
ENDBRANCH  35  36
ENDBRANCH  28  30
ENDBRANCH  27  28
ENDBRANCH  26  27
ENDBRANCH  25  26
ENDBRANCH  24  25
ENDBRANCH  23  24
ENDBRANCH   1  23
TORSDOF 20
ENDMDL
