MODEL 1
REMARK VINA RESULT:     -11.2      0.000      0.000
REMARK SMILES O=C(COc1ccccc1[C@@H]1[NH2+]CCc2cc(O)c(O)cc21)OCCOCCOCCOC(=O)c1ccc(-c2c3nc(c(-c4c(F)c(F)c(F)c(F)c4F)c4ccc([nH]4)c(-c4c(F)c(F)c(F)c(F)c4F)c4nc(c(-c5c(F)c(F)c(F)c(F)c5F)c5ccc2[nH]5)C=C4)C=C3)cc1
REMARK SMILES IDX 27 1 26 2 25 3 24 4 23 5 2 6 1 7 3 8 4 9 5 10 6 11 10 12
REMARK SMILES IDX 7 13 9 14 8 15 11 16 12 17 22 18 13 19 15 22 21 23 14 24
REMARK SMILES IDX 16 25 19 26 17 27 20 28 18 30 28 32 29 33 30 34 31 35 32 36
REMARK SMILES IDX 33 37 34 38 35 39 36 40 97 41 37 42 96 43 38 44 39 45 40 46
REMARK SMILES IDX 90 47 41 48 95 49 89 50 91 51 42 52 94 53 88 54 87 55 43 57
REMARK SMILES IDX 75 58 55 59 74 60 56 61 59 62 73 63 92 64 57 65 58 66 72 68
REMARK SMILES IDX 93 69 60 70 44 71 45 72 53 73 46 74 47 75 51 76 54 77 48 78
REMARK SMILES IDX 49 79 52 80 50 81 76 82 77 83 85 84 78 85 79 86 83 87 86 88
REMARK SMILES IDX 80 89 81 90 84 91 82 92 61 93 62 94 70 95 63 96 64 97 68 98
REMARK SMILES IDX 71 99 65 100 66 101 69 102 67 103
REMARK H PARENT 12 20 12 21 20 29 18 31 91 56 59 67
REMARK Flexibility Score: inf
ROOT
ATOM      1  C   UNL A   1      34.477  33.646  29.434  1.00  0.00     0.188 C 
ENDROOT
BRANCH   1   2
ATOM      2  O   UNL A   1      35.808  33.320  29.042  1.00  0.00    -0.376 OA
BRANCH   2   3
ATOM      3  C   UNL A   1      35.888  32.356  28.001  1.00  0.00     0.202 C 
BRANCH   3   4
ATOM      4  C   UNL A   1      34.665  31.429  28.062  1.00  0.00     0.261 C 
BRANCH   4   5
ATOM      5  O   UNL A   1      33.775  31.475  26.925  1.00  0.00    -0.461 OA
BRANCH   5   6
ATOM      6  C   UNL A   1      32.885  30.494  26.656  1.00  0.00     0.344 C 
ATOM      7  O   UNL A   1      31.809  30.472  27.249  1.00  0.00    -0.248 OA
BRANCH   6   8
ATOM      8  C   UNL A   1      33.302  29.442  25.612  1.00  0.00     0.351 C 
BRANCH   8   9
ATOM      9  O   UNL A   1      32.737  29.253  24.350  1.00  0.00    -0.481 OA
BRANCH   9  10
ATOM     10  C   UNL A   1      31.649  28.474  24.118  1.00  0.00     0.129 A 
ATOM     11  C   UNL A   1      30.652  29.279  23.527  1.00  0.00     0.047 A 
ATOM     12  C   UNL A   1      31.428  27.094  24.316  1.00  0.00     0.056 A 
ATOM     13  C   UNL A   1      29.399  28.780  23.212  1.00  0.00     0.004 A 
ATOM     14  C   UNL A   1      30.121  26.628  24.029  1.00  0.00     0.014 A 
ATOM     15  C   UNL A   1      29.124  27.453  23.490  1.00  0.00     0.001 A 
BRANCH  12  16
ATOM     16  C   UNL A   1      32.439  26.094  24.887  1.00  0.00     0.249 C 
ATOM     17  N   UNL A   1      33.729  26.026  24.167  1.00  0.00    -0.336 N 
ATOM     18  C   UNL A   1      32.032  24.635  25.128  1.00  0.00     0.021 A 
ATOM     19  C   UNL A   1      33.648  25.324  22.875  1.00  0.00     0.266 C 
ATOM     20  H   UNL A   1      34.403  25.539  24.757  1.00  0.00     0.347 HD
ATOM     21  H   UNL A   1      34.010  26.986  23.967  1.00  0.00     0.347 HD
ATOM     22  C   UNL A   1      32.125  23.740  24.036  1.00  0.00    -0.029 A 
ATOM     23  C   UNL A   1      31.840  24.137  26.426  1.00  0.00     0.060 A 
ATOM     24  C   UNL A   1      32.478  24.340  22.701  1.00  0.00     0.097 C 
ATOM     25  C   UNL A   1      32.023  22.364  24.237  1.00  0.00     0.054 A 
ATOM     26  C   UNL A   1      31.791  22.763  26.618  1.00  0.00     0.157 A 
ATOM     27  C   UNL A   1      31.883  21.889  25.533  1.00  0.00     0.157 A 
BRANCH  26  28
ATOM     28  O   UNL A   1      31.723  22.213  27.869  1.00  0.00    -0.504 OA
ATOM     29  H   UNL A   1      32.508  22.050  28.353  1.00  0.00     0.293 HD
ENDBRANCH  26  28
BRANCH  27  30
ATOM     30  O   UNL A   1      31.904  20.540  25.751  1.00  0.00    -0.504 OA
ATOM     31  H   UNL A   1      31.100  20.073  25.872  1.00  0.00     0.293 HD
ENDBRANCH  27  30
ENDBRANCH  12  16
ENDBRANCH   9  10
ENDBRANCH   8   9
ENDBRANCH   6   8
ENDBRANCH   5   6
ENDBRANCH   4   5
ENDBRANCH   3   4
ENDBRANCH   2   3
ENDBRANCH   1   2
BRANCH   1  32
ATOM     32  C   UNL A   1      34.411  34.003  30.921  1.00  0.00     0.188 C 
BRANCH  32  33
ATOM     33  O   UNL A   1      34.284  32.961  31.884  1.00  0.00    -0.376 OA
BRANCH  33  34
ATOM     34  C   UNL A   1      34.108  33.310  33.246  1.00  0.00     0.202 C 
BRANCH  34  35
ATOM     35  C   UNL A   1      35.391  33.453  34.075  1.00  0.00     0.261 C 
BRANCH  35  36
ATOM     36  O   UNL A   1      36.605  33.111  33.375  1.00  0.00    -0.460 OA
BRANCH  36  37
ATOM     37  C   UNL A   1      37.339  32.110  33.924  1.00  0.00     0.338 C 
ATOM     38  O   UNL A   1      37.315  31.724  35.077  1.00  0.00    -0.246 OA
BRANCH  37  39
ATOM     39  C   UNL A   1      38.161  31.441  32.889  1.00  0.00     0.060 A 
ATOM     40  C   UNL A   1      39.364  30.830  33.271  1.00  0.00     0.016 A 
ATOM     41  C   UNL A   1      37.832  31.544  31.536  1.00  0.00     0.016 A 
ATOM     42  C   UNL A   1      40.255  30.348  32.304  1.00  0.00     0.010 A 
ATOM     43  C   UNL A   1      38.735  31.079  30.569  1.00  0.00     0.010 A 
ATOM     44  C   UNL A   1      39.965  30.505  30.943  1.00  0.00    -0.014 A 
BRANCH  44  45
ATOM     45  C   UNL A   1      40.982  30.203  29.898  1.00  0.00     0.031 A 
ATOM     46  C   UNL A   1      41.022  28.826  29.288  1.00  0.00     0.074 A 
ATOM     47  C   UNL A   1      41.897  31.117  29.524  1.00  0.00     0.049 A 
ATOM     48  N   UNL A   1      41.928  28.285  28.513  1.00  0.00    -0.248 NA
ATOM     49  C   UNL A   1      39.889  27.941  29.598  1.00  0.00     0.031 C 
ATOM     50  C   UNL A   1      41.945  32.502  29.982  1.00  0.00     0.029 A 
ATOM     51  N   UNL A   1      42.988  30.997  28.694  1.00  0.00    -0.354 N 
ATOM     52  C   UNL A   1      41.490  26.991  28.263  1.00  0.00     0.074 A 
ATOM     53  C   UNL A   1      40.236  26.827  28.967  1.00  0.00     0.031 C 
ATOM     54  C   UNL A   1      43.037  33.093  29.466  1.00  0.00     0.029 A 
ATOM     55  C   UNL A   1      43.788  32.113  28.679  1.00  0.00     0.049 A 
ATOM     56  H   UNL A   1      43.176  30.189  28.162  1.00  0.00     0.167 HD
ATOM     57  C   UNL A   1      42.083  26.025  27.523  1.00  0.00     0.037 A 
ATOM     58  C   UNL A   1      45.011  32.306  28.141  1.00  0.00     0.037 A 
ATOM     59  C   UNL A   1      43.319  26.187  26.802  1.00  0.00     0.049 A 
ATOM     60  C   UNL A   1      45.693  31.183  27.396  1.00  0.00     0.074 A 
ATOM     61  C   UNL A   1      43.958  25.278  25.974  1.00  0.00     0.029 A 
ATOM     62  N   UNL A   1      44.110  27.323  26.833  1.00  0.00    -0.354 N 
ATOM     63  N   UNL A   1      45.259  29.975  27.137  1.00  0.00    -0.248 NA
ATOM     64  C   UNL A   1      47.045  31.450  26.879  1.00  0.00     0.031 C 
ATOM     65  C   UNL A   1      45.167  25.842  25.556  1.00  0.00     0.029 A 
ATOM     66  C   UNL A   1      45.254  27.121  26.078  1.00  0.00     0.049 A 
ATOM     67  H   UNL A   1      43.891  28.151  27.319  1.00  0.00     0.167 HD
ATOM     68  C   UNL A   1      46.268  29.351  26.411  1.00  0.00     0.074 A 
ATOM     69  C   UNL A   1      47.333  30.316  26.256  1.00  0.00     0.031 C 
ATOM     70  C   UNL A   1      46.309  28.088  25.921  1.00  0.00     0.037 A 
BRANCH  57  71
ATOM     71  C   UNL A   1      41.431  24.675  27.471  1.00  0.00     0.064 A 
ATOM     72  C   UNL A   1      40.278  24.438  26.711  1.00  0.00     0.173 A 
ATOM     73  C   UNL A   1      42.028  23.584  28.123  1.00  0.00     0.173 A 
ATOM     74  F   UNL A   1      39.668  25.450  26.076  1.00  0.00    -0.203 F 
ATOM     75  C   UNL A   1      39.739  23.157  26.613  1.00  0.00     0.198 A 
ATOM     76  C   UNL A   1      41.501  22.302  28.002  1.00  0.00     0.198 A 
ATOM     77  F   UNL A   1      43.139  23.759  28.855  1.00  0.00    -0.203 F 
ATOM     78  F   UNL A   1      38.623  22.955  25.899  1.00  0.00    -0.200 F 
ATOM     79  C   UNL A   1      40.356  22.090  27.249  1.00  0.00     0.200 A 
ATOM     80  F   UNL A   1      42.107  21.270  28.606  1.00  0.00    -0.200 F 
ATOM     81  F   UNL A   1      39.847  20.855  27.138  1.00  0.00    -0.200 F 
ENDBRANCH  57  71
BRANCH  58  82
ATOM     82  C   UNL A   1      45.722  33.597  28.344  1.00  0.00     0.064 A 
ATOM     83  C   UNL A   1      46.454  33.847  29.513  1.00  0.00     0.173 A 
ATOM     84  C   UNL A   1      45.626  34.633  27.402  1.00  0.00     0.173 A 
ATOM     85  F   UNL A   1      46.545  32.902  30.460  1.00  0.00    -0.203 F 
ATOM     86  C   UNL A   1      47.040  35.091  29.743  1.00  0.00     0.198 A 
ATOM     87  C   UNL A   1      46.239  35.865  27.619  1.00  0.00     0.198 A 
ATOM     88  F   UNL A   1      44.927  34.451  26.271  1.00  0.00    -0.203 F 
ATOM     89  F   UNL A   1      47.678  35.325  30.898  1.00  0.00    -0.200 F 
ATOM     90  C   UNL A   1      46.936  36.097  28.795  1.00  0.00     0.200 A 
ATOM     91  F   UNL A   1      46.141  36.831  26.696  1.00  0.00    -0.200 F 
ATOM     92  F   UNL A   1      47.490  37.295  29.021  1.00  0.00    -0.200 F 
ENDBRANCH  58  82
BRANCH  70  93
ATOM     93  C   UNL A   1      47.528  27.673  25.148  1.00  0.00     0.064 A 
ATOM     94  C   UNL A   1      47.583  27.786  23.750  1.00  0.00     0.173 A 
ATOM     95  C   UNL A   1      48.675  27.217  25.814  1.00  0.00     0.173 A 
ATOM     96  F   UNL A   1      46.508  28.202  23.064  1.00  0.00    -0.203 F 
ATOM     97  C   UNL A   1      48.737  27.445  23.049  1.00  0.00     0.198 A 
ATOM     98  C   UNL A   1      49.837  26.905  25.112  1.00  0.00     0.198 A 
ATOM     99  F   UNL A   1      48.679  27.097  27.150  1.00  0.00    -0.203 F 
ATOM    100  F   UNL A   1      48.756  27.528  21.712  1.00  0.00    -0.200 F 
ATOM    101  C   UNL A   1      49.866  27.015  23.731  1.00  0.00     0.200 A 
ATOM    102  F   UNL A   1      50.931  26.502  25.775  1.00  0.00    -0.200 F 
ATOM    103  F   UNL A   1      50.980  26.701  23.055  1.00  0.00    -0.200 F 
ENDBRANCH  70  93
ENDBRANCH  44  45
ENDBRANCH  37  39
ENDBRANCH  36  37
ENDBRANCH  35  36
ENDBRANCH  34  35
ENDBRANCH  33  34
ENDBRANCH  32  33
ENDBRANCH   1  32
TORSDOF 22
ENDMDL
MODEL 2
REMARK VINA RESULT:     -11.0      5.306     10.600
REMARK SMILES O=C(COc1ccccc1[C@@H]1[NH2+]CCc2cc(O)c(O)cc21)OCCOCCOCCOC(=O)c1ccc(-c2c3nc(c(-c4c(F)c(F)c(F)c(F)c4F)c4ccc([nH]4)c(-c4c(F)c(F)c(F)c(F)c4F)c4nc(c(-c5c(F)c(F)c(F)c(F)c5F)c5ccc2[nH]5)C=C4)C=C3)cc1
REMARK SMILES IDX 27 1 26 2 25 3 24 4 23 5 2 6 1 7 3 8 4 9 5 10 6 11 10 12
REMARK SMILES IDX 7 13 9 14 8 15 11 16 12 17 22 18 13 19 15 22 21 23 14 24
REMARK SMILES IDX 16 25 19 26 17 27 20 28 18 30 28 32 29 33 30 34 31 35 32 36
REMARK SMILES IDX 33 37 34 38 35 39 36 40 97 41 37 42 96 43 38 44 39 45 40 46
REMARK SMILES IDX 90 47 41 48 95 49 89 50 91 51 42 52 94 53 88 54 87 55 43 57
REMARK SMILES IDX 75 58 55 59 74 60 56 61 59 62 73 63 92 64 57 65 58 66 72 68
REMARK SMILES IDX 93 69 60 70 44 71 45 72 53 73 46 74 47 75 51 76 54 77 48 78
REMARK SMILES IDX 49 79 52 80 50 81 76 82 77 83 85 84 78 85 79 86 83 87 86 88
REMARK SMILES IDX 80 89 81 90 84 91 82 92 61 93 62 94 70 95 63 96 64 97 68 98
REMARK SMILES IDX 71 99 65 100 66 101 69 102 67 103
REMARK H PARENT 12 20 12 21 20 29 18 31 91 56 59 67
REMARK Flexibility Score: inf
ROOT
ATOM      1  C   UNL A   1      40.181  22.561  26.548  1.00  0.00     0.188 C 
ENDROOT
BRANCH   1   2
ATOM      2  O   UNL A   1      38.800  22.266  26.358  1.00  0.00    -0.376 OA
BRANCH   2   3
ATOM      3  C   UNL A   1      38.548  21.273  25.373  1.00  0.00     0.202 C 
BRANCH   3   4
ATOM      4  C   UNL A   1      37.069  21.325  24.957  1.00  0.00     0.261 C 
BRANCH   4   5
ATOM      5  O   UNL A   1      36.263  22.333  25.605  1.00  0.00    -0.461 OA
BRANCH   5   6
ATOM      6  C   UNL A   1      35.829  23.441  24.964  1.00  0.00     0.344 C 
ATOM      7  O   UNL A   1      35.602  24.463  25.607  1.00  0.00    -0.248 OA
BRANCH   6   8
ATOM      8  C   UNL A   1      35.633  23.334  23.440  1.00  0.00     0.351 C 
BRANCH   8   9
ATOM      9  O   UNL A   1      34.417  23.333  22.756  1.00  0.00    -0.481 OA
BRANCH   9  10
ATOM     10  C   UNL A   1      33.464  24.289  22.906  1.00  0.00     0.129 A 
ATOM     11  C   UNL A   1      33.997  25.514  22.450  1.00  0.00     0.047 A 
ATOM     12  C   UNL A   1      32.129  24.215  23.357  1.00  0.00     0.056 A 
ATOM     13  C   UNL A   1      33.277  26.696  22.517  1.00  0.00     0.004 A 
ATOM     14  C   UNL A   1      31.439  25.449  23.458  1.00  0.00     0.014 A 
ATOM     15  C   UNL A   1      32.001  26.666  23.050  1.00  0.00     0.001 A 
BRANCH  12  16
ATOM     16  C   UNL A   1      31.405  22.946  23.819  1.00  0.00     0.249 C 
ATOM     17  N   UNL A   1      30.514  23.121  24.986  1.00  0.00    -0.336 N 
ATOM     18  C   UNL A   1      32.198  21.664  24.104  1.00  0.00     0.021 A 
ATOM     19  C   UNL A   1      31.234  23.267  26.262  1.00  0.00     0.266 C 
ATOM     20  H   UNL A   1      29.904  22.306  25.051  1.00  0.00     0.347 HD
ATOM     21  H   UNL A   1      29.993  23.985  24.836  1.00  0.00     0.347 HD
ATOM     22  C   UNL A   1      32.769  21.519  25.389  1.00  0.00    -0.029 A 
ATOM     23  C   UNL A   1      32.136  20.561  23.237  1.00  0.00     0.060 A 
ATOM     24  C   UNL A   1      32.665  22.704  26.311  1.00  0.00     0.097 C 
ATOM     25  C   UNL A   1      33.277  20.287  25.805  1.00  0.00     0.054 A 
ATOM     26  C   UNL A   1      32.598  19.330  23.682  1.00  0.00     0.157 A 
ATOM     27  C   UNL A   1      33.160  19.198  24.953  1.00  0.00     0.157 A 
BRANCH  26  28
ATOM     28  O   UNL A   1      32.459  18.195  22.931  1.00  0.00    -0.504 OA
ATOM     29  H   UNL A   1      32.032  18.233  22.098  1.00  0.00     0.293 HD
ENDBRANCH  26  28
BRANCH  27  30
ATOM     30  O   UNL A   1      33.545  17.965  25.399  1.00  0.00    -0.504 OA
ATOM     31  H   UNL A   1      34.261  17.886  25.998  1.00  0.00     0.293 HD
ENDBRANCH  27  30
ENDBRANCH  12  16
ENDBRANCH   9  10
ENDBRANCH   8   9
ENDBRANCH   6   8
ENDBRANCH   5   6
ENDBRANCH   4   5
ENDBRANCH   3   4
ENDBRANCH   2   3
ENDBRANCH   1   2
BRANCH   1  32
ATOM     32  C   UNL A   1      41.032  21.290  26.482  1.00  0.00     0.188 C 
BRANCH  32  33
ATOM     33  O   UNL A   1      42.434  21.376  26.717  1.00  0.00    -0.376 OA
BRANCH  33  34
ATOM     34  C   UNL A   1      43.321  20.843  25.749  1.00  0.00     0.202 C 
BRANCH  34  35
ATOM     35  C   UNL A   1      44.004  21.863  24.829  1.00  0.00     0.261 C 
BRANCH  35  36
ATOM     36  O   UNL A   1      43.343  23.143  24.748  1.00  0.00    -0.460 OA
BRANCH  36  37
ATOM     37  C   UNL A   1      44.116  24.223  25.025  1.00  0.00     0.338 C 
ATOM     38  O   UNL A   1      45.237  24.454  24.613  1.00  0.00    -0.246 OA
BRANCH  37  39
ATOM     39  C   UNL A   1      43.376  25.191  25.868  1.00  0.00     0.060 A 
ATOM     40  C   UNL A   1      43.603  26.562  25.682  1.00  0.00     0.016 A 
ATOM     41  C   UNL A   1      42.584  24.754  26.931  1.00  0.00     0.016 A 
ATOM     42  C   UNL A   1      43.065  27.498  26.574  1.00  0.00     0.010 A 
ATOM     43  C   UNL A   1      42.064  25.692  27.835  1.00  0.00     0.010 A 
ATOM     44  C   UNL A   1      42.324  27.067  27.682  1.00  0.00    -0.014 A 
BRANCH  44  45
ATOM     45  C   UNL A   1      41.926  28.015  28.759  1.00  0.00     0.031 A 
ATOM     46  C   UNL A   1      42.730  28.058  30.033  1.00  0.00     0.074 A 
ATOM     47  C   UNL A   1      40.836  28.795  28.640  1.00  0.00     0.049 A 
ATOM     48  N   UNL A   1      42.462  28.656  31.167  1.00  0.00    -0.248 NA
ATOM     49  C   UNL A   1      44.005  27.326  30.026  1.00  0.00     0.031 C 
ATOM     50  C   UNL A   1      39.998  28.903  27.449  1.00  0.00     0.029 A 
ATOM     51  N   UNL A   1      40.228  29.621  29.557  1.00  0.00    -0.354 N 
ATOM     52  C   UNL A   1      43.518  28.353  32.015  1.00  0.00     0.074 A 
ATOM     53  C   UNL A   1      44.434  27.519  31.266  1.00  0.00     0.031 C 
ATOM     54  C   UNL A   1      38.957  29.710  27.722  1.00  0.00     0.029 A 
ATOM     55  C   UNL A   1      39.032  30.137  29.120  1.00  0.00     0.049 A 
ATOM     56  H   UNL A   1      40.612  29.823  30.442  1.00  0.00     0.167 HD
ATOM     57  C   UNL A   1      43.704  28.727  33.303  1.00  0.00     0.037 A 
ATOM     58  C   UNL A   1      38.080  30.826  29.784  1.00  0.00     0.037 A 
ATOM     59  C   UNL A   1      42.808  29.573  34.047  1.00  0.00     0.049 A 
ATOM     60  C   UNL A   1      38.269  31.154  31.247  1.00  0.00     0.074 A 
ATOM     61  C   UNL A   1      42.953  30.054  35.339  1.00  0.00     0.029 A 
ATOM     62  N   UNL A   1      41.598  30.053  33.577  1.00  0.00    -0.354 N 
ATOM     63  N   UNL A   1      39.283  30.892  32.032  1.00  0.00    -0.248 NA
ATOM     64  C   UNL A   1      37.167  31.864  31.918  1.00  0.00     0.031 C 
ATOM     65  C   UNL A   1      41.800  30.772  35.670  1.00  0.00     0.029 A 
ATOM     66  C   UNL A   1      40.963  30.785  34.568  1.00  0.00     0.049 A 
ATOM     67  H   UNL A   1      41.242  29.897  32.672  1.00  0.00     0.167 HD
ATOM     68  C   UNL A   1      38.955  31.423  33.275  1.00  0.00     0.074 A 
ATOM     69  C   UNL A   1      37.654  32.036  33.139  1.00  0.00     0.031 C 
ATOM     70  C   UNL A   1      39.669  31.399  34.427  1.00  0.00     0.037 A 
BRANCH  57  71
ATOM     71  C   UNL A   1      44.907  28.199  34.025  1.00  0.00     0.064 A 
ATOM     72  C   UNL A   1      46.114  28.910  34.072  1.00  0.00     0.173 A 
ATOM     73  C   UNL A   1      44.817  27.004  34.756  1.00  0.00     0.173 A 
ATOM     74  F   UNL A   1      46.251  30.053  33.384  1.00  0.00    -0.203 F 
ATOM     75  C   UNL A   1      47.192  28.438  34.818  1.00  0.00     0.198 A 
ATOM     76  C   UNL A   1      45.887  26.549  35.520  1.00  0.00     0.198 A 
ATOM     77  F   UNL A   1      43.679  26.293  34.750  1.00  0.00    -0.203 F 
ATOM     78  F   UNL A   1      48.345  29.121  34.831  1.00  0.00    -0.200 F 
ATOM     79  C   UNL A   1      47.074  27.265  35.549  1.00  0.00     0.200 A 
ATOM     80  F   UNL A   1      45.765  25.423  36.237  1.00  0.00    -0.200 F 
ATOM     81  F   UNL A   1      48.105  26.823  36.281  1.00  0.00    -0.200 F 
ENDBRANCH  57  71
BRANCH  58  82
ATOM     82  C   UNL A   1      36.812  31.198  29.100  1.00  0.00     0.064 A 
ATOM     83  C   UNL A   1      35.847  30.232  28.783  1.00  0.00     0.173 A 
ATOM     84  C   UNL A   1      36.570  32.518  28.691  1.00  0.00     0.173 A 
ATOM     85  F   UNL A   1      36.049  28.950  29.120  1.00  0.00    -0.203 F 
ATOM     86  C   UNL A   1      34.704  30.567  28.059  1.00  0.00     0.198 A 
ATOM     87  C   UNL A   1      35.412  32.858  27.995  1.00  0.00     0.198 A 
ATOM     88  F   UNL A   1      37.467  33.480  28.959  1.00  0.00    -0.203 F 
ATOM     89  F   UNL A   1      33.831  29.612  27.711  1.00  0.00    -0.200 F 
ATOM     90  C   UNL A   1      34.485  31.880  27.670  1.00  0.00     0.200 A 
ATOM     91  F   UNL A   1      35.203  34.129  27.628  1.00  0.00    -0.200 F 
ATOM     92  F   UNL A   1      33.392  32.200  26.965  1.00  0.00    -0.200 F 
ENDBRANCH  58  82
BRANCH  70  93
ATOM     93  C   UNL A   1      39.080  32.074  35.632  1.00  0.00     0.064 A 
ATOM     94  C   UNL A   1      38.307  31.366  36.564  1.00  0.00     0.173 A 
ATOM     95  C   UNL A   1      39.344  33.428  35.893  1.00  0.00     0.173 A 
ATOM     96  F   UNL A   1      38.014  30.074  36.355  1.00  0.00    -0.203 F 
ATOM     97  C   UNL A   1      37.809  31.992  37.705  1.00  0.00     0.198 A 
ATOM     98  C   UNL A   1      38.868  34.043  37.048  1.00  0.00     0.198 A 
ATOM     99  F   UNL A   1      40.083  34.150  35.037  1.00  0.00    -0.203 F 
ATOM    100  F   UNL A   1      37.044  31.305  38.564  1.00  0.00    -0.200 F 
ATOM    101  C   UNL A   1      38.098  33.326  37.951  1.00  0.00     0.200 A 
ATOM    102  F   UNL A   1      39.160  35.329  37.290  1.00  0.00    -0.200 F 
ATOM    103  F   UNL A   1      37.630  33.923  39.056  1.00  0.00    -0.200 F 
ENDBRANCH  70  93
ENDBRANCH  44  45
ENDBRANCH  37  39
ENDBRANCH  36  37
ENDBRANCH  35  36
ENDBRANCH  34  35
ENDBRANCH  33  34
ENDBRANCH  32  33
ENDBRANCH   1  32
TORSDOF 22
ENDMDL
MODEL 3
REMARK VINA RESULT:     -10.5      5.362     10.394
REMARK SMILES O=C(COc1ccccc1[C@@H]1[NH2+]CCc2cc(O)c(O)cc21)OCCOCCOCCOC(=O)c1ccc(-c2c3nc(c(-c4c(F)c(F)c(F)c(F)c4F)c4ccc([nH]4)c(-c4c(F)c(F)c(F)c(F)c4F)c4nc(c(-c5c(F)c(F)c(F)c(F)c5F)c5ccc2[nH]5)C=C4)C=C3)cc1
REMARK SMILES IDX 27 1 26 2 25 3 24 4 23 5 2 6 1 7 3 8 4 9 5 10 6 11 10 12
REMARK SMILES IDX 7 13 9 14 8 15 11 16 12 17 22 18 13 19 15 22 21 23 14 24
REMARK SMILES IDX 16 25 19 26 17 27 20 28 18 30 28 32 29 33 30 34 31 35 32 36
REMARK SMILES IDX 33 37 34 38 35 39 36 40 97 41 37 42 96 43 38 44 39 45 40 46
REMARK SMILES IDX 90 47 41 48 95 49 89 50 91 51 42 52 94 53 88 54 87 55 43 57
REMARK SMILES IDX 75 58 55 59 74 60 56 61 59 62 73 63 92 64 57 65 58 66 72 68
REMARK SMILES IDX 93 69 60 70 44 71 45 72 53 73 46 74 47 75 51 76 54 77 48 78
REMARK SMILES IDX 49 79 52 80 50 81 76 82 77 83 85 84 78 85 79 86 83 87 86 88
REMARK SMILES IDX 80 89 81 90 84 91 82 92 61 93 62 94 70 95 63 96 64 97 68 98
REMARK SMILES IDX 71 99 65 100 66 101 69 102 67 103
REMARK H PARENT 12 20 12 21 20 29 18 31 91 56 59 67
REMARK Flexibility Score: inf
ROOT
ATOM      1  C   UNL A   1      39.927  22.286  25.937  1.00  0.00     0.188 C 
ENDROOT
BRANCH   1   2
ATOM      2  O   UNL A   1      38.585  22.676  25.660  1.00  0.00    -0.376 OA
BRANCH   2   3
ATOM      3  C   UNL A   1      37.653  21.603  25.675  1.00  0.00     0.202 C 
BRANCH   3   4
ATOM      4  C   UNL A   1      36.224  22.164  25.755  1.00  0.00     0.261 C 
BRANCH   4   5
ATOM      5  O   UNL A   1      36.112  23.593  25.929  1.00  0.00    -0.461 OA
BRANCH   5   6
ATOM      6  C   UNL A   1      35.350  24.367  25.124  1.00  0.00     0.344 C 
ATOM      7  O   UNL A   1      34.690  25.282  25.610  1.00  0.00    -0.248 OA
BRANCH   6   8
ATOM      8  C   UNL A   1      35.355  24.027  23.622  1.00  0.00     0.351 C 
BRANCH   8   9
ATOM      9  O   UNL A   1      34.282  24.148  22.738  1.00  0.00    -0.481 OA
BRANCH   9  10
ATOM     10  C   UNL A   1      33.342  25.124  22.819  1.00  0.00     0.129 A 
ATOM     11  C   UNL A   1      33.912  26.323  22.342  1.00  0.00     0.047 A 
ATOM     12  C   UNL A   1      31.989  25.087  23.222  1.00  0.00     0.056 A 
ATOM     13  C   UNL A   1      33.212  27.518  22.342  1.00  0.00     0.004 A 
ATOM     14  C   UNL A   1      31.318  26.335  23.255  1.00  0.00     0.014 A 
ATOM     15  C   UNL A   1      31.916  27.528  22.827  1.00  0.00     0.001 A 
BRANCH  12  16
ATOM     16  C   UNL A   1      31.226  23.847  23.699  1.00  0.00     0.249 C 
ATOM     17  N   UNL A   1      30.098  24.118  24.616  1.00  0.00    -0.336 N 
ATOM     18  C   UNL A   1      31.982  22.668  24.325  1.00  0.00     0.021 A 
ATOM     19  C   UNL A   1      30.519  24.478  25.980  1.00  0.00     0.266 C 
ATOM     20  H   UNL A   1      29.517  23.282  24.667  1.00  0.00     0.347 HD
ATOM     21  H   UNL A   1      29.593  24.920  24.237  1.00  0.00     0.347 HD
ATOM     22  C   UNL A   1      32.266  22.732  25.709  1.00  0.00    -0.029 A 
ATOM     23  C   UNL A   1      32.147  21.459  23.632  1.00  0.00     0.060 A 
ATOM     24  C   UNL A   1      31.924  24.021  26.408  1.00  0.00     0.097 C 
ATOM     25  C   UNL A   1      32.713  21.602  26.394  1.00  0.00     0.054 A 
ATOM     26  C   UNL A   1      32.544  20.329  24.337  1.00  0.00     0.157 A 
ATOM     27  C   UNL A   1      32.821  20.404  25.703  1.00  0.00     0.157 A 
BRANCH  26  28
ATOM     28  O   UNL A   1      32.610  19.098  23.744  1.00  0.00    -0.504 OA
ATOM     29  H   UNL A   1      31.824  18.659  23.485  1.00  0.00     0.293 HD
ENDBRANCH  26  28
BRANCH  27  30
ATOM     30  O   UNL A   1      33.142  19.268  26.391  1.00  0.00    -0.504 OA
ATOM     31  H   UNL A   1      33.904  18.776  26.154  1.00  0.00     0.293 HD
ENDBRANCH  27  30
ENDBRANCH  12  16
ENDBRANCH   9  10
ENDBRANCH   8   9
ENDBRANCH   6   8
ENDBRANCH   5   6
ENDBRANCH   4   5
ENDBRANCH   3   4
ENDBRANCH   2   3
ENDBRANCH   1   2
BRANCH   1  32
ATOM     32  C   UNL A   1      40.007  20.802  26.303  1.00  0.00     0.188 C 
BRANCH  32  33
ATOM     33  O   UNL A   1      41.111  20.331  27.071  1.00  0.00    -0.376 OA
BRANCH  33  34
ATOM     34  C   UNL A   1      42.083  19.517  26.437  1.00  0.00     0.202 C 
BRANCH  34  35
ATOM     35  C   UNL A   1      43.211  20.260  25.710  1.00  0.00     0.261 C 
BRANCH  35  36
ATOM     36  O   UNL A   1      43.037  21.689  25.622  1.00  0.00    -0.460 OA
BRANCH  36  37
ATOM     37  C   UNL A   1      44.000  22.437  26.218  1.00  0.00     0.338 C 
ATOM     38  O   UNL A   1      45.202  22.255  26.186  1.00  0.00    -0.246 OA
BRANCH  37  39
ATOM     39  C   UNL A   1      43.403  23.618  26.885  1.00  0.00     0.060 A 
ATOM     40  C   UNL A   1      43.952  24.884  26.636  1.00  0.00     0.016 A 
ATOM     41  C   UNL A   1      42.417  23.466  27.861  1.00  0.00     0.016 A 
ATOM     42  C   UNL A   1      43.538  25.996  27.381  1.00  0.00     0.010 A 
ATOM     43  C   UNL A   1      42.020  24.577  28.620  1.00  0.00     0.010 A 
ATOM     44  C   UNL A   1      42.597  25.843  28.407  1.00  0.00    -0.014 A 
BRANCH  44  45
ATOM     45  C   UNL A   1      42.301  26.954  29.353  1.00  0.00     0.031 A 
ATOM     46  C   UNL A   1      43.085  27.056  30.635  1.00  0.00     0.074 A 
ATOM     47  C   UNL A   1      41.314  27.837  29.111  1.00  0.00     0.049 A 
ATOM     48  N   UNL A   1      42.874  27.814  31.682  1.00  0.00    -0.248 NA
ATOM     49  C   UNL A   1      44.263  26.184  30.752  1.00  0.00     0.031 C 
ATOM     50  C   UNL A   1      40.513  27.899  27.891  1.00  0.00     0.029 A 
ATOM     51  N   UNL A   1      40.797  28.834  29.906  1.00  0.00    -0.354 N 
ATOM     52  C   UNL A   1      43.874  27.493  32.590  1.00  0.00     0.074 A 
ATOM     53  C   UNL A   1      44.694  26.472  31.972  1.00  0.00     0.031 C 
ATOM     54  C   UNL A   1      39.574  28.849  28.036  1.00  0.00     0.029 A 
ATOM     55  C   UNL A   1      39.679  29.431  29.376  1.00  0.00     0.049 A 
ATOM     56  H   UNL A   1      41.190  29.095  30.770  1.00  0.00     0.167 HD
ATOM     57  C   UNL A   1      44.085  27.996  33.830  1.00  0.00     0.037 A 
ATOM     58  C   UNL A   1      38.807  30.302  29.925  1.00  0.00     0.037 A 
ATOM     59  C   UNL A   1      43.287  29.025  34.443  1.00  0.00     0.049 A 
ATOM     60  C   UNL A   1      39.013  30.780  31.345  1.00  0.00     0.074 A 
ATOM     61  C   UNL A   1      43.469  29.639  35.672  1.00  0.00     0.029 A 
ATOM     62  N   UNL A   1      42.150  29.584  33.884  1.00  0.00    -0.354 N 
ATOM     63  N   UNL A   1      39.977  30.497  32.184  1.00  0.00    -0.248 NA
ATOM     64  C   UNL A   1      37.995  31.691  31.895  1.00  0.00     0.031 C 
ATOM     65  C   UNL A   1      42.407  30.522  35.883  1.00  0.00     0.029 A 
ATOM     66  C   UNL A   1      41.593  30.500  34.763  1.00  0.00     0.049 A 
ATOM     67  H   UNL A   1      41.791  29.363  32.994  1.00  0.00     0.167 HD
ATOM     68  C   UNL A   1      39.697  31.209  33.345  1.00  0.00     0.074 A 
ATOM     69  C   UNL A   1      38.481  31.951  33.101  1.00  0.00     0.031 C 
ATOM     70  C   UNL A   1      40.385  31.241  34.512  1.00  0.00     0.037 A 
BRANCH  57  71
ATOM     71  C   UNL A   1      45.205  27.420  34.644  1.00  0.00     0.064 A 
ATOM     72  C   UNL A   1      45.025  26.298  35.463  1.00  0.00     0.173 A 
ATOM     73  C   UNL A   1      46.499  27.950  34.526  1.00  0.00     0.173 A 
ATOM     74  F   UNL A   1      43.805  25.760  35.612  1.00  0.00    -0.203 F 
ATOM     75  C   UNL A   1      46.100  25.732  36.145  1.00  0.00     0.198 A 
ATOM     76  C   UNL A   1      47.575  27.368  35.189  1.00  0.00     0.198 A 
ATOM     77  F   UNL A   1      46.724  29.019  33.746  1.00  0.00    -0.203 F 
ATOM     78  F   UNL A   1      45.903  24.672  36.941  1.00  0.00    -0.200 F 
ATOM     79  C   UNL A   1      47.375  26.260  35.999  1.00  0.00     0.200 A 
ATOM     80  F   UNL A   1      48.808  27.871  35.035  1.00  0.00    -0.200 F 
ATOM     81  F   UNL A   1      48.411  25.703  36.640  1.00  0.00    -0.200 F 
ENDBRANCH  57  71
BRANCH  58  82
ATOM     82  C   UNL A   1      37.603  30.736  29.167  1.00  0.00     0.064 A 
ATOM     83  C   UNL A   1      37.460  32.059  28.726  1.00  0.00     0.173 A 
ATOM     84  C   UNL A   1      36.541  29.850  28.926  1.00  0.00     0.173 A 
ATOM     85  F   UNL A   1      38.431  32.952  28.964  1.00  0.00    -0.203 F 
ATOM     86  C   UNL A   1      36.289  32.485  28.099  1.00  0.00     0.198 A 
ATOM     87  C   UNL A   1      35.385  30.270  28.272  1.00  0.00     0.198 A 
ATOM     88  F   UNL A   1      36.622  28.575  29.338  1.00  0.00    -0.203 F 
ATOM     89  F   UNL A   1      36.151  33.771  27.748  1.00  0.00    -0.200 F 
ATOM     90  C   UNL A   1      35.256  31.590  27.869  1.00  0.00     0.200 A 
ATOM     91  F   UNL A   1      34.393  29.399  28.045  1.00  0.00    -0.200 F 
ATOM     92  F   UNL A   1      34.128  32.003  27.276  1.00  0.00    -0.200 F 
ENDBRANCH  58  82
BRANCH  70  93
ATOM     93  C   UNL A   1      39.865  32.121  35.612  1.00  0.00     0.064 A 
ATOM     94  C   UNL A   1      40.325  33.436  35.779  1.00  0.00     0.173 A 
ATOM     95  C   UNL A   1      38.851  31.669  36.470  1.00  0.00     0.173 A 
ATOM     96  F   UNL A   1      41.303  33.913  34.994  1.00  0.00    -0.203 F 
ATOM     97  C   UNL A   1      39.798  34.260  36.771  1.00  0.00     0.198 A 
ATOM     98  C   UNL A   1      38.306  32.503  37.442  1.00  0.00     0.198 A 
ATOM     99  F   UNL A   1      38.371  30.422  36.350  1.00  0.00    -0.203 F 
ATOM    100  F   UNL A   1      40.276  35.501  36.934  1.00  0.00    -0.200 F 
ATOM    101  C   UNL A   1      38.782  33.796  37.595  1.00  0.00     0.200 A 
ATOM    102  F   UNL A   1      37.316  32.058  38.228  1.00  0.00    -0.200 F 
ATOM    103  F   UNL A   1      38.267  34.595  38.540  1.00  0.00    -0.200 F 
ENDBRANCH  70  93
ENDBRANCH  44  45
ENDBRANCH  37  39
ENDBRANCH  36  37
ENDBRANCH  35  36
ENDBRANCH  34  35
ENDBRANCH  33  34
ENDBRANCH  32  33
ENDBRANCH   1  32
TORSDOF 22
ENDMDL
