MODEL 1
REMARK VINA RESULT:     -12.5      0.000      0.000
REMARK SMILES Cc1cc(F)ccc1S(=O)(=O)Nc1ccc2oc(C)c(C(=O)OCCOCCOCCOC(=O)c3ccc(-c4c5nc(c(-c6c(F)c(F)c(F)c(F)c6F)c6ccc([nH]6)c(-c6c(F)c(F)c(F)c(F)c6F)c6nc(c(-c7c(F)c(F)c(F)c(F)c7F)c7ccc4[nH]7)C=C6)C=C5)cc3)c2c1
REMARK SMILES IDX 27 1 26 2 25 3 24 4 23 5 21 6 22 7 20 8 13 9 14 10 99 11
REMARK SMILES IDX 15 12 98 13 16 14 17 15 18 16 19 17 12 18 9 20 10 21 11 22
REMARK SMILES IDX 8 23 1 24 2 25 3 26 4 27 7 28 5 29 6 30 28 31 29 32 30 33
REMARK SMILES IDX 31 34 32 35 33 36 34 37 35 38 36 39 97 40 37 41 96 42 38 43
REMARK SMILES IDX 39 44 40 45 90 46 41 47 95 48 89 49 91 50 42 51 94 52 88 53
REMARK SMILES IDX 87 54 43 56 75 57 55 58 74 59 56 60 59 61 73 62 92 63 57 64
REMARK SMILES IDX 58 65 72 67 93 68 60 69 44 70 45 71 53 72 46 73 47 74 51 75
REMARK SMILES IDX 54 76 48 77 49 78 52 79 50 80 76 81 77 82 85 83 78 84 79 85
REMARK SMILES IDX 83 86 86 87 80 88 81 89 84 90 82 91 61 92 62 93 70 94 63 95
REMARK SMILES IDX 64 96 68 97 71 98 65 99 66 100 69 101 67 102
REMARK H PARENT 12 19 91 55 59 66
REMARK Flexibility Score: inf
ROOT
ATOM      1  C   UNL A   1      41.516  20.126  27.196  1.00  0.00     0.188 C 
ENDROOT
BRANCH   1   2
ATOM      2  O   UNL A   1      40.433  21.015  27.397  1.00  0.00    -0.376 OA
BRANCH   2   3
ATOM      3  C   UNL A   1      39.652  21.367  26.265  1.00  0.00     0.202 C 
BRANCH   3   4
ATOM      4  C   UNL A   1      38.923  22.726  26.276  1.00  0.00     0.261 C 
BRANCH   4   5
ATOM      5  O   UNL A   1      37.501  22.651  26.511  1.00  0.00    -0.460 OA
BRANCH   5   6
ATOM      6  C   UNL A   1      36.694  22.952  25.439  1.00  0.00     0.342 C 
ATOM      7  O   UNL A   1      37.000  23.693  24.534  1.00  0.00    -0.246 OA
BRANCH   6   8
ATOM      8  C   UNL A   1      35.527  22.070  25.364  1.00  0.00     0.109 A 
ATOM      9  C   UNL A   1      32.161  23.675  26.169  1.00  0.00     0.050 A 
ATOM     10  C   UNL A   1      31.399  22.519  26.005  1.00  0.00     0.030 A 
ATOM     11  C   UNL A   1      33.517  23.695  25.806  1.00  0.00     0.039 A 
ATOM     12  C   UNL A   1      31.999  21.321  25.574  1.00  0.00     0.050 A 
ATOM     13  C   UNL A   1      34.162  22.477  25.531  1.00  0.00     0.037 A 
ATOM     14  C   UNL A   1      33.383  21.339  25.392  1.00  0.00     0.135 A 
ATOM     15  O   UNL A   1      34.177  20.279  25.077  1.00  0.00    -0.460 OA
ATOM     16  C   UNL A   1      35.470  20.727  25.045  1.00  0.00     0.116 A 
ATOM     17  C   UNL A   1      36.493  19.725  24.686  1.00  0.00     0.088 C 
BRANCH   9  18
ATOM     18  N   UNL A   1      31.709  24.848  26.816  1.00  0.00    -0.280 N 
ATOM     19  H   UNL A   1      31.698  24.833  27.800  1.00  0.00     0.180 HD
BRANCH  18  20
ATOM     20  S   UNL A   1      31.196  26.252  26.088  1.00  0.00     0.262 S 
ATOM     21  O   UNL A   1      31.056  27.266  27.114  1.00  0.00    -0.201 OA
ATOM     22  O   UNL A   1      30.041  25.835  25.315  1.00  0.00    -0.201 OA
BRANCH  20  23
ATOM     23  C   UNL A   1      32.350  26.922  24.879  1.00  0.00     0.090 A 
ATOM     24  C   UNL A   1      33.933  28.387  26.324  1.00  0.00     0.046 C 
ATOM     25  C   UNL A   1      33.379  27.867  25.046  1.00  0.00    -0.028 A 
ATOM     26  C   UNL A   1      33.992  28.409  23.894  1.00  0.00     0.044 A 
ATOM     27  C   UNL A   1      33.695  27.933  22.627  1.00  0.00     0.123 A 
ATOM     28  C   UNL A   1      32.104  26.421  23.579  1.00  0.00     0.025 A 
ATOM     29  F   UNL A   1      34.315  28.459  21.565  1.00  0.00    -0.207 F 
ATOM     30  C   UNL A   1      32.784  26.910  22.463  1.00  0.00     0.040 A 
ENDBRANCH  20  23
ENDBRANCH  18  20
ENDBRANCH   9  18
ENDBRANCH   6   8
ENDBRANCH   5   6
ENDBRANCH   4   5
ENDBRANCH   3   4
ENDBRANCH   2   3
ENDBRANCH   1   2
BRANCH   1  31
ATOM     31  C   UNL A   1      42.523  20.349  26.044  1.00  0.00     0.188 C 
BRANCH  31  32
ATOM     32  O   UNL A   1      43.352  21.491  26.219  1.00  0.00    -0.376 OA
BRANCH  32  33
ATOM     33  C   UNL A   1      43.081  22.584  25.355  1.00  0.00     0.202 C 
BRANCH  33  34
ATOM     34  C   UNL A   1      42.934  23.935  26.060  1.00  0.00     0.261 C 
BRANCH  34  35
ATOM     35  O   UNL A   1      41.923  23.958  27.065  1.00  0.00    -0.460 OA
BRANCH  35  36
ATOM     36  C   UNL A   1      41.799  25.150  27.673  1.00  0.00     0.338 C 
ATOM     37  O   UNL A   1      42.609  25.676  28.419  1.00  0.00    -0.246 OA
BRANCH  36  38
ATOM     38  C   UNL A   1      40.472  25.735  27.358  1.00  0.00     0.060 A 
ATOM     39  C   UNL A   1      40.588  26.863  26.527  1.00  0.00     0.016 A 
ATOM     40  C   UNL A   1      39.676  25.728  28.499  1.00  0.00     0.016 A 
ATOM     41  C   UNL A   1      40.438  28.085  27.129  1.00  0.00     0.010 A 
ATOM     42  C   UNL A   1      39.559  26.936  29.121  1.00  0.00     0.010 A 
ATOM     43  C   UNL A   1      40.065  28.070  28.470  1.00  0.00    -0.014 A 
BRANCH  43  44
ATOM     44  C   UNL A   1      40.226  29.228  29.301  1.00  0.00     0.031 A 
ATOM     45  C   UNL A   1      39.159  30.217  29.247  1.00  0.00     0.074 A 
ATOM     46  C   UNL A   1      41.319  29.303  30.083  1.00  0.00     0.049 A 
ATOM     47  N   UNL A   1      39.305  31.469  29.481  1.00  0.00    -0.248 NA
ATOM     48  C   UNL A   1      37.827  29.848  28.776  1.00  0.00     0.031 C 
ATOM     49  C   UNL A   1      41.564  30.215  31.184  1.00  0.00     0.029 A 
ATOM     50  N   UNL A   1      42.539  28.642  29.880  1.00  0.00    -0.354 N 
ATOM     51  C   UNL A   1      38.036  31.998  29.534  1.00  0.00     0.074 A 
ATOM     52  C   UNL A   1      37.190  31.009  28.914  1.00  0.00     0.031 C 
ATOM     53  C   UNL A   1      42.887  30.256  31.417  1.00  0.00     0.029 A 
ATOM     54  C   UNL A   1      43.548  29.497  30.361  1.00  0.00     0.049 A 
ATOM     55  H   UNL A   1      42.666  27.752  29.480  1.00  0.00     0.167 HD
ATOM     56  C   UNL A   1      37.833  33.101  30.309  1.00  0.00     0.037 A 
ATOM     57  C   UNL A   1      44.433  30.031  29.469  1.00  0.00     0.037 A 
ATOM     58  C   UNL A   1      39.117  33.617  30.800  1.00  0.00     0.049 A 
ATOM     59  C   UNL A   1      44.235  31.516  29.224  1.00  0.00     0.074 A 
ATOM     60  C   UNL A   1      39.825  33.424  31.978  1.00  0.00     0.029 A 
ATOM     61  N   UNL A   1      40.034  34.115  29.887  1.00  0.00    -0.354 N 
ATOM     62  N   UNL A   1      43.231  32.215  29.680  1.00  0.00    -0.248 NA
ATOM     63  C   UNL A   1      45.123  32.308  28.372  1.00  0.00     0.031 C 
ATOM     64  C   UNL A   1      41.194  33.737  31.730  1.00  0.00     0.029 A 
ATOM     65  C   UNL A   1      41.316  34.135  30.410  1.00  0.00     0.049 A 
ATOM     66  H   UNL A   1      39.802  34.420  28.980  1.00  0.00     0.167 HD
ATOM     67  C   UNL A   1      43.323  33.497  29.220  1.00  0.00     0.074 A 
ATOM     68  C   UNL A   1      44.507  33.502  28.378  1.00  0.00     0.031 C 
ATOM     69  C   UNL A   1      42.436  34.479  29.550  1.00  0.00     0.037 A 
BRANCH  56  70
ATOM     70  C   UNL A   1      36.486  33.430  30.918  1.00  0.00     0.064 A 
ATOM     71  C   UNL A   1      35.505  34.079  30.142  1.00  0.00     0.173 A 
ATOM     72  C   UNL A   1      36.126  33.239  32.267  1.00  0.00     0.173 A 
ATOM     73  F   UNL A   1      35.642  34.217  28.816  1.00  0.00    -0.203 F 
ATOM     74  C   UNL A   1      34.339  34.613  30.698  1.00  0.00     0.198 A 
ATOM     75  C   UNL A   1      34.988  33.819  32.836  1.00  0.00     0.198 A 
ATOM     76  F   UNL A   1      36.819  32.429  33.074  1.00  0.00    -0.203 F 
ATOM     77  F   UNL A   1      33.453  35.234  29.906  1.00  0.00    -0.200 F 
ATOM     78  C   UNL A   1      34.100  34.520  32.053  1.00  0.00     0.200 A 
ATOM     79  F   UNL A   1      34.762  33.686  34.152  1.00  0.00    -0.200 F 
ATOM     80  F   UNL A   1      33.005  35.070  32.592  1.00  0.00    -0.200 F 
ENDBRANCH  56  70
BRANCH  57  81
ATOM     81  C   UNL A   1      44.917  29.064  28.446  1.00  0.00     0.064 A 
ATOM     82  C   UNL A   1      45.933  28.152  28.799  1.00  0.00     0.173 A 
ATOM     83  C   UNL A   1      44.249  28.841  27.236  1.00  0.00     0.173 A 
ATOM     84  F   UNL A   1      46.610  28.312  29.947  1.00  0.00    -0.203 F 
ATOM     85  C   UNL A   1      46.221  27.037  28.012  1.00  0.00     0.198 A 
ATOM     86  C   UNL A   1      44.547  27.729  26.443  1.00  0.00     0.198 A 
ATOM     87  F   UNL A   1      43.268  29.665  26.840  1.00  0.00    -0.203 F 
ATOM     88  F   UNL A   1      47.135  26.144  28.422  1.00  0.00    -0.200 F 
ATOM     89  C   UNL A   1      45.522  26.823  26.837  1.00  0.00     0.200 A 
ATOM     90  F   UNL A   1      43.851  27.507  25.318  1.00  0.00    -0.200 F 
ATOM     91  F   UNL A   1      45.755  25.721  26.107  1.00  0.00    -0.200 F 
ENDBRANCH  57  81
BRANCH  69  92
ATOM     92  C   UNL A   1      42.625  35.893  29.106  1.00  0.00     0.064 A 
ATOM     93  C   UNL A   1      43.338  36.816  29.888  1.00  0.00     0.173 A 
ATOM     94  C   UNL A   1      41.997  36.393  27.951  1.00  0.00     0.173 A 
ATOM     95  F   UNL A   1      43.920  36.435  31.036  1.00  0.00    -0.203 F 
ATOM     96  C   UNL A   1      43.456  38.151  29.511  1.00  0.00     0.198 A 
ATOM     97  C   UNL A   1      42.068  37.740  27.608  1.00  0.00     0.198 A 
ATOM     98  F   UNL A   1      41.322  35.584  27.122  1.00  0.00    -0.203 F 
ATOM     99  F   UNL A   1      44.194  38.989  30.252  1.00  0.00    -0.200 F 
ATOM    100  C   UNL A   1      42.808  38.616  28.379  1.00  0.00     0.200 A 
ATOM    101  F   UNL A   1      41.415  38.184  26.524  1.00  0.00    -0.200 F 
ATOM    102  F   UNL A   1      42.902  39.905  28.030  1.00  0.00    -0.200 F 
ENDBRANCH  69  92
ENDBRANCH  43  44
ENDBRANCH  36  38
ENDBRANCH  35  36
ENDBRANCH  34  35
ENDBRANCH  33  34
ENDBRANCH  32  33
ENDBRANCH  31  32
ENDBRANCH   1  31
TORSDOF 20
ENDMDL
MODEL 2
REMARK VINA RESULT:     -12.2      1.522      2.362
REMARK SMILES Cc1cc(F)ccc1S(=O)(=O)Nc1ccc2oc(C)c(C(=O)OCCOCCOCCOC(=O)c3ccc(-c4c5nc(c(-c6c(F)c(F)c(F)c(F)c6F)c6ccc([nH]6)c(-c6c(F)c(F)c(F)c(F)c6F)c6nc(c(-c7c(F)c(F)c(F)c(F)c7F)c7ccc4[nH]7)C=C6)C=C5)cc3)c2c1
REMARK SMILES IDX 27 1 26 2 25 3 24 4 23 5 21 6 22 7 20 8 13 9 14 10 99 11
REMARK SMILES IDX 15 12 98 13 16 14 17 15 18 16 19 17 12 18 9 20 10 21 11 22
REMARK SMILES IDX 8 23 1 24 2 25 3 26 4 27 7 28 5 29 6 30 28 31 29 32 30 33
REMARK SMILES IDX 31 34 32 35 33 36 34 37 35 38 36 39 97 40 37 41 96 42 38 43
REMARK SMILES IDX 39 44 40 45 90 46 41 47 95 48 89 49 91 50 42 51 94 52 88 53
REMARK SMILES IDX 87 54 43 56 75 57 55 58 74 59 56 60 59 61 73 62 92 63 57 64
REMARK SMILES IDX 58 65 72 67 93 68 60 69 44 70 45 71 53 72 46 73 47 74 51 75
REMARK SMILES IDX 54 76 48 77 49 78 52 79 50 80 76 81 77 82 85 83 78 84 79 85
REMARK SMILES IDX 83 86 86 87 80 88 81 89 84 90 82 91 61 92 62 93 70 94 63 95
REMARK SMILES IDX 64 96 68 97 71 98 65 99 66 100 69 101 67 102
REMARK H PARENT 12 19 91 55 59 66
REMARK Flexibility Score: inf
ROOT
ATOM      1  C   UNL A   1      39.605  20.906  26.429  1.00  0.00     0.188 C 
ENDROOT
BRANCH   1   2
ATOM      2  O   UNL A   1      38.922  21.989  25.826  1.00  0.00    -0.376 OA
BRANCH   2   3
ATOM      3  C   UNL A   1      37.623  21.741  25.308  1.00  0.00     0.202 C 
BRANCH   3   4
ATOM      4  C   UNL A   1      37.082  22.684  24.216  1.00  0.00     0.261 C 
BRANCH   4   5
ATOM      5  O   UNL A   1      36.159  23.691  24.684  1.00  0.00    -0.460 OA
BRANCH   5   6
ATOM      6  C   UNL A   1      34.942  23.739  24.046  1.00  0.00     0.342 C 
ATOM      7  O   UNL A   1      34.764  23.469  22.880  1.00  0.00    -0.246 OA
BRANCH   6   8
ATOM      8  C   UNL A   1      33.832  23.890  24.990  1.00  0.00     0.109 A 
ATOM      9  C   UNL A   1      31.001  26.199  23.891  1.00  0.00     0.050 A 
ATOM     10  C   UNL A   1      30.235  26.060  25.047  1.00  0.00     0.030 A 
ATOM     11  C   UNL A   1      32.126  25.387  23.676  1.00  0.00     0.039 A 
ATOM     12  C   UNL A   1      30.634  25.179  26.069  1.00  0.00     0.050 A 
ATOM     13  C   UNL A   1      32.625  24.626  24.747  1.00  0.00     0.037 A 
ATOM     14  C   UNL A   1      31.852  24.520  25.893  1.00  0.00     0.135 A 
ATOM     15  O   UNL A   1      32.475  23.706  26.789  1.00  0.00    -0.460 OA
ATOM     16  C   UNL A   1      33.663  23.313  26.234  1.00  0.00     0.116 A 
ATOM     17  C   UNL A   1      34.482  22.390  27.044  1.00  0.00     0.088 C 
BRANCH   9  18
ATOM     18  N   UNL A   1      30.820  27.216  22.925  1.00  0.00    -0.280 N 
ATOM     19  H   UNL A   1      30.711  26.924  21.992  1.00  0.00     0.180 HD
BRANCH  18  20
ATOM     20  S   UNL A   1      30.769  28.855  23.203  1.00  0.00     0.262 S 
ATOM     21  O   UNL A   1      29.428  29.198  23.631  1.00  0.00    -0.201 OA
ATOM     22  O   UNL A   1      31.311  29.426  21.983  1.00  0.00    -0.201 OA
BRANCH  20  23
ATOM     23  C   UNL A   1      31.870  29.417  24.512  1.00  0.00     0.090 A 
ATOM     24  C   UNL A   1      34.130  28.293  23.903  1.00  0.00     0.046 C 
ATOM     25  C   UNL A   1      33.204  29.060  24.779  1.00  0.00    -0.028 A 
ATOM     26  C   UNL A   1      33.778  29.458  26.008  1.00  0.00     0.044 A 
ATOM     27  C   UNL A   1      33.103  30.296  26.881  1.00  0.00     0.123 A 
ATOM     28  C   UNL A   1      31.225  30.312  25.398  1.00  0.00     0.025 A 
ATOM     29  F   UNL A   1      33.691  30.667  28.024  1.00  0.00    -0.207 F 
ATOM     30  C   UNL A   1      31.843  30.763  26.565  1.00  0.00     0.040 A 
ENDBRANCH  20  23
ENDBRANCH  18  20
ENDBRANCH   9  18
ENDBRANCH   6   8
ENDBRANCH   5   6
ENDBRANCH   4   5
ENDBRANCH   3   4
ENDBRANCH   2   3
ENDBRANCH   1   2
BRANCH   1  31
ATOM     31  C   UNL A   1      41.059  20.563  26.030  1.00  0.00     0.188 C 
BRANCH  31  32
ATOM     32  O   UNL A   1      42.030  21.443  26.582  1.00  0.00    -0.376 OA
BRANCH  32  33
ATOM     33  C   UNL A   1      42.421  22.525  25.750  1.00  0.00     0.202 C 
BRANCH  33  34
ATOM     34  C   UNL A   1      42.557  23.868  26.471  1.00  0.00     0.261 C 
BRANCH  34  35
ATOM     35  O   UNL A   1      41.747  23.986  27.638  1.00  0.00    -0.460 OA
BRANCH  35  36
ATOM     36  C   UNL A   1      41.603  25.252  28.065  1.00  0.00     0.338 C 
ATOM     37  O   UNL A   1      42.396  25.890  28.738  1.00  0.00    -0.246 OA
BRANCH  36  38
ATOM     38  C   UNL A   1      40.276  25.771  27.648  1.00  0.00     0.060 A 
ATOM     39  C   UNL A   1      40.399  26.855  26.762  1.00  0.00     0.016 A 
ATOM     40  C   UNL A   1      39.421  25.799  28.745  1.00  0.00     0.016 A 
ATOM     41  C   UNL A   1      40.178  28.102  27.284  1.00  0.00     0.010 A 
ATOM     42  C   UNL A   1      39.230  27.034  29.290  1.00  0.00     0.010 A 
ATOM     43  C   UNL A   1      39.733  28.148  28.602  1.00  0.00    -0.014 A 
BRANCH  43  44
ATOM     44  C   UNL A   1      39.811  29.355  29.374  1.00  0.00     0.031 A 
ATOM     45  C   UNL A   1      38.808  30.372  29.087  1.00  0.00     0.074 A 
ATOM     46  C   UNL A   1      40.770  29.449  30.312  1.00  0.00     0.049 A 
ATOM     47  N   UNL A   1      38.969  31.632  29.262  1.00  0.00    -0.248 NA
ATOM     48  C   UNL A   1      37.552  30.014  28.436  1.00  0.00     0.031 C 
ATOM     49  C   UNL A   1      40.878  30.428  31.378  1.00  0.00     0.029 A 
ATOM     50  N   UNL A   1      41.978  28.737  30.348  1.00  0.00    -0.354 N 
ATOM     51  C   UNL A   1      37.731  32.203  29.079  1.00  0.00     0.074 A 
ATOM     52  C   UNL A   1      36.951  31.201  28.396  1.00  0.00     0.031 C 
ATOM     53  C   UNL A   1      42.150  30.443  31.815  1.00  0.00     0.029 A 
ATOM     54  C   UNL A   1      42.934  29.592  30.928  1.00  0.00     0.049 A 
ATOM     55  H   UNL A   1      42.128  27.818  30.031  1.00  0.00     0.167 HD
ATOM     56  C   UNL A   1      37.455  33.363  29.740  1.00  0.00     0.037 A 
ATOM     57  C   UNL A   1      43.970  30.034  30.156  1.00  0.00     0.037 A 
ATOM     58  C   UNL A   1      38.668  33.871  30.396  1.00  0.00     0.049 A 
ATOM     59  C   UNL A   1      43.876  31.504  29.788  1.00  0.00     0.074 A 
ATOM     60  C   UNL A   1      39.174  33.737  31.680  1.00  0.00     0.029 A 
ATOM     61  N   UNL A   1      39.737  34.275  29.609  1.00  0.00    -0.354 N 
ATOM     62  N   UNL A   1      42.844  32.265  30.034  1.00  0.00    -0.248 NA
ATOM     63  C   UNL A   1      44.919  32.207  29.039  1.00  0.00     0.031 C 
ATOM     64  C   UNL A   1      40.577  33.989  31.634  1.00  0.00     0.029 A 
ATOM     65  C   UNL A   1      40.921  34.290  30.328  1.00  0.00     0.049 A 
ATOM     66  H   UNL A   1      39.663  34.523  28.660  1.00  0.00     0.167 HD
ATOM     67  C   UNL A   1      43.061  33.508  29.514  1.00  0.00     0.074 A 
ATOM     68  C   UNL A   1      44.361  33.417  28.872  1.00  0.00     0.031 C 
ATOM     69  C   UNL A   1      42.175  34.538  29.635  1.00  0.00     0.037 A 
BRANCH  56  70
ATOM     70  C   UNL A   1      36.045  33.776  30.106  1.00  0.00     0.064 A 
ATOM     71  C   UNL A   1      35.175  34.257  29.108  1.00  0.00     0.173 A 
ATOM     72  C   UNL A   1      35.517  33.828  31.411  1.00  0.00     0.173 A 
ATOM     73  F   UNL A   1      35.478  34.154  27.807  1.00  0.00    -0.203 F 
ATOM     74  C   UNL A   1      33.951  34.865  29.406  1.00  0.00     0.198 A 
ATOM     75  C   UNL A   1      34.321  34.483  31.718  1.00  0.00     0.198 A 
ATOM     76  F   UNL A   1      36.097  33.190  32.433  1.00  0.00    -0.203 F 
ATOM     77  F   UNL A   1      33.178  35.318  28.409  1.00  0.00    -0.200 F 
ATOM     78  C   UNL A   1      33.543  35.016  30.714  1.00  0.00     0.200 A 
ATOM     79  F   UNL A   1      33.929  34.589  32.997  1.00  0.00    -0.200 F 
ATOM     80  F   UNL A   1      32.394  35.638  31.003  1.00  0.00    -0.200 F 
ENDBRANCH  56  70
BRANCH  57  81
ATOM     81  C   UNL A   1      44.567  28.983  29.286  1.00  0.00     0.064 A 
ATOM     82  C   UNL A   1      44.153  28.896  27.942  1.00  0.00     0.173 A 
ATOM     83  C   UNL A   1      45.695  28.242  29.658  1.00  0.00     0.173 A 
ATOM     84  F   UNL A   1      43.078  29.584  27.524  1.00  0.00    -0.203 F 
ATOM     85  C   UNL A   1      44.869  28.155  27.002  1.00  0.00     0.198 A 
ATOM     86  C   UNL A   1      46.405  27.490  28.718  1.00  0.00     0.198 A 
ATOM     87  F   UNL A   1      46.148  28.281  30.919  1.00  0.00    -0.203 F 
ATOM     88  F   UNL A   1      44.495  28.164  25.713  1.00  0.00    -0.200 F 
ATOM     89  C   UNL A   1      46.000  27.458  27.390  1.00  0.00     0.200 A 
ATOM     90  F   UNL A   1      47.517  26.837  29.088  1.00  0.00    -0.200 F 
ATOM     91  F   UNL A   1      46.726  26.792  26.478  1.00  0.00    -0.200 F 
ENDBRANCH  57  81
BRANCH  69  92
ATOM     92  C   UNL A   1      42.491  35.911  29.139  1.00  0.00     0.064 A 
ATOM     93  C   UNL A   1      43.282  36.796  29.888  1.00  0.00     0.173 A 
ATOM     94  C   UNL A   1      41.912  36.420  27.962  1.00  0.00     0.173 A 
ATOM     95  F   UNL A   1      43.827  36.410  31.052  1.00  0.00    -0.203 F 
ATOM     96  C   UNL A   1      43.520  38.100  29.460  1.00  0.00     0.198 A 
ATOM     97  C   UNL A   1      42.103  37.741  27.567  1.00  0.00     0.198 A 
ATOM     98  F   UNL A   1      41.168  35.644  27.161  1.00  0.00    -0.203 F 
ATOM     99  F   UNL A   1      44.329  38.896  30.172  1.00  0.00    -0.200 F 
ATOM    100  C   UNL A   1      42.919  38.576  28.308  1.00  0.00     0.200 A 
ATOM    101  F   UNL A   1      41.495  38.200  26.464  1.00  0.00    -0.200 F 
ATOM    102  F   UNL A   1      43.128  39.838  27.910  1.00  0.00    -0.200 F 
ENDBRANCH  69  92
ENDBRANCH  43  44
ENDBRANCH  36  38
ENDBRANCH  35  36
ENDBRANCH  34  35
ENDBRANCH  33  34
ENDBRANCH  32  33
ENDBRANCH  31  32
ENDBRANCH   1  31
TORSDOF 20
ENDMDL
MODEL 3
REMARK VINA RESULT:     -11.8      3.916     10.289
REMARK SMILES Cc1cc(F)ccc1S(=O)(=O)Nc1ccc2oc(C)c(C(=O)OCCOCCOCCOC(=O)c3ccc(-c4c5nc(c(-c6c(F)c(F)c(F)c(F)c6F)c6ccc([nH]6)c(-c6c(F)c(F)c(F)c(F)c6F)c6nc(c(-c7c(F)c(F)c(F)c(F)c7F)c7ccc4[nH]7)C=C6)C=C5)cc3)c2c1
REMARK SMILES IDX 27 1 26 2 25 3 24 4 23 5 21 6 22 7 20 8 13 9 14 10 99 11
REMARK SMILES IDX 15 12 98 13 16 14 17 15 18 16 19 17 12 18 9 20 10 21 11 22
REMARK SMILES IDX 8 23 1 24 2 25 3 26 4 27 7 28 5 29 6 30 28 31 29 32 30 33
REMARK SMILES IDX 31 34 32 35 33 36 34 37 35 38 36 39 97 40 37 41 96 42 38 43
REMARK SMILES IDX 39 44 40 45 90 46 41 47 95 48 89 49 91 50 42 51 94 52 88 53
REMARK SMILES IDX 87 54 43 56 75 57 55 58 74 59 56 60 59 61 73 62 92 63 57 64
REMARK SMILES IDX 58 65 72 67 93 68 60 69 44 70 45 71 53 72 46 73 47 74 51 75
REMARK SMILES IDX 54 76 48 77 49 78 52 79 50 80 76 81 77 82 85 83 78 84 79 85
REMARK SMILES IDX 83 86 86 87 80 88 81 89 84 90 82 91 61 92 62 93 70 94 63 95
REMARK SMILES IDX 64 96 68 97 71 98 65 99 66 100 69 101 67 102
REMARK H PARENT 12 19 91 55 59 66
REMARK Flexibility Score: inf
ROOT
ATOM      1  C   UNL A   1      33.273  28.495  26.055  1.00  0.00     0.188 C 
ENDROOT
BRANCH   1   2
ATOM      2  O   UNL A   1      33.997  28.183  24.880  1.00  0.00    -0.376 OA
BRANCH   2   3
ATOM      3  C   UNL A   1      33.736  28.962  23.721  1.00  0.00     0.202 C 
BRANCH   3   4
ATOM      4  C   UNL A   1      33.617  28.234  22.367  1.00  0.00     0.261 C 
BRANCH   4   5
ATOM      5  O   UNL A   1      33.363  26.816  22.458  1.00  0.00    -0.460 OA
BRANCH   5   6
ATOM      6  C   UNL A   1      32.086  26.409  22.149  1.00  0.00     0.342 C 
ATOM      7  O   UNL A   1      31.750  25.949  21.082  1.00  0.00    -0.246 OA
BRANCH   6   8
ATOM      8  C   UNL A   1      31.230  26.336  23.335  1.00  0.00     0.109 A 
ATOM      9  C   UNL A   1      31.549  23.169  25.437  1.00  0.00     0.050 A 
ATOM     10  C   UNL A   1      30.584  23.517  26.382  1.00  0.00     0.030 A 
ATOM     11  C   UNL A   1      31.983  24.101  24.482  1.00  0.00     0.039 A 
ATOM     12  C   UNL A   1      29.950  24.772  26.330  1.00  0.00     0.050 A 
ATOM     13  C   UNL A   1      31.252  25.290  24.316  1.00  0.00     0.037 A 
ATOM     14  C   UNL A   1      30.285  25.603  25.259  1.00  0.00     0.135 A 
ATOM     15  O   UNL A   1      29.727  26.808  24.957  1.00  0.00    -0.460 OA
ATOM     16  C   UNL A   1      30.312  27.256  23.804  1.00  0.00     0.116 A 
ATOM     17  C   UNL A   1      29.863  28.577  23.322  1.00  0.00     0.088 C 
BRANCH   9  18
ATOM     18  N   UNL A   1      32.064  21.864  25.260  1.00  0.00    -0.280 N 
ATOM     19  H   UNL A   1      31.683  21.158  25.830  1.00  0.00     0.180 HD
BRANCH  18  20
ATOM     20  S   UNL A   1      33.247  21.398  24.189  1.00  0.00     0.262 S 
ATOM     21  O   UNL A   1      33.065  22.146  22.962  1.00  0.00    -0.201 OA
ATOM     22  O   UNL A   1      33.150  19.949  24.180  1.00  0.00    -0.201 OA
BRANCH  20  23
ATOM     23  C   UNL A   1      34.924  21.749  24.742  1.00  0.00     0.090 A 
ATOM     24  C   UNL A   1      34.972  24.342  24.867  1.00  0.00     0.046 C 
ATOM     25  C   UNL A   1      35.579  22.984  24.898  1.00  0.00    -0.028 A 
ATOM     26  C   UNL A   1      36.976  22.987  25.119  1.00  0.00     0.044 A 
ATOM     27  C   UNL A   1      37.676  21.809  25.315  1.00  0.00     0.123 A 
ATOM     28  C   UNL A   1      35.657  20.565  24.996  1.00  0.00     0.025 A 
ATOM     29  F   UNL A   1      38.994  21.857  25.542  1.00  0.00    -0.207 F 
ATOM     30  C   UNL A   1      37.019  20.595  25.298  1.00  0.00     0.040 A 
ENDBRANCH  20  23
ENDBRANCH  18  20
ENDBRANCH   9  18
ENDBRANCH   6   8
ENDBRANCH   5   6
ENDBRANCH   4   5
ENDBRANCH   3   4
ENDBRANCH   2   3
ENDBRANCH   1   2
BRANCH   1  31
ATOM     31  C   UNL A   1      33.953  29.226  27.236  1.00  0.00     0.188 C 
BRANCH  31  32
ATOM     32  O   UNL A   1      34.411  30.534  26.915  1.00  0.00    -0.376 OA
BRANCH  32  33
ATOM     33  C   UNL A   1      34.583  31.411  28.018  1.00  0.00     0.202 C 
BRANCH  33  34
ATOM     34  C   UNL A   1      35.999  31.973  28.172  1.00  0.00     0.261 C 
BRANCH  34  35
ATOM     35  O   UNL A   1      36.647  31.593  29.383  1.00  0.00    -0.460 OA
BRANCH  35  36
ATOM     36  C   UNL A   1      37.778  30.894  29.189  1.00  0.00     0.338 C 
ATOM     37  O   UNL A   1      38.920  31.299  29.333  1.00  0.00    -0.246 OA
BRANCH  36  38
ATOM     38  C   UNL A   1      37.446  29.533  28.698  1.00  0.00     0.060 A 
ATOM     39  C   UNL A   1      37.497  28.582  29.731  1.00  0.00     0.016 A 
ATOM     40  C   UNL A   1      38.048  29.324  27.461  1.00  0.00     0.016 A 
ATOM     41  C   UNL A   1      38.600  27.770  29.761  1.00  0.00     0.010 A 
ATOM     42  C   UNL A   1      39.168  28.548  27.495  1.00  0.00     0.010 A 
ATOM     43  C   UNL A   1      39.485  27.892  28.694  1.00  0.00    -0.014 A 
BRANCH  43  44
ATOM     44  C   UNL A   1      40.825  27.387  28.775  1.00  0.00     0.031 A 
ATOM     45  C   UNL A   1      41.002  25.972  28.482  1.00  0.00     0.074 A 
ATOM     46  C   UNL A   1      41.812  28.248  29.082  1.00  0.00     0.049 A 
ATOM     47  N   UNL A   1      41.941  25.235  28.952  1.00  0.00    -0.248 NA
ATOM     48  C   UNL A   1      40.005  25.244  27.704  1.00  0.00     0.031 C 
ATOM     49  C   UNL A   1      43.243  28.043  28.957  1.00  0.00     0.029 A 
ATOM     50  N   UNL A   1      41.678  29.463  29.769  1.00  0.00    -0.354 N 
ATOM     51  C   UNL A   1      41.870  24.044  28.268  1.00  0.00     0.074 A 
ATOM     52  C   UNL A   1      40.564  24.036  27.659  1.00  0.00     0.031 C 
ATOM     53  C   UNL A   1      43.872  28.937  29.739  1.00  0.00     0.029 A 
ATOM     54  C   UNL A   1      42.857  29.637  30.518  1.00  0.00     0.049 A 
ATOM     55  H   UNL A   1      40.910  30.077  29.734  1.00  0.00     0.167 HD
ATOM     56  C   UNL A   1      43.018  23.325  28.111  1.00  0.00     0.037 A 
ATOM     57  C   UNL A   1      42.777  29.604  31.881  1.00  0.00     0.037 A 
ATOM     58  C   UNL A   1      44.101  23.923  28.905  1.00  0.00     0.049 A 
ATOM     59  C   UNL A   1      43.375  28.354  32.501  1.00  0.00     0.074 A 
ATOM     60  C   UNL A   1      45.108  24.826  28.599  1.00  0.00     0.029 A 
ATOM     61  N   UNL A   1      43.994  23.931  30.287  1.00  0.00    -0.354 N 
ATOM     62  N   UNL A   1      43.792  27.318  31.824  1.00  0.00    -0.248 NA
ATOM     63  C   UNL A   1      43.472  28.150  33.946  1.00  0.00     0.031 C 
ATOM     64  C   UNL A   1      45.545  25.433  29.813  1.00  0.00     0.029 A 
ATOM     65  C   UNL A   1      44.816  24.889  30.856  1.00  0.00     0.049 A 
ATOM     66  H   UNL A   1      43.408  23.329  30.801  1.00  0.00     0.167 HD
ATOM     67  C   UNL A   1      44.207  26.347  32.688  1.00  0.00     0.074 A 
ATOM     68  C   UNL A   1      43.959  26.899  34.009  1.00  0.00     0.031 C 
ATOM     69  C   UNL A   1      44.727  25.153  32.283  1.00  0.00     0.037 A 
BRANCH  56  70
ATOM     70  C   UNL A   1      43.228  22.369  26.956  1.00  0.00     0.064 A 
ATOM     71  C   UNL A   1      42.547  21.136  26.934  1.00  0.00     0.173 A 
ATOM     72  C   UNL A   1      44.148  22.543  25.902  1.00  0.00     0.173 A 
ATOM     73  F   UNL A   1      41.550  20.873  27.790  1.00  0.00    -0.203 F 
ATOM     74  C   UNL A   1      42.863  20.118  26.029  1.00  0.00     0.198 A 
ATOM     75  C   UNL A   1      44.505  21.510  25.031  1.00  0.00     0.198 A 
ATOM     76  F   UNL A   1      44.688  23.734  25.627  1.00  0.00    -0.203 F 
ATOM     77  F   UNL A   1      42.188  18.961  26.073  1.00  0.00    -0.200 F 
ATOM     78  C   UNL A   1      43.871  20.289  25.104  1.00  0.00     0.200 A 
ATOM     79  F   UNL A   1      45.466  21.712  24.118  1.00  0.00    -0.200 F 
ATOM     80  F   UNL A   1      44.204  19.300  24.267  1.00  0.00    -0.200 F 
ENDBRANCH  56  70
BRANCH  57  81
ATOM     81  C   UNL A   1      41.610  30.346  32.435  1.00  0.00     0.064 A 
ATOM     82  C   UNL A   1      41.653  31.754  32.469  1.00  0.00     0.173 A 
ATOM     83  C   UNL A   1      40.376  29.737  32.690  1.00  0.00     0.173 A 
ATOM     84  F   UNL A   1      42.808  32.397  32.232  1.00  0.00    -0.203 F 
ATOM     85  C   UNL A   1      40.505  32.517  32.683  1.00  0.00     0.198 A 
ATOM     86  C   UNL A   1      39.228  30.502  32.916  1.00  0.00     0.198 A 
ATOM     87  F   UNL A   1      40.260  28.401  32.669  1.00  0.00    -0.203 F 
ATOM     88  F   UNL A   1      40.567  33.856  32.623  1.00  0.00    -0.200 F 
ATOM     89  C   UNL A   1      39.291  31.889  32.900  1.00  0.00     0.200 A 
ATOM     90  F   UNL A   1      38.046  29.894  33.100  1.00  0.00    -0.200 F 
ATOM     91  F   UNL A   1      38.174  32.618  33.049  1.00  0.00    -0.200 F 
ENDBRANCH  57  81
BRANCH  69  92
ATOM     92  C   UNL A   1      45.261  24.156  33.258  1.00  0.00     0.064 A 
ATOM     93  C   UNL A   1      44.458  23.117  33.756  1.00  0.00     0.173 A 
ATOM     94  C   UNL A   1      46.547  24.283  33.813  1.00  0.00     0.173 A 
ATOM     95  F   UNL A   1      43.198  22.958  33.323  1.00  0.00    -0.203 F 
ATOM     96  C   UNL A   1      44.931  22.229  34.719  1.00  0.00     0.198 A 
ATOM     97  C   UNL A   1      46.996  23.430  34.817  1.00  0.00     0.198 A 
ATOM     98  F   UNL A   1      47.400  25.222  33.381  1.00  0.00    -0.203 F 
ATOM     99  F   UNL A   1      44.157  21.214  35.126  1.00  0.00    -0.200 F 
ATOM    100  C   UNL A   1      46.195  22.395  35.259  1.00  0.00     0.200 A 
ATOM    101  F   UNL A   1      48.212  23.616  35.352  1.00  0.00    -0.200 F 
ATOM    102  F   UNL A   1      46.641  21.555  36.203  1.00  0.00    -0.200 F 
ENDBRANCH  69  92
ENDBRANCH  43  44
ENDBRANCH  36  38
ENDBRANCH  35  36
ENDBRANCH  34  35
ENDBRANCH  33  34
ENDBRANCH  32  33
ENDBRANCH  31  32
ENDBRANCH   1  31
TORSDOF 20
ENDMDL
