MODEL 1
REMARK VINA RESULT:     -11.1      0.000      0.000
REMARK SMILES O=C(OCCOCCOCCOC(=O)[C@H]1CC[C@H](CNC(=O)c2ccccc2O)O1)c1ccc(-c2c3nc(c(-c4c(F)c(F)c(F)c(F)c4F)c4ccc([nH]4)c(-c4c(F)c(F)c(F)c(F)c4F)c4nc(c(-c5c(F)c(F)c(F)c(F)c5F)c5ccc2[nH]5)C=C4)C=C3)cc1
REMARK SMILES IDX 8 1 7 2 6 3 5 4 4 5 3 6 2 7 1 8 31 9 32 10 93 11 33 12 92 13
REMARK SMILES IDX 34 14 35 15 36 16 86 17 37 18 91 19 85 20 87 21 38 22 90 23
REMARK SMILES IDX 84 24 83 25 39 27 71 28 51 29 70 30 52 31 55 32 69 33 88 34
REMARK SMILES IDX 53 35 54 36 68 38 89 39 56 40 40 41 41 42 49 43 42 44 43 45
REMARK SMILES IDX 47 46 50 47 44 48 45 49 48 50 46 51 72 52 73 53 81 54 74 55
REMARK SMILES IDX 75 56 79 57 82 58 76 59 77 60 80 61 78 62 57 63 58 64 66 65
REMARK SMILES IDX 59 66 60 67 64 68 67 69 61 70 62 71 65 72 63 73 9 74 10 75
REMARK SMILES IDX 11 76 12 77 13 78 14 79 15 80 16 81 30 82 17 83 18 84 19 85
REMARK SMILES IDX 20 86 21 87 22 89 23 90 24 91 28 92 25 93 27 94 26 95 29 96
REMARK H PARENT 87 26 55 37 20 88 29 97
REMARK Flexibility Score: inf
ROOT
ATOM      1  C   UNL A   1      39.776  21.589  26.201  1.00  0.00     0.188 C 
ENDROOT
BRANCH   1   2
ATOM      2  C   UNL A   1      40.313  20.160  26.122  1.00  0.00     0.188 C 
BRANCH   2   3
ATOM      3  O   UNL A   1      41.738  20.071  26.010  1.00  0.00    -0.376 OA
BRANCH   3   4
ATOM      4  C   UNL A   1      42.432  21.257  26.422  1.00  0.00     0.202 C 
BRANCH   4   5
ATOM      5  C   UNL A   1      43.458  21.836  25.428  1.00  0.00     0.261 C 
BRANCH   5   6
ATOM      6  O   UNL A   1      43.057  23.075  24.819  1.00  0.00    -0.460 OA
BRANCH   6   7
ATOM      7  C   UNL A   1      43.494  24.334  25.077  1.00  0.00     0.338 C 
ATOM      8  O   UNL A   1      44.523  24.721  24.527  1.00  0.00    -0.246 OA
BRANCH   7   9
ATOM      9  C   UNL A   1      42.805  25.283  26.009  1.00  0.00     0.060 A 
ATOM     10  C   UNL A   1      43.241  26.573  26.300  1.00  0.00     0.016 A 
ATOM     11  C   UNL A   1      41.608  24.848  26.608  1.00  0.00     0.016 A 
ATOM     12  C   UNL A   1      42.601  27.367  27.235  1.00  0.00     0.010 A 
ATOM     13  C   UNL A   1      40.927  25.656  27.526  1.00  0.00     0.010 A 
ATOM     14  C   UNL A   1      41.462  26.898  27.877  1.00  0.00    -0.014 A 
BRANCH  14  15
ATOM     15  C   UNL A   1      41.025  27.649  29.065  1.00  0.00     0.031 A 
ATOM     16  C   UNL A   1      41.908  27.599  30.276  1.00  0.00     0.074 A 
ATOM     17  C   UNL A   1      39.995  28.508  28.970  1.00  0.00     0.049 A 
ATOM     18  N   UNL A   1      41.777  28.197  31.428  1.00  0.00    -0.248 NA
ATOM     19  C   UNL A   1      43.123  26.772  30.164  1.00  0.00     0.031 C 
ATOM     20  C   UNL A   1      39.192  28.729  27.764  1.00  0.00     0.029 A 
ATOM     21  N   UNL A   1      39.483  29.390  29.880  1.00  0.00    -0.354 N 
ATOM     22  C   UNL A   1      42.867  27.788  32.187  1.00  0.00     0.074 A 
ATOM     23  C   UNL A   1      43.649  26.890  31.371  1.00  0.00     0.031 C 
ATOM     24  C   UNL A   1      38.308  29.711  28.003  1.00  0.00     0.029 A 
ATOM     25  C   UNL A   1      38.436  30.133  29.393  1.00  0.00     0.049 A 
ATOM     26  H   UNL A   1      39.831  29.482  30.797  1.00  0.00     0.167 HD
ATOM     27  C   UNL A   1      43.174  28.133  33.457  1.00  0.00     0.037 A 
ATOM     28  C   UNL A   1      37.659  31.029  30.026  1.00  0.00     0.037 A 
ATOM     29  C   UNL A   1      42.373  29.039  34.233  1.00  0.00     0.049 A 
ATOM     30  C   UNL A   1      37.957  31.313  31.476  1.00  0.00     0.074 A 
ATOM     31  C   UNL A   1      42.532  29.430  35.548  1.00  0.00     0.029 A 
ATOM     32  N   UNL A   1      41.250  29.698  33.747  1.00  0.00    -0.354 N 
ATOM     33  N   UNL A   1      38.942  30.867  32.222  1.00  0.00    -0.248 NA
ATOM     34  C   UNL A   1      37.035  32.214  32.174  1.00  0.00     0.031 C 
ATOM     35  C   UNL A   1      41.466  30.276  35.876  1.00  0.00     0.029 A 
ATOM     36  C   UNL A   1      40.688  30.475  34.743  1.00  0.00     0.049 A 
ATOM     37  H   UNL A   1      40.905  29.623  32.828  1.00  0.00     0.167 HD
ATOM     38  C   UNL A   1      38.778  31.456  33.467  1.00  0.00     0.074 A 
ATOM     39  C   UNL A   1      37.603  32.302  33.368  1.00  0.00     0.031 C 
ATOM     40  C   UNL A   1      39.525  31.317  34.591  1.00  0.00     0.037 A 
BRANCH  27  41
ATOM     41  C   UNL A   1      44.350  27.443  34.087  1.00  0.00     0.064 A 
ATOM     42  C   UNL A   1      45.647  27.977  34.050  1.00  0.00     0.173 A 
ATOM     43  C   UNL A   1      44.180  26.184  34.683  1.00  0.00     0.173 A 
ATOM     44  F   UNL A   1      45.874  29.162  33.462  1.00  0.00    -0.203 F 
ATOM     45  C   UNL A   1      46.735  27.258  34.544  1.00  0.00     0.198 A 
ATOM     46  C   UNL A   1      45.262  25.483  35.207  1.00  0.00     0.198 A 
ATOM     47  F   UNL A   1      42.963  25.621  34.738  1.00  0.00    -0.203 F 
ATOM     48  F   UNL A   1      47.974  27.752  34.423  1.00  0.00    -0.200 F 
ATOM     49  C   UNL A   1      46.540  26.013  35.124  1.00  0.00     0.200 A 
ATOM     50  F   UNL A   1      45.070  24.282  35.770  1.00  0.00    -0.200 F 
ATOM     51  F   UNL A   1      47.588  25.315  35.585  1.00  0.00    -0.200 F 
ENDBRANCH  27  41
BRANCH  28  52
ATOM     52  C   UNL A   1      36.524  31.683  29.318  1.00  0.00     0.064 A 
ATOM     53  C   UNL A   1      35.411  30.948  28.890  1.00  0.00     0.173 A 
ATOM     54  C   UNL A   1      36.535  33.059  29.042  1.00  0.00     0.173 A 
ATOM     55  F   UNL A   1      35.354  29.626  29.113  1.00  0.00    -0.203 F 
ATOM     56  C   UNL A   1      34.365  31.558  28.196  1.00  0.00     0.198 A 
ATOM     57  C   UNL A   1      35.476  33.674  28.378  1.00  0.00     0.198 A 
ATOM     58  F   UNL A   1      37.575  33.814  29.428  1.00  0.00    -0.203 F 
ATOM     59  F   UNL A   1      33.336  30.821  27.758  1.00  0.00    -0.200 F 
ATOM     60  C   UNL A   1      34.396  32.921  27.946  1.00  0.00     0.200 A 
ATOM     61  F   UNL A   1      35.504  34.996  28.156  1.00  0.00    -0.200 F 
ATOM     62  F   UNL A   1      33.389  33.508  27.284  1.00  0.00    -0.200 F 
ENDBRANCH  28  52
BRANCH  40  63
ATOM     63  C   UNL A   1      39.130  32.149  35.775  1.00  0.00     0.064 A 
ATOM     64  C   UNL A   1      38.295  31.653  36.786  1.00  0.00     0.173 A 
ATOM     65  C   UNL A   1      39.636  33.451  35.915  1.00  0.00     0.173 A 
ATOM     66  F   UNL A   1      37.776  30.419  36.690  1.00  0.00    -0.203 F 
ATOM     67  C   UNL A   1      37.951  32.445  37.878  1.00  0.00     0.198 A 
ATOM     68  C   UNL A   1      39.322  34.224  37.026  1.00  0.00     0.198 A 
ATOM     69  F   UNL A   1      40.448  33.965  34.978  1.00  0.00    -0.203 F 
ATOM     70  F   UNL A   1      37.105  31.975  38.803  1.00  0.00    -0.200 F 
ATOM     71  C   UNL A   1      38.473  33.726  38.002  1.00  0.00     0.200 A 
ATOM     72  F   UNL A   1      39.843  35.452  37.152  1.00  0.00    -0.200 F 
ATOM     73  F   UNL A   1      38.150  34.482  39.058  1.00  0.00    -0.200 F 
ENDBRANCH  40  63
ENDBRANCH  14  15
ENDBRANCH   7   9
ENDBRANCH   6   7
ENDBRANCH   5   6
ENDBRANCH   4   5
ENDBRANCH   3   4
ENDBRANCH   2   3
ENDBRANCH   1   2
BRANCH   1  74
ATOM     74  O   UNL A   1      38.369  21.765  26.059  1.00  0.00    -0.376 OA
BRANCH  74  75
ATOM     75  C   UNL A   1      37.747  21.202  24.911  1.00  0.00     0.202 C 
BRANCH  75  76
ATOM     76  C   UNL A   1      36.283  20.752  25.027  1.00  0.00     0.261 C 
BRANCH  76  77
ATOM     77  O   UNL A   1      35.486  21.506  25.954  1.00  0.00    -0.461 OA
BRANCH  77  78
ATOM     78  C   UNL A   1      34.136  21.325  25.842  1.00  0.00     0.335 C 
ATOM     79  O   UNL A   1      33.580  20.236  25.849  1.00  0.00    -0.249 OA
BRANCH  78  80
ATOM     80  C   UNL A   1      33.398  22.675  25.727  1.00  0.00     0.228 C 
ATOM     81  C   UNL A   1      34.106  23.570  24.728  1.00  0.00     0.047 C 
ATOM     82  O   UNL A   1      32.051  22.564  25.240  1.00  0.00    -0.361 OA
ATOM     83  C   UNL A   1      33.477  23.148  23.421  1.00  0.00     0.037 C 
ATOM     84  C   UNL A   1      32.038  22.835  23.817  1.00  0.00     0.138 C 
BRANCH  84  85
ATOM     85  C   UNL A   1      31.061  23.984  23.510  1.00  0.00     0.148 C 
BRANCH  85  86
ATOM     86  N   UNL A   1      30.287  24.389  24.679  1.00  0.00    -0.349 N 
ATOM     87  C   UNL A   1      30.438  25.467  25.507  1.00  0.00     0.255 C 
ATOM     88  H   UNL A   1      29.539  23.791  24.908  1.00  0.00     0.163 HD
ATOM     89  O   UNL A   1      29.715  25.569  26.500  1.00  0.00    -0.269 OA
BRANCH  87  90
ATOM     90  C   UNL A   1      31.491  26.474  25.276  1.00  0.00     0.081 A 
ATOM     91  C   UNL A   1      32.584  26.463  26.156  1.00  0.00     0.018 A 
ATOM     92  C   UNL A   1      31.404  27.463  24.292  1.00  0.00     0.128 A 
ATOM     93  C   UNL A   1      33.606  27.400  26.014  1.00  0.00     0.001 A 
ATOM     94  C   UNL A   1      32.432  28.397  24.148  1.00  0.00     0.047 A 
ATOM     95  C   UNL A   1      33.534  28.359  25.005  1.00  0.00     0.004 A 
BRANCH  92  96
ATOM     96  O   UNL A   1      30.310  27.538  23.474  1.00  0.00    -0.507 OA
ATOM     97  H   UNL A   1      29.777  28.309  23.473  1.00  0.00     0.293 HD
ENDBRANCH  92  96
ENDBRANCH  87  90
ENDBRANCH  85  86
ENDBRANCH  84  85
ENDBRANCH  78  80
ENDBRANCH  77  78
ENDBRANCH  76  77
ENDBRANCH  75  76
ENDBRANCH  74  75
ENDBRANCH   1  74
TORSDOF 21
ENDMDL
MODEL 2
REMARK VINA RESULT:     -10.8      1.147      7.250
REMARK SMILES O=C(OCCOCCOCCOC(=O)[C@H]1CC[C@H](CNC(=O)c2ccccc2O)O1)c1ccc(-c2c3nc(c(-c4c(F)c(F)c(F)c(F)c4F)c4ccc([nH]4)c(-c4c(F)c(F)c(F)c(F)c4F)c4nc(c(-c5c(F)c(F)c(F)c(F)c5F)c5ccc2[nH]5)C=C4)C=C3)cc1
REMARK SMILES IDX 8 1 7 2 6 3 5 4 4 5 3 6 2 7 1 8 31 9 32 10 93 11 33 12 92 13
REMARK SMILES IDX 34 14 35 15 36 16 86 17 37 18 91 19 85 20 87 21 38 22 90 23
REMARK SMILES IDX 84 24 83 25 39 27 71 28 51 29 70 30 52 31 55 32 69 33 88 34
REMARK SMILES IDX 53 35 54 36 68 38 89 39 56 40 40 41 41 42 49 43 42 44 43 45
REMARK SMILES IDX 47 46 50 47 44 48 45 49 48 50 46 51 72 52 73 53 81 54 74 55
REMARK SMILES IDX 75 56 79 57 82 58 76 59 77 60 80 61 78 62 57 63 58 64 66 65
REMARK SMILES IDX 59 66 60 67 64 68 67 69 61 70 62 71 65 72 63 73 9 74 10 75
REMARK SMILES IDX 11 76 12 77 13 78 14 79 15 80 16 81 30 82 17 83 18 84 19 85
REMARK SMILES IDX 20 86 21 87 22 89 23 90 24 91 28 92 25 93 27 94 26 95 29 96
REMARK H PARENT 87 26 55 37 20 88 29 97
REMARK Flexibility Score: inf
ROOT
ATOM      1  C   UNL A   1      40.273  20.947  26.543  1.00  0.00     0.188 C 
ENDROOT
BRANCH   1   2
ATOM      2  C   UNL A   1      41.508  21.742  26.123  1.00  0.00     0.188 C 
BRANCH   2   3
ATOM      3  O   UNL A   1      42.545  20.951  25.529  1.00  0.00    -0.376 OA
BRANCH   3   4
ATOM      4  C   UNL A   1      43.823  21.601  25.485  1.00  0.00     0.202 C 
BRANCH   4   5
ATOM      5  C   UNL A   1      44.009  22.683  24.403  1.00  0.00     0.261 C 
BRANCH   5   6
ATOM      6  O   UNL A   1      43.345  23.926  24.690  1.00  0.00    -0.460 OA
BRANCH   6   7
ATOM      7  C   UNL A   1      43.869  25.083  25.171  1.00  0.00     0.338 C 
ATOM      8  O   UNL A   1      44.985  25.425  24.785  1.00  0.00    -0.246 OA
BRANCH   7   9
ATOM      9  C   UNL A   1      43.174  25.966  26.160  1.00  0.00     0.060 A 
ATOM     10  C   UNL A   1      43.370  27.340  26.279  1.00  0.00     0.016 A 
ATOM     11  C   UNL A   1      42.228  25.367  27.012  1.00  0.00     0.016 A 
ATOM     12  C   UNL A   1      42.756  28.083  27.271  1.00  0.00     0.010 A 
ATOM     13  C   UNL A   1      41.568  26.113  27.995  1.00  0.00     0.010 A 
ATOM     14  C   UNL A   1      41.880  27.466  28.155  1.00  0.00    -0.014 A 
BRANCH  14  15
ATOM     15  C   UNL A   1      41.516  28.233  29.357  1.00  0.00     0.031 A 
ATOM     16  C   UNL A   1      40.237  29.014  29.317  1.00  0.00     0.074 A 
ATOM     17  C   UNL A   1      42.201  28.047  30.499  1.00  0.00     0.049 A 
ATOM     18  N   UNL A   1      39.669  29.733  30.246  1.00  0.00    -0.248 NA
ATOM     19  C   UNL A   1      39.477  28.958  28.054  1.00  0.00     0.031 C 
ATOM     20  C   UNL A   1      43.363  27.168  30.650  1.00  0.00     0.029 A 
ATOM     21  N   UNL A   1      41.989  28.542  31.756  1.00  0.00    -0.354 N 
ATOM     22  C   UNL A   1      38.514  30.245  29.668  1.00  0.00     0.074 A 
ATOM     23  C   UNL A   1      38.458  29.759  28.310  1.00  0.00     0.031 C 
ATOM     24  C   UNL A   1      43.741  27.162  31.938  1.00  0.00     0.029 A 
ATOM     25  C   UNL A   1      42.896  28.088  32.682  1.00  0.00     0.049 A 
ATOM     26  H   UNL A   1      41.258  29.164  31.975  1.00  0.00     0.167 HD
ATOM     27  C   UNL A   1      37.590  31.056  30.230  1.00  0.00     0.037 A 
ATOM     28  C   UNL A   1      43.029  28.421  33.978  1.00  0.00     0.037 A 
ATOM     29  C   UNL A   1      37.677  31.510  31.591  1.00  0.00     0.049 A 
ATOM     30  C   UNL A   1      42.050  29.413  34.551  1.00  0.00     0.074 A 
ATOM     31  C   UNL A   1      36.848  32.379  32.272  1.00  0.00     0.029 A 
ATOM     32  N   UNL A   1      38.672  31.118  32.481  1.00  0.00    -0.354 N 
ATOM     33  N   UNL A   1      41.000  29.961  33.984  1.00  0.00    -0.248 NA
ATOM     34  C   UNL A   1      42.277  29.840  35.935  1.00  0.00     0.031 C 
ATOM     35  C   UNL A   1      37.378  32.563  33.554  1.00  0.00     0.029 A 
ATOM     36  C   UNL A   1      38.493  31.748  33.699  1.00  0.00     0.049 A 
ATOM     37  H   UNL A   1      39.397  30.485  32.274  1.00  0.00     0.167 HD
ATOM     38  C   UNL A   1      40.422  30.773  34.949  1.00  0.00     0.074 A 
ATOM     39  C   UNL A   1      41.236  30.632  36.142  1.00  0.00     0.031 C 
ATOM     40  C   UNL A   1      39.321  31.562  34.866  1.00  0.00     0.037 A 
BRANCH  27  41
ATOM     41  C   UNL A   1      36.495  31.567  29.339  1.00  0.00     0.064 A 
ATOM     42  C   UNL A   1      36.410  32.910  28.941  1.00  0.00     0.173 A 
ATOM     43  C   UNL A   1      35.470  30.699  28.931  1.00  0.00     0.173 A 
ATOM     44  F   UNL A   1      37.344  33.791  29.331  1.00  0.00    -0.203 F 
ATOM     45  C   UNL A   1      35.318  33.374  28.207  1.00  0.00     0.198 A 
ATOM     46  C   UNL A   1      34.399  31.158  28.169  1.00  0.00     0.198 A 
ATOM     47  F   UNL A   1      35.495  29.407  29.290  1.00  0.00    -0.203 F 
ATOM     48  F   UNL A   1      35.218  34.677  27.910  1.00  0.00    -0.200 F 
ATOM     49  C   UNL A   1      34.316  32.497  27.820  1.00  0.00     0.200 A 
ATOM     50  F   UNL A   1      33.435  30.307  27.793  1.00  0.00    -0.200 F 
ATOM     51  F   UNL A   1      33.260  32.947  27.129  1.00  0.00    -0.200 F 
ENDBRANCH  27  41
BRANCH  28  52
ATOM     52  C   UNL A   1      44.134  27.850  34.797  1.00  0.00     0.064 A 
ATOM     53  C   UNL A   1      43.948  26.698  35.573  1.00  0.00     0.173 A 
ATOM     54  C   UNL A   1      45.400  28.455  34.831  1.00  0.00     0.173 A 
ATOM     55  F   UNL A   1      42.753  26.089  35.591  1.00  0.00    -0.203 F 
ATOM     56  C   UNL A   1      44.975  26.187  36.366  1.00  0.00     0.198 A 
ATOM     57  C   UNL A   1      46.437  27.924  35.598  1.00  0.00     0.198 A 
ATOM     58  F   UNL A   1      45.638  29.559  34.108  1.00  0.00    -0.203 F 
ATOM     59  F   UNL A   1      44.753  25.112  37.134  1.00  0.00    -0.200 F 
ATOM     60  C   UNL A   1      46.220  26.796  36.373  1.00  0.00     0.200 A 
ATOM     61  F   UNL A   1      47.643  28.508  35.585  1.00  0.00    -0.200 F 
ATOM     62  F   UNL A   1      47.209  26.302  37.130  1.00  0.00    -0.200 F 
ENDBRANCH  28  52
BRANCH  40  63
ATOM     63  C   UNL A   1      38.901  32.275  36.117  1.00  0.00     0.064 A 
ATOM     64  C   UNL A   1      38.085  31.667  37.081  1.00  0.00     0.173 A 
ATOM     65  C   UNL A   1      39.365  33.576  36.369  1.00  0.00     0.173 A 
ATOM     66  F   UNL A   1      37.607  30.430  36.878  1.00  0.00    -0.203 F 
ATOM     67  C   UNL A   1      37.718  32.350  38.236  1.00  0.00     0.198 A 
ATOM     68  C   UNL A   1      39.029  34.239  37.543  1.00  0.00     0.198 A 
ATOM     69  F   UNL A   1      40.158  34.196  35.481  1.00  0.00    -0.203 F 
ATOM     70  F   UNL A   1      36.890  31.774  39.117  1.00  0.00    -0.200 F 
ATOM     71  C   UNL A   1      38.198  33.631  38.471  1.00  0.00     0.200 A 
ATOM     72  F   UNL A   1      39.510  35.468  37.776  1.00  0.00    -0.200 F 
ATOM     73  F   UNL A   1      37.853  34.282  39.589  1.00  0.00    -0.200 F 
ENDBRANCH  40  63
ENDBRANCH  14  15
ENDBRANCH   7   9
ENDBRANCH   6   7
ENDBRANCH   5   6
ENDBRANCH   4   5
ENDBRANCH   3   4
ENDBRANCH   2   3
ENDBRANCH   1   2
BRANCH   1  74
ATOM     74  O   UNL A   1      39.001  21.526  26.269  1.00  0.00    -0.376 OA
BRANCH  74  75
ATOM     75  C   UNL A   1      38.177  20.885  25.303  1.00  0.00     0.202 C 
BRANCH  75  76
ATOM     76  C   UNL A   1      36.660  21.108  25.381  1.00  0.00     0.261 C 
BRANCH  76  77
ATOM     77  O   UNL A   1      36.257  22.457  25.666  1.00  0.00    -0.461 OA
BRANCH  77  78
ATOM     78  C   UNL A   1      34.917  22.634  25.866  1.00  0.00     0.335 C 
ATOM     79  O   UNL A   1      34.241  21.984  26.651  1.00  0.00    -0.249 OA
BRANCH  78  80
ATOM     80  C   UNL A   1      34.366  23.778  24.989  1.00  0.00     0.228 C 
ATOM     81  C   UNL A   1      34.757  23.554  23.540  1.00  0.00     0.047 C 
ATOM     82  O   UNL A   1      32.933  23.868  24.980  1.00  0.00    -0.361 OA
ATOM     83  C   UNL A   1      33.636  22.671  23.042  1.00  0.00     0.037 C 
ATOM     84  C   UNL A   1      32.423  23.192  23.804  1.00  0.00     0.138 C 
BRANCH  84  85
ATOM     85  C   UNL A   1      31.555  24.158  22.978  1.00  0.00     0.148 C 
BRANCH  85  86
ATOM     86  N   UNL A   1      32.215  24.595  21.751  1.00  0.00    -0.349 N 
ATOM     87  C   UNL A   1      32.715  25.821  21.408  1.00  0.00     0.255 C 
ATOM     88  H   UNL A   1      32.315  23.898  21.064  1.00  0.00     0.163 HD
ATOM     89  O   UNL A   1      33.159  25.993  20.270  1.00  0.00    -0.269 OA
BRANCH  87  90
ATOM     90  C   UNL A   1      32.671  26.961  22.343  1.00  0.00     0.081 A 
ATOM     91  C   UNL A   1      33.791  27.150  23.166  1.00  0.00     0.018 A 
ATOM     92  C   UNL A   1      31.553  27.787  22.493  1.00  0.00     0.128 A 
ATOM     93  C   UNL A   1      33.811  28.193  24.092  1.00  0.00     0.001 A 
ATOM     94  C   UNL A   1      31.577  28.834  23.416  1.00  0.00     0.047 A 
ATOM     95  C   UNL A   1      32.709  29.039  24.209  1.00  0.00     0.004 A 
BRANCH  92  96
ATOM     96  O   UNL A   1      30.423  27.571  21.754  1.00  0.00    -0.507 OA
ATOM     97  H   UNL A   1      29.682  27.147  22.142  1.00  0.00     0.293 HD
ENDBRANCH  92  96
ENDBRANCH  87  90
ENDBRANCH  85  86
ENDBRANCH  84  85
ENDBRANCH  78  80
ENDBRANCH  77  78
ENDBRANCH  76  77
ENDBRANCH  75  76
ENDBRANCH  74  75
ENDBRANCH   1  74
TORSDOF 21
ENDMDL
MODEL 3
REMARK VINA RESULT:     -10.5      5.220      7.611
REMARK SMILES O=C(OCCOCCOCCOC(=O)[C@H]1CC[C@H](CNC(=O)c2ccccc2O)O1)c1ccc(-c2c3nc(c(-c4c(F)c(F)c(F)c(F)c4F)c4ccc([nH]4)c(-c4c(F)c(F)c(F)c(F)c4F)c4nc(c(-c5c(F)c(F)c(F)c(F)c5F)c5ccc2[nH]5)C=C4)C=C3)cc1
REMARK SMILES IDX 8 1 7 2 6 3 5 4 4 5 3 6 2 7 1 8 31 9 32 10 93 11 33 12 92 13
REMARK SMILES IDX 34 14 35 15 36 16 86 17 37 18 91 19 85 20 87 21 38 22 90 23
REMARK SMILES IDX 84 24 83 25 39 27 71 28 51 29 70 30 52 31 55 32 69 33 88 34
REMARK SMILES IDX 53 35 54 36 68 38 89 39 56 40 40 41 41 42 49 43 42 44 43 45
REMARK SMILES IDX 47 46 50 47 44 48 45 49 48 50 46 51 72 52 73 53 81 54 74 55
REMARK SMILES IDX 75 56 79 57 82 58 76 59 77 60 80 61 78 62 57 63 58 64 66 65
REMARK SMILES IDX 59 66 60 67 64 68 67 69 61 70 62 71 65 72 63 73 9 74 10 75
REMARK SMILES IDX 11 76 12 77 13 78 14 79 15 80 16 81 30 82 17 83 18 84 19 85
REMARK SMILES IDX 20 86 21 87 22 89 23 90 24 91 28 92 25 93 27 94 26 95 29 96
REMARK H PARENT 87 26 55 37 20 88 29 97
REMARK Flexibility Score: inf
ROOT
ATOM      1  C   UNL A   1      39.291  22.600  26.499  1.00  0.00     0.188 C 
ENDROOT
BRANCH   1   2
ATOM      2  C   UNL A   1      40.731  22.193  26.809  1.00  0.00     0.188 C 
BRANCH   2   3
ATOM      3  O   UNL A   1      41.180  21.030  26.106  1.00  0.00    -0.376 OA
BRANCH   3   4
ATOM      4  C   UNL A   1      41.527  19.929  26.958  1.00  0.00     0.202 C 
BRANCH   4   5
ATOM      5  C   UNL A   1      42.445  18.850  26.351  1.00  0.00     0.261 C 
BRANCH   5   6
ATOM      6  O   UNL A   1      42.862  19.121  25.001  1.00  0.00    -0.460 OA
BRANCH   6   7
ATOM      7  C   UNL A   1      44.040  19.627  24.557  1.00  0.00     0.338 C 
ATOM      8  O   UNL A   1      44.724  18.942  23.799  1.00  0.00    -0.246 OA
BRANCH   7   9
ATOM      9  C   UNL A   1      44.571  20.972  24.947  1.00  0.00     0.060 A 
ATOM     10  C   UNL A   1      45.260  21.246  26.126  1.00  0.00     0.016 A 
ATOM     11  C   UNL A   1      44.388  22.030  24.037  1.00  0.00     0.016 A 
ATOM     12  C   UNL A   1      45.651  22.530  26.462  1.00  0.00     0.010 A 
ATOM     13  C   UNL A   1      44.815  23.327  24.346  1.00  0.00     0.010 A 
ATOM     14  C   UNL A   1      45.399  23.581  25.590  1.00  0.00    -0.014 A 
BRANCH  14  15
ATOM     15  C   UNL A   1      45.551  24.938  26.139  1.00  0.00     0.031 A 
ATOM     16  C   UNL A   1      46.871  25.619  25.937  1.00  0.00     0.074 A 
ATOM     17  C   UNL A   1      44.473  25.596  26.599  1.00  0.00     0.049 A 
ATOM     18  N   UNL A   1      47.251  26.820  26.281  1.00  0.00    -0.248 NA
ATOM     19  C   UNL A   1      47.904  24.844  25.226  1.00  0.00     0.031 C 
ATOM     20  C   UNL A   1      43.117  25.045  26.670  1.00  0.00     0.029 A 
ATOM     21  N   UNL A   1      44.336  26.882  27.042  1.00  0.00    -0.354 N 
ATOM     22  C   UNL A   1      48.573  26.926  25.865  1.00  0.00     0.074 A 
ATOM     23  C   UNL A   1      48.933  25.673  25.247  1.00  0.00     0.031 C 
ATOM     24  C   UNL A   1      42.279  26.002  27.100  1.00  0.00     0.029 A 
ATOM     25  C   UNL A   1      43.050  27.203  27.401  1.00  0.00     0.049 A 
ATOM     26  H   UNL A   1      45.087  27.516  27.098  1.00  0.00     0.167 HD
ATOM     27  C   UNL A   1      49.406  27.981  26.001  1.00  0.00     0.037 A 
ATOM     28  C   UNL A   1      42.573  28.339  27.940  1.00  0.00     0.037 A 
ATOM     29  C   UNL A   1      49.004  29.218  26.615  1.00  0.00     0.049 A 
ATOM     30  C   UNL A   1      43.549  29.462  28.181  1.00  0.00     0.074 A 
ATOM     31  C   UNL A   1      49.758  30.345  26.872  1.00  0.00     0.029 A 
ATOM     32  N   UNL A   1      47.716  29.478  27.070  1.00  0.00    -0.354 N 
ATOM     33  N   UNL A   1      44.820  29.537  27.862  1.00  0.00    -0.248 NA
ATOM     34  C   UNL A   1      43.029  30.650  28.865  1.00  0.00     0.031 C 
ATOM     35  C   UNL A   1      48.942  31.264  27.542  1.00  0.00     0.029 A 
ATOM     36  C   UNL A   1      47.659  30.741  27.632  1.00  0.00     0.049 A 
ATOM     37  H   UNL A   1      46.957  28.856  27.003  1.00  0.00     0.167 HD
ATOM     38  C   UNL A   1      45.246  30.791  28.275  1.00  0.00     0.074 A 
ATOM     39  C   UNL A   1      44.089  31.445  28.858  1.00  0.00     0.031 C 
ATOM     40  C   UNL A   1      46.476  31.357  28.184  1.00  0.00     0.037 A 
BRANCH  27  41
ATOM     41  C   UNL A   1      50.832  27.786  25.575  1.00  0.00     0.064 A 
ATOM     42  C   UNL A   1      51.242  27.890  24.236  1.00  0.00     0.173 A 
ATOM     43  C   UNL A   1      51.798  27.418  26.525  1.00  0.00     0.173 A 
ATOM     44  F   UNL A   1      50.353  28.204  23.280  1.00  0.00    -0.203 F 
ATOM     45  C   UNL A   1      52.550  27.589  23.860  1.00  0.00     0.198 A 
ATOM     46  C   UNL A   1      53.112  27.153  26.151  1.00  0.00     0.198 A 
ATOM     47  F   UNL A   1      51.461  27.294  27.818  1.00  0.00    -0.203 F 
ATOM     48  F   UNL A   1      52.896  27.616  22.565  1.00  0.00    -0.200 F 
ATOM     49  C   UNL A   1      53.484  27.224  24.818  1.00  0.00     0.200 A 
ATOM     50  F   UNL A   1      54.013  26.804  27.080  1.00  0.00    -0.200 F 
ATOM     51  F   UNL A   1      54.737  26.921  24.453  1.00  0.00    -0.200 F 
ENDBRANCH  27  41
BRANCH  28  52
ATOM     52  C   UNL A   1      41.137  28.455  28.315  1.00  0.00     0.064 A 
ATOM     53  C   UNL A   1      40.679  28.061  29.579  1.00  0.00     0.173 A 
ATOM     54  C   UNL A   1      40.187  28.953  27.410  1.00  0.00     0.173 A 
ATOM     55  F   UNL A   1      41.540  27.562  30.478  1.00  0.00    -0.203 F 
ATOM     56  C   UNL A   1      39.327  28.138  29.915  1.00  0.00     0.198 A 
ATOM     57  C   UNL A   1      38.842  29.062  27.756  1.00  0.00     0.198 A 
ATOM     58  F   UNL A   1      40.567  29.347  26.185  1.00  0.00    -0.203 F 
ATOM     59  F   UNL A   1      38.911  27.709  31.113  1.00  0.00    -0.200 F 
ATOM     60  C   UNL A   1      38.411  28.645  29.006  1.00  0.00     0.200 A 
ATOM     61  F   UNL A   1      37.965  29.570  26.879  1.00  0.00    -0.200 F 
ATOM     62  F   UNL A   1      37.113  28.725  29.329  1.00  0.00    -0.200 F 
ENDBRANCH  28  52
BRANCH  40  63
ATOM     63  C   UNL A   1      46.609  32.772  28.664  1.00  0.00     0.064 A 
ATOM     64  C   UNL A   1      46.375  33.867  27.822  1.00  0.00     0.173 A 
ATOM     65  C   UNL A   1      46.936  33.026  30.006  1.00  0.00     0.173 A 
ATOM     66  F   UNL A   1      46.073  33.674  26.530  1.00  0.00    -0.203 F 
ATOM     67  C   UNL A   1      46.498  35.169  28.298  1.00  0.00     0.198 A 
ATOM     68  C   UNL A   1      47.019  34.328  30.487  1.00  0.00     0.198 A 
ATOM     69  F   UNL A   1      47.160  32.009  30.853  1.00  0.00    -0.203 F 
ATOM     70  F   UNL A   1      46.327  36.203  27.464  1.00  0.00    -0.200 F 
ATOM     71  C   UNL A   1      46.810  35.399  29.631  1.00  0.00     0.200 A 
ATOM     72  F   UNL A   1      47.301  34.545  31.778  1.00  0.00    -0.200 F 
ATOM     73  F   UNL A   1      46.917  36.652  30.089  1.00  0.00    -0.200 F 
ENDBRANCH  40  63
ENDBRANCH  14  15
ENDBRANCH   7   9
ENDBRANCH   6   7
ENDBRANCH   5   6
ENDBRANCH   4   5
ENDBRANCH   3   4
ENDBRANCH   2   3
ENDBRANCH   1   2
BRANCH   1  74
ATOM     74  O   UNL A   1      38.509  21.691  25.729  1.00  0.00    -0.376 OA
BRANCH  74  75
ATOM     75  C   UNL A   1      37.226  22.126  25.298  1.00  0.00     0.202 C 
BRANCH  75  76
ATOM     76  C   UNL A   1      36.152  21.062  25.028  1.00  0.00     0.261 C 
BRANCH  76  77
ATOM     77  O   UNL A   1      34.893  21.572  24.561  1.00  0.00    -0.461 OA
BRANCH  77  78
ATOM     78  C   UNL A   1      33.970  21.824  25.537  1.00  0.00     0.335 C 
ATOM     79  O   UNL A   1      33.902  21.223  26.599  1.00  0.00    -0.249 OA
BRANCH  78  80
ATOM     80  C   UNL A   1      33.036  22.985  25.136  1.00  0.00     0.228 C 
ATOM     81  C   UNL A   1      33.083  24.076  26.190  1.00  0.00     0.047 C 
ATOM     82  O   UNL A   1      33.406  23.636  23.910  1.00  0.00    -0.361 OA
ATOM     83  C   UNL A   1      34.262  24.905  25.737  1.00  0.00     0.037 C 
ATOM     84  C   UNL A   1      34.176  24.824  24.217  1.00  0.00     0.138 C 
BRANCH  84  85
ATOM     85  C   UNL A   1      33.512  26.059  23.580  1.00  0.00     0.148 C 
BRANCH  85  86
ATOM     86  N   UNL A   1      32.057  25.954  23.538  1.00  0.00    -0.349 N 
ATOM     87  C   UNL A   1      31.104  26.616  24.262  1.00  0.00     0.255 C 
ATOM     88  H   UNL A   1      31.707  25.304  22.886  1.00  0.00     0.163 HD
ATOM     89  O   UNL A   1      29.919  26.304  24.124  1.00  0.00    -0.269 OA
BRANCH  87  90
ATOM     90  C   UNL A   1      31.467  27.645  25.254  1.00  0.00     0.081 A 
ATOM     91  C   UNL A   1      31.403  27.276  26.605  1.00  0.00     0.018 A 
ATOM     92  C   UNL A   1      31.785  28.964  24.910  1.00  0.00     0.128 A 
ATOM     93  C   UNL A   1      31.709  28.204  27.600  1.00  0.00     0.001 A 
ATOM     94  C   UNL A   1      32.096  29.889  25.907  1.00  0.00     0.047 A 
ATOM     95  C   UNL A   1      32.064  29.506  27.250  1.00  0.00     0.004 A 
BRANCH  92  96
ATOM     96  O   UNL A   1      31.777  29.363  23.602  1.00  0.00    -0.507 OA
ATOM     97  H   UNL A   1      32.340  28.944  22.980  1.00  0.00     0.293 HD
ENDBRANCH  92  96
ENDBRANCH  87  90
ENDBRANCH  85  86
ENDBRANCH  84  85
ENDBRANCH  78  80
ENDBRANCH  77  78
ENDBRANCH  76  77
ENDBRANCH  75  76
ENDBRANCH  74  75
ENDBRANCH   1  74
TORSDOF 21
ENDMDL
