MODEL 1
REMARK VINA RESULT:     -11.0      0.000      0.000
REMARK SMILES [NH3+]Cc1c(-c2ccccc2)c(C(=O)OCCOCCOCCOC(=O)c2ccc(-c3c4nc(c(-c5c(F)c(F)c(F)c(F)c5F)c5ccc([nH]5)c(-c5c(F)c(F)c(F)c(F)c5F)c5nc(c(-c6c(F)c(F)c(F)c(F)c6F)c6ccc3[nH]6)C=C5)C=C4)cc2)c2ccccn12
REMARK SMILES IDX 18 1 17 2 16 3 15 4 14 5 12 6 13 7 11 8 3 9 4 10 94 11 89 12
REMARK SMILES IDX 93 13 90 14 92 15 91 16 2 17 1 18 5 22 6 23 10 24 7 25 9 26
REMARK SMILES IDX 8 27 19 28 20 29 21 30 22 31 23 32 24 33 25 34 26 35 27 36
REMARK SMILES IDX 88 37 28 38 87 39 29 40 30 41 31 42 81 43 32 44 86 45 80 46
REMARK SMILES IDX 82 47 33 48 85 49 79 50 78 51 34 53 66 54 46 55 65 56 47 57
REMARK SMILES IDX 50 58 64 59 83 60 48 61 49 62 63 64 84 65 51 66 35 67 36 68
REMARK SMILES IDX 44 69 37 70 38 71 42 72 45 73 39 74 40 75 43 76 41 77 67 78
REMARK SMILES IDX 68 79 76 80 69 81 70 82 74 83 77 84 71 85 72 86 75 87 73 88
REMARK SMILES IDX 52 89 53 90 61 91 54 92 55 93 59 94 62 95 56 96 57 97 60 98
REMARK SMILES IDX 58 99
REMARK H PARENT 1 19 1 20 1 21 82 52 50 63
REMARK Flexibility Score: inf
ROOT
ATOM      1  C   UNL A   1      35.130  32.199  28.170  1.00  0.00     0.188 C 
ENDROOT
BRANCH   1   2
ATOM      2  O   UNL A   1      34.636  30.864  28.188  1.00  0.00    -0.376 OA
BRANCH   2   3
ATOM      3  C   UNL A   1      33.677  30.562  27.179  1.00  0.00     0.202 C 
BRANCH   3   4
ATOM      4  C   UNL A   1      34.034  29.266  26.451  1.00  0.00     0.261 C 
BRANCH   4   5
ATOM      5  O   UNL A   1      33.612  28.083  27.146  1.00  0.00    -0.460 OA
BRANCH   5   6
ATOM      6  C   UNL A   1      32.299  27.736  27.045  1.00  0.00     0.341 C 
ATOM      7  O   UNL A   1      31.486  27.909  27.945  1.00  0.00    -0.246 OA
BRANCH   6   8
ATOM      8  C   UNL A   1      31.954  27.223  25.718  1.00  0.00     0.093 A 
ATOM      9  C   UNL A   1      31.661  25.785  23.936  1.00  0.00     0.086 A 
ATOM     10  C   UNL A   1      32.198  25.908  25.218  1.00  0.00     0.024 A 
ATOM     11  N   UNL A   1      31.198  27.053  23.579  1.00  0.00    -0.314 N 
ATOM     12  C   UNL A   1      31.288  27.890  24.704  1.00  0.00     0.061 A 
ATOM     13  C   UNL A   1      30.701  27.542  22.361  1.00  0.00     0.092 A 
ATOM     14  C   UNL A   1      30.743  29.208  24.599  1.00  0.00     0.027 A 
ATOM     15  C   UNL A   1      30.236  28.797  22.262  1.00  0.00     0.018 A 
ATOM     16  C   UNL A   1      30.233  29.641  23.434  1.00  0.00     0.004 A 
BRANCH   9  17
ATOM     17  C   UNL A   1      31.583  24.493  23.167  1.00  0.00     0.315 C 
BRANCH  17  18
ATOM     18  N   UNL A   1      30.328  23.774  23.158  1.00  0.00    -0.353 N 
ATOM     19  H   UNL A   1      29.635  24.307  22.633  1.00  0.00     0.344 HD
ATOM     20  H   UNL A   1      30.003  23.645  24.116  1.00  0.00     0.344 HD
ATOM     21  H   UNL A   1      30.460  22.863  22.718  1.00  0.00     0.344 HD
ENDBRANCH  17  18
ENDBRANCH   9  17
BRANCH  10  22
ATOM     22  C   UNL A   1      32.740  24.789  25.967  1.00  0.00    -0.015 A 
ATOM     23  C   UNL A   1      34.098  24.496  25.842  1.00  0.00     0.009 A 
ATOM     24  C   UNL A   1      31.915  23.951  26.720  1.00  0.00     0.009 A 
ATOM     25  C   UNL A   1      34.607  23.323  26.381  1.00  0.00     0.001 A 
ATOM     26  C   UNL A   1      32.446  22.802  27.312  1.00  0.00     0.001 A 
ATOM     27  C   UNL A   1      33.788  22.478  27.122  1.00  0.00     0.000 A 
ENDBRANCH  10  22
ENDBRANCH   6   8
ENDBRANCH   5   6
ENDBRANCH   4   5
ENDBRANCH   3   4
ENDBRANCH   2   3
ENDBRANCH   1   2
BRANCH   1  28
ATOM     28  C   UNL A   1      34.599  33.070  29.321  1.00  0.00     0.188 C 
BRANCH  28  29
ATOM     29  O   UNL A   1      34.804  34.481  29.307  1.00  0.00    -0.376 OA
BRANCH  29  30
ATOM     30  C   UNL A   1      33.839  35.314  28.687  1.00  0.00     0.202 C 
BRANCH  30  31
ATOM     31  C   UNL A   1      32.913  36.083  29.631  1.00  0.00     0.261 C 
BRANCH  31  32
ATOM     32  O   UNL A   1      32.342  35.265  30.665  1.00  0.00    -0.460 OA
BRANCH  32  33
ATOM     33  C   UNL A   1      32.550  35.705  31.929  1.00  0.00     0.338 C 
ATOM     34  O   UNL A   1      31.855  36.467  32.577  1.00  0.00    -0.246 OA
BRANCH  33  35
ATOM     35  C   UNL A   1      33.731  35.025  32.501  1.00  0.00     0.060 A 
ATOM     36  C   UNL A   1      34.938  35.731  32.559  1.00  0.00     0.016 A 
ATOM     37  C   UNL A   1      33.674  33.689  32.909  1.00  0.00     0.016 A 
ATOM     38  C   UNL A   1      36.095  35.098  33.014  1.00  0.00     0.010 A 
ATOM     39  C   UNL A   1      34.842  33.047  33.334  1.00  0.00     0.010 A 
ATOM     40  C   UNL A   1      36.062  33.742  33.372  1.00  0.00    -0.014 A 
BRANCH  40  41
ATOM     41  C   UNL A   1      37.326  33.032  33.687  1.00  0.00     0.031 A 
ATOM     42  C   UNL A   1      37.949  33.199  35.039  1.00  0.00     0.074 A 
ATOM     43  C   UNL A   1      37.913  32.235  32.778  1.00  0.00     0.049 A 
ATOM     44  N   UNL A   1      39.050  32.672  35.511  1.00  0.00    -0.248 NA
ATOM     45  C   UNL A   1      37.262  34.107  35.969  1.00  0.00     0.031 C 
ATOM     46  C   UNL A   1      37.430  32.038  31.420  1.00  0.00     0.029 A 
ATOM     47  N   UNL A   1      39.016  31.423  32.861  1.00  0.00    -0.354 N 
ATOM     48  C   UNL A   1      39.216  33.221  36.773  1.00  0.00     0.074 A 
ATOM     49  C   UNL A   1      38.087  34.099  37.006  1.00  0.00     0.031 C 
ATOM     50  C   UNL A   1      38.159  31.079  30.827  1.00  0.00     0.029 A 
ATOM     51  C   UNL A   1      39.209  30.647  31.743  1.00  0.00     0.049 A 
ATOM     52  H   UNL A   1      39.611  31.400  33.645  1.00  0.00     0.167 HD
ATOM     53  C   UNL A   1      40.240  33.037  37.639  1.00  0.00     0.037 A 
ATOM     54  C   UNL A   1      40.133  29.698  31.491  1.00  0.00     0.037 A 
ATOM     55  C   UNL A   1      41.370  32.178  37.395  1.00  0.00     0.049 A 
ATOM     56  C   UNL A   1      41.233  29.474  32.494  1.00  0.00     0.074 A 
ATOM     57  C   UNL A   1      42.465  31.942  38.206  1.00  0.00     0.029 A 
ATOM     58  N   UNL A   1      41.549  31.417  36.249  1.00  0.00    -0.354 N 
ATOM     59  N   UNL A   1      41.392  30.008  33.680  1.00  0.00    -0.248 NA
ATOM     60  C   UNL A   1      42.314  28.559  32.098  1.00  0.00     0.031 C 
ATOM     61  C   UNL A   1      43.329  31.070  37.532  1.00  0.00     0.029 A 
ATOM     62  C   UNL A   1      42.749  30.728  36.321  1.00  0.00     0.049 A 
ATOM     63  H   UNL A   1      40.917  31.373  35.496  1.00  0.00     0.167 HD
ATOM     64  C   UNL A   1      42.600  29.523  34.158  1.00  0.00     0.074 A 
ATOM     65  C   UNL A   1      43.107  28.605  33.159  1.00  0.00     0.031 C 
ATOM     66  C   UNL A   1      43.248  29.836  35.306  1.00  0.00     0.037 A 
BRANCH  53  67
ATOM     67  C   UNL A   1      40.216  33.848  38.899  1.00  0.00     0.064 A 
ATOM     68  C   UNL A   1      40.848  35.095  38.990  1.00  0.00     0.173 A 
ATOM     69  C   UNL A   1      39.554  33.358  40.035  1.00  0.00     0.173 A 
ATOM     70  F   UNL A   1      41.512  35.595  37.937  1.00  0.00    -0.203 F 
ATOM     71  C   UNL A   1      40.839  35.814  40.184  1.00  0.00     0.198 A 
ATOM     72  C   UNL A   1      39.526  34.090  41.219  1.00  0.00     0.198 A 
ATOM     73  F   UNL A   1      38.936  32.168  39.999  1.00  0.00    -0.203 F 
ATOM     74  F   UNL A   1      41.492  36.981  40.265  1.00  0.00    -0.200 F 
ATOM     75  C   UNL A   1      40.175  35.313  41.294  1.00  0.00     0.200 A 
ATOM     76  F   UNL A   1      38.880  33.606  42.289  1.00  0.00    -0.200 F 
ATOM     77  F   UNL A   1      40.172  36.003  42.443  1.00  0.00    -0.200 F 
ENDBRANCH  53  67
BRANCH  54  78
ATOM     78  C   UNL A   1      40.073  28.892  30.242  1.00  0.00     0.064 A 
ATOM     79  C   UNL A   1      39.467  27.626  30.247  1.00  0.00     0.173 A 
ATOM     80  C   UNL A   1      40.614  29.347  29.033  1.00  0.00     0.173 A 
ATOM     81  F   UNL A   1      38.959  27.131  31.386  1.00  0.00    -0.203 F 
ATOM     82  C   UNL A   1      39.413  26.847  29.093  1.00  0.00     0.198 A 
ATOM     83  C   UNL A   1      40.533  28.580  27.872  1.00  0.00     0.198 A 
ATOM     84  F   UNL A   1      41.212  30.546  28.973  1.00  0.00    -0.203 F 
ATOM     85  F   UNL A   1      38.864  25.625  29.138  1.00  0.00    -0.200 F 
ATOM     86  C   UNL A   1      39.938  27.328  27.904  1.00  0.00     0.200 A 
ATOM     87  F   UNL A   1      41.030  29.055  26.722  1.00  0.00    -0.200 F 
ATOM     88  F   UNL A   1      39.877  26.583  26.792  1.00  0.00    -0.200 F 
ENDBRANCH  54  78
BRANCH  66  89
ATOM     89  C   UNL A   1      44.593  29.209  35.525  1.00  0.00     0.064 A 
ATOM     90  C   UNL A   1      45.767  29.838  35.083  1.00  0.00     0.173 A 
ATOM     91  C   UNL A   1      44.716  27.997  36.219  1.00  0.00     0.173 A 
ATOM     92  F   UNL A   1      45.698  30.991  34.400  1.00  0.00    -0.203 F 
ATOM     93  C   UNL A   1      47.015  29.268  35.315  1.00  0.00     0.198 A 
ATOM     94  C   UNL A   1      45.968  27.441  36.469  1.00  0.00     0.198 A 
ATOM     95  F   UNL A   1      43.624  27.358  36.664  1.00  0.00    -0.203 F 
ATOM     96  F   UNL A   1      48.120  29.869  34.853  1.00  0.00    -0.200 F 
ATOM     97  C   UNL A   1      47.115  28.075  36.015  1.00  0.00     0.200 A 
ATOM     98  F   UNL A   1      46.065  26.293  37.153  1.00  0.00    -0.200 F 
ATOM     99  F   UNL A   1      48.318  27.531  36.244  1.00  0.00    -0.200 F 
ENDBRANCH  66  89
ENDBRANCH  40  41
ENDBRANCH  33  35
ENDBRANCH  32  33
ENDBRANCH  31  32
ENDBRANCH  30  31
ENDBRANCH  29  30
ENDBRANCH  28  29
ENDBRANCH   1  28
TORSDOF 20
ENDMDL
MODEL 2
REMARK VINA RESULT:     -10.7      0.657      7.140
REMARK SMILES [NH3+]Cc1c(-c2ccccc2)c(C(=O)OCCOCCOCCOC(=O)c2ccc(-c3c4nc(c(-c5c(F)c(F)c(F)c(F)c5F)c5ccc([nH]5)c(-c5c(F)c(F)c(F)c(F)c5F)c5nc(c(-c6c(F)c(F)c(F)c(F)c6F)c6ccc3[nH]6)C=C5)C=C4)cc2)c2ccccn12
REMARK SMILES IDX 18 1 17 2 16 3 15 4 14 5 12 6 13 7 11 8 3 9 4 10 94 11 89 12
REMARK SMILES IDX 93 13 90 14 92 15 91 16 2 17 1 18 5 22 6 23 10 24 7 25 9 26
REMARK SMILES IDX 8 27 19 28 20 29 21 30 22 31 23 32 24 33 25 34 26 35 27 36
REMARK SMILES IDX 88 37 28 38 87 39 29 40 30 41 31 42 81 43 32 44 86 45 80 46
REMARK SMILES IDX 82 47 33 48 85 49 79 50 78 51 34 53 66 54 46 55 65 56 47 57
REMARK SMILES IDX 50 58 64 59 83 60 48 61 49 62 63 64 84 65 51 66 35 67 36 68
REMARK SMILES IDX 44 69 37 70 38 71 42 72 45 73 39 74 40 75 43 76 41 77 67 78
REMARK SMILES IDX 68 79 76 80 69 81 70 82 74 83 77 84 71 85 72 86 75 87 73 88
REMARK SMILES IDX 52 89 53 90 61 91 54 92 55 93 59 94 62 95 56 96 57 97 60 98
REMARK SMILES IDX 58 99
REMARK H PARENT 1 19 1 20 1 21 82 52 50 63
REMARK Flexibility Score: inf
ROOT
ATOM      1  C   UNL A   1      35.664  31.993  27.991  1.00  0.00     0.188 C 
ENDROOT
BRANCH   1   2
ATOM      2  O   UNL A   1      36.379  30.820  28.368  1.00  0.00    -0.376 OA
BRANCH   2   3
ATOM      3  C   UNL A   1      36.057  29.652  27.618  1.00  0.00     0.202 C 
BRANCH   3   4
ATOM      4  C   UNL A   1      34.547  29.418  27.586  1.00  0.00     0.261 C 
BRANCH   4   5
ATOM      5  O   UNL A   1      34.162  28.256  26.836  1.00  0.00    -0.460 OA
BRANCH   5   6
ATOM      6  C   UNL A   1      32.844  27.915  26.848  1.00  0.00     0.341 C 
ATOM      7  O   UNL A   1      32.111  28.097  27.813  1.00  0.00    -0.246 OA
BRANCH   6   8
ATOM      8  C   UNL A   1      32.385  27.399  25.557  1.00  0.00     0.093 A 
ATOM      9  C   UNL A   1      31.997  25.974  23.783  1.00  0.00     0.086 A 
ATOM     10  C   UNL A   1      32.671  26.118  24.997  1.00  0.00     0.024 A 
ATOM     11  N   UNL A   1      31.396  27.206  23.518  1.00  0.00    -0.314 N 
ATOM     12  C   UNL A   1      31.552  28.027  24.646  1.00  0.00     0.061 A 
ATOM     13  C   UNL A   1      30.720  27.673  22.380  1.00  0.00     0.092 A 
ATOM     14  C   UNL A   1      30.896  29.298  24.642  1.00  0.00     0.027 A 
ATOM     15  C   UNL A   1      30.149  28.888  22.370  1.00  0.00     0.018 A 
ATOM     16  C   UNL A   1      30.219  29.708  23.557  1.00  0.00     0.004 A 
BRANCH   9  17
ATOM     17  C   UNL A   1      31.931  24.693  22.994  1.00  0.00     0.315 C 
BRANCH  17  18
ATOM     18  N   UNL A   1      30.682  23.964  22.971  1.00  0.00    -0.353 N 
ATOM     19  H   UNL A   1      30.532  23.576  22.041  1.00  0.00     0.344 HD
ATOM     20  H   UNL A   1      29.916  24.596  23.204  1.00  0.00     0.344 HD
ATOM     21  H   UNL A   1      30.717  23.207  23.654  1.00  0.00     0.344 HD
ENDBRANCH  17  18
ENDBRANCH   9  17
BRANCH  10  22
ATOM     22  C   UNL A   1      33.386  25.034  25.646  1.00  0.00    -0.015 A 
ATOM     23  C   UNL A   1      34.740  24.861  25.361  1.00  0.00     0.009 A 
ATOM     24  C   UNL A   1      32.724  24.113  26.461  1.00  0.00     0.009 A 
ATOM     25  C   UNL A   1      35.403  23.725  25.805  1.00  0.00     0.001 A 
ATOM     26  C   UNL A   1      33.411  23.002  26.955  1.00  0.00     0.001 A 
ATOM     27  C   UNL A   1      34.745  22.798  26.607  1.00  0.00     0.000 A 
ENDBRANCH  10  22
ENDBRANCH   6   8
ENDBRANCH   5   6
ENDBRANCH   4   5
ENDBRANCH   3   4
ENDBRANCH   2   3
ENDBRANCH   1   2
BRANCH   1  28
ATOM     28  C   UNL A   1      35.090  32.777  29.183  1.00  0.00     0.188 C 
BRANCH  28  29
ATOM     29  O   UNL A   1      35.122  34.202  29.186  1.00  0.00    -0.376 OA
BRANCH  29  30
ATOM     30  C   UNL A   1      34.128  34.917  28.472  1.00  0.00     0.202 C 
BRANCH  30  31
ATOM     31  C   UNL A   1      33.115  35.687  29.322  1.00  0.00     0.261 C 
BRANCH  31  32
ATOM     32  O   UNL A   1      32.631  34.940  30.451  1.00  0.00    -0.460 OA
BRANCH  32  33
ATOM     33  C   UNL A   1      32.833  35.523  31.656  1.00  0.00     0.338 C 
ATOM     34  O   UNL A   1      32.155  36.382  32.191  1.00  0.00    -0.246 OA
BRANCH  33  35
ATOM     35  C   UNL A   1      33.977  34.878  32.332  1.00  0.00     0.060 A 
ATOM     36  C   UNL A   1      35.160  35.612  32.476  1.00  0.00     0.016 A 
ATOM     37  C   UNL A   1      33.915  33.547  32.756  1.00  0.00     0.016 A 
ATOM     38  C   UNL A   1      36.290  35.010  33.034  1.00  0.00     0.010 A 
ATOM     39  C   UNL A   1      35.058  32.937  33.284  1.00  0.00     0.010 A 
ATOM     40  C   UNL A   1      36.256  33.659  33.409  1.00  0.00    -0.014 A 
BRANCH  40  41
ATOM     41  C   UNL A   1      37.505  32.982  33.837  1.00  0.00     0.031 A 
ATOM     42  C   UNL A   1      38.212  32.068  32.886  1.00  0.00     0.074 A 
ATOM     43  C   UNL A   1      38.013  33.188  35.064  1.00  0.00     0.049 A 
ATOM     44  N   UNL A   1      39.310  31.379  33.065  1.00  0.00    -0.248 NA
ATOM     45  C   UNL A   1      37.580  31.873  31.573  1.00  0.00     0.031 C 
ATOM     46  C   UNL A   1      37.389  34.011  36.088  1.00  0.00     0.029 A 
ATOM     47  N   UNL A   1      39.176  32.753  35.649  1.00  0.00    -0.354 N 
ATOM     48  C   UNL A   1      39.476  30.632  31.909  1.00  0.00     0.074 A 
ATOM     49  C   UNL A   1      38.383  30.973  31.022  1.00  0.00     0.031 C 
ATOM     50  C   UNL A   1      38.221  34.119  37.136  1.00  0.00     0.029 A 
ATOM     51  C   UNL A   1      39.408  33.309  36.885  1.00  0.00     0.049 A 
ATOM     52  H   UNL A   1      39.783  32.105  35.225  1.00  0.00     0.167 HD
ATOM     53  C   UNL A   1      40.433  29.715  31.634  1.00  0.00     0.037 A 
ATOM     54  C   UNL A   1      40.460  33.174  37.716  1.00  0.00     0.037 A 
ATOM     55  C   UNL A   1      41.507  29.365  32.526  1.00  0.00     0.049 A 
ATOM     56  C   UNL A   1      41.540  32.186  37.362  1.00  0.00     0.074 A 
ATOM     57  C   UNL A   1      42.514  28.434  32.342  1.00  0.00     0.029 A 
ATOM     58  N   UNL A   1      41.710  29.930  33.777  1.00  0.00    -0.354 N 
ATOM     59  N   UNL A   1      41.683  31.472  36.273  1.00  0.00    -0.248 NA
ATOM     60  C   UNL A   1      42.574  31.943  38.380  1.00  0.00     0.031 C 
ATOM     61  C   UNL A   1      43.303  28.406  33.499  1.00  0.00     0.029 A 
ATOM     62  C   UNL A   1      42.813  29.352  34.385  1.00  0.00     0.049 A 
ATOM     63  H   UNL A   1      41.152  30.637  34.174  1.00  0.00     0.167 HD
ATOM     64  C   UNL A   1      42.797  30.673  36.485  1.00  0.00     0.074 A 
ATOM     65  C   UNL A   1      43.330  31.032  37.783  1.00  0.00     0.031 C 
ATOM     66  C   UNL A   1      43.314  29.706  35.689  1.00  0.00     0.037 A 
BRANCH  53  67
ATOM     67  C   UNL A   1      40.307  28.971  30.339  1.00  0.00     0.064 A 
ATOM     68  C   UNL A   1      39.604  27.763  30.243  1.00  0.00     0.173 A 
ATOM     69  C   UNL A   1      40.910  29.478  29.177  1.00  0.00     0.173 A 
ATOM     70  F   UNL A   1      39.030  27.227  31.331  1.00  0.00    -0.203 F 
ATOM     71  C   UNL A   1      39.531  27.074  29.035  1.00  0.00     0.198 A 
ATOM     72  C   UNL A   1      40.813  28.800  27.966  1.00  0.00     0.198 A 
ATOM     73  F   UNL A   1      41.596  30.630  29.219  1.00  0.00    -0.203 F 
ATOM     74  F   UNL A   1      38.896  25.895  28.976  1.00  0.00    -0.200 F 
ATOM     75  C   UNL A   1      40.131  27.595  27.898  1.00  0.00     0.200 A 
ATOM     76  F   UNL A   1      41.389  29.308  26.868  1.00  0.00    -0.200 F 
ATOM     77  F   UNL A   1      40.063  26.929  26.737  1.00  0.00    -0.200 F 
ENDBRANCH  53  67
BRANCH  54  78
ATOM     78  C   UNL A   1      40.551  33.978  38.964  1.00  0.00     0.064 A 
ATOM     79  C   UNL A   1      39.930  33.531  40.140  1.00  0.00     0.173 A 
ATOM     80  C   UNL A   1      41.241  35.196  39.018  1.00  0.00     0.173 A 
ATOM     81  F   UNL A   1      39.231  32.386  40.134  1.00  0.00    -0.203 F 
ATOM     82  C   UNL A   1      39.988  34.276  41.316  1.00  0.00     0.198 A 
ATOM     83  C   UNL A   1      41.326  35.925  40.203  1.00  0.00     0.198 A 
ATOM     84  F   UNL A   1      41.848  35.675  37.921  1.00  0.00    -0.203 F 
ATOM     85  F   UNL A   1      39.350  33.845  42.413  1.00  0.00    -0.200 F 
ATOM     86  C   UNL A   1      40.695  35.469  41.349  1.00  0.00     0.200 A 
ATOM     87  F   UNL A   1      42.021  37.071  40.233  1.00  0.00    -0.200 F 
ATOM     88  F   UNL A   1      40.760  36.180  42.483  1.00  0.00    -0.200 F 
ENDBRANCH  54  78
BRANCH  66  89
ATOM     89  C   UNL A   1      44.492  28.943  36.217  1.00  0.00     0.064 A 
ATOM     90  C   UNL A   1      45.800  29.419  36.047  1.00  0.00     0.173 A 
ATOM     91  C   UNL A   1      44.312  27.754  36.939  1.00  0.00     0.173 A 
ATOM     92  F   UNL A   1      46.023  30.544  35.350  1.00  0.00    -0.203 F 
ATOM     93  C   UNL A   1      46.889  28.724  36.566  1.00  0.00     0.198 A 
ATOM     94  C   UNL A   1      45.402  27.073  37.476  1.00  0.00     0.198 A 
ATOM     95  F   UNL A   1      43.081  27.259  37.131  1.00  0.00    -0.203 F 
ATOM     96  F   UNL A   1      48.132  29.180  36.360  1.00  0.00    -0.200 F 
ATOM     97  C   UNL A   1      46.688  27.556  37.287  1.00  0.00     0.200 A 
ATOM     98  F   UNL A   1      45.207  25.950  38.180  1.00  0.00    -0.200 F 
ATOM     99  F   UNL A   1      47.736  26.892  37.793  1.00  0.00    -0.200 F 
ENDBRANCH  66  89
ENDBRANCH  40  41
ENDBRANCH  33  35
ENDBRANCH  32  33
ENDBRANCH  31  32
ENDBRANCH  30  31
ENDBRANCH  29  30
ENDBRANCH  28  29
ENDBRANCH   1  28
TORSDOF 20
ENDMDL
MODEL 3
REMARK VINA RESULT:     -10.7      7.122     11.861
REMARK SMILES [NH3+]Cc1c(-c2ccccc2)c(C(=O)OCCOCCOCCOC(=O)c2ccc(-c3c4nc(c(-c5c(F)c(F)c(F)c(F)c5F)c5ccc([nH]5)c(-c5c(F)c(F)c(F)c(F)c5F)c5nc(c(-c6c(F)c(F)c(F)c(F)c6F)c6ccc3[nH]6)C=C5)C=C4)cc2)c2ccccn12
REMARK SMILES IDX 18 1 17 2 16 3 15 4 14 5 12 6 13 7 11 8 3 9 4 10 94 11 89 12
REMARK SMILES IDX 93 13 90 14 92 15 91 16 2 17 1 18 5 22 6 23 10 24 7 25 9 26
REMARK SMILES IDX 8 27 19 28 20 29 21 30 22 31 23 32 24 33 25 34 26 35 27 36
REMARK SMILES IDX 88 37 28 38 87 39 29 40 30 41 31 42 81 43 32 44 86 45 80 46
REMARK SMILES IDX 82 47 33 48 85 49 79 50 78 51 34 53 66 54 46 55 65 56 47 57
REMARK SMILES IDX 50 58 64 59 83 60 48 61 49 62 63 64 84 65 51 66 35 67 36 68
REMARK SMILES IDX 44 69 37 70 38 71 42 72 45 73 39 74 40 75 43 76 41 77 67 78
REMARK SMILES IDX 68 79 76 80 69 81 70 82 74 83 77 84 71 85 72 86 75 87 73 88
REMARK SMILES IDX 52 89 53 90 61 91 54 92 55 93 59 94 62 95 56 96 57 97 60 98
REMARK SMILES IDX 58 99
REMARK H PARENT 1 19 1 20 1 21 82 52 50 63
REMARK Flexibility Score: inf
ROOT
ATOM      1  C   UNL A   1      40.296  22.469  26.455  1.00  0.00     0.188 C 
ENDROOT
BRANCH   1   2
ATOM      2  O   UNL A   1      39.208  21.880  25.750  1.00  0.00    -0.376 OA
BRANCH   2   3
ATOM      3  C   UNL A   1      37.930  22.443  26.034  1.00  0.00     0.202 C 
BRANCH   3   4
ATOM      4  C   UNL A   1      37.072  22.522  24.772  1.00  0.00     0.261 C 
BRANCH   4   5
ATOM      5  O   UNL A   1      36.254  23.700  24.707  1.00  0.00    -0.460 OA
BRANCH   5   6
ATOM      6  C   UNL A   1      35.141  23.644  23.925  1.00  0.00     0.341 C 
ATOM      7  O   UNL A   1      35.165  23.325  22.742  1.00  0.00    -0.246 OA
BRANCH   6   8
ATOM      8  C   UNL A   1      33.913  23.913  24.676  1.00  0.00     0.093 A 
ATOM      9  C   UNL A   1      31.903  23.602  25.768  1.00  0.00     0.086 A 
ATOM     10  C   UNL A   1      32.872  22.984  24.975  1.00  0.00     0.024 A 
ATOM     11  N   UNL A   1      32.267  24.947  25.857  1.00  0.00    -0.314 N 
ATOM     12  C   UNL A   1      33.538  25.101  25.279  1.00  0.00     0.061 A 
ATOM     13  C   UNL A   1      31.591  26.049  26.403  1.00  0.00     0.092 A 
ATOM     14  C   UNL A   1      34.164  26.384  25.378  1.00  0.00     0.027 A 
ATOM     15  C   UNL A   1      32.169  27.259  26.446  1.00  0.00     0.018 A 
ATOM     16  C   UNL A   1      33.514  27.414  25.942  1.00  0.00     0.004 A 
BRANCH   9  17
ATOM     17  C   UNL A   1      30.747  22.885  26.411  1.00  0.00     0.315 C 
BRANCH  17  18
ATOM     18  N   UNL A   1      29.624  23.670  26.876  1.00  0.00    -0.353 N 
ATOM     19  H   UNL A   1      28.801  23.074  26.955  1.00  0.00     0.344 HD
ATOM     20  H   UNL A   1      29.438  24.422  26.212  1.00  0.00     0.344 HD
ATOM     21  H   UNL A   1      29.843  24.069  27.789  1.00  0.00     0.344 HD
ENDBRANCH  17  18
ENDBRANCH   9  17
BRANCH  10  22
ATOM     22  C   UNL A   1      32.877  21.561  24.685  1.00  0.00    -0.015 A 
ATOM     23  C   UNL A   1      32.346  21.125  23.472  1.00  0.00     0.009 A 
ATOM     24  C   UNL A   1      33.305  20.629  25.633  1.00  0.00     0.009 A 
ATOM     25  C   UNL A   1      32.153  19.768  23.247  1.00  0.00     0.001 A 
ATOM     26  C   UNL A   1      33.164  19.263  25.376  1.00  0.00     0.001 A 
ATOM     27  C   UNL A   1      32.567  18.835  24.192  1.00  0.00     0.000 A 
ENDBRANCH  10  22
ENDBRANCH   6   8
ENDBRANCH   5   6
ENDBRANCH   4   5
ENDBRANCH   3   4
ENDBRANCH   2   3
ENDBRANCH   1   2
BRANCH   1  28
ATOM     28  C   UNL A   1      41.563  21.596  26.477  1.00  0.00     0.188 C 
BRANCH  28  29
ATOM     29  O   UNL A   1      41.634  20.415  25.682  1.00  0.00    -0.376 OA
BRANCH  29  30
ATOM     30  C   UNL A   1      42.104  19.214  26.270  1.00  0.00     0.202 C 
BRANCH  30  31
ATOM     31  C   UNL A   1      43.300  18.554  25.582  1.00  0.00     0.261 C 
BRANCH  31  32
ATOM     32  O   UNL A   1      43.620  19.136  24.308  1.00  0.00    -0.460 OA
BRANCH  32  33
ATOM     33  C   UNL A   1      44.876  19.629  24.198  1.00  0.00     0.338 C 
ATOM     34  O   UNL A   1      45.835  19.110  23.654  1.00  0.00    -0.246 OA
BRANCH  33  35
ATOM     35  C   UNL A   1      44.922  20.997  24.754  1.00  0.00     0.060 A 
ATOM     36  C   UNL A   1      44.570  22.063  23.918  1.00  0.00     0.016 A 
ATOM     37  C   UNL A   1      45.372  21.239  26.055  1.00  0.00     0.016 A 
ATOM     38  C   UNL A   1      44.680  23.376  24.378  1.00  0.00     0.010 A 
ATOM     39  C   UNL A   1      45.512  22.556  26.504  1.00  0.00     0.010 A 
ATOM     40  C   UNL A   1      45.185  23.633  25.662  1.00  0.00    -0.014 A 
BRANCH  40  41
ATOM     41  C   UNL A   1      45.462  25.029  26.079  1.00  0.00     0.031 A 
ATOM     42  C   UNL A   1      44.395  25.818  26.773  1.00  0.00     0.074 A 
ATOM     43  C   UNL A   1      46.661  25.590  25.850  1.00  0.00     0.049 A 
ATOM     44  N   UNL A   1      44.433  27.050  27.212  1.00  0.00    -0.248 NA
ATOM     45  C   UNL A   1      43.102  25.144  26.963  1.00  0.00     0.031 C 
ATOM     46  C   UNL A   1      47.753  24.941  25.141  1.00  0.00     0.029 A 
ATOM     47  N   UNL A   1      47.176  26.811  26.209  1.00  0.00    -0.354 N 
ATOM     48  C   UNL A   1      43.158  27.317  27.687  1.00  0.00     0.074 A 
ATOM     49  C   UNL A   1      42.377  26.110  27.510  1.00  0.00     0.031 C 
ATOM     50  C   UNL A   1      48.847  25.717  25.210  1.00  0.00     0.029 A 
ATOM     51  C   UNL A   1      48.509  26.953  25.909  1.00  0.00     0.049 A 
ATOM     52  H   UNL A   1      46.640  27.515  26.640  1.00  0.00     0.167 HD
ATOM     53  C   UNL A   1      42.677  28.479  28.187  1.00  0.00     0.037 A 
ATOM     54  C   UNL A   1      49.356  27.969  26.167  1.00  0.00     0.037 A 
ATOM     55  C   UNL A   1      43.452  29.682  28.344  1.00  0.00     0.049 A 
ATOM     56  C   UNL A   1      48.807  29.233  26.773  1.00  0.00     0.074 A 
ATOM     57  C   UNL A   1      43.046  30.914  28.825  1.00  0.00     0.029 A 
ATOM     58  N   UNL A   1      44.794  29.804  28.016  1.00  0.00    -0.354 N 
ATOM     59  N   UNL A   1      47.596  29.484  27.207  1.00  0.00    -0.248 NA
ATOM     60  C   UNL A   1      49.729  30.375  26.872  1.00  0.00     0.031 C 
ATOM     61  C   UNL A   1      44.132  31.794  28.750  1.00  0.00     0.029 A 
ATOM     62  C   UNL A   1      45.227  31.097  28.264  1.00  0.00     0.049 A 
ATOM     63  H   UNL A   1      45.357  29.079  27.661  1.00  0.00     0.167 HD
ATOM     64  C   UNL A   1      47.600  30.815  27.598  1.00  0.00     0.074 A 
ATOM     65  C   UNL A   1      48.949  31.304  27.406  1.00  0.00     0.031 C 
ATOM     66  C   UNL A   1      46.569  31.573  28.044  1.00  0.00     0.037 A 
BRANCH  53  67
ATOM     67  C   UNL A   1      41.218  28.518  28.526  1.00  0.00     0.064 A 
ATOM     68  C   UNL A   1      40.252  28.934  27.600  1.00  0.00     0.173 A 
ATOM     69  C   UNL A   1      40.784  28.139  29.806  1.00  0.00     0.173 A 
ATOM     70  F   UNL A   1      40.620  29.327  26.371  1.00  0.00    -0.203 F 
ATOM     71  C   UNL A   1      38.905  28.994  27.951  1.00  0.00     0.198 A 
ATOM     72  C   UNL A   1      39.436  28.176  30.146  1.00  0.00     0.198 A 
ATOM     73  F   UNL A   1      41.671  27.736  30.729  1.00  0.00    -0.203 F 
ATOM     74  F   UNL A   1      38.003  29.442  27.067  1.00  0.00    -0.200 F 
ATOM     75  C   UNL A   1      38.499  28.610  29.221  1.00  0.00     0.200 A 
ATOM     76  F   UNL A   1      39.044  27.800  31.371  1.00  0.00    -0.200 F 
ATOM     77  F   UNL A   1      37.203  28.672  29.558  1.00  0.00    -0.200 F 
ENDBRANCH  53  67
BRANCH  54  78
ATOM     78  C   UNL A   1      50.805  27.849  25.852  1.00  0.00     0.064 A 
ATOM     79  C   UNL A   1      51.272  28.125  24.557  1.00  0.00     0.173 A 
ATOM     80  C   UNL A   1      51.748  27.458  26.811  1.00  0.00     0.173 A 
ATOM     81  F   UNL A   1      50.407  28.475  23.593  1.00  0.00    -0.203 F 
ATOM     82  C   UNL A   1      52.622  28.004  24.235  1.00  0.00     0.198 A 
ATOM     83  C   UNL A   1      53.102  27.368  26.497  1.00  0.00     0.198 A 
ATOM     84  F   UNL A   1      51.355  27.176  28.063  1.00  0.00    -0.203 F 
ATOM     85  F   UNL A   1      53.033  28.233  22.981  1.00  0.00    -0.200 F 
ATOM     86  C   UNL A   1      53.538  27.634  25.208  1.00  0.00     0.200 A 
ATOM     87  F   UNL A   1      53.986  27.023  27.444  1.00  0.00    -0.200 F 
ATOM     88  F   UNL A   1      54.838  27.528  24.902  1.00  0.00    -0.200 F 
ENDBRANCH  54  78
BRANCH  66  89
ATOM     89  C   UNL A   1      46.854  33.019  28.319  1.00  0.00     0.064 A 
ATOM     90  C   UNL A   1      47.335  33.439  29.569  1.00  0.00     0.173 A 
ATOM     91  C   UNL A   1      46.690  33.986  27.318  1.00  0.00     0.173 A 
ATOM     92  F   UNL A   1      47.493  32.552  30.563  1.00  0.00    -0.203 F 
ATOM     93  C   UNL A   1      47.628  34.777  29.810  1.00  0.00     0.198 A 
ATOM     94  C   UNL A   1      47.005  35.322  27.556  1.00  0.00     0.198 A 
ATOM     95  F   UNL A   1      46.235  33.635  26.106  1.00  0.00    -0.203 F 
ATOM     96  F   UNL A   1      48.054  35.161  31.021  1.00  0.00    -0.200 F 
ATOM     97  C   UNL A   1      47.470  35.717  28.801  1.00  0.00     0.200 A 
ATOM     98  F   UNL A   1      46.861  36.227  26.578  1.00  0.00    -0.200 F 
ATOM     99  F   UNL A   1      47.760  37.004  29.033  1.00  0.00    -0.200 F 
ENDBRANCH  66  89
ENDBRANCH  40  41
ENDBRANCH  33  35
ENDBRANCH  32  33
ENDBRANCH  31  32
ENDBRANCH  30  31
ENDBRANCH  29  30
ENDBRANCH  28  29
ENDBRANCH   1  28
TORSDOF 20
ENDMDL
