MODEL 1
REMARK VINA RESULT:     -12.2      0.000      0.000
REMARK SMILES CC(C)OC(=O)c1c(NC(=O)[C@H]2[C@@H](C(=O)OCCOCCOCCOC(=O)c3ccc(-c4c5nc(c(-c6c(F)c(F)c(F)c(F)c6F)c6ccc([nH]6)c(-c6c(F)c(F)c(F)c(F)c6F)c6nc(c(-c7c(F)c(F)c(F)c(F)c7F)c7ccc4[nH]7)C=C6)C=C5)cc3)[C@@H]3C=C[C@H]2CC3)sc2c1CCC2
REMARK SMILES IDX 19 1 18 2 17 3 16 4 14 5 15 6 13 7 12 8 94 9 91 10 93 11
REMARK SMILES IDX 95 12 92 13 96 14 10 15 9 16 11 18 8 19 7 20 99 21 97 22
REMARK SMILES IDX 98 23 100 24 102 25 101 26 5 27 6 28 4 29 2 30 1 31 3 32
REMARK SMILES IDX 20 33 21 34 22 35 23 36 24 37 25 38 26 39 27 40 28 41 29 42
REMARK SMILES IDX 90 43 30 44 89 45 31 46 32 47 33 48 83 49 34 50 88 51 82 52
REMARK SMILES IDX 84 53 35 54 87 55 81 56 80 57 36 59 68 60 48 61 67 62 49 63
REMARK SMILES IDX 52 64 66 65 85 66 50 67 51 68 65 70 86 71 53 72 37 73 38 74
REMARK SMILES IDX 46 75 39 76 40 77 44 78 47 79 41 80 42 81 45 82 43 83 69 84
REMARK SMILES IDX 70 85 78 86 71 87 72 88 76 89 79 90 73 91 74 92 77 93 75 94
REMARK SMILES IDX 54 95 55 96 63 97 56 98 57 99 61 100 64 101 58 102 59 103
REMARK SMILES IDX 62 104 60 105
REMARK H PARENT 9 17 84 58 52 69
REMARK Flexibility Score: inf
ROOT
ATOM      1  O   UNL A   1      34.142  18.191  24.017  1.00  0.00    -0.376 OA
ENDROOT
BRANCH   1   2
ATOM      2  C   UNL A   1      33.103  18.623  24.905  1.00  0.00     0.202 C 
BRANCH   2   3
ATOM      3  C   UNL A   1      32.195  19.713  24.315  1.00  0.00     0.261 C 
BRANCH   3   4
ATOM      4  O   UNL A   1      32.024  20.812  25.222  1.00  0.00    -0.463 OA
BRANCH   4   5
ATOM      5  C   UNL A   1      32.163  22.063  24.712  1.00  0.00     0.310 C 
ATOM      6  O   UNL A   1      31.473  22.534  23.820  1.00  0.00    -0.252 OA
BRANCH   5   7
ATOM      7  C   UNL A   1      33.346  22.751  25.391  1.00  0.00     0.119 C 
ATOM      8  C   UNL A   1      33.029  24.139  26.048  1.00  0.00     0.100 C 
ATOM      9  C   UNL A   1      33.631  25.211  25.088  1.00  0.00     0.025 C 
ATOM     10  C   UNL A   1      34.513  22.882  24.372  1.00  0.00     0.026 C 
ATOM     11  C   UNL A   1      35.139  25.026  25.270  1.00  0.00    -0.027 C 
ATOM     12  C   UNL A   1      33.315  24.934  23.599  1.00  0.00     0.009 C 
ATOM     13  C   UNL A   1      35.579  23.792  24.962  1.00  0.00    -0.027 C 
ATOM     14  C   UNL A   1      33.995  23.634  23.129  1.00  0.00     0.009 C 
BRANCH   8  15
ATOM     15  C   UNL A   1      31.616  24.231  26.650  1.00  0.00     0.229 C 
ATOM     16  N   UNL A   1      30.668  25.130  26.272  1.00  0.00    -0.317 N 
ATOM     17  H   UNL A   1      29.783  24.990  26.679  1.00  0.00     0.170 HD
ATOM     18  O   UNL A   1      31.312  23.523  27.619  1.00  0.00    -0.274 OA
BRANCH  16  19
ATOM     19  C   UNL A   1      30.745  26.200  25.417  1.00  0.00     0.110 A 
ATOM     20  C   UNL A   1      31.252  27.463  25.713  1.00  0.00     0.098 A 
ATOM     21  C   UNL A   1      30.815  28.350  24.690  1.00  0.00    -0.017 A 
ATOM     22  S   UNL A   1      30.341  26.023  23.759  1.00  0.00    -0.122 S 
ATOM     23  C   UNL A   1      30.261  27.684  23.628  1.00  0.00     0.011 A 
ATOM     24  C   UNL A   1      30.767  29.816  24.463  1.00  0.00     0.038 C 
ATOM     25  C   UNL A   1      29.693  28.555  22.578  1.00  0.00     0.047 C 
ATOM     26  C   UNL A   1      29.719  29.932  23.307  1.00  0.00     0.010 C 
BRANCH  20  27
ATOM     27  C   UNL A   1      31.967  27.734  26.954  1.00  0.00     0.341 C 
ATOM     28  O   UNL A   1      31.412  27.647  28.046  1.00  0.00    -0.246 OA
BRANCH  27  29
ATOM     29  O   UNL A   1      33.272  28.069  26.772  1.00  0.00    -0.459 OA
BRANCH  29  30
ATOM     30  C   UNL A   1      33.831  29.172  27.526  1.00  0.00     0.170 C 
ATOM     31  C   UNL A   1      35.350  29.312  27.423  1.00  0.00     0.052 C 
ATOM     32  C   UNL A   1      33.098  30.466  27.191  1.00  0.00     0.052 C 
ENDBRANCH  29  30
ENDBRANCH  27  29
ENDBRANCH  20  27
ENDBRANCH  16  19
ENDBRANCH   8  15
ENDBRANCH   5   7
ENDBRANCH   4   5
ENDBRANCH   3   4
ENDBRANCH   2   3
ENDBRANCH   1   2
BRANCH   1  33
ATOM     33  C   UNL A   1      35.435  18.176  24.612  1.00  0.00     0.188 C 
BRANCH  33  34
ATOM     34  C   UNL A   1      36.019  19.551  24.995  1.00  0.00     0.188 C 
BRANCH  34  35
ATOM     35  O   UNL A   1      37.413  19.823  24.925  1.00  0.00    -0.376 OA
BRANCH  35  36
ATOM     36  C   UNL A   1      37.896  21.144  25.127  1.00  0.00     0.202 C 
BRANCH  36  37
ATOM     37  C   UNL A   1      39.125  21.375  26.004  1.00  0.00     0.261 C 
BRANCH  37  38
ATOM     38  O   UNL A   1      39.260  22.719  26.444  1.00  0.00    -0.460 OA
BRANCH  38  39
ATOM     39  C   UNL A   1      40.269  22.907  27.320  1.00  0.00     0.338 C 
ATOM     40  O   UNL A   1      40.690  22.114  28.147  1.00  0.00    -0.246 OA
BRANCH  39  41
ATOM     41  C   UNL A   1      40.839  24.246  27.138  1.00  0.00     0.060 A 
ATOM     42  C   UNL A   1      41.922  24.578  27.957  1.00  0.00     0.016 A 
ATOM     43  C   UNL A   1      40.170  25.206  26.368  1.00  0.00     0.016 A 
ATOM     44  C   UNL A   1      42.163  25.908  28.216  1.00  0.00     0.010 A 
ATOM     45  C   UNL A   1      40.409  26.537  26.630  1.00  0.00     0.010 A 
ATOM     46  C   UNL A   1      41.317  26.858  27.639  1.00  0.00    -0.014 A 
BRANCH  46  47
ATOM     47  C   UNL A   1      41.294  28.169  28.256  1.00  0.00     0.031 A 
ATOM     48  C   UNL A   1      42.408  29.075  27.925  1.00  0.00     0.074 A 
ATOM     49  C   UNL A   1      40.265  28.531  29.048  1.00  0.00     0.049 A 
ATOM     50  N   UNL A   1      43.232  29.656  28.733  1.00  0.00    -0.248 NA
ATOM     51  C   UNL A   1      42.666  29.325  26.500  1.00  0.00     0.031 C 
ATOM     52  C   UNL A   1      38.986  27.837  29.234  1.00  0.00     0.029 A 
ATOM     53  N   UNL A   1      40.111  29.671  29.776  1.00  0.00    -0.354 N 
ATOM     54  C   UNL A   1      44.018  30.476  27.934  1.00  0.00     0.074 A 
ATOM     55  C   UNL A   1      43.703  30.158  26.564  1.00  0.00     0.031 C 
ATOM     56  C   UNL A   1      38.117  28.670  29.845  1.00  0.00     0.029 A 
ATOM     57  C   UNL A   1      38.810  29.899  30.194  1.00  0.00     0.049 A 
ATOM     58  H   UNL A   1      40.857  30.279  29.986  1.00  0.00     0.167 HD
ATOM     59  C   UNL A   1      44.726  31.514  28.448  1.00  0.00     0.037 A 
ATOM     60  C   UNL A   1      38.324  31.052  30.707  1.00  0.00     0.037 A 
ATOM     61  C   UNL A   1      44.977  31.370  29.854  1.00  0.00     0.049 A 
ATOM     62  C   UNL A   1      39.473  31.860  31.185  1.00  0.00     0.074 A 
ATOM     63  C   UNL A   1      45.637  30.430  30.623  1.00  0.00     0.029 A 
ATOM     64  N   UNL A   1      44.245  32.120  30.738  1.00  0.00    -0.354 N 
ATOM     65  N   UNL A   1      40.199  31.570  32.229  1.00  0.00    -0.248 NA
ATOM     66  C   UNL A   1      40.067  32.815  30.261  1.00  0.00     0.031 C 
ATOM     67  C   UNL A   1      44.911  30.367  31.848  1.00  0.00     0.029 A 
ATOM     68  C   UNL A   1      43.863  31.283  31.756  1.00  0.00     0.049 A 
ATOM     69  H   UNL A   1      44.034  33.078  30.659  1.00  0.00     0.167 HD
ATOM     70  C   UNL A   1      41.481  31.970  31.890  1.00  0.00     0.074 A 
ATOM     71  C   UNL A   1      41.317  32.835  30.728  1.00  0.00     0.031 C 
ATOM     72  C   UNL A   1      42.576  31.342  32.409  1.00  0.00     0.037 A 
BRANCH  59  73
ATOM     73  C   UNL A   1      44.915  32.800  27.702  1.00  0.00     0.064 A 
ATOM     74  C   UNL A   1      46.119  33.059  27.026  1.00  0.00     0.173 A 
ATOM     75  C   UNL A   1      44.037  33.897  27.846  1.00  0.00     0.173 A 
ATOM     76  F   UNL A   1      47.043  32.097  26.890  1.00  0.00    -0.203 F 
ATOM     77  C   UNL A   1      46.427  34.334  26.544  1.00  0.00     0.198 A 
ATOM     78  C   UNL A   1      44.320  35.151  27.314  1.00  0.00     0.198 A 
ATOM     79  F   UNL A   1      42.927  33.816  28.592  1.00  0.00    -0.203 F 
ATOM     80  F   UNL A   1      47.625  34.564  25.992  1.00  0.00    -0.200 F 
ATOM     81  C   UNL A   1      45.525  35.376  26.681  1.00  0.00     0.200 A 
ATOM     82  F   UNL A   1      43.446  36.154  27.483  1.00  0.00    -0.200 F 
ATOM     83  F   UNL A   1      45.836  36.606  26.253  1.00  0.00    -0.200 F 
ENDBRANCH  59  73
BRANCH  60  84
ATOM     84  C   UNL A   1      36.964  31.614  30.553  1.00  0.00     0.064 A 
ATOM     85  C   UNL A   1      36.140  31.831  31.669  1.00  0.00     0.173 A 
ATOM     86  C   UNL A   1      36.537  32.190  29.340  1.00  0.00     0.173 A 
ATOM     87  F   UNL A   1      36.498  31.359  32.873  1.00  0.00    -0.203 F 
ATOM     88  C   UNL A   1      34.972  32.593  31.580  1.00  0.00     0.198 A 
ATOM     89  C   UNL A   1      35.364  32.938  29.248  1.00  0.00     0.198 A 
ATOM     90  F   UNL A   1      37.297  32.121  28.237  1.00  0.00    -0.203 F 
ATOM     91  F   UNL A   1      34.246  32.833  32.680  1.00  0.00    -0.200 F 
ATOM     92  C   UNL A   1      34.589  33.150  30.371  1.00  0.00     0.200 A 
ATOM     93  F   UNL A   1      35.024  33.499  28.080  1.00  0.00    -0.200 F 
ATOM     94  F   UNL A   1      33.498  33.926  30.297  1.00  0.00    -0.200 F 
ENDBRANCH  60  84
BRANCH  72  95
ATOM     95  C   UNL A   1      42.358  30.422  33.577  1.00  0.00     0.064 A 
ATOM     96  C   UNL A   1      42.422  30.838  34.918  1.00  0.00     0.173 A 
ATOM     97  C   UNL A   1      41.945  29.106  33.328  1.00  0.00     0.173 A 
ATOM     98  F   UNL A   1      42.703  32.110  35.232  1.00  0.00    -0.203 F 
ATOM     99  C   UNL A   1      42.143  29.958  35.962  1.00  0.00     0.198 A 
ATOM    100  C   UNL A   1      41.630  28.240  34.372  1.00  0.00     0.198 A 
ATOM    101  F   UNL A   1      41.805  28.672  32.066  1.00  0.00    -0.203 F 
ATOM    102  F   UNL A   1      42.233  30.373  37.234  1.00  0.00    -0.200 F 
ATOM    103  C   UNL A   1      41.742  28.662  35.687  1.00  0.00     0.200 A 
ATOM    104  F   UNL A   1      41.192  27.002  34.102  1.00  0.00    -0.200 F 
ATOM    105  F   UNL A   1      41.436  27.825  36.689  1.00  0.00    -0.200 F 
ENDBRANCH  72  95
ENDBRANCH  46  47
ENDBRANCH  39  41
ENDBRANCH  38  39
ENDBRANCH  37  38
ENDBRANCH  36  37
ENDBRANCH  35  36
ENDBRANCH  34  35
ENDBRANCH  33  34
ENDBRANCH   1  33
TORSDOF 22
ENDMDL
MODEL 2
REMARK VINA RESULT:     -11.8      2.816      8.767
REMARK SMILES CC(C)OC(=O)c1c(NC(=O)[C@H]2[C@@H](C(=O)OCCOCCOCCOC(=O)c3ccc(-c4c5nc(c(-c6c(F)c(F)c(F)c(F)c6F)c6ccc([nH]6)c(-c6c(F)c(F)c(F)c(F)c6F)c6nc(c(-c7c(F)c(F)c(F)c(F)c7F)c7ccc4[nH]7)C=C6)C=C5)cc3)[C@@H]3C=C[C@H]2CC3)sc2c1CCC2
REMARK SMILES IDX 19 1 18 2 17 3 16 4 14 5 15 6 13 7 12 8 94 9 91 10 93 11
REMARK SMILES IDX 95 12 92 13 96 14 10 15 9 16 11 18 8 19 7 20 99 21 97 22
REMARK SMILES IDX 98 23 100 24 102 25 101 26 5 27 6 28 4 29 2 30 1 31 3 32
REMARK SMILES IDX 20 33 21 34 22 35 23 36 24 37 25 38 26 39 27 40 28 41 29 42
REMARK SMILES IDX 90 43 30 44 89 45 31 46 32 47 33 48 83 49 34 50 88 51 82 52
REMARK SMILES IDX 84 53 35 54 87 55 81 56 80 57 36 59 68 60 48 61 67 62 49 63
REMARK SMILES IDX 52 64 66 65 85 66 50 67 51 68 65 70 86 71 53 72 37 73 38 74
REMARK SMILES IDX 46 75 39 76 40 77 44 78 47 79 41 80 42 81 45 82 43 83 69 84
REMARK SMILES IDX 70 85 78 86 71 87 72 88 76 89 79 90 73 91 74 92 77 93 75 94
REMARK SMILES IDX 54 95 55 96 63 97 56 98 57 99 61 100 64 101 58 102 59 103
REMARK SMILES IDX 62 104 60 105
REMARK H PARENT 9 17 84 58 52 69
REMARK Flexibility Score: inf
ROOT
ATOM      1  O   UNL A   1      33.897  30.606  28.002  1.00  0.00    -0.376 OA
ENDROOT
BRANCH   1   2
ATOM      2  C   UNL A   1      33.394  29.736  26.979  1.00  0.00     0.202 C 
BRANCH   2   3
ATOM      3  C   UNL A   1      34.399  28.668  26.523  1.00  0.00     0.261 C 
BRANCH   3   4
ATOM      4  O   UNL A   1      33.743  27.463  26.102  1.00  0.00    -0.463 OA
BRANCH   4   5
ATOM      5  C   UNL A   1      33.445  27.347  24.783  1.00  0.00     0.310 C 
ATOM      6  O   UNL A   1      34.092  27.849  23.875  1.00  0.00    -0.252 OA
BRANCH   5   7
ATOM      7  C   UNL A   1      32.153  26.547  24.629  1.00  0.00     0.119 C 
ATOM      8  C   UNL A   1      31.884  25.976  23.194  1.00  0.00     0.100 C 
ATOM      9  C   UNL A   1      30.776  26.886  22.577  1.00  0.00     0.025 C 
ATOM     10  C   UNL A   1      30.956  27.414  25.108  1.00  0.00     0.026 C 
ATOM     11  C   UNL A   1      29.534  26.510  23.388  1.00  0.00    -0.027 C 
ATOM     12  C   UNL A   1      31.033  28.393  22.809  1.00  0.00     0.009 C 
ATOM     13  C   UNL A   1      29.660  26.724  24.711  1.00  0.00    -0.027 C 
ATOM     14  C   UNL A   1      30.959  28.735  24.310  1.00  0.00     0.009 C 
BRANCH   8  15
ATOM     15  C   UNL A   1      33.160  25.560  22.442  1.00  0.00     0.229 C 
ATOM     16  N   UNL A   1      33.698  24.311  22.457  1.00  0.00    -0.317 N 
ATOM     17  H   UNL A   1      34.455  24.182  21.842  1.00  0.00     0.170 HD
ATOM     18  O   UNL A   1      33.832  26.415  21.851  1.00  0.00    -0.274 OA
BRANCH  16  19
ATOM     19  C   UNL A   1      33.358  23.204  23.192  1.00  0.00     0.110 A 
ATOM     20  C   UNL A   1      33.797  22.895  24.478  1.00  0.00     0.098 A 
ATOM     21  C   UNL A   1      33.508  21.521  24.710  1.00  0.00    -0.017 A 
ATOM     22  S   UNL A   1      32.170  22.108  22.619  1.00  0.00    -0.122 S 
ATOM     23  C   UNL A   1      32.695  20.992  23.743  1.00  0.00     0.011 A 
ATOM     24  C   UNL A   1      33.871  20.483  25.706  1.00  0.00     0.038 C 
ATOM     25  C   UNL A   1      32.443  19.541  23.870  1.00  0.00     0.047 C 
ATOM     26  C   UNL A   1      33.501  19.163  24.950  1.00  0.00     0.010 C 
BRANCH  20  27
ATOM     27  C   UNL A   1      34.534  23.854  25.290  1.00  0.00     0.341 C 
ATOM     28  O   UNL A   1      34.178  24.137  26.431  1.00  0.00    -0.246 OA
BRANCH  27  29
ATOM     29  O   UNL A   1      35.629  24.370  24.670  1.00  0.00    -0.459 OA
BRANCH  29  30
ATOM     30  C   UNL A   1      36.879  23.641  24.717  1.00  0.00     0.170 C 
ATOM     31  C   UNL A   1      37.259  23.114  26.101  1.00  0.00     0.052 C 
ATOM     32  C   UNL A   1      36.897  22.554  23.650  1.00  0.00     0.052 C 
ENDBRANCH  29  30
ENDBRANCH  27  29
ENDBRANCH  20  27
ENDBRANCH  16  19
ENDBRANCH   8  15
ENDBRANCH   5   7
ENDBRANCH   4   5
ENDBRANCH   3   4
ENDBRANCH   2   3
ENDBRANCH   1   2
BRANCH   1  33
ATOM     33  C   UNL A   1      34.997  31.406  27.584  1.00  0.00     0.188 C 
BRANCH  33  34
ATOM     34  C   UNL A   1      35.104  32.800  28.233  1.00  0.00     0.188 C 
BRANCH  34  35
ATOM     35  O   UNL A   1      34.229  33.864  27.881  1.00  0.00    -0.376 OA
BRANCH  35  36
ATOM     36  C   UNL A   1      34.253  35.083  28.611  1.00  0.00     0.202 C 
BRANCH  36  37
ATOM     37  C   UNL A   1      33.229  35.322  29.719  1.00  0.00     0.261 C 
BRANCH  37  38
ATOM     38  O   UNL A   1      33.387  34.451  30.831  1.00  0.00    -0.460 OA
BRANCH  38  39
ATOM     39  C   UNL A   1      33.803  35.071  31.954  1.00  0.00     0.338 C 
ATOM     40  O   UNL A   1      33.401  36.130  32.409  1.00  0.00    -0.246 OA
BRANCH  39  41
ATOM     41  C   UNL A   1      34.843  34.267  32.606  1.00  0.00     0.060 A 
ATOM     42  C   UNL A   1      36.002  34.946  32.995  1.00  0.00     0.016 A 
ATOM     43  C   UNL A   1      34.770  32.868  32.601  1.00  0.00     0.016 A 
ATOM     44  C   UNL A   1      37.169  34.229  33.119  1.00  0.00     0.010 A 
ATOM     45  C   UNL A   1      35.939  32.151  32.720  1.00  0.00     0.010 A 
ATOM     46  C   UNL A   1      37.135  32.857  32.856  1.00  0.00    -0.014 A 
BRANCH  46  47
ATOM     47  C   UNL A   1      38.401  32.221  32.552  1.00  0.00     0.031 A 
ATOM     48  C   UNL A   1      39.350  32.071  33.669  1.00  0.00     0.074 A 
ATOM     49  C   UNL A   1      38.648  31.754  31.312  1.00  0.00     0.049 A 
ATOM     50  N   UNL A   1      40.566  32.501  33.747  1.00  0.00    -0.248 NA
ATOM     51  C   UNL A   1      38.859  31.394  34.878  1.00  0.00     0.031 C 
ATOM     52  C   UNL A   1      37.699  31.598  30.204  1.00  0.00     0.029 A 
ATOM     53  N   UNL A   1      39.795  31.212  30.819  1.00  0.00    -0.354 N 
ATOM     54  C   UNL A   1      41.055  32.014  34.952  1.00  0.00     0.074 A 
ATOM     55  C   UNL A   1      39.939  31.432  35.655  1.00  0.00     0.031 C 
ATOM     56  C   UNL A   1      38.253  30.813  29.256  1.00  0.00     0.029 A 
ATOM     57  C   UNL A   1      39.624  30.514  29.635  1.00  0.00     0.049 A 
ATOM     58  H   UNL A   1      40.669  31.308  31.265  1.00  0.00     0.167 HD
ATOM     59  C   UNL A   1      42.386  31.929  35.205  1.00  0.00     0.037 A 
ATOM     60  C   UNL A   1      40.520  29.679  29.061  1.00  0.00     0.037 A 
ATOM     61  C   UNL A   1      43.162  32.811  34.380  1.00  0.00     0.049 A 
ATOM     62  C   UNL A   1      41.857  29.985  29.624  1.00  0.00     0.074 A 
ATOM     63  C   UNL A   1      43.199  34.181  34.202  1.00  0.00     0.029 A 
ATOM     64  N   UNL A   1      43.867  32.285  33.328  1.00  0.00    -0.354 N 
ATOM     65  N   UNL A   1      42.536  31.068  29.371  1.00  0.00    -0.248 NA
ATOM     66  C   UNL A   1      42.291  29.238  30.796  1.00  0.00     0.031 C 
ATOM     67  C   UNL A   1      43.510  34.374  32.825  1.00  0.00     0.029 A 
ATOM     68  C   UNL A   1      43.661  33.111  32.252  1.00  0.00     0.049 A 
ATOM     69  H   UNL A   1      44.417  31.468  33.341  1.00  0.00     0.167 HD
ATOM     70  C   UNL A   1      43.193  31.359  30.557  1.00  0.00     0.074 A 
ATOM     71  C   UNL A   1      43.103  30.140  31.352  1.00  0.00     0.031 C 
ATOM     72  C   UNL A   1      43.503  32.644  30.894  1.00  0.00     0.037 A 
BRANCH  59  73
ATOM     73  C   UNL A   1      42.978  30.808  36.004  1.00  0.00     0.064 A 
ATOM     74  C   UNL A   1      43.798  31.081  37.111  1.00  0.00     0.173 A 
ATOM     75  C   UNL A   1      42.968  29.469  35.555  1.00  0.00     0.173 A 
ATOM     76  F   UNL A   1      43.921  32.332  37.575  1.00  0.00    -0.203 F 
ATOM     77  C   UNL A   1      44.566  30.081  37.715  1.00  0.00     0.198 A 
ATOM     78  C   UNL A   1      43.689  28.465  36.194  1.00  0.00     0.198 A 
ATOM     79  F   UNL A   1      42.342  29.111  34.425  1.00  0.00    -0.203 F 
ATOM     80  F   UNL A   1      45.408  30.398  38.707  1.00  0.00    -0.200 F 
ATOM     81  C   UNL A   1      44.505  28.774  37.261  1.00  0.00     0.200 A 
ATOM     82  F   UNL A   1      43.638  27.211  35.721  1.00  0.00    -0.200 F 
ATOM     83  F   UNL A   1      45.270  27.825  37.815  1.00  0.00    -0.200 F 
ENDBRANCH  59  73
BRANCH  60  84
ATOM     84  C   UNL A   1      40.247  28.456  28.273  1.00  0.00     0.064 A 
ATOM     85  C   UNL A   1      40.841  28.258  27.016  1.00  0.00     0.173 A 
ATOM     86  C   UNL A   1      39.604  27.339  28.844  1.00  0.00     0.173 A 
ATOM     87  F   UNL A   1      41.515  29.255  26.425  1.00  0.00    -0.203 F 
ATOM     88  C   UNL A   1      40.809  27.014  26.379  1.00  0.00     0.198 A 
ATOM     89  C   UNL A   1      39.560  26.103  28.201  1.00  0.00     0.198 A 
ATOM     90  F   UNL A   1      39.087  27.397  30.079  1.00  0.00    -0.203 F 
ATOM     91  F   UNL A   1      41.443  26.847  25.211  1.00  0.00    -0.200 F 
ATOM     92  C   UNL A   1      40.174  25.937  26.975  1.00  0.00     0.200 A 
ATOM     93  F   UNL A   1      38.971  25.061  28.805  1.00  0.00    -0.200 F 
ATOM     94  F   UNL A   1      40.191  24.731  26.390  1.00  0.00    -0.200 F 
ENDBRANCH  60  84
BRANCH  72  95
ATOM     95  C   UNL A   1      43.391  33.689  29.820  1.00  0.00     0.064 A 
ATOM     96  C   UNL A   1      42.201  34.380  29.529  1.00  0.00     0.173 A 
ATOM     97  C   UNL A   1      44.553  34.095  29.152  1.00  0.00     0.173 A 
ATOM     98  F   UNL A   1      41.072  34.124  30.204  1.00  0.00    -0.203 F 
ATOM     99  C   UNL A   1      42.169  35.389  28.568  1.00  0.00     0.198 A 
ATOM    100  C   UNL A   1      44.527  35.130  28.221  1.00  0.00     0.198 A 
ATOM    101  F   UNL A   1      45.730  33.514  29.436  1.00  0.00    -0.203 F 
ATOM    102  F   UNL A   1      41.018  36.019  28.292  1.00  0.00    -0.200 F 
ATOM    103  C   UNL A   1      43.333  35.767  27.920  1.00  0.00     0.200 A 
ATOM    104  F   UNL A   1      45.663  35.528  27.633  1.00  0.00    -0.200 F 
ATOM    105  F   UNL A   1      43.311  36.764  27.023  1.00  0.00    -0.200 F 
ENDBRANCH  72  95
ENDBRANCH  46  47
ENDBRANCH  39  41
ENDBRANCH  38  39
ENDBRANCH  37  38
ENDBRANCH  36  37
ENDBRANCH  35  36
ENDBRANCH  34  35
ENDBRANCH  33  34
ENDBRANCH   1  33
TORSDOF 22
ENDMDL
MODEL 3
REMARK VINA RESULT:     -11.7      2.800      8.921
REMARK SMILES CC(C)OC(=O)c1c(NC(=O)[C@H]2[C@@H](C(=O)OCCOCCOCCOC(=O)c3ccc(-c4c5nc(c(-c6c(F)c(F)c(F)c(F)c6F)c6ccc([nH]6)c(-c6c(F)c(F)c(F)c(F)c6F)c6nc(c(-c7c(F)c(F)c(F)c(F)c7F)c7ccc4[nH]7)C=C6)C=C5)cc3)[C@@H]3C=C[C@H]2CC3)sc2c1CCC2
REMARK SMILES IDX 19 1 18 2 17 3 16 4 14 5 15 6 13 7 12 8 94 9 91 10 93 11
REMARK SMILES IDX 95 12 92 13 96 14 10 15 9 16 11 18 8 19 7 20 99 21 97 22
REMARK SMILES IDX 98 23 100 24 102 25 101 26 5 27 6 28 4 29 2 30 1 31 3 32
REMARK SMILES IDX 20 33 21 34 22 35 23 36 24 37 25 38 26 39 27 40 28 41 29 42
REMARK SMILES IDX 90 43 30 44 89 45 31 46 32 47 33 48 83 49 34 50 88 51 82 52
REMARK SMILES IDX 84 53 35 54 87 55 81 56 80 57 36 59 68 60 48 61 67 62 49 63
REMARK SMILES IDX 52 64 66 65 85 66 50 67 51 68 65 70 86 71 53 72 37 73 38 74
REMARK SMILES IDX 46 75 39 76 40 77 44 78 47 79 41 80 42 81 45 82 43 83 69 84
REMARK SMILES IDX 70 85 78 86 71 87 72 88 76 89 79 90 73 91 74 92 77 93 75 94
REMARK SMILES IDX 54 95 55 96 63 97 56 98 57 99 61 100 64 101 58 102 59 103
REMARK SMILES IDX 62 104 60 105
REMARK H PARENT 9 17 84 58 52 69
REMARK Flexibility Score: inf
ROOT
ATOM      1  O   UNL A   1      33.428  30.486  27.815  1.00  0.00    -0.376 OA
ENDROOT
BRANCH   1   2
ATOM      2  C   UNL A   1      33.083  29.641  26.709  1.00  0.00     0.202 C 
BRANCH   2   3
ATOM      3  C   UNL A   1      34.228  28.731  26.242  1.00  0.00     0.261 C 
BRANCH   3   4
ATOM      4  O   UNL A   1      33.765  27.410  25.928  1.00  0.00    -0.463 OA
BRANCH   4   5
ATOM      5  C   UNL A   1      33.431  27.161  24.635  1.00  0.00     0.310 C 
ATOM      6  O   UNL A   1      34.016  27.615  23.663  1.00  0.00    -0.252 OA
BRANCH   5   7
ATOM      7  C   UNL A   1      32.185  26.278  24.602  1.00  0.00     0.119 C 
ATOM      8  C   UNL A   1      31.873  25.610  23.218  1.00  0.00     0.100 C 
ATOM      9  C   UNL A   1      30.678  26.415  22.619  1.00  0.00     0.025 C 
ATOM     10  C   UNL A   1      30.964  27.099  25.102  1.00  0.00     0.026 C 
ATOM     11  C   UNL A   1      29.509  26.014  23.520  1.00  0.00    -0.027 C 
ATOM     12  C   UNL A   1      30.853  27.946  22.753  1.00  0.00     0.009 C 
ATOM     13  C   UNL A   1      29.694  26.311  24.820  1.00  0.00    -0.027 C 
ATOM     14  C   UNL A   1      30.841  28.369  24.235  1.00  0.00     0.009 C 
BRANCH   8  15
ATOM     15  C   UNL A   1      33.129  25.226  22.417  1.00  0.00     0.229 C 
ATOM     16  N   UNL A   1      34.044  24.297  22.803  1.00  0.00    -0.317 N 
ATOM     17  H   UNL A   1      34.732  24.094  22.130  1.00  0.00     0.170 HD
ATOM     18  O   UNL A   1      33.419  25.856  21.391  1.00  0.00    -0.274 OA
BRANCH  16  19
ATOM     19  C   UNL A   1      34.162  23.599  23.978  1.00  0.00     0.110 A 
ATOM     20  C   UNL A   1      33.483  22.432  24.320  1.00  0.00     0.098 A 
ATOM     21  C   UNL A   1      33.618  22.255  25.725  1.00  0.00    -0.017 A 
ATOM     22  S   UNL A   1      35.343  24.041  25.140  1.00  0.00    -0.122 S 
ATOM     23  C   UNL A   1      34.544  23.106  26.268  1.00  0.00     0.011 A 
ATOM     24  C   UNL A   1      33.006  21.414  26.784  1.00  0.00     0.038 C 
ATOM     25  C   UNL A   1      34.656  23.045  27.741  1.00  0.00     0.047 C 
ATOM     26  C   UNL A   1      33.399  22.190  28.085  1.00  0.00     0.010 C 
BRANCH  20  27
ATOM     27  C   UNL A   1      32.691  21.688  23.348  1.00  0.00     0.341 C 
ATOM     28  O   UNL A   1      31.700  22.181  22.816  1.00  0.00    -0.246 OA
BRANCH  27  29
ATOM     29  O   UNL A   1      33.165  20.438  23.098  1.00  0.00    -0.459 OA
BRANCH  29  30
ATOM     30  C   UNL A   1      32.301  19.298  23.316  1.00  0.00     0.170 C 
ATOM     31  C   UNL A   1      32.271  18.289  22.167  1.00  0.00     0.052 C 
ATOM     32  C   UNL A   1      32.612  18.648  24.659  1.00  0.00     0.052 C 
ENDBRANCH  29  30
ENDBRANCH  27  29
ENDBRANCH  20  27
ENDBRANCH  16  19
ENDBRANCH   8  15
ENDBRANCH   5   7
ENDBRANCH   4   5
ENDBRANCH   3   4
ENDBRANCH   2   3
ENDBRANCH   1   2
BRANCH   1  33
ATOM     33  C   UNL A   1      34.536  31.341  27.559  1.00  0.00     0.188 C 
BRANCH  33  34
ATOM     34  C   UNL A   1      34.586  32.647  28.377  1.00  0.00     0.188 C 
BRANCH  34  35
ATOM     35  O   UNL A   1      34.839  33.907  27.769  1.00  0.00    -0.376 OA
BRANCH  35  36
ATOM     36  C   UNL A   1      34.606  35.110  28.490  1.00  0.00     0.202 C 
BRANCH  36  37
ATOM     37  C   UNL A   1      33.264  35.328  29.187  1.00  0.00     0.261 C 
BRANCH  37  38
ATOM     38  O   UNL A   1      33.152  34.639  30.425  1.00  0.00    -0.460 OA
BRANCH  38  39
ATOM     39  C   UNL A   1      33.647  35.325  31.475  1.00  0.00     0.338 C 
ATOM     40  O   UNL A   1      33.341  36.450  31.837  1.00  0.00    -0.246 OA
BRANCH  39  41
ATOM     41  C   UNL A   1      34.641  34.505  32.176  1.00  0.00     0.060 A 
ATOM     42  C   UNL A   1      35.779  35.170  32.643  1.00  0.00     0.016 A 
ATOM     43  C   UNL A   1      34.560  33.107  32.147  1.00  0.00     0.016 A 
ATOM     44  C   UNL A   1      36.933  34.444  32.826  1.00  0.00     0.010 A 
ATOM     45  C   UNL A   1      35.716  32.380  32.326  1.00  0.00     0.010 A 
ATOM     46  C   UNL A   1      36.905  33.076  32.543  1.00  0.00    -0.014 A 
BRANCH  46  47
ATOM     47  C   UNL A   1      38.183  32.435  32.305  1.00  0.00     0.031 A 
ATOM     48  C   UNL A   1      39.099  32.342  33.456  1.00  0.00     0.074 A 
ATOM     49  C   UNL A   1      38.470  31.913  31.096  1.00  0.00     0.049 A 
ATOM     50  N   UNL A   1      40.310  32.783  33.550  1.00  0.00    -0.248 NA
ATOM     51  C   UNL A   1      38.576  31.718  34.679  1.00  0.00     0.031 C 
ATOM     52  C   UNL A   1      37.555  31.701  29.969  1.00  0.00     0.029 A 
ATOM     53  N   UNL A   1      39.634  31.357  30.663  1.00  0.00    -0.354 N 
ATOM     54  C   UNL A   1      40.766  32.354  34.790  1.00  0.00     0.074 A 
ATOM     55  C   UNL A   1      39.633  31.798  35.486  1.00  0.00     0.031 C 
ATOM     56  C   UNL A   1      38.141  30.877  29.074  1.00  0.00     0.029 A 
ATOM     57  C   UNL A   1      39.502  30.605  29.507  1.00  0.00     0.049 A 
ATOM     58  H   UNL A   1      40.493  31.479  31.129  1.00  0.00     0.167 HD
ATOM     59  C   UNL A   1      42.089  32.290  35.085  1.00  0.00     0.037 A 
ATOM     60  C   UNL A   1      40.418  29.750  28.998  1.00  0.00     0.037 A 
ATOM     61  C   UNL A   1      42.885  33.139  34.245  1.00  0.00     0.049 A 
ATOM     62  C   UNL A   1      41.737  30.091  29.586  1.00  0.00     0.074 A 
ATOM     63  C   UNL A   1      42.919  34.499  34.005  1.00  0.00     0.029 A 
ATOM     64  N   UNL A   1      43.623  32.570  33.238  1.00  0.00    -0.354 N 
ATOM     65  N   UNL A   1      42.418  31.166  29.304  1.00  0.00    -0.248 NA
ATOM     66  C   UNL A   1      42.139  29.401  30.803  1.00  0.00     0.031 C 
ATOM     67  C   UNL A   1      43.271  34.632  32.630  1.00  0.00     0.029 A 
ATOM     68  C   UNL A   1      43.445  33.345  32.120  1.00  0.00     0.049 A 
ATOM     69  H   UNL A   1      44.177  31.758  33.305  1.00  0.00     0.167 HD
ATOM     70  C   UNL A   1      43.037  31.514  30.494  1.00  0.00     0.074 A 
ATOM     71  C   UNL A   1      42.930  30.332  31.341  1.00  0.00     0.031 C 
ATOM     72  C   UNL A   1      43.330  32.816  30.782  1.00  0.00     0.037 A 
BRANCH  59  73
ATOM     73  C   UNL A   1      42.663  31.210  35.952  1.00  0.00     0.064 A 
ATOM     74  C   UNL A   1      43.451  31.539  37.067  1.00  0.00     0.173 A 
ATOM     75  C   UNL A   1      42.670  29.851  35.566  1.00  0.00     0.173 A 
ATOM     76  F   UNL A   1      43.556  32.811  37.476  1.00  0.00    -0.203 F 
ATOM     77  C   UNL A   1      44.205  30.572  37.739  1.00  0.00     0.198 A 
ATOM     78  C   UNL A   1      43.377  28.882  36.271  1.00  0.00     0.198 A 
ATOM     79  F   UNL A   1      42.077  29.438  34.438  1.00  0.00    -0.203 F 
ATOM     80  F   UNL A   1      45.019  30.940  38.737  1.00  0.00    -0.200 F 
ATOM     81  C   UNL A   1      44.162  29.245  37.344  1.00  0.00     0.200 A 
ATOM     82  F   UNL A   1      43.344  27.607  35.855  1.00  0.00    -0.200 F 
ATOM     83  F   UNL A   1      44.915  28.326  37.963  1.00  0.00    -0.200 F 
ENDBRANCH  59  73
BRANCH  60  84
ATOM     84  C   UNL A   1      40.176  28.491  28.259  1.00  0.00     0.064 A 
ATOM     85  C   UNL A   1      40.802  28.244  27.027  1.00  0.00     0.173 A 
ATOM     86  C   UNL A   1      39.529  27.394  28.863  1.00  0.00     0.173 A 
ATOM     87  F   UNL A   1      41.481  29.220  26.408  1.00  0.00    -0.203 F 
ATOM     88  C   UNL A   1      40.797  26.972  26.445  1.00  0.00     0.198 A 
ATOM     89  C   UNL A   1      39.511  26.130  28.276  1.00  0.00     0.198 A 
ATOM     90  F   UNL A   1      38.981  27.502  30.083  1.00  0.00    -0.203 F 
ATOM     91  F   UNL A   1      41.460  26.759  25.301  1.00  0.00    -0.200 F 
ATOM     92  C   UNL A   1      40.157  25.916  27.073  1.00  0.00     0.200 A 
ATOM     93  F   UNL A   1      38.917  25.111  28.911  1.00  0.00    -0.200 F 
ATOM     94  F   UNL A   1      40.198  24.686  26.543  1.00  0.00    -0.200 F 
ENDBRANCH  60  84
BRANCH  72  95
ATOM     95  C   UNL A   1      43.244  33.810  29.658  1.00  0.00     0.064 A 
ATOM     96  C   UNL A   1      44.305  34.080  28.776  1.00  0.00     0.173 A 
ATOM     97  C   UNL A   1      42.010  34.414  29.387  1.00  0.00     0.173 A 
ATOM     98  F   UNL A   1      45.484  33.457  28.905  1.00  0.00    -0.203 F 
ATOM     99  C   UNL A   1      44.150  34.961  27.707  1.00  0.00     0.198 A 
ATOM    100  C   UNL A   1      41.846  35.263  28.296  1.00  0.00     0.198 A 
ATOM    101  F   UNL A   1      40.944  34.144  30.158  1.00  0.00    -0.203 F 
ATOM    102  F   UNL A   1      45.183  35.219  26.892  1.00  0.00    -0.200 F 
ATOM    103  C   UNL A   1      42.918  35.547  27.466  1.00  0.00     0.200 A 
ATOM    104  F   UNL A   1      40.641  35.789  28.035  1.00  0.00    -0.200 F 
ATOM    105  F   UNL A   1      42.757  36.366  26.415  1.00  0.00    -0.200 F 
ENDBRANCH  72  95
ENDBRANCH  46  47
ENDBRANCH  39  41
ENDBRANCH  38  39
ENDBRANCH  37  38
ENDBRANCH  36  37
ENDBRANCH  35  36
ENDBRANCH  34  35
ENDBRANCH  33  34
ENDBRANCH   1  33
TORSDOF 22
ENDMDL
