MODEL 1
REMARK VINA RESULT:     -10.9      0.000      0.000
REMARK SMILES N#C/C(=C/c1cccc(OC2CCCC2)c1)C(=O)OCCOCCOCCOC(=O)c1ccc(-c2c3nc(c(-c4c(F)c(F)c(F)c(F)c4F)c4ccc([nH]4)c(-c4c(F)c(F)c(F)c(F)c4F)c4nc(c(-c5c(F)c(F)c(F)c(F)c5F)c5ccc2[nH]5)C=C4)C=C3)cc1
REMARK SMILES IDX 23 1 22 2 21 3 20 4 19 5 17 6 18 7 3 8 4 9 2 10 1 11 5 12
REMARK SMILES IDX 6 13 16 14 7 15 9 16 8 17 10 18 11 19 12 20 15 21 13 22
REMARK SMILES IDX 14 23 24 24 25 25 26 26 27 27 28 28 29 29 30 30 31 31 32 32
REMARK SMILES IDX 93 33 33 34 92 35 34 36 35 37 36 38 86 39 37 40 91 41 85 42
REMARK SMILES IDX 87 43 38 44 90 45 84 46 83 47 39 49 71 50 51 51 70 52 52 53
REMARK SMILES IDX 55 54 69 55 88 56 53 57 54 58 68 60 89 61 56 62 40 63 41 64
REMARK SMILES IDX 49 65 42 66 43 67 47 68 50 69 44 70 45 71 48 72 46 73 72 74
REMARK SMILES IDX 73 75 81 76 74 77 75 78 79 79 82 80 76 81 77 82 80 83 78 84
REMARK SMILES IDX 57 85 58 86 66 87 59 88 60 89 64 90 67 91 61 92 62 93 65 94
REMARK SMILES IDX 63 95
REMARK H PARENT 87 48 55 59
REMARK Flexibility Score: inf
ROOT
ATOM      1  C   UNL A   1      32.791  28.344  25.414  1.00  0.00     0.188 C 
ENDROOT
BRANCH   1   2
ATOM      2  O   UNL A   1      32.325  27.723  26.602  1.00  0.00    -0.376 OA
BRANCH   2   3
ATOM      3  C   UNL A   1      31.361  26.691  26.473  1.00  0.00     0.202 C 
BRANCH   3   4
ATOM      4  C   UNL A   1      31.748  25.471  25.633  1.00  0.00     0.261 C 
BRANCH   4   5
ATOM      5  O   UNL A   1      31.138  25.443  24.321  1.00  0.00    -0.459 OA
BRANCH   5   6
ATOM      6  C   UNL A   1      31.468  24.409  23.505  1.00  0.00     0.348 C 
ATOM      7  O   UNL A   1      30.692  23.547  23.115  1.00  0.00    -0.245 OA
BRANCH   6   8
ATOM      8  C   UNL A   1      32.882  24.501  22.993  1.00  0.00     0.137 C 
ATOM      9  C   UNL A   1      33.886  23.725  23.442  1.00  0.00     0.035 C 
BRANCH   8  10
ATOM     10  C   UNL A   1      32.937  25.230  21.661  1.00  0.00     0.107 C 
ATOM     11  N   UNL A   1      32.982  25.835  20.555  1.00  0.00    -0.192 NA
ENDBRANCH   8  10
BRANCH   9  12
ATOM     12  C   UNL A   1      33.799  22.757  24.555  1.00  0.00    -0.020 A 
ATOM     13  C   UNL A   1      34.320  23.119  25.801  1.00  0.00     0.008 A 
ATOM     14  C   UNL A   1      33.244  21.468  24.396  1.00  0.00     0.054 A 
ATOM     15  C   UNL A   1      34.233  22.237  26.879  1.00  0.00     0.004 A 
ATOM     16  C   UNL A   1      33.106  20.601  25.482  1.00  0.00     0.120 A 
ATOM     17  C   UNL A   1      33.619  20.993  26.720  1.00  0.00     0.046 A 
BRANCH  16  18
ATOM     18  O   UNL A   1      32.543  19.357  25.472  1.00  0.00    -0.490 OA
BRANCH  18  19
ATOM     19  C   UNL A   1      33.280  18.158  25.243  1.00  0.00     0.173 C 
ATOM     20  C   UNL A   1      32.629  16.853  25.669  1.00  0.00     0.045 C 
ATOM     21  C   UNL A   1      33.763  17.944  23.807  1.00  0.00     0.045 C 
ATOM     22  C   UNL A   1      33.383  15.787  24.896  1.00  0.00     0.004 C 
ATOM     23  C   UNL A   1      33.672  16.438  23.548  1.00  0.00     0.004 C 
ENDBRANCH  18  19
ENDBRANCH  16  18
ENDBRANCH   9  12
ENDBRANCH   6   8
ENDBRANCH   5   6
ENDBRANCH   4   5
ENDBRANCH   3   4
ENDBRANCH   2   3
ENDBRANCH   1   2
BRANCH   1  24
ATOM     24  C   UNL A   1      32.534  29.856  25.200  1.00  0.00     0.188 C 
BRANCH  24  25
ATOM     25  O   UNL A   1      32.514  30.633  26.382  1.00  0.00    -0.376 OA
BRANCH  25  26
ATOM     26  C   UNL A   1      31.392  31.498  26.505  1.00  0.00     0.202 C 
BRANCH  26  27
ATOM     27  C   UNL A   1      31.740  32.944  26.892  1.00  0.00     0.261 C 
BRANCH  27  28
ATOM     28  O   UNL A   1      33.147  33.247  26.993  1.00  0.00    -0.460 OA
BRANCH  28  29
ATOM     29  C   UNL A   1      33.611  33.800  28.139  1.00  0.00     0.338 C 
ATOM     30  O   UNL A   1      33.046  34.627  28.831  1.00  0.00    -0.246 OA
BRANCH  29  31
ATOM     31  C   UNL A   1      34.801  33.012  28.560  1.00  0.00     0.060 A 
ATOM     32  C   UNL A   1      34.667  31.626  28.765  1.00  0.00     0.016 A 
ATOM     33  C   UNL A   1      36.063  33.606  28.635  1.00  0.00     0.016 A 
ATOM     34  C   UNL A   1      35.791  30.843  29.057  1.00  0.00     0.010 A 
ATOM     35  C   UNL A   1      37.179  32.829  28.965  1.00  0.00     0.010 A 
ATOM     36  C   UNL A   1      37.044  31.450  29.207  1.00  0.00    -0.014 A 
BRANCH  36  37
ATOM     37  C   UNL A   1      38.145  30.724  29.893  1.00  0.00     0.031 A 
ATOM     38  C   UNL A   1      38.385  31.058  31.342  1.00  0.00     0.074 A 
ATOM     39  C   UNL A   1      38.926  29.820  29.277  1.00  0.00     0.049 A 
ATOM     40  N   UNL A   1      39.315  30.633  32.159  1.00  0.00    -0.248 NA
ATOM     41  C   UNL A   1      37.443  32.013  31.950  1.00  0.00     0.031 C 
ATOM     42  C   UNL A   1      38.780  29.366  27.897  1.00  0.00     0.029 A 
ATOM     43  N   UNL A   1      40.016  29.125  29.747  1.00  0.00    -0.354 N 
ATOM     44  C   UNL A   1      39.073  31.274  33.366  1.00  0.00     0.074 A 
ATOM     45  C   UNL A   1      37.928  32.135  33.173  1.00  0.00     0.031 C 
ATOM     46  C   UNL A   1      39.753  28.475  27.628  1.00  0.00     0.029 A 
ATOM     47  C   UNL A   1      40.607  28.319  28.805  1.00  0.00     0.049 A 
ATOM     48  H   UNL A   1      40.342  29.198  30.674  1.00  0.00     0.167 HD
ATOM     49  C   UNL A   1      39.740  31.155  34.537  1.00  0.00     0.037 A 
ATOM     50  C   UNL A   1      41.720  27.559  28.885  1.00  0.00     0.037 A 
ATOM     51  C   UNL A   1      40.883  30.307  34.736  1.00  0.00     0.049 A 
ATOM     52  C   UNL A   1      42.500  27.510  30.179  1.00  0.00     0.074 A 
ATOM     53  C   UNL A   1      41.610  30.098  35.894  1.00  0.00     0.029 A 
ATOM     54  N   UNL A   1      41.475  29.540  33.745  1.00  0.00    -0.354 N 
ATOM     55  N   UNL A   1      42.243  28.086  31.328  1.00  0.00    -0.248 NA
ATOM     56  C   UNL A   1      43.731  26.703  30.180  1.00  0.00     0.031 C 
ATOM     57  C   UNL A   1      42.678  29.248  35.589  1.00  0.00     0.029 A 
ATOM     58  C   UNL A   1      42.581  28.882  34.257  1.00  0.00     0.049 A 
ATOM     59  H   UNL A   1      41.158  29.473  32.816  1.00  0.00     0.167 HD
ATOM     60  C   UNL A   1      43.252  27.682  32.195  1.00  0.00     0.074 A 
ATOM     61  C   UNL A   1      44.126  26.808  31.442  1.00  0.00     0.031 C 
ATOM     62  C   UNL A   1      43.436  28.002  33.501  1.00  0.00     0.037 A 
BRANCH  49  63
ATOM     63  C   UNL A   1      39.268  31.999  35.683  1.00  0.00     0.064 A 
ATOM     64  C   UNL A   1      39.695  33.325  35.850  1.00  0.00     0.173 A 
ATOM     65  C   UNL A   1      38.370  31.473  36.623  1.00  0.00     0.173 A 
ATOM     66  F   UNL A   1      40.572  33.866  34.991  1.00  0.00    -0.203 F 
ATOM     67  C   UNL A   1      39.262  34.084  36.934  1.00  0.00     0.198 A 
ATOM     68  C   UNL A   1      37.914  32.245  37.688  1.00  0.00     0.198 A 
ATOM     69  F   UNL A   1      37.933  30.210  36.509  1.00  0.00    -0.203 F 
ATOM     70  F   UNL A   1      39.726  35.329  37.106  1.00  0.00    -0.200 F 
ATOM     71  C   UNL A   1      38.367  33.546  37.847  1.00  0.00     0.200 A 
ATOM     72  F   UNL A   1      37.043  31.727  38.564  1.00  0.00    -0.200 F 
ATOM     73  F   UNL A   1      37.949  34.279  38.888  1.00  0.00    -0.200 F 
ENDBRANCH  49  63
BRANCH  50  74
ATOM     74  C   UNL A   1      42.181  26.776  27.707  1.00  0.00     0.064 A 
ATOM     75  C   UNL A   1      41.717  25.472  27.480  1.00  0.00     0.173 A 
ATOM     76  C   UNL A   1      43.128  27.294  26.811  1.00  0.00     0.173 A 
ATOM     77  F   UNL A   1      40.843  24.916  28.332  1.00  0.00    -0.203 F 
ATOM     78  C   UNL A   1      42.195  24.710  26.414  1.00  0.00     0.198 A 
ATOM     79  C   UNL A   1      43.585  26.541  25.729  1.00  0.00     0.198 A 
ATOM     80  F   UNL A   1      43.619  28.529  26.990  1.00  0.00    -0.203 F 
ATOM     81  F   UNL A   1      41.776  23.448  26.255  1.00  0.00    -0.200 F 
ATOM     82  C   UNL A   1      43.123  25.248  25.536  1.00  0.00     0.200 A 
ATOM     83  F   UNL A   1      44.482  27.064  24.882  1.00  0.00    -0.200 F 
ATOM     84  F   UNL A   1      43.586  24.514  24.515  1.00  0.00    -0.200 F 
ENDBRANCH  50  74
BRANCH  62  85
ATOM     85  C   UNL A   1      44.595  27.372  34.220  1.00  0.00     0.064 A 
ATOM     86  C   UNL A   1      44.492  26.113  34.828  1.00  0.00     0.173 A 
ATOM     87  C   UNL A   1      45.843  28.015  34.249  1.00  0.00     0.173 A 
ATOM     88  F   UNL A   1      43.320  25.461  34.838  1.00  0.00    -0.203 F 
ATOM     89  C   UNL A   1      45.590  25.531  35.460  1.00  0.00     0.198 A 
ATOM     90  C   UNL A   1      46.944  27.417  34.853  1.00  0.00     0.198 A 
ATOM     91  F   UNL A   1      45.999  29.216  33.673  1.00  0.00    -0.203 F 
ATOM     92  F   UNL A   1      45.458  24.347  36.072  1.00  0.00    -0.200 F 
ATOM     93  C   UNL A   1      46.816  26.179  35.464  1.00  0.00     0.200 A 
ATOM     94  F   UNL A   1      48.133  28.037  34.842  1.00  0.00    -0.200 F 
ATOM     95  F   UNL A   1      47.873  25.612  36.062  1.00  0.00    -0.200 F 
ENDBRANCH  62  85
ENDBRANCH  36  37
ENDBRANCH  29  31
ENDBRANCH  28  29
ENDBRANCH  27  28
ENDBRANCH  26  27
ENDBRANCH  25  26
ENDBRANCH  24  25
ENDBRANCH   1  24
TORSDOF 21
ENDMDL
MODEL 2
REMARK VINA RESULT:     -10.8      5.019      9.449
REMARK SMILES N#C/C(=C/c1cccc(OC2CCCC2)c1)C(=O)OCCOCCOCCOC(=O)c1ccc(-c2c3nc(c(-c4c(F)c(F)c(F)c(F)c4F)c4ccc([nH]4)c(-c4c(F)c(F)c(F)c(F)c4F)c4nc(c(-c5c(F)c(F)c(F)c(F)c5F)c5ccc2[nH]5)C=C4)C=C3)cc1
REMARK SMILES IDX 23 1 22 2 21 3 20 4 19 5 17 6 18 7 3 8 4 9 2 10 1 11 5 12
REMARK SMILES IDX 6 13 16 14 7 15 9 16 8 17 10 18 11 19 12 20 15 21 13 22
REMARK SMILES IDX 14 23 24 24 25 25 26 26 27 27 28 28 29 29 30 30 31 31 32 32
REMARK SMILES IDX 93 33 33 34 92 35 34 36 35 37 36 38 86 39 37 40 91 41 85 42
REMARK SMILES IDX 87 43 38 44 90 45 84 46 83 47 39 49 71 50 51 51 70 52 52 53
REMARK SMILES IDX 55 54 69 55 88 56 53 57 54 58 68 60 89 61 56 62 40 63 41 64
REMARK SMILES IDX 49 65 42 66 43 67 47 68 50 69 44 70 45 71 48 72 46 73 72 74
REMARK SMILES IDX 73 75 81 76 74 77 75 78 79 79 82 80 76 81 77 82 80 83 78 84
REMARK SMILES IDX 57 85 58 86 66 87 59 88 60 89 64 90 67 91 61 92 62 93 65 94
REMARK SMILES IDX 63 95
REMARK H PARENT 87 48 55 59
REMARK Flexibility Score: inf
ROOT
ATOM      1  C   UNL A   1      37.184  23.717  24.873  1.00  0.00     0.188 C 
ENDROOT
BRANCH   1   2
ATOM      2  O   UNL A   1      35.807  24.018  25.038  1.00  0.00    -0.376 OA
BRANCH   2   3
ATOM      3  C   UNL A   1      35.043  23.173  25.883  1.00  0.00     0.202 C 
BRANCH   3   4
ATOM      4  C   UNL A   1      33.612  22.852  25.446  1.00  0.00     0.261 C 
BRANCH   4   5
ATOM      5  O   UNL A   1      32.908  23.978  24.869  1.00  0.00    -0.459 OA
BRANCH   5   6
ATOM      6  C   UNL A   1      31.554  23.893  24.798  1.00  0.00     0.348 C 
ATOM      7  O   UNL A   1      30.934  23.200  24.003  1.00  0.00    -0.245 OA
BRANCH   6   8
ATOM      8  C   UNL A   1      30.866  24.639  25.912  1.00  0.00     0.137 C 
ATOM      9  C   UNL A   1      30.603  25.959  25.871  1.00  0.00     0.035 C 
BRANCH   8  10
ATOM     10  C   UNL A   1      30.142  23.684  26.847  1.00  0.00     0.107 C 
ATOM     11  N   UNL A   1      29.542  22.892  27.623  1.00  0.00    -0.192 NA
ENDBRANCH   8  10
BRANCH   9  12
ATOM     12  C   UNL A   1      31.029  26.891  24.807  1.00  0.00    -0.020 A 
ATOM     13  C   UNL A   1      32.391  27.174  24.668  1.00  0.00     0.008 A 
ATOM     14  C   UNL A   1      30.108  27.535  23.951  1.00  0.00     0.054 A 
ATOM     15  C   UNL A   1      32.828  28.033  23.658  1.00  0.00     0.004 A 
ATOM     16  C   UNL A   1      30.542  28.353  22.906  1.00  0.00     0.120 A 
ATOM     17  C   UNL A   1      31.909  28.606  22.779  1.00  0.00     0.046 A 
BRANCH  16  18
ATOM     18  O   UNL A   1      29.761  28.987  21.982  1.00  0.00    -0.490 OA
BRANCH  18  19
ATOM     19  C   UNL A   1      29.433  30.374  22.043  1.00  0.00     0.173 C 
ATOM     20  C   UNL A   1      28.463  30.903  21.000  1.00  0.00     0.045 C 
ATOM     21  C   UNL A   1      28.919  30.871  23.395  1.00  0.00     0.045 C 
ATOM     22  C   UNL A   1      27.957  32.207  21.586  1.00  0.00     0.004 C 
ATOM     23  C   UNL A   1      27.860  31.932  23.082  1.00  0.00     0.004 C 
ENDBRANCH  18  19
ENDBRANCH  16  18
ENDBRANCH   9  12
ENDBRANCH   6   8
ENDBRANCH   5   6
ENDBRANCH   4   5
ENDBRANCH   3   4
ENDBRANCH   2   3
ENDBRANCH   1   2
BRANCH   1  24
ATOM     24  C   UNL A   1      38.082  23.579  26.127  1.00  0.00     0.188 C 
BRANCH  24  25
ATOM     25  O   UNL A   1      38.781  22.354  26.232  1.00  0.00    -0.376 OA
BRANCH  25  26
ATOM     26  C   UNL A   1      38.278  21.310  25.407  1.00  0.00     0.202 C 
BRANCH  26  27
ATOM     27  C   UNL A   1      39.121  20.025  25.418  1.00  0.00     0.261 C 
BRANCH  27  28
ATOM     28  O   UNL A   1      40.080  19.912  26.490  1.00  0.00    -0.460 OA
BRANCH  28  29
ATOM     29  C   UNL A   1      41.384  19.724  26.176  1.00  0.00     0.338 C 
ATOM     30  O   UNL A   1      41.850  18.821  25.504  1.00  0.00    -0.246 OA
BRANCH  29  31
ATOM     31  C   UNL A   1      42.113  20.966  26.549  1.00  0.00     0.060 A 
ATOM     32  C   UNL A   1      42.244  21.301  27.909  1.00  0.00     0.016 A 
ATOM     33  C   UNL A   1      42.767  21.730  25.579  1.00  0.00     0.016 A 
ATOM     34  C   UNL A   1      43.015  22.404  28.295  1.00  0.00     0.010 A 
ATOM     35  C   UNL A   1      43.506  22.856  25.963  1.00  0.00     0.010 A 
ATOM     36  C   UNL A   1      43.609  23.216  27.319  1.00  0.00    -0.014 A 
BRANCH  36  37
ATOM     37  C   UNL A   1      44.079  24.580  27.672  1.00  0.00     0.031 A 
ATOM     38  C   UNL A   1      43.025  25.603  28.005  1.00  0.00     0.074 A 
ATOM     39  C   UNL A   1      45.378  24.930  27.683  1.00  0.00     0.049 A 
ATOM     40  N   UNL A   1      43.148  26.877  28.276  1.00  0.00    -0.248 NA
ATOM     41  C   UNL A   1      41.636  25.115  28.027  1.00  0.00     0.031 C 
ATOM     42  C   UNL A   1      46.504  24.037  27.428  1.00  0.00     0.029 A 
ATOM     43  N   UNL A   1      45.963  26.154  27.915  1.00  0.00    -0.354 N 
ATOM     44  C   UNL A   1      41.855  27.339  28.491  1.00  0.00     0.074 A 
ATOM     45  C   UNL A   1      40.962  26.219  28.295  1.00  0.00     0.031 C 
ATOM     46  C   UNL A   1      47.646  24.746  27.506  1.00  0.00     0.029 A 
ATOM     47  C   UNL A   1      47.330  26.147  27.787  1.00  0.00     0.049 A 
ATOM     48  H   UNL A   1      45.449  26.960  28.152  1.00  0.00     0.167 HD
ATOM     49  C   UNL A   1      41.445  28.583  28.828  1.00  0.00     0.037 A 
ATOM     50  C   UNL A   1      48.217  27.161  27.869  1.00  0.00     0.037 A 
ATOM     51  C   UNL A   1      42.327  29.702  29.019  1.00  0.00     0.049 A 
ATOM     52  C   UNL A   1      47.727  28.560  28.159  1.00  0.00     0.074 A 
ATOM     53  C   UNL A   1      42.007  30.997  29.389  1.00  0.00     0.029 A 
ATOM     54  N   UNL A   1      43.699  29.663  28.837  1.00  0.00    -0.354 N 
ATOM     55  N   UNL A   1      46.509  28.983  28.402  1.00  0.00    -0.248 NA
ATOM     56  C   UNL A   1      48.741  29.627  28.184  1.00  0.00     0.031 C 
ATOM     57  C   UNL A   1      43.182  31.755  29.374  1.00  0.00     0.029 A 
ATOM     58  C   UNL A   1      44.240  30.920  29.054  1.00  0.00     0.049 A 
ATOM     59  H   UNL A   1      44.215  28.861  28.591  1.00  0.00     0.167 HD
ATOM     60  C   UNL A   1      46.616  30.348  28.645  1.00  0.00     0.074 A 
ATOM     61  C   UNL A   1      48.019  30.685  28.525  1.00  0.00     0.031 C 
ATOM     62  C   UNL A   1      45.641  31.241  28.946  1.00  0.00     0.037 A 
BRANCH  49  63
ATOM     63  C   UNL A   1      39.969  28.803  28.970  1.00  0.00     0.064 A 
ATOM     64  C   UNL A   1      39.305  28.599  30.189  1.00  0.00     0.173 A 
ATOM     65  C   UNL A   1      39.211  29.229  27.871  1.00  0.00     0.173 A 
ATOM     66  F   UNL A   1      39.983  28.169  31.265  1.00  0.00    -0.203 F 
ATOM     67  C   UNL A   1      37.930  28.786  30.294  1.00  0.00     0.198 A 
ATOM     68  C   UNL A   1      37.841  29.446  27.987  1.00  0.00     0.198 A 
ATOM     69  F   UNL A   1      39.798  29.436  26.682  1.00  0.00    -0.203 F 
ATOM     70  F   UNL A   1      37.307  28.533  31.452  1.00  0.00    -0.200 F 
ATOM     71  C   UNL A   1      37.200  29.217  29.195  1.00  0.00     0.200 A 
ATOM     72  F   UNL A   1      37.139  29.870  26.927  1.00  0.00    -0.200 F 
ATOM     73  F   UNL A   1      35.877  29.400  29.299  1.00  0.00    -0.200 F 
ENDBRANCH  49  63
BRANCH  50  74
ATOM     74  C   UNL A   1      49.670  26.907  27.671  1.00  0.00     0.064 A 
ATOM     75  C   UNL A   1      50.229  26.875  26.385  1.00  0.00     0.173 A 
ATOM     76  C   UNL A   1      50.520  26.645  28.756  1.00  0.00     0.173 A 
ATOM     77  F   UNL A   1      49.449  27.078  25.312  1.00  0.00    -0.203 F 
ATOM     78  C   UNL A   1      51.576  26.575  26.190  1.00  0.00     0.198 A 
ATOM     79  C   UNL A   1      51.873  26.371  28.562  1.00  0.00     0.198 A 
ATOM     80  F   UNL A   1      50.034  26.644  30.006  1.00  0.00    -0.203 F 
ATOM     81  F   UNL A   1      52.071  26.496  24.947  1.00  0.00    -0.200 F 
ATOM     82  C   UNL A   1      52.398  26.329  27.279  1.00  0.00     0.200 A 
ATOM     83  F   UNL A   1      52.665  26.135  29.617  1.00  0.00    -0.200 F 
ATOM     84  F   UNL A   1      53.693  26.035  27.092  1.00  0.00    -0.200 F 
ENDBRANCH  50  74
BRANCH  62  85
ATOM     85  C   UNL A   1      46.050  32.661  29.216  1.00  0.00     0.064 A 
ATOM     86  C   UNL A   1      46.081  33.628  28.202  1.00  0.00     0.173 A 
ATOM     87  C   UNL A   1      46.360  33.071  30.523  1.00  0.00     0.173 A 
ATOM     88  F   UNL A   1      45.803  33.286  26.935  1.00  0.00    -0.203 F 
ATOM     89  C   UNL A   1      46.430  34.948  28.481  1.00  0.00     0.198 A 
ATOM     90  C   UNL A   1      46.677  34.396  30.803  1.00  0.00     0.198 A 
ATOM     91  F   UNL A   1      46.335  32.189  31.533  1.00  0.00    -0.203 F 
ATOM     92  F   UNL A   1      46.494  35.846  27.489  1.00  0.00    -0.200 F 
ATOM     93  C   UNL A   1      46.719  35.332  29.782  1.00  0.00     0.200 A 
ATOM     94  F   UNL A   1      46.940  34.770  32.064  1.00  0.00    -0.200 F 
ATOM     95  F   UNL A   1      47.042  36.605  30.050  1.00  0.00    -0.200 F 
ENDBRANCH  62  85
ENDBRANCH  36  37
ENDBRANCH  29  31
ENDBRANCH  28  29
ENDBRANCH  27  28
ENDBRANCH  26  27
ENDBRANCH  25  26
ENDBRANCH  24  25
ENDBRANCH   1  24
TORSDOF 21
ENDMDL
MODEL 3
REMARK VINA RESULT:     -10.8      4.543     10.675
REMARK SMILES N#C/C(=C/c1cccc(OC2CCCC2)c1)C(=O)OCCOCCOCCOC(=O)c1ccc(-c2c3nc(c(-c4c(F)c(F)c(F)c(F)c4F)c4ccc([nH]4)c(-c4c(F)c(F)c(F)c(F)c4F)c4nc(c(-c5c(F)c(F)c(F)c(F)c5F)c5ccc2[nH]5)C=C4)C=C3)cc1
REMARK SMILES IDX 23 1 22 2 21 3 20 4 19 5 17 6 18 7 3 8 4 9 2 10 1 11 5 12
REMARK SMILES IDX 6 13 16 14 7 15 9 16 8 17 10 18 11 19 12 20 15 21 13 22
REMARK SMILES IDX 14 23 24 24 25 25 26 26 27 27 28 28 29 29 30 30 31 31 32 32
REMARK SMILES IDX 93 33 33 34 92 35 34 36 35 37 36 38 86 39 37 40 91 41 85 42
REMARK SMILES IDX 87 43 38 44 90 45 84 46 83 47 39 49 71 50 51 51 70 52 52 53
REMARK SMILES IDX 55 54 69 55 88 56 53 57 54 58 68 60 89 61 56 62 40 63 41 64
REMARK SMILES IDX 49 65 42 66 43 67 47 68 50 69 44 70 45 71 48 72 46 73 72 74
REMARK SMILES IDX 73 75 81 76 74 77 75 78 79 79 82 80 76 81 77 82 80 83 78 84
REMARK SMILES IDX 57 85 58 86 66 87 59 88 60 89 64 90 67 91 61 92 62 93 65 94
REMARK SMILES IDX 63 95
REMARK H PARENT 87 48 55 59
REMARK Flexibility Score: inf
ROOT
ATOM      1  C   UNL A   1      35.545  22.581  24.252  1.00  0.00     0.188 C 
ENDROOT
BRANCH   1   2
ATOM      2  O   UNL A   1      35.330  23.958  24.521  1.00  0.00    -0.376 OA
BRANCH   2   3
ATOM      3  C   UNL A   1      34.140  24.319  25.204  1.00  0.00     0.202 C 
BRANCH   3   4
ATOM      4  C   UNL A   1      34.076  25.726  25.805  1.00  0.00     0.261 C 
BRANCH   4   5
ATOM      5  O   UNL A   1      32.746  26.134  26.204  1.00  0.00    -0.459 OA
BRANCH   5   6
ATOM      6  C   UNL A   1      32.619  27.360  26.775  1.00  0.00     0.348 C 
ATOM      7  O   UNL A   1      31.957  27.604  27.774  1.00  0.00    -0.245 OA
BRANCH   6   8
ATOM      8  C   UNL A   1      33.506  28.395  26.132  1.00  0.00     0.137 C 
ATOM      9  C   UNL A   1      33.230  28.979  24.952  1.00  0.00     0.035 C 
BRANCH   8  10
ATOM     10  C   UNL A   1      34.470  28.994  27.142  1.00  0.00     0.107 C 
ATOM     11  N   UNL A   1      35.271  29.491  27.980  1.00  0.00    -0.192 NA
ENDBRANCH   8  10
BRANCH   9  12
ATOM     12  C   UNL A   1      32.102  28.637  24.061  1.00  0.00    -0.020 A 
ATOM     13  C   UNL A   1      32.322  27.729  23.020  1.00  0.00     0.008 A 
ATOM     14  C   UNL A   1      30.824  29.220  24.198  1.00  0.00     0.054 A 
ATOM     15  C   UNL A   1      31.272  27.366  22.174  1.00  0.00     0.004 A 
ATOM     16  C   UNL A   1      29.756  28.823  23.390  1.00  0.00     0.120 A 
ATOM     17  C   UNL A   1      29.998  27.902  22.369  1.00  0.00     0.046 A 
BRANCH  16  18
ATOM     18  O   UNL A   1      28.467  29.268  23.456  1.00  0.00    -0.490 OA
BRANCH  18  19
ATOM     19  C   UNL A   1      28.017  30.478  22.850  1.00  0.00     0.173 C 
ATOM     20  C   UNL A   1      28.701  31.765  23.280  1.00  0.00     0.045 C 
ATOM     21  C   UNL A   1      28.014  30.488  21.320  1.00  0.00     0.045 C 
ATOM     22  C   UNL A   1      28.374  32.751  22.174  1.00  0.00     0.004 C 
ATOM     23  C   UNL A   1      28.400  31.909  20.904  1.00  0.00     0.004 C 
ENDBRANCH  18  19
ENDBRANCH  16  18
ENDBRANCH   9  12
ENDBRANCH   6   8
ENDBRANCH   5   6
ENDBRANCH   4   5
ENDBRANCH   3   4
ENDBRANCH   2   3
ENDBRANCH   1   2
BRANCH   1  24
ATOM     24  C   UNL A   1      36.195  21.692  25.341  1.00  0.00     0.188 C 
BRANCH  24  25
ATOM     25  O   UNL A   1      37.557  21.377  25.123  1.00  0.00    -0.376 OA
BRANCH  25  26
ATOM     26  C   UNL A   1      37.829  19.990  24.973  1.00  0.00     0.202 C 
BRANCH  26  27
ATOM     27  C   UNL A   1      39.106  19.509  25.682  1.00  0.00     0.261 C 
BRANCH  27  28
ATOM     28  O   UNL A   1      40.147  20.495  25.837  1.00  0.00    -0.460 OA
BRANCH  28  29
ATOM     29  C   UNL A   1      40.827  20.541  27.008  1.00  0.00     0.338 C 
ATOM     30  O   UNL A   1      41.373  19.609  27.571  1.00  0.00    -0.246 OA
BRANCH  29  31
ATOM     31  C   UNL A   1      41.039  21.975  27.341  1.00  0.00     0.060 A 
ATOM     32  C   UNL A   1      40.273  22.952  26.679  1.00  0.00     0.016 A 
ATOM     33  C   UNL A   1      41.893  22.349  28.382  1.00  0.00     0.016 A 
ATOM     34  C   UNL A   1      40.374  24.299  27.048  1.00  0.00     0.010 A 
ATOM     35  C   UNL A   1      42.021  23.700  28.723  1.00  0.00     0.010 A 
ATOM     36  C   UNL A   1      41.286  24.685  28.039  1.00  0.00    -0.014 A 
BRANCH  36  37
ATOM     37  C   UNL A   1      41.692  26.109  28.162  1.00  0.00     0.031 A 
ATOM     38  C   UNL A   1      43.042  26.486  27.610  1.00  0.00     0.074 A 
ATOM     39  C   UNL A   1      40.927  27.043  28.753  1.00  0.00     0.049 A 
ATOM     40  N   UNL A   1      43.673  27.632  27.646  1.00  0.00    -0.248 NA
ATOM     41  C   UNL A   1      43.783  25.412  26.927  1.00  0.00     0.031 C 
ATOM     42  C   UNL A   1      39.585  26.833  29.288  1.00  0.00     0.029 A 
ATOM     43  N   UNL A   1      41.187  28.370  29.007  1.00  0.00    -0.354 N 
ATOM     44  C   UNL A   1      44.883  27.411  27.000  1.00  0.00     0.074 A 
ATOM     45  C   UNL A   1      44.911  26.021  26.605  1.00  0.00     0.031 C 
ATOM     46  C   UNL A   1      39.143  27.989  29.819  1.00  0.00     0.029 A 
ATOM     47  C   UNL A   1      40.181  29.012  29.688  1.00  0.00     0.049 A 
ATOM     48  H   UNL A   1      42.018  28.819  28.726  1.00  0.00     0.167 HD
ATOM     49  C   UNL A   1      45.883  28.288  26.751  1.00  0.00     0.037 A 
ATOM     50  C   UNL A   1      40.119  30.273  30.163  1.00  0.00     0.037 A 
ATOM     51  C   UNL A   1      45.865  29.670  27.146  1.00  0.00     0.049 A 
ATOM     52  C   UNL A   1      41.286  31.210  29.950  1.00  0.00     0.074 A 
ATOM     53  C   UNL A   1      46.819  30.644  26.914  1.00  0.00     0.029 A 
ATOM     54  N   UNL A   1      44.847  30.268  27.870  1.00  0.00    -0.354 N 
ATOM     55  N   UNL A   1      42.409  31.008  29.304  1.00  0.00    -0.248 NA
ATOM     56  C   UNL A   1      41.172  32.554  30.539  1.00  0.00     0.031 C 
ATOM     57  C   UNL A   1      46.404  31.818  27.550  1.00  0.00     0.029 A 
ATOM     58  C   UNL A   1      45.165  31.592  28.125  1.00  0.00     0.049 A 
ATOM     59  H   UNL A   1      44.020  29.819  28.161  1.00  0.00     0.167 HD
ATOM     60  C   UNL A   1      43.114  32.204  29.374  1.00  0.00     0.074 A 
ATOM     61  C   UNL A   1      42.292  33.131  30.123  1.00  0.00     0.031 C 
ATOM     62  C   UNL A   1      44.331  32.509  28.860  1.00  0.00     0.037 A 
BRANCH  49  63
ATOM     63  C   UNL A   1      47.098  27.759  26.051  1.00  0.00     0.064 A 
ATOM     64  C   UNL A   1      47.168  27.675  24.653  1.00  0.00     0.173 A 
ATOM     65  C   UNL A   1      48.212  27.338  26.792  1.00  0.00     0.173 A 
ATOM     66  F   UNL A   1      46.120  28.044  23.900  1.00  0.00    -0.203 F 
ATOM     67  C   UNL A   1      48.297  27.159  24.023  1.00  0.00     0.198 A 
ATOM     68  C   UNL A   1      49.352  26.853  26.159  1.00  0.00     0.198 A 
ATOM     69  F   UNL A   1      48.195  27.397  28.132  1.00  0.00    -0.203 F 
ATOM     70  F   UNL A   1      48.321  27.035  22.689  1.00  0.00    -0.200 F 
ATOM     71  C   UNL A   1      49.391  26.756  24.776  1.00  0.00     0.200 A 
ATOM     72  F   UNL A   1      50.410  26.473  26.887  1.00  0.00    -0.200 F 
ATOM     73  F   UNL A   1      50.479  26.263  24.168  1.00  0.00    -0.200 F 
ENDBRANCH  49  63
BRANCH  50  74
ATOM     74  C   UNL A   1      38.912  30.741  30.897  1.00  0.00     0.064 A 
ATOM     75  C   UNL A   1      38.820  30.614  32.291  1.00  0.00     0.173 A 
ATOM     76  C   UNL A   1      37.809  31.282  30.219  1.00  0.00     0.173 A 
ATOM     77  F   UNL A   1      39.831  30.065  32.980  1.00  0.00    -0.203 F 
ATOM     78  C   UNL A   1      37.666  30.992  32.976  1.00  0.00     0.198 A 
ATOM     79  C   UNL A   1      36.666  31.685  30.909  1.00  0.00     0.198 A 
ATOM     80  F   UNL A   1      37.837  31.410  28.885  1.00  0.00    -0.203 F 
ATOM     81  F   UNL A   1      37.584  30.807  34.300  1.00  0.00    -0.200 F 
ATOM     82  C   UNL A   1      36.593  31.534  32.285  1.00  0.00     0.200 A 
ATOM     83  F   UNL A   1      35.631  32.209  30.238  1.00  0.00    -0.200 F 
ATOM     84  F   UNL A   1      35.482  31.893  32.943  1.00  0.00    -0.200 F 
ENDBRANCH  50  74
BRANCH  62  85
ATOM     85  C   UNL A   1      44.837  33.913  29.042  1.00  0.00     0.064 A 
ATOM     86  C   UNL A   1      45.650  34.271  30.126  1.00  0.00     0.173 A 
ATOM     87  C   UNL A   1      44.549  34.898  28.084  1.00  0.00     0.173 A 
ATOM     88  F   UNL A   1      45.947  33.371  31.075  1.00  0.00    -0.203 F 
ATOM     89  C   UNL A   1      46.137  35.571  30.257  1.00  0.00     0.198 A 
ATOM     90  C   UNL A   1      45.063  36.186  28.201  1.00  0.00     0.198 A 
ATOM     91  F   UNL A   1      43.785  34.605  27.021  1.00  0.00    -0.203 F 
ATOM     92  F   UNL A   1      46.877  35.902  31.323  1.00  0.00    -0.200 F 
ATOM     93  C   UNL A   1      45.850  36.523  29.290  1.00  0.00     0.200 A 
ATOM     94  F   UNL A   1      44.798  37.101  27.257  1.00  0.00    -0.200 F 
ATOM     95  F   UNL A   1      46.330  37.769  29.412  1.00  0.00    -0.200 F 
ENDBRANCH  62  85
ENDBRANCH  36  37
ENDBRANCH  29  31
ENDBRANCH  28  29
ENDBRANCH  27  28
ENDBRANCH  26  27
ENDBRANCH  25  26
ENDBRANCH  24  25
ENDBRANCH   1  24
TORSDOF 21
ENDMDL
