MODEL 1
REMARK VINA RESULT:     -11.8      0.000      0.000
REMARK SMILES O=C(OCCOCCOCCOC(=O)[C@H]1CC[C@H](CN2C(=O)c3cccnc3C2=O)O1)c1ccc(-c2c3nc(c(-c4c(F)c(F)c(F)c(F)c4F)c4ccc([nH]4)c(-c4c(F)c(F)c(F)c(F)c4F)c4nc(c(-c5c(F)c(F)c(F)c(F)c5F)c5ccc2[nH]5)C=C4)C=C3)cc1
REMARK SMILES IDX 7 1 6 2 5 3 4 4 3 5 2 6 1 7 32 8 33 9 94 10 34 11 93 12
REMARK SMILES IDX 35 13 36 14 37 15 87 16 38 17 92 18 86 19 88 20 39 21 91 22
REMARK SMILES IDX 85 23 84 24 40 26 72 27 52 28 71 29 53 30 56 31 70 32 89 33
REMARK SMILES IDX 54 34 55 35 69 37 90 38 57 39 41 40 42 41 50 42 43 43 44 44
REMARK SMILES IDX 48 45 51 46 45 47 46 48 49 49 47 50 73 51 74 52 82 53 75 54
REMARK SMILES IDX 76 55 80 56 83 57 77 58 78 59 81 60 79 61 58 62 59 63 67 64
REMARK SMILES IDX 60 65 61 66 65 67 68 68 62 69 63 70 66 71 64 72 8 73 9 74
REMARK SMILES IDX 10 75 11 76 12 77 13 78 14 79 15 80 16 81 31 82 17 83 18 84
REMARK SMILES IDX 19 85 20 86 21 87 29 88 22 89 23 90 28 91 30 92 24 93 27 94
REMARK SMILES IDX 25 95 26 96
REMARK H PARENT 88 25 56 36
REMARK Flexibility Score: inf
ROOT
ATOM      1  C   UNL A   1      32.726  30.351  26.609  1.00  0.00     0.188 C 
ENDROOT
BRANCH   1   2
ATOM      2  O   UNL A   1      31.403  30.884  26.553  1.00  0.00    -0.376 OA
BRANCH   2   3
ATOM      3  C   UNL A   1      31.317  32.311  26.558  1.00  0.00     0.202 C 
BRANCH   3   4
ATOM      4  C   UNL A   1      32.534  33.090  27.096  1.00  0.00     0.261 C 
BRANCH   4   5
ATOM      5  O   UNL A   1      32.222  34.297  27.812  1.00  0.00    -0.460 OA
BRANCH   5   6
ATOM      6  C   UNL A   1      32.922  34.917  28.796  1.00  0.00     0.338 C 
ATOM      7  O   UNL A   1      32.589  36.053  29.127  1.00  0.00    -0.246 OA
BRANCH   6   8
ATOM      8  C   UNL A   1      34.104  34.305  29.475  1.00  0.00     0.060 A 
ATOM      9  C   UNL A   1      34.017  33.427  30.550  1.00  0.00     0.016 A 
ATOM     10  C   UNL A   1      35.378  34.545  28.934  1.00  0.00     0.016 A 
ATOM     11  C   UNL A   1      35.133  32.862  31.138  1.00  0.00     0.010 A 
ATOM     12  C   UNL A   1      36.514  33.935  29.483  1.00  0.00     0.010 A 
ATOM     13  C   UNL A   1      36.388  33.098  30.598  1.00  0.00    -0.014 A 
BRANCH  13  14
ATOM     14  C   UNL A   1      37.543  32.501  31.285  1.00  0.00     0.031 A 
ATOM     15  C   UNL A   1      38.288  31.413  30.589  1.00  0.00     0.074 A 
ATOM     16  C   UNL A   1      37.976  33.031  32.443  1.00  0.00     0.049 A 
ATOM     17  N   UNL A   1      39.285  30.694  31.022  1.00  0.00    -0.248 NA
ATOM     18  C   UNL A   1      37.874  31.110  29.208  1.00  0.00     0.031 C 
ATOM     19  C   UNL A   1      37.400  34.210  33.089  1.00  0.00     0.029 A 
ATOM     20  N   UNL A   1      38.998  32.672  33.279  1.00  0.00    -0.354 N 
ATOM     21  C   UNL A   1      39.595  29.831  29.983  1.00  0.00     0.074 A 
ATOM     22  C   UNL A   1      38.693  30.118  28.892  1.00  0.00     0.031 C 
ATOM     23  C   UNL A   1      38.052  34.462  34.232  1.00  0.00     0.029 A 
ATOM     24  C   UNL A   1      39.048  33.421  34.431  1.00  0.00     0.049 A 
ATOM     25  H   UNL A   1      39.635  31.948  33.076  1.00  0.00     0.167 HD
ATOM     26  C   UNL A   1      40.549  28.875  29.971  1.00  0.00     0.037 A 
ATOM     27  C   UNL A   1      39.781  33.239  35.544  1.00  0.00     0.037 A 
ATOM     28  C   UNL A   1      41.428  28.634  31.081  1.00  0.00     0.049 A 
ATOM     29  C   UNL A   1      40.742  32.082  35.548  1.00  0.00     0.074 A 
ATOM     30  C   UNL A   1      42.422  27.684  31.203  1.00  0.00     0.029 A 
ATOM     31  N   UNL A   1      41.403  29.352  32.271  1.00  0.00    -0.354 N 
ATOM     32  N   UNL A   1      41.020  31.242  34.578  1.00  0.00    -0.248 NA
ATOM     33  C   UNL A   1      41.480  31.833  36.790  1.00  0.00     0.031 C 
ATOM     34  C   UNL A   1      42.951  27.781  32.494  1.00  0.00     0.029 A 
ATOM     35  C   UNL A   1      42.331  28.834  33.153  1.00  0.00     0.049 A 
ATOM     36  H   UNL A   1      40.811  30.117  32.456  1.00  0.00     0.167 HD
ATOM     37  C   UNL A   1      41.976  30.376  35.084  1.00  0.00     0.074 A 
ATOM     38  C   UNL A   1      42.251  30.814  36.439  1.00  0.00     0.031 C 
ATOM     39  C   UNL A   1      42.568  29.311  34.493  1.00  0.00     0.037 A 
BRANCH  26  40
ATOM     40  C   UNL A   1      40.618  27.979  28.774  1.00  0.00     0.064 A 
ATOM     41  C   UNL A   1      39.873  26.795  28.677  1.00  0.00     0.173 A 
ATOM     42  C   UNL A   1      41.444  28.328  27.695  1.00  0.00     0.173 A 
ATOM     43  F   UNL A   1      39.094  26.400  29.695  1.00  0.00    -0.203 F 
ATOM     44  C   UNL A   1      39.960  25.989  27.544  1.00  0.00     0.198 A 
ATOM     45  C   UNL A   1      41.508  27.533  26.554  1.00  0.00     0.198 A 
ATOM     46  F   UNL A   1      42.189  29.442  27.747  1.00  0.00    -0.203 F 
ATOM     47  F   UNL A   1      39.270  24.841  27.486  1.00  0.00    -0.200 F 
ATOM     48  C   UNL A   1      40.769  26.364  26.481  1.00  0.00     0.200 A 
ATOM     49  F   UNL A   1      42.289  27.900  25.528  1.00  0.00    -0.200 F 
ATOM     50  F   UNL A   1      40.843  25.591  25.388  1.00  0.00    -0.200 F 
ENDBRANCH  26  40
BRANCH  27  51
ATOM     51  C   UNL A   1      39.570  34.088  36.751  1.00  0.00     0.064 A 
ATOM     52  C   UNL A   1      40.241  35.306  36.917  1.00  0.00     0.173 A 
ATOM     53  C   UNL A   1      38.731  33.666  37.797  1.00  0.00     0.173 A 
ATOM     54  F   UNL A   1      41.064  35.753  35.958  1.00  0.00    -0.203 F 
ATOM     55  C   UNL A   1      40.117  36.046  38.095  1.00  0.00     0.198 A 
ATOM     56  C   UNL A   1      38.579  34.423  38.957  1.00  0.00     0.198 A 
ATOM     57  F   UNL A   1      38.058  32.510  37.697  1.00  0.00    -0.203 F 
ATOM     58  F   UNL A   1      40.827  37.171  38.254  1.00  0.00    -0.200 F 
ATOM     59  C   UNL A   1      39.285  35.604  39.112  1.00  0.00     0.200 A 
ATOM     60  F   UNL A   1      37.762  33.998  39.930  1.00  0.00    -0.200 F 
ATOM     61  F   UNL A   1      39.179  36.307  40.248  1.00  0.00    -0.200 F 
ENDBRANCH  27  51
BRANCH  39  62
ATOM     62  C   UNL A   1      43.576  28.564  35.311  1.00  0.00     0.064 A 
ATOM     63  C   UNL A   1      43.192  27.526  36.172  1.00  0.00     0.173 A 
ATOM     64  C   UNL A   1      44.943  28.849  35.182  1.00  0.00     0.173 A 
ATOM     65  F   UNL A   1      41.894  27.233  36.339  1.00  0.00    -0.203 F 
ATOM     66  C   UNL A   1      44.143  26.810  36.889  1.00  0.00     0.198 A 
ATOM     67  C   UNL A   1      45.893  28.106  35.872  1.00  0.00     0.198 A 
ATOM     68  F   UNL A   1      45.356  29.830  34.365  1.00  0.00    -0.203 F 
ATOM     69  F   UNL A   1      43.753  25.853  37.742  1.00  0.00    -0.200 F 
ATOM     70  C   UNL A   1      45.493  27.092  36.729  1.00  0.00     0.200 A 
ATOM     71  F   UNL A   1      47.196  28.366  35.702  1.00  0.00    -0.200 F 
ATOM     72  F   UNL A   1      46.408  26.387  37.407  1.00  0.00    -0.200 F 
ENDBRANCH  39  62
ENDBRANCH  13  14
ENDBRANCH   6   8
ENDBRANCH   5   6
ENDBRANCH   4   5
ENDBRANCH   3   4
ENDBRANCH   2   3
ENDBRANCH   1   2
BRANCH   1  73
ATOM     73  C   UNL A   1      32.805  28.888  26.168  1.00  0.00     0.188 C 
BRANCH  73  74
ATOM     74  O   UNL A   1      33.591  28.591  25.018  1.00  0.00    -0.376 OA
BRANCH  74  75
ATOM     75  C   UNL A   1      33.096  29.046  23.765  1.00  0.00     0.202 C 
BRANCH  75  76
ATOM     76  C   UNL A   1      32.668  27.993  22.725  1.00  0.00     0.261 C 
BRANCH  76  77
ATOM     77  O   UNL A   1      32.534  26.645  23.214  1.00  0.00    -0.461 OA
BRANCH  77  78
ATOM     78  C   UNL A   1      33.375  25.728  22.655  1.00  0.00     0.335 C 
ATOM     79  O   UNL A   1      33.660  25.688  21.463  1.00  0.00    -0.249 OA
BRANCH  78  80
ATOM     80  C   UNL A   1      33.904  24.690  23.673  1.00  0.00     0.228 C 
ATOM     81  C   UNL A   1      34.168  25.355  25.022  1.00  0.00     0.047 C 
ATOM     82  O   UNL A   1      33.122  23.518  23.951  1.00  0.00    -0.361 OA
ATOM     83  C   UNL A   1      33.095  24.778  25.912  1.00  0.00     0.037 C 
ATOM     84  C   UNL A   1      32.950  23.366  25.378  1.00  0.00     0.139 C 
BRANCH  84  85
ATOM     85  C   UNL A   1      33.976  22.365  25.973  1.00  0.00     0.161 C 
BRANCH  85  86
ATOM     86  N   UNL A   1      33.852  21.033  25.394  1.00  0.00    -0.270 N 
ATOM     87  C   UNL A   1      34.910  20.258  24.995  1.00  0.00     0.263 C 
ATOM     88  C   UNL A   1      32.663  20.359  25.275  1.00  0.00     0.280 C 
ATOM     89  O   UNL A   1      36.094  20.525  24.982  1.00  0.00    -0.269 OA
ATOM     90  C   UNL A   1      34.365  18.955  24.630  1.00  0.00     0.071 A 
ATOM     91  C   UNL A   1      33.004  19.008  24.805  1.00  0.00     0.141 A 
ATOM     92  O   UNL A   1      31.548  20.778  25.532  1.00  0.00    -0.267 OA
ATOM     93  C   UNL A   1      34.968  17.772  24.256  1.00  0.00     0.018 A 
ATOM     94  N   UNL A   1      32.153  17.976  24.657  1.00  0.00    -0.250 NA
ATOM     95  C   UNL A   1      34.130  16.667  24.088  1.00  0.00     0.021 A 
ATOM     96  C   UNL A   1      32.752  16.812  24.299  1.00  0.00     0.112 A 
ENDBRANCH  85  86
ENDBRANCH  84  85
ENDBRANCH  78  80
ENDBRANCH  77  78
ENDBRANCH  76  77
ENDBRANCH  75  76
ENDBRANCH  74  75
ENDBRANCH  73  74
ENDBRANCH   1  73
TORSDOF 19
ENDMDL
MODEL 2
REMARK VINA RESULT:     -11.5      5.984     10.947
REMARK SMILES O=C(OCCOCCOCCOC(=O)[C@H]1CC[C@H](CN2C(=O)c3cccnc3C2=O)O1)c1ccc(-c2c3nc(c(-c4c(F)c(F)c(F)c(F)c4F)c4ccc([nH]4)c(-c4c(F)c(F)c(F)c(F)c4F)c4nc(c(-c5c(F)c(F)c(F)c(F)c5F)c5ccc2[nH]5)C=C4)C=C3)cc1
REMARK SMILES IDX 7 1 6 2 5 3 4 4 3 5 2 6 1 7 32 8 33 9 94 10 34 11 93 12
REMARK SMILES IDX 35 13 36 14 37 15 87 16 38 17 92 18 86 19 88 20 39 21 91 22
REMARK SMILES IDX 85 23 84 24 40 26 72 27 52 28 71 29 53 30 56 31 70 32 89 33
REMARK SMILES IDX 54 34 55 35 69 37 90 38 57 39 41 40 42 41 50 42 43 43 44 44
REMARK SMILES IDX 48 45 51 46 45 47 46 48 49 49 47 50 73 51 74 52 82 53 75 54
REMARK SMILES IDX 76 55 80 56 83 57 77 58 78 59 81 60 79 61 58 62 59 63 67 64
REMARK SMILES IDX 60 65 61 66 65 67 68 68 62 69 63 70 66 71 64 72 8 73 9 74
REMARK SMILES IDX 10 75 11 76 12 77 13 78 14 79 15 80 16 81 31 82 17 83 18 84
REMARK SMILES IDX 19 85 20 86 21 87 29 88 22 89 23 90 28 91 30 92 24 93 27 94
REMARK SMILES IDX 25 95 26 96
REMARK H PARENT 88 25 56 36
REMARK Flexibility Score: inf
ROOT
ATOM      1  C   UNL A   1      41.567  21.695  26.251  1.00  0.00     0.188 C 
ENDROOT
BRANCH   1   2
ATOM      2  O   UNL A   1      41.562  20.409  25.631  1.00  0.00    -0.376 OA
BRANCH   2   3
ATOM      3  C   UNL A   1      42.089  19.344  26.426  1.00  0.00     0.202 C 
BRANCH   3   4
ATOM      4  C   UNL A   1      43.106  18.399  25.754  1.00  0.00     0.261 C 
BRANCH   4   5
ATOM      5  O   UNL A   1      43.637  18.862  24.500  1.00  0.00    -0.460 OA
BRANCH   5   6
ATOM      6  C   UNL A   1      44.743  19.613  24.263  1.00  0.00     0.338 C 
ATOM      7  O   UNL A   1      45.690  19.093  23.678  1.00  0.00    -0.246 OA
BRANCH   6   8
ATOM      8  C   UNL A   1      44.885  21.032  24.708  1.00  0.00     0.060 A 
ATOM      9  C   UNL A   1      44.558  22.132  23.921  1.00  0.00     0.016 A 
ATOM     10  C   UNL A   1      45.272  21.276  26.035  1.00  0.00     0.016 A 
ATOM     11  C   UNL A   1      44.681  23.431  24.376  1.00  0.00     0.010 A 
ATOM     12  C   UNL A   1      45.347  22.585  26.530  1.00  0.00     0.010 A 
ATOM     13  C   UNL A   1      45.060  23.666  25.689  1.00  0.00    -0.014 A 
BRANCH  13  14
ATOM     14  C   UNL A   1      45.208  25.068  26.109  1.00  0.00     0.031 A 
ATOM     15  C   UNL A   1      46.548  25.706  25.965  1.00  0.00     0.074 A 
ATOM     16  C   UNL A   1      44.122  25.771  26.478  1.00  0.00     0.049 A 
ATOM     17  N   UNL A   1      46.935  26.896  26.330  1.00  0.00    -0.248 NA
ATOM     18  C   UNL A   1      47.590  24.907  25.294  1.00  0.00     0.031 C 
ATOM     19  C   UNL A   1      42.752  25.258  26.471  1.00  0.00     0.029 A 
ATOM     20  N   UNL A   1      43.982  27.060  26.916  1.00  0.00    -0.354 N 
ATOM     21  C   UNL A   1      48.269  26.977  25.967  1.00  0.00     0.074 A 
ATOM     22  C   UNL A   1      48.630  25.725  25.342  1.00  0.00     0.031 C 
ATOM     23  C   UNL A   1      41.914  26.205  26.911  1.00  0.00     0.029 A 
ATOM     24  C   UNL A   1      42.696  27.369  27.295  1.00  0.00     0.049 A 
ATOM     25  H   UNL A   1      44.727  27.702  26.956  1.00  0.00     0.167 HD
ATOM     26  C   UNL A   1      49.109  28.016  26.164  1.00  0.00     0.037 A 
ATOM     27  C   UNL A   1      42.226  28.453  27.937  1.00  0.00     0.037 A 
ATOM     28  C   UNL A   1      48.699  29.245  26.784  1.00  0.00     0.049 A 
ATOM     29  C   UNL A   1      43.217  29.539  28.260  1.00  0.00     0.074 A 
ATOM     30  C   UNL A   1      49.455  30.367  27.060  1.00  0.00     0.029 A 
ATOM     31  N   UNL A   1      47.409  29.503  27.236  1.00  0.00    -0.354 N 
ATOM     32  N   UNL A   1      44.489  29.610  27.945  1.00  0.00    -0.248 NA
ATOM     33  C   UNL A   1      42.723  30.683  29.032  1.00  0.00     0.031 C 
ATOM     34  C   UNL A   1      48.641  31.275  27.743  1.00  0.00     0.029 A 
ATOM     35  C   UNL A   1      47.360  30.747  27.835  1.00  0.00     0.049 A 
ATOM     36  H   UNL A   1      46.645  28.889  27.142  1.00  0.00     0.167 HD
ATOM     37  C   UNL A   1      44.945  30.811  28.464  1.00  0.00     0.074 A 
ATOM     38  C   UNL A   1      43.802  31.450  29.088  1.00  0.00     0.031 C 
ATOM     39  C   UNL A   1      46.193  31.339  28.439  1.00  0.00     0.037 A 
BRANCH  26  40
ATOM     40  C   UNL A   1      50.547  27.827  25.795  1.00  0.00     0.064 A 
ATOM     41  C   UNL A   1      51.532  27.515  26.742  1.00  0.00     0.173 A 
ATOM     42  C   UNL A   1      50.939  27.950  24.453  1.00  0.00     0.173 A 
ATOM     43  F   UNL A   1      51.214  27.418  28.042  1.00  0.00    -0.203 F 
ATOM     44  C   UNL A   1      52.860  27.340  26.360  1.00  0.00     0.198 A 
ATOM     45  C   UNL A   1      52.262  27.751  24.071  1.00  0.00     0.198 A 
ATOM     46  F   UNL A   1      50.037  28.265  23.512  1.00  0.00    -0.203 F 
ATOM     47  F   UNL A   1      53.794  27.081  27.285  1.00  0.00    -0.200 F 
ATOM     48  C   UNL A   1      53.222  27.449  25.024  1.00  0.00     0.200 A 
ATOM     49  F   UNL A   1      52.607  27.854  22.780  1.00  0.00    -0.200 F 
ATOM     50  F   UNL A   1      54.498  27.271  24.658  1.00  0.00    -0.200 F 
ENDBRANCH  26  40
BRANCH  27  51
ATOM     51  C   UNL A   1      40.809  28.523  28.393  1.00  0.00     0.064 A 
ATOM     52  C   UNL A   1      39.796  29.026  27.567  1.00  0.00     0.173 A 
ATOM     53  C   UNL A   1      40.447  28.139  29.696  1.00  0.00     0.173 A 
ATOM     54  F   UNL A   1      40.085  29.421  26.318  1.00  0.00    -0.203 F 
ATOM     55  C   UNL A   1      38.491  29.183  28.036  1.00  0.00     0.198 A 
ATOM     56  C   UNL A   1      39.135  28.261  30.151  1.00  0.00     0.198 A 
ATOM     57  F   UNL A   1      41.371  27.645  30.534  1.00  0.00    -0.203 F 
ATOM     58  F   UNL A   1      37.560  29.735  27.246  1.00  0.00    -0.200 F 
ATOM     59  C   UNL A   1      38.162  28.799  29.327  1.00  0.00     0.200 A 
ATOM     60  F   UNL A   1      38.822  27.874  31.395  1.00  0.00    -0.200 F 
ATOM     61  F   UNL A   1      36.912  28.965  29.781  1.00  0.00    -0.200 F 
ENDBRANCH  27  51
BRANCH  39  62
ATOM     62  C   UNL A   1      46.370  32.673  29.096  1.00  0.00     0.064 A 
ATOM     63  C   UNL A   1      46.157  33.866  28.392  1.00  0.00     0.173 A 
ATOM     64  C   UNL A   1      46.693  32.753  30.458  1.00  0.00     0.173 A 
ATOM     65  F   UNL A   1      45.864  33.836  27.083  1.00  0.00    -0.203 F 
ATOM     66  C   UNL A   1      46.279  35.097  29.027  1.00  0.00     0.198 A 
ATOM     67  C   UNL A   1      46.777  33.983  31.098  1.00  0.00     0.198 A 
ATOM     68  F   UNL A   1      46.900  31.636  31.171  1.00  0.00    -0.203 F 
ATOM     69  F   UNL A   1      46.117  36.227  28.327  1.00  0.00    -0.200 F 
ATOM     70  C   UNL A   1      46.577  35.154  30.382  1.00  0.00     0.200 A 
ATOM     71  F   UNL A   1      47.045  34.036  32.410  1.00  0.00    -0.200 F 
ATOM     72  F   UNL A   1      46.673  36.340  30.996  1.00  0.00    -0.200 F 
ENDBRANCH  39  62
ENDBRANCH  13  14
ENDBRANCH   6   8
ENDBRANCH   5   6
ENDBRANCH   4   5
ENDBRANCH   3   4
ENDBRANCH   2   3
ENDBRANCH   1   2
BRANCH   1  73
ATOM     73  C   UNL A   1      40.168  22.189  26.625  1.00  0.00     0.188 C 
BRANCH  73  74
ATOM     74  O   UNL A   1      39.065  21.351  26.290  1.00  0.00    -0.376 OA
BRANCH  74  75
ATOM     75  C   UNL A   1      38.232  21.781  25.220  1.00  0.00     0.202 C 
BRANCH  75  76
ATOM     76  C   UNL A   1      36.886  22.447  25.569  1.00  0.00     0.261 C 
BRANCH  76  77
ATOM     77  O   UNL A   1      36.541  23.610  24.792  1.00  0.00    -0.461 OA
BRANCH  77  78
ATOM     78  C   UNL A   1      35.890  23.364  23.619  1.00  0.00     0.335 C 
ATOM     79  O   UNL A   1      36.429  22.934  22.605  1.00  0.00    -0.249 OA
BRANCH  78  80
ATOM     80  C   UNL A   1      34.388  23.735  23.669  1.00  0.00     0.228 C 
ATOM     81  C   UNL A   1      33.648  23.111  22.487  1.00  0.00     0.047 C 
ATOM     82  O   UNL A   1      33.623  23.408  24.838  1.00  0.00    -0.361 OA
ATOM     83  C   UNL A   1      32.785  22.056  23.133  1.00  0.00     0.037 C 
ATOM     84  C   UNL A   1      32.423  22.696  24.460  1.00  0.00     0.139 C 
BRANCH  84  85
ATOM     85  C   UNL A   1      31.197  23.645  24.382  1.00  0.00     0.161 C 
BRANCH  85  86
ATOM     86  N   UNL A   1      31.472  24.956  24.958  1.00  0.00    -0.270 N 
ATOM     87  C   UNL A   1      31.718  26.089  24.227  1.00  0.00     0.263 C 
ATOM     88  C   UNL A   1      31.416  25.227  26.302  1.00  0.00     0.280 C 
ATOM     89  O   UNL A   1      31.814  26.220  23.025  1.00  0.00    -0.269 OA
ATOM     90  C   UNL A   1      31.781  27.196  25.174  1.00  0.00     0.071 A 
ATOM     91  C   UNL A   1      31.591  26.681  26.433  1.00  0.00     0.141 A 
ATOM     92  O   UNL A   1      31.230  24.433  27.208  1.00  0.00    -0.267 OA
ATOM     93  C   UNL A   1      31.904  28.559  24.997  1.00  0.00     0.018 A 
ATOM     94  N   UNL A   1      31.494  27.398  27.568  1.00  0.00    -0.250 NA
ATOM     95  C   UNL A   1      31.811  29.352  26.144  1.00  0.00     0.021 A 
ATOM     96  C   UNL A   1      31.606  28.738  27.388  1.00  0.00     0.112 A 
ENDBRANCH  85  86
ENDBRANCH  84  85
ENDBRANCH  78  80
ENDBRANCH  77  78
ENDBRANCH  76  77
ENDBRANCH  75  76
ENDBRANCH  74  75
ENDBRANCH  73  74
ENDBRANCH   1  73
TORSDOF 19
ENDMDL
MODEL 3
REMARK VINA RESULT:     -11.4      1.985      3.158
REMARK SMILES O=C(OCCOCCOCCOC(=O)[C@H]1CC[C@H](CN2C(=O)c3cccnc3C2=O)O1)c1ccc(-c2c3nc(c(-c4c(F)c(F)c(F)c(F)c4F)c4ccc([nH]4)c(-c4c(F)c(F)c(F)c(F)c4F)c4nc(c(-c5c(F)c(F)c(F)c(F)c5F)c5ccc2[nH]5)C=C4)C=C3)cc1
REMARK SMILES IDX 7 1 6 2 5 3 4 4 3 5 2 6 1 7 32 8 33 9 94 10 34 11 93 12
REMARK SMILES IDX 35 13 36 14 37 15 87 16 38 17 92 18 86 19 88 20 39 21 91 22
REMARK SMILES IDX 85 23 84 24 40 26 72 27 52 28 71 29 53 30 56 31 70 32 89 33
REMARK SMILES IDX 54 34 55 35 69 37 90 38 57 39 41 40 42 41 50 42 43 43 44 44
REMARK SMILES IDX 48 45 51 46 45 47 46 48 49 49 47 50 73 51 74 52 82 53 75 54
REMARK SMILES IDX 76 55 80 56 83 57 77 58 78 59 81 60 79 61 58 62 59 63 67 64
REMARK SMILES IDX 60 65 61 66 65 67 68 68 62 69 63 70 66 71 64 72 8 73 9 74
REMARK SMILES IDX 10 75 11 76 12 77 13 78 14 79 15 80 16 81 31 82 17 83 18 84
REMARK SMILES IDX 19 85 20 86 21 87 29 88 22 89 23 90 28 91 30 92 24 93 27 94
REMARK SMILES IDX 25 95 26 96
REMARK H PARENT 88 25 56 36
REMARK Flexibility Score: inf
ROOT
ATOM      1  C   UNL A   1      31.591  29.078  22.731  1.00  0.00     0.188 C 
ENDROOT
BRANCH   1   2
ATOM      2  O   UNL A   1      32.042  29.070  24.086  1.00  0.00    -0.376 OA
BRANCH   2   3
ATOM      3  C   UNL A   1      31.215  29.778  25.012  1.00  0.00     0.202 C 
BRANCH   3   4
ATOM      4  C   UNL A   1      31.835  30.139  26.378  1.00  0.00     0.261 C 
BRANCH   4   5
ATOM      5  O   UNL A   1      33.075  30.864  26.316  1.00  0.00    -0.460 OA
BRANCH   5   6
ATOM      6  C   UNL A   1      33.649  31.662  27.251  1.00  0.00     0.338 C 
ATOM      7  O   UNL A   1      33.167  32.775  27.450  1.00  0.00    -0.246 OA
BRANCH   6   8
ATOM      8  C   UNL A   1      34.864  31.274  28.030  1.00  0.00     0.060 A 
ATOM      9  C   UNL A   1      35.056  30.021  28.601  1.00  0.00     0.016 A 
ATOM     10  C   UNL A   1      35.925  32.192  28.106  1.00  0.00     0.016 A 
ATOM     11  C   UNL A   1      36.204  29.690  29.295  1.00  0.00     0.010 A 
ATOM     12  C   UNL A   1      37.118  31.853  28.757  1.00  0.00     0.010 A 
ATOM     13  C   UNL A   1      37.251  30.597  29.364  1.00  0.00    -0.014 A 
BRANCH  13  14
ATOM     14  C   UNL A   1      38.434  30.207  30.145  1.00  0.00     0.031 A 
ATOM     15  C   UNL A   1      39.423  29.290  29.511  1.00  0.00     0.074 A 
ATOM     16  C   UNL A   1      38.662  30.783  31.339  1.00  0.00     0.049 A 
ATOM     17  N   UNL A   1      40.495  28.756  30.025  1.00  0.00    -0.248 NA
ATOM     18  C   UNL A   1      39.190  28.944  28.097  1.00  0.00     0.031 C 
ATOM     19  C   UNL A   1      37.827  31.823  31.939  1.00  0.00     0.029 A 
ATOM     20  N   UNL A   1      39.660  30.600  32.259  1.00  0.00    -0.354 N 
ATOM     21  C   UNL A   1      41.046  27.987  29.012  1.00  0.00     0.074 A 
ATOM     22  C   UNL A   1      40.201  28.126  27.848  1.00  0.00     0.031 C 
ATOM     23  C   UNL A   1      38.323  32.166  33.135  1.00  0.00     0.029 A 
ATOM     24  C   UNL A   1      39.473  31.321  33.415  1.00  0.00     0.049 A 
ATOM     25  H   UNL A   1      40.433  30.010  32.108  1.00  0.00     0.167 HD
ATOM     26  C   UNL A   1      42.157  27.222  29.077  1.00  0.00     0.037 A 
ATOM     27  C   UNL A   1      40.130  31.253  34.586  1.00  0.00     0.037 A 
ATOM     28  C   UNL A   1      42.968  27.123  30.258  1.00  0.00     0.049 A 
ATOM     29  C   UNL A   1      41.285  30.292  34.668  1.00  0.00     0.074 A 
ATOM     30  C   UNL A   1      44.107  26.369  30.461  1.00  0.00     0.029 A 
ATOM     31  N   UNL A   1      42.711  27.799  31.445  1.00  0.00    -0.354 N 
ATOM     32  N   UNL A   1      41.794  29.538  33.721  1.00  0.00    -0.248 NA
ATOM     33  C   UNL A   1      41.949  30.156  35.967  1.00  0.00     0.031 C 
ATOM     34  C   UNL A   1      44.498  26.534  31.794  1.00  0.00     0.029 A 
ATOM     35  C   UNL A   1      43.641  27.441  32.402  1.00  0.00     0.049 A 
ATOM     36  H   UNL A   1      41.975  28.439  31.583  1.00  0.00     0.167 HD
ATOM     37  C   UNL A   1      42.847  28.852  34.303  1.00  0.00     0.074 A 
ATOM     38  C   UNL A   1      42.921  29.304  35.679  1.00  0.00     0.031 C 
ATOM     39  C   UNL A   1      43.673  27.925  33.760  1.00  0.00     0.037 A 
BRANCH  26  40
ATOM     40  C   UNL A   1      42.491  26.379  27.887  1.00  0.00     0.064 A 
ATOM     41  C   UNL A   1      43.421  26.782  26.917  1.00  0.00     0.173 A 
ATOM     42  C   UNL A   1      41.872  25.131  27.726  1.00  0.00     0.173 A 
ATOM     43  F   UNL A   1      44.016  27.981  27.008  1.00  0.00    -0.203 F 
ATOM     44  C   UNL A   1      43.711  25.967  25.825  1.00  0.00     0.198 A 
ATOM     45  C   UNL A   1      42.182  24.309  26.647  1.00  0.00     0.198 A 
ATOM     46  F   UNL A   1      40.963  24.708  28.618  1.00  0.00    -0.203 F 
ATOM     47  F   UNL A   1      44.572  26.387  24.888  1.00  0.00    -0.200 F 
ATOM     48  C   UNL A   1      43.099  24.728  25.697  1.00  0.00     0.200 A 
ATOM     49  F   UNL A   1      41.591  23.112  26.529  1.00  0.00    -0.200 F 
ATOM     50  F   UNL A   1      43.386  23.942  24.650  1.00  0.00    -0.200 F 
ENDBRANCH  26  40
BRANCH  27  51
ATOM     51  C   UNL A   1      39.665  32.023  35.774  1.00  0.00     0.064 A 
ATOM     52  C   UNL A   1      40.274  33.227  36.152  1.00  0.00     0.173 A 
ATOM     53  C   UNL A   1      38.634  31.537  36.596  1.00  0.00     0.173 A 
ATOM     54  F   UNL A   1      41.272  33.733  35.414  1.00  0.00    -0.203 F 
ATOM     55  C   UNL A   1      39.901  33.890  37.323  1.00  0.00     0.198 A 
ATOM     56  C   UNL A   1      38.238  32.219  37.745  1.00  0.00     0.198 A 
ATOM     57  F   UNL A   1      38.010  30.391  36.286  1.00  0.00    -0.203 F 
ATOM     58  F   UNL A   1      40.551  35.001  37.696  1.00  0.00    -0.200 F 
ATOM     59  C   UNL A   1      38.883  33.385  38.117  1.00  0.00     0.200 A 
ATOM     60  F   UNL A   1      37.242  31.733  38.500  1.00  0.00    -0.200 F 
ATOM     61  F   UNL A   1      38.537  34.015  39.249  1.00  0.00    -0.200 F 
ENDBRANCH  27  51
BRANCH  39  62
ATOM     62  C   UNL A   1      44.728  27.359  34.658  1.00  0.00     0.064 A 
ATOM     63  C   UNL A   1      45.970  27.991  34.815  1.00  0.00     0.173 A 
ATOM     64  C   UNL A   1      44.468  26.208  35.417  1.00  0.00     0.173 A 
ATOM     65  F   UNL A   1      46.267  29.083  34.095  1.00  0.00    -0.203 F 
ATOM     66  C   UNL A   1      46.922  27.479  35.689  1.00  0.00     0.198 A 
ATOM     67  C   UNL A   1      45.408  25.722  36.317  1.00  0.00     0.198 A 
ATOM     68  F   UNL A   1      43.291  25.574  35.303  1.00  0.00    -0.203 F 
ATOM     69  F   UNL A   1      48.120  28.071  35.790  1.00  0.00    -0.200 F 
ATOM     70  C   UNL A   1      46.636  26.353  36.448  1.00  0.00     0.200 A 
ATOM     71  F   UNL A   1      45.123  24.646  37.063  1.00  0.00    -0.200 F 
ATOM     72  F   UNL A   1      47.547  25.874  37.304  1.00  0.00    -0.200 F 
ENDBRANCH  39  62
ENDBRANCH  13  14
ENDBRANCH   6   8
ENDBRANCH   5   6
ENDBRANCH   4   5
ENDBRANCH   3   4
ENDBRANCH   2   3
ENDBRANCH   1   2
BRANCH   1  73
ATOM     73  C   UNL A   1      30.112  29.442  22.591  1.00  0.00     0.188 C 
BRANCH  73  74
ATOM     74  O   UNL A   1      29.212  28.401  22.223  1.00  0.00    -0.376 OA
BRANCH  74  75
ATOM     75  C   UNL A   1      28.445  27.814  23.266  1.00  0.00     0.202 C 
BRANCH  75  76
ATOM     76  C   UNL A   1      28.948  26.496  23.887  1.00  0.00     0.261 C 
BRANCH  76  77
ATOM     77  O   UNL A   1      29.988  26.623  24.875  1.00  0.00    -0.461 OA
BRANCH  77  78
ATOM     78  C   UNL A   1      30.241  25.504  25.613  1.00  0.00     0.335 C 
ATOM     79  O   UNL A   1      29.536  25.110  26.536  1.00  0.00    -0.249 OA
BRANCH  78  80
ATOM     80  C   UNL A   1      31.554  24.792  25.206  1.00  0.00     0.228 C 
ATOM     81  C   UNL A   1      32.479  25.762  24.473  1.00  0.00     0.047 C 
ATOM     82  O   UNL A   1      32.355  24.166  26.220  1.00  0.00    -0.361 OA
ATOM     83  C   UNL A   1      33.609  25.974  25.449  1.00  0.00     0.037 C 
ATOM     84  C   UNL A   1      33.724  24.617  26.117  1.00  0.00     0.139 C 
BRANCH  84  85
ATOM     85  C   UNL A   1      34.599  23.606  25.329  1.00  0.00     0.161 C 
BRANCH  85  86
ATOM     86  N   UNL A   1      33.914  22.340  25.096  1.00  0.00    -0.270 N 
ATOM     87  C   UNL A   1      33.351  21.971  23.903  1.00  0.00     0.263 C 
ATOM     88  C   UNL A   1      33.842  21.329  26.021  1.00  0.00     0.280 C 
ATOM     89  O   UNL A   1      33.255  22.604  22.872  1.00  0.00    -0.269 OA
ATOM     90  C   UNL A   1      32.918  20.586  24.051  1.00  0.00     0.071 A 
ATOM     91  C   UNL A   1      33.219  20.189  25.331  1.00  0.00     0.141 A 
ATOM     92  O   UNL A   1      34.236  21.353  27.173  1.00  0.00    -0.267 OA
ATOM     93  C   UNL A   1      32.383  19.684  23.155  1.00  0.00     0.018 A 
ATOM     94  N   UNL A   1      33.054  18.949  25.827  1.00  0.00    -0.250 NA
ATOM     95  C   UNL A   1      32.190  18.379  23.619  1.00  0.00     0.021 A 
ATOM     96  C   UNL A   1      32.538  18.062  24.940  1.00  0.00     0.112 A 
ENDBRANCH  85  86
ENDBRANCH  84  85
ENDBRANCH  78  80
ENDBRANCH  77  78
ENDBRANCH  76  77
ENDBRANCH  75  76
ENDBRANCH  74  75
ENDBRANCH  73  74
ENDBRANCH   1  73
TORSDOF 19
ENDMDL
