MODEL 1
REMARK VINA RESULT:     -10.3      0.000      0.000
REMARK SMILES O=C(OCCOCCOCCOC(=O)c1ccc(-c2c3nc(c(-c4c(F)c(F)c(F)c(F)c4F)c4ccc([nH]4)c(-c4c(F)c(F)c(F)c(F)c4F)c4nc(c(-c5c(F)c(F)c(F)c(F)c5F)c5ccc2[nH]5)C=C4)C=C3)cc1)C1=Cc2c(ccc(Cl)c2Sc2ccccc2)O[C@H]1C(F)(F)F
REMARK SMILES IDX 7 1 6 2 5 3 4 4 3 5 2 6 1 7 78 8 79 9 95 10 80 11 94 12
REMARK SMILES IDX 81 13 86 14 82 15 84 16 83 17 85 18 96 19 97 20 98 21 99 22
REMARK SMILES IDX 87 23 88 24 89 25 93 26 90 27 92 28 91 29 8 30 9 31 10 32
REMARK SMILES IDX 11 33 12 34 13 35 14 36 15 37 16 38 77 39 17 40 76 41 18 42
REMARK SMILES IDX 19 43 20 44 70 45 21 46 75 47 69 48 71 49 22 50 74 51 68 52
REMARK SMILES IDX 67 53 23 55 55 56 35 57 54 58 36 59 39 60 53 61 72 62 37 63
REMARK SMILES IDX 38 64 52 66 73 67 40 68 24 69 25 70 33 71 26 72 27 73 31 74
REMARK SMILES IDX 34 75 28 76 29 77 32 78 30 79 56 80 57 81 65 82 58 83 59 84
REMARK SMILES IDX 63 85 66 86 60 87 61 88 64 89 62 90 41 91 42 92 50 93 43 94
REMARK SMILES IDX 44 95 48 96 51 97 45 98 46 99 49 100 47 101
REMARK H PARENT 71 54 39 65
REMARK Flexibility Score: inf
ROOT
ATOM      1  C   UNL A   1      32.937  31.220  27.322  1.00  0.00     0.188 C 
ENDROOT
BRANCH   1   2
ATOM      2  O   UNL A   1      32.599  30.448  26.176  1.00  0.00    -0.376 OA
BRANCH   2   3
ATOM      3  C   UNL A   1      33.034  29.098  26.223  1.00  0.00     0.202 C 
BRANCH   3   4
ATOM      4  C   UNL A   1      33.891  28.645  25.019  1.00  0.00     0.261 C 
BRANCH   4   5
ATOM      5  O   UNL A   1      33.589  27.289  24.619  1.00  0.00    -0.460 OA
BRANCH   5   6
ATOM      6  C   UNL A   1      33.067  27.155  23.368  1.00  0.00     0.338 C 
ATOM      7  O   UNL A   1      33.055  28.019  22.506  1.00  0.00    -0.246 OA
BRANCH   6   8
ATOM      8  C   UNL A   1      32.433  25.838  23.231  1.00  0.00     0.087 C 
ATOM      9  C   UNL A   1      33.329  24.850  23.172  1.00  0.00     0.028 C 
ATOM     10  C   UNL A   1      30.969  25.657  23.476  1.00  0.00     0.316 C 
ATOM     11  C   UNL A   1      32.989  23.556  23.717  1.00  0.00     0.033 A 
ATOM     12  O   UNL A   1      30.637  24.318  23.951  1.00  0.00    -0.475 OA
ATOM     13  C   UNL A   1      31.640  23.393  24.141  1.00  0.00     0.129 A 
ATOM     14  C   UNL A   1      34.002  22.602  24.030  1.00  0.00     0.042 A 
ATOM     15  C   UNL A   1      31.261  22.267  24.861  1.00  0.00     0.049 A 
ATOM     16  C   UNL A   1      33.569  21.493  24.811  1.00  0.00     0.055 A 
ATOM     17  C   UNL A   1      32.227  21.332  25.213  1.00  0.00     0.025 A 
ATOM     18  Cl  UNL A   1      34.658  20.271  25.397  1.00  0.00    -0.083 Cl
BRANCH  10  19
ATOM     19  C   UNL A   1      30.335  26.719  24.402  1.00  0.00     0.430 C 
ATOM     20  F   UNL A   1      29.003  26.532  24.560  1.00  0.00    -0.167 F 
ATOM     21  F   UNL A   1      30.867  26.670  25.647  1.00  0.00    -0.167 F 
ATOM     22  F   UNL A   1      30.519  27.970  23.926  1.00  0.00    -0.167 F 
ENDBRANCH  10  19
BRANCH  14  23
ATOM     23  S   UNL A   1      35.759  22.585  23.469  1.00  0.00    -0.088 SA
BRANCH  23  24
ATOM     24  C   UNL A   1      37.054  22.796  24.692  1.00  0.00     0.012 A 
ATOM     25  C   UNL A   1      37.905  21.730  25.008  1.00  0.00     0.015 A 
ATOM     26  C   UNL A   1      37.145  23.916  25.528  1.00  0.00     0.015 A 
ATOM     27  C   UNL A   1      38.894  21.844  26.004  1.00  0.00     0.001 A 
ATOM     28  C   UNL A   1      38.164  24.066  26.491  1.00  0.00     0.001 A 
ATOM     29  C   UNL A   1      39.060  23.031  26.710  1.00  0.00     0.000 A 
ENDBRANCH  23  24
ENDBRANCH  14  23
ENDBRANCH   6   8
ENDBRANCH   5   6
ENDBRANCH   4   5
ENDBRANCH   3   4
ENDBRANCH   2   3
ENDBRANCH   1   2
BRANCH   1  30
ATOM     30  C   UNL A   1      34.439  31.363  27.627  1.00  0.00     0.188 C 
BRANCH  30  31
ATOM     31  O   UNL A   1      35.032  32.656  27.629  1.00  0.00    -0.376 OA
BRANCH  31  32
ATOM     32  C   UNL A   1      35.178  33.309  28.879  1.00  0.00     0.202 C 
BRANCH  32  33
ATOM     33  C   UNL A   1      34.182  34.478  28.949  1.00  0.00     0.261 C 
BRANCH  33  34
ATOM     34  O   UNL A   1      33.198  34.297  29.998  1.00  0.00    -0.460 OA
BRANCH  34  35
ATOM     35  C   UNL A   1      33.307  35.092  31.099  1.00  0.00     0.338 C 
ATOM     36  O   UNL A   1      32.563  36.007  31.410  1.00  0.00    -0.246 OA
BRANCH  35  37
ATOM     37  C   UNL A   1      34.383  34.581  32.014  1.00  0.00     0.060 A 
ATOM     38  C   UNL A   1      35.520  35.380  32.220  1.00  0.00     0.016 A 
ATOM     39  C   UNL A   1      34.263  33.383  32.733  1.00  0.00     0.016 A 
ATOM     40  C   UNL A   1      36.558  34.951  33.064  1.00  0.00     0.010 A 
ATOM     41  C   UNL A   1      35.305  32.947  33.569  1.00  0.00     0.010 A 
ATOM     42  C   UNL A   1      36.485  33.699  33.696  1.00  0.00    -0.014 A 
BRANCH  42  43
ATOM     43  C   UNL A   1      37.740  33.040  34.168  1.00  0.00     0.031 A 
ATOM     44  C   UNL A   1      38.304  31.943  33.294  1.00  0.00     0.074 A 
ATOM     45  C   UNL A   1      38.383  33.358  35.307  1.00  0.00     0.049 A 
ATOM     46  N   UNL A   1      39.395  31.232  33.434  1.00  0.00    -0.248 NA
ATOM     47  C   UNL A   1      37.520  31.606  32.093  1.00  0.00     0.031 C 
ATOM     48  C   UNL A   1      37.979  34.381  36.265  1.00  0.00     0.029 A 
ATOM     49  N   UNL A   1      39.532  32.823  35.853  1.00  0.00    -0.354 N 
ATOM     50  C   UNL A   1      39.443  30.397  32.324  1.00  0.00     0.074 A 
ATOM     51  C   UNL A   1      38.253  30.652  31.546  1.00  0.00     0.031 C 
ATOM     52  C   UNL A   1      38.856  34.391  37.289  1.00  0.00     0.029 A 
ATOM     53  C   UNL A   1      39.881  33.367  37.065  1.00  0.00     0.049 A 
ATOM     54  H   UNL A   1      40.055  32.115  35.412  1.00  0.00     0.167 HD
ATOM     55  C   UNL A   1      40.393  29.503  31.966  1.00  0.00     0.037 A 
ATOM     56  C   UNL A   1      40.901  33.069  37.897  1.00  0.00     0.037 A 
ATOM     57  C   UNL A   1      41.548  29.172  32.752  1.00  0.00     0.049 A 
ATOM     58  C   UNL A   1      41.905  31.998  37.522  1.00  0.00     0.074 A 
ATOM     59  C   UNL A   1      42.543  28.248  32.480  1.00  0.00     0.029 A 
ATOM     60  N   UNL A   1      41.851  29.735  33.981  1.00  0.00    -0.354 N 
ATOM     61  N   UNL A   1      41.977  31.264  36.437  1.00  0.00    -0.248 NA
ATOM     62  C   UNL A   1      42.980  31.723  38.491  1.00  0.00     0.031 C 
ATOM     63  C   UNL A   1      43.423  28.219  33.566  1.00  0.00     0.029 A 
ATOM     64  C   UNL A   1      43.008  29.164  34.489  1.00  0.00     0.049 A 
ATOM     65  H   UNL A   1      41.324  30.437  34.427  1.00  0.00     0.167 HD
ATOM     66  C   UNL A   1      43.112  30.471  36.583  1.00  0.00     0.074 A 
ATOM     67  C   UNL A   1      43.713  30.826  37.848  1.00  0.00     0.031 C 
ATOM     68  C   UNL A   1      43.608  29.527  35.745  1.00  0.00     0.037 A 
BRANCH  55  69
ATOM     69  C   UNL A   1      40.198  28.800  30.657  1.00  0.00     0.064 A 
ATOM     70  C   UNL A   1      40.750  29.311  29.471  1.00  0.00     0.173 A 
ATOM     71  C   UNL A   1      39.461  27.610  30.583  1.00  0.00     0.173 A 
ATOM     72  F   UNL A   1      41.443  30.460  29.490  1.00  0.00    -0.203 F 
ATOM     73  C   UNL A   1      40.550  28.666  28.254  1.00  0.00     0.198 A 
ATOM     74  C   UNL A   1      39.285  26.955  29.368  1.00  0.00     0.198 A 
ATOM     75  F   UNL A   1      38.911  27.086  31.688  1.00  0.00    -0.203 F 
ATOM     76  F   UNL A   1      41.044  29.198  27.128  1.00  0.00    -0.200 F 
ATOM     77  C   UNL A   1      39.823  27.487  28.205  1.00  0.00     0.200 A 
ATOM     78  F   UNL A   1      38.589  25.812  29.321  1.00  0.00    -0.200 F 
ATOM     79  F   UNL A   1      39.632  26.866  27.032  1.00  0.00    -0.200 F 
ENDBRANCH  55  69
BRANCH  56  80
ATOM     80  C   UNL A   1      41.049  33.779  39.200  1.00  0.00     0.064 A 
ATOM     81  C   UNL A   1      41.905  34.882  39.333  1.00  0.00     0.173 A 
ATOM     82  C   UNL A   1      40.413  33.308  40.359  1.00  0.00     0.173 A 
ATOM     83  F   UNL A   1      42.573  35.344  38.265  1.00  0.00    -0.203 F 
ATOM     84  C   UNL A   1      42.144  35.466  40.577  1.00  0.00     0.198 A 
ATOM     85  C   UNL A   1      40.628  33.911  41.597  1.00  0.00     0.198 A 
ATOM     86  F   UNL A   1      39.601  32.242  40.293  1.00  0.00    -0.203 F 
ATOM     87  F   UNL A   1      43.026  36.469  40.685  1.00  0.00    -0.200 F 
ATOM     88  C   UNL A   1      41.502  34.982  41.707  1.00  0.00     0.200 A 
ATOM     89  F   UNL A   1      40.011  33.438  42.687  1.00  0.00    -0.200 F 
ATOM     90  F   UNL A   1      41.747  35.531  42.905  1.00  0.00    -0.200 F 
ENDBRANCH  56  80
BRANCH  68  91
ATOM     91  C   UNL A   1      44.882  28.831  36.144  1.00  0.00     0.064 A 
ATOM     92  C   UNL A   1      46.143  29.347  35.811  1.00  0.00     0.173 A 
ATOM     93  C   UNL A   1      44.840  27.649  36.902  1.00  0.00     0.173 A 
ATOM     94  F   UNL A   1      46.243  30.469  35.082  1.00  0.00    -0.203 F 
ATOM     95  C   UNL A   1      47.313  28.690  36.191  1.00  0.00     0.198 A 
ATOM     96  C   UNL A   1      46.010  27.012  37.307  1.00  0.00     0.198 A 
ATOM     97  F   UNL A   1      43.662  27.116  37.260  1.00  0.00    -0.203 F 
ATOM     98  F   UNL A   1      48.504  29.174  35.815  1.00  0.00    -0.200 F 
ATOM     99  C   UNL A   1      47.246  27.526  36.943  1.00  0.00     0.200 A 
ATOM    100  F   UNL A   1      45.944  25.897  38.049  1.00  0.00    -0.200 F 
ATOM    101  F   UNL A   1      48.370  26.897  37.311  1.00  0.00    -0.200 F 
ENDBRANCH  68  91
ENDBRANCH  42  43
ENDBRANCH  35  37
ENDBRANCH  34  35
ENDBRANCH  33  34
ENDBRANCH  32  33
ENDBRANCH  31  32
ENDBRANCH  30  31
ENDBRANCH   1  30
TORSDOF 20
ENDMDL
MODEL 2
REMARK VINA RESULT:     -10.2     10.833     16.424
REMARK SMILES O=C(OCCOCCOCCOC(=O)c1ccc(-c2c3nc(c(-c4c(F)c(F)c(F)c(F)c4F)c4ccc([nH]4)c(-c4c(F)c(F)c(F)c(F)c4F)c4nc(c(-c5c(F)c(F)c(F)c(F)c5F)c5ccc2[nH]5)C=C4)C=C3)cc1)C1=Cc2c(ccc(Cl)c2Sc2ccccc2)O[C@H]1C(F)(F)F
REMARK SMILES IDX 7 1 6 2 5 3 4 4 3 5 2 6 1 7 78 8 79 9 95 10 80 11 94 12
REMARK SMILES IDX 81 13 86 14 82 15 84 16 83 17 85 18 96 19 97 20 98 21 99 22
REMARK SMILES IDX 87 23 88 24 89 25 93 26 90 27 92 28 91 29 8 30 9 31 10 32
REMARK SMILES IDX 11 33 12 34 13 35 14 36 15 37 16 38 77 39 17 40 76 41 18 42
REMARK SMILES IDX 19 43 20 44 70 45 21 46 75 47 69 48 71 49 22 50 74 51 68 52
REMARK SMILES IDX 67 53 23 55 55 56 35 57 54 58 36 59 39 60 53 61 72 62 37 63
REMARK SMILES IDX 38 64 52 66 73 67 40 68 24 69 25 70 33 71 26 72 27 73 31 74
REMARK SMILES IDX 34 75 28 76 29 77 32 78 30 79 56 80 57 81 65 82 58 83 59 84
REMARK SMILES IDX 63 85 66 86 60 87 61 88 64 89 62 90 41 91 42 92 50 93 43 94
REMARK SMILES IDX 44 95 48 96 51 97 45 98 46 99 49 100 47 101
REMARK H PARENT 71 54 39 65
REMARK Flexibility Score: inf
ROOT
ATOM      1  C   UNL A   1      49.689  42.256  28.637  1.00  0.00     0.188 C 
ENDROOT
BRANCH   1   2
ATOM      2  O   UNL A   1      49.419  43.420  27.866  1.00  0.00    -0.376 OA
BRANCH   2   3
ATOM      3  C   UNL A   1      48.101  43.492  27.343  1.00  0.00     0.202 C 
BRANCH   3   4
ATOM      4  C   UNL A   1      47.922  44.461  26.152  1.00  0.00     0.261 C 
BRANCH   4   5
ATOM      5  O   UNL A   1      46.579  44.418  25.618  1.00  0.00    -0.460 OA
BRANCH   5   6
ATOM      6  C   UNL A   1      46.437  43.720  24.458  1.00  0.00     0.338 C 
ATOM      7  O   UNL A   1      47.324  43.111  23.880  1.00  0.00    -0.246 OA
BRANCH   6   8
ATOM      8  C   UNL A   1      45.071  43.880  23.943  1.00  0.00     0.087 C 
ATOM      9  C   UNL A   1      45.049  44.475  22.749  1.00  0.00     0.028 C 
ATOM     10  C   UNL A   1      43.923  43.148  24.561  1.00  0.00     0.316 C 
ATOM     11  C   UNL A   1      44.012  44.124  21.805  1.00  0.00     0.033 A 
ATOM     12  O   UNL A   1      42.851  42.872  23.610  1.00  0.00    -0.475 OA
ATOM     13  C   UNL A   1      42.986  43.270  22.298  1.00  0.00     0.129 A 
ATOM     14  C   UNL A   1      44.151  44.419  20.417  1.00  0.00     0.042 A 
ATOM     15  C   UNL A   1      42.059  42.711  21.426  1.00  0.00     0.049 A 
ATOM     16  C   UNL A   1      43.207  43.783  19.564  1.00  0.00     0.055 A 
ATOM     17  C   UNL A   1      42.183  42.950  20.062  1.00  0.00     0.025 A 
ATOM     18  Cl  UNL A   1      43.261  43.916  17.831  1.00  0.00    -0.083 Cl
BRANCH  10  19
ATOM     19  C   UNL A   1      44.312  41.853  25.308  1.00  0.00     0.430 C 
ATOM     20  F   UNL A   1      43.288  40.970  25.372  1.00  0.00    -0.167 F 
ATOM     21  F   UNL A   1      45.323  41.205  24.680  1.00  0.00    -0.167 F 
ATOM     22  F   UNL A   1      44.713  42.107  26.573  1.00  0.00    -0.167 F 
ENDBRANCH  10  19
BRANCH  14  23
ATOM     23  S   UNL A   1      45.333  45.589  19.617  1.00  0.00    -0.088 SA
BRANCH  23  24
ATOM     24  C   UNL A   1      44.794  47.269  19.295  1.00  0.00     0.012 A 
ATOM     25  C   UNL A   1      44.986  48.267  20.258  1.00  0.00     0.015 A 
ATOM     26  C   UNL A   1      43.986  47.621  18.207  1.00  0.00     0.015 A 
ATOM     27  C   UNL A   1      44.524  49.583  20.061  1.00  0.00     0.001 A 
ATOM     28  C   UNL A   1      43.563  48.945  17.969  1.00  0.00     0.001 A 
ATOM     29  C   UNL A   1      43.858  49.936  18.891  1.00  0.00     0.000 A 
ENDBRANCH  23  24
ENDBRANCH  14  23
ENDBRANCH   6   8
ENDBRANCH   5   6
ENDBRANCH   4   5
ENDBRANCH   3   4
ENDBRANCH   2   3
ENDBRANCH   1   2
BRANCH   1  30
ATOM     30  C   UNL A   1      49.181  40.922  28.058  1.00  0.00     0.188 C 
BRANCH  30  31
ATOM     31  O   UNL A   1      50.120  39.945  27.628  1.00  0.00    -0.376 OA
BRANCH  31  32
ATOM     32  C   UNL A   1      49.624  38.658  27.298  1.00  0.00     0.202 C 
BRANCH  32  33
ATOM     33  C   UNL A   1      49.320  37.895  28.598  1.00  0.00     0.261 C 
BRANCH  33  34
ATOM     34  O   UNL A   1      48.363  36.825  28.393  1.00  0.00    -0.460 OA
BRANCH  34  35
ATOM     35  C   UNL A   1      47.058  37.095  28.671  1.00  0.00     0.338 C 
ATOM     36  O   UNL A   1      46.546  38.199  28.756  1.00  0.00    -0.246 OA
BRANCH  35  37
ATOM     37  C   UNL A   1      46.250  35.828  28.687  1.00  0.00     0.060 A 
ATOM     38  C   UNL A   1      46.561  34.850  29.647  1.00  0.00     0.016 A 
ATOM     39  C   UNL A   1      45.150  35.618  27.843  1.00  0.00     0.016 A 
ATOM     40  C   UNL A   1      45.839  33.646  29.706  1.00  0.00     0.010 A 
ATOM     41  C   UNL A   1      44.434  34.410  27.894  1.00  0.00     0.010 A 
ATOM     42  C   UNL A   1      44.809  33.391  28.786  1.00  0.00    -0.014 A 
BRANCH  42  43
ATOM     43  C   UNL A   1      44.391  31.981  28.523  1.00  0.00     0.031 A 
ATOM     44  C   UNL A   1      43.084  31.532  29.134  1.00  0.00     0.074 A 
ATOM     45  C   UNL A   1      45.102  31.103  27.790  1.00  0.00     0.049 A 
ATOM     46  N   UNL A   1      42.460  30.384  29.037  1.00  0.00    -0.248 NA
ATOM     47  C   UNL A   1      42.387  32.524  29.970  1.00  0.00     0.031 C 
ATOM     48  C   UNL A   1      46.379  31.364  27.136  1.00  0.00     0.029 A 
ATOM     49  N   UNL A   1      44.833  29.784  27.485  1.00  0.00    -0.354 N 
ATOM     50  C   UNL A   1      41.287  30.533  29.767  1.00  0.00     0.074 A 
ATOM     51  C   UNL A   1      41.306  31.860  30.340  1.00  0.00     0.031 C 
ATOM     52  C   UNL A   1      46.791  30.239  26.519  1.00  0.00     0.029 A 
ATOM     53  C   UNL A   1      45.813  29.171  26.742  1.00  0.00     0.049 A 
ATOM     54  H   UNL A   1      44.012  29.324  27.775  1.00  0.00     0.167 HD
ATOM     55  C   UNL A   1      40.271  29.657  29.944  1.00  0.00     0.037 A 
ATOM     56  C   UNL A   1      45.910  27.899  26.301  1.00  0.00     0.037 A 
ATOM     57  C   UNL A   1      40.254  28.308  29.453  1.00  0.00     0.049 A 
ATOM     58  C   UNL A   1      44.803  26.905  26.588  1.00  0.00     0.074 A 
ATOM     59  C   UNL A   1      39.278  27.340  29.618  1.00  0.00     0.029 A 
ATOM     60  N   UNL A   1      41.275  27.725  28.720  1.00  0.00    -0.354 N 
ATOM     61  N   UNL A   1      43.667  27.078  27.220  1.00  0.00    -0.248 NA
ATOM     62  C   UNL A   1      44.993  25.533  26.084  1.00  0.00     0.031 C 
ATOM     63  C   UNL A   1      39.730  26.157  29.026  1.00  0.00     0.029 A 
ATOM     64  C   UNL A   1      40.962  26.403  28.443  1.00  0.00     0.049 A 
ATOM     65  H   UNL A   1      42.101  28.182  28.437  1.00  0.00     0.167 HD
ATOM     66  C   UNL A   1      43.003  25.856  27.163  1.00  0.00     0.074 A 
ATOM     67  C   UNL A   1      43.848  24.953  26.415  1.00  0.00     0.031 C 
ATOM     68  C   UNL A   1      41.801  25.510  27.690  1.00  0.00     0.037 A 
BRANCH  55  69
ATOM     69  C   UNL A   1      39.091  30.143  30.730  1.00  0.00     0.064 A 
ATOM     70  C   UNL A   1      39.012  29.941  32.117  1.00  0.00     0.173 A 
ATOM     71  C   UNL A   1      38.036  30.816  30.100  1.00  0.00     0.173 A 
ATOM     72  F   UNL A   1      39.988  29.280  32.760  1.00  0.00    -0.203 F 
ATOM     73  C   UNL A   1      37.906  30.375  32.841  1.00  0.00     0.198 A 
ATOM     74  C   UNL A   1      36.943  31.272  30.831  1.00  0.00     0.198 A 
ATOM     75  F   UNL A   1      38.064  31.028  28.776  1.00  0.00    -0.203 F 
ATOM     76  F   UNL A   1      37.828  30.128  34.155  1.00  0.00    -0.200 F 
ATOM     77  C   UNL A   1      36.876  31.045  32.198  1.00  0.00     0.200 A 
ATOM     78  F   UNL A   1      35.951  31.925  30.211  1.00  0.00    -0.200 F 
ATOM     79  F   UNL A   1      35.811  31.465  32.896  1.00  0.00    -0.200 F 
ENDBRANCH  55  69
BRANCH  56  80
ATOM     80  C   UNL A   1      47.110  27.450  25.539  1.00  0.00     0.064 A 
ATOM     81  C   UNL A   1      48.210  26.873  26.190  1.00  0.00     0.173 A 
ATOM     82  C   UNL A   1      47.219  27.678  24.159  1.00  0.00     0.173 A 
ATOM     83  F   UNL A   1      48.174  26.675  27.517  1.00  0.00    -0.203 F 
ATOM     84  C   UNL A   1      49.383  26.573  25.499  1.00  0.00     0.198 A 
ATOM     85  C   UNL A   1      48.381  27.350  23.462  1.00  0.00     0.198 A 
ATOM     86  F   UNL A   1      46.205  28.248  23.490  1.00  0.00    -0.203 F 
ATOM     87  F   UNL A   1      50.446  26.096  26.162  1.00  0.00    -0.200 F 
ATOM     88  C   UNL A   1      49.466  26.809  24.135  1.00  0.00     0.200 A 
ATOM     89  F   UNL A   1      48.460  27.583  22.146  1.00  0.00    -0.200 F 
ATOM     90  F   UNL A   1      50.601  26.537  23.475  1.00  0.00    -0.200 F 
ENDBRANCH  56  80
BRANCH  68  91
ATOM     91  C   UNL A   1      41.305  24.109  27.451  1.00  0.00     0.064 A 
ATOM     92  C   UNL A   1      40.217  23.843  26.607  1.00  0.00     0.173 A 
ATOM     93  C   UNL A   1      41.951  23.014  28.047  1.00  0.00     0.173 A 
ATOM     94  F   UNL A   1      39.558  24.852  26.017  1.00  0.00    -0.203 F 
ATOM     95  C   UNL A   1      39.772  22.540  26.396  1.00  0.00     0.198 A 
ATOM     96  C   UNL A   1      41.524  21.710  27.810  1.00  0.00     0.198 A 
ATOM     97  F   UNL A   1      43.005  23.207  28.855  1.00  0.00    -0.203 F 
ATOM     98  F   UNL A   1      38.697  22.316  25.628  1.00  0.00    -0.200 F 
ATOM     99  C   UNL A   1      40.429  21.474  26.993  1.00  0.00     0.200 A 
ATOM    100  F   UNL A   1      42.171  20.680  28.374  1.00  0.00    -0.200 F 
ATOM    101  F   UNL A   1      40.003  20.220  26.787  1.00  0.00    -0.200 F 
ENDBRANCH  68  91
ENDBRANCH  42  43
ENDBRANCH  35  37
ENDBRANCH  34  35
ENDBRANCH  33  34
ENDBRANCH  32  33
ENDBRANCH  31  32
ENDBRANCH  30  31
ENDBRANCH   1  30
TORSDOF 20
ENDMDL
MODEL 3
REMARK VINA RESULT:     -10.0      9.219     14.499
REMARK SMILES O=C(OCCOCCOCCOC(=O)c1ccc(-c2c3nc(c(-c4c(F)c(F)c(F)c(F)c4F)c4ccc([nH]4)c(-c4c(F)c(F)c(F)c(F)c4F)c4nc(c(-c5c(F)c(F)c(F)c(F)c5F)c5ccc2[nH]5)C=C4)C=C3)cc1)C1=Cc2c(ccc(Cl)c2Sc2ccccc2)O[C@H]1C(F)(F)F
REMARK SMILES IDX 7 1 6 2 5 3 4 4 3 5 2 6 1 7 78 8 79 9 95 10 80 11 94 12
REMARK SMILES IDX 81 13 86 14 82 15 84 16 83 17 85 18 96 19 97 20 98 21 99 22
REMARK SMILES IDX 87 23 88 24 89 25 93 26 90 27 92 28 91 29 8 30 9 31 10 32
REMARK SMILES IDX 11 33 12 34 13 35 14 36 15 37 16 38 77 39 17 40 76 41 18 42
REMARK SMILES IDX 19 43 20 44 70 45 21 46 75 47 69 48 71 49 22 50 74 51 68 52
REMARK SMILES IDX 67 53 23 55 55 56 35 57 54 58 36 59 39 60 53 61 72 62 37 63
REMARK SMILES IDX 38 64 52 66 73 67 40 68 24 69 25 70 33 71 26 72 27 73 31 74
REMARK SMILES IDX 34 75 28 76 29 77 32 78 30 79 56 80 57 81 65 82 58 83 59 84
REMARK SMILES IDX 63 85 66 86 60 87 61 88 64 89 62 90 41 91 42 92 50 93 43 94
REMARK SMILES IDX 44 95 48 96 51 97 45 98 46 99 49 100 47 101
REMARK H PARENT 71 54 39 65
REMARK Flexibility Score: inf
ROOT
ATOM      1  C   UNL A   1      42.885  41.348  31.992  1.00  0.00     0.188 C 
ENDROOT
BRANCH   1   2
ATOM      2  O   UNL A   1      43.335  42.507  31.302  1.00  0.00    -0.376 OA
BRANCH   2   3
ATOM      3  C   UNL A   1      44.592  42.364  30.659  1.00  0.00     0.202 C 
BRANCH   3   4
ATOM      4  C   UNL A   1      44.535  42.306  29.116  1.00  0.00     0.261 C 
BRANCH   4   5
ATOM      5  O   UNL A   1      44.196  40.985  28.637  1.00  0.00    -0.460 OA
BRANCH   5   6
ATOM      6  C   UNL A   1      44.459  40.758  27.320  1.00  0.00     0.338 C 
ATOM      7  O   UNL A   1      45.412  40.134  26.881  1.00  0.00    -0.246 OA
BRANCH   6   8
ATOM      8  C   UNL A   1      43.473  41.458  26.487  1.00  0.00     0.087 C 
ATOM      9  C   UNL A   1      44.041  42.357  25.680  1.00  0.00     0.028 C 
ATOM     10  C   UNL A   1      42.073  40.949  26.356  1.00  0.00     0.316 C 
ATOM     11  C   UNL A   1      43.448  42.621  24.389  1.00  0.00     0.033 A 
ATOM     12  O   UNL A   1      41.463  41.294  25.076  1.00  0.00    -0.475 OA
ATOM     13  C   UNL A   1      42.190  42.001  24.144  1.00  0.00     0.129 A 
ATOM     14  C   UNL A   1      44.194  43.257  23.354  1.00  0.00     0.042 A 
ATOM     15  C   UNL A   1      41.633  42.023  22.871  1.00  0.00     0.049 A 
ATOM     16  C   UNL A   1      43.601  43.207  22.061  1.00  0.00     0.055 A 
ATOM     17  C   UNL A   1      42.347  42.605  21.830  1.00  0.00     0.025 A 
ATOM     18  Cl  UNL A   1      44.389  43.822  20.638  1.00  0.00    -0.083 Cl
BRANCH  10  19
ATOM     19  C   UNL A   1      41.910  39.437  26.629  1.00  0.00     0.430 C 
ATOM     20  F   UNL A   1      42.981  38.722  26.211  1.00  0.00    -0.167 F 
ATOM     21  F   UNL A   1      41.789  39.185  27.954  1.00  0.00    -0.167 F 
ATOM     22  F   UNL A   1      40.817  38.933  26.015  1.00  0.00    -0.167 F 
ENDBRANCH  10  19
BRANCH  14  23
ATOM     23  S   UNL A   1      45.768  44.207  23.507  1.00  0.00    -0.088 SA
BRANCH  23  24
ATOM     24  C   UNL A   1      46.462  44.462  25.141  1.00  0.00     0.012 A 
ATOM     25  C   UNL A   1      47.379  43.544  25.668  1.00  0.00     0.015 A 
ATOM     26  C   UNL A   1      45.983  45.426  26.037  1.00  0.00     0.015 A 
ATOM     27  C   UNL A   1      47.900  43.683  26.969  1.00  0.00     0.001 A 
ATOM     28  C   UNL A   1      46.533  45.611  27.322  1.00  0.00     0.001 A 
ATOM     29  C   UNL A   1      47.517  44.748  27.779  1.00  0.00     0.000 A 
ENDBRANCH  23  24
ENDBRANCH  14  23
ENDBRANCH   6   8
ENDBRANCH   5   6
ENDBRANCH   4   5
ENDBRANCH   3   4
ENDBRANCH   2   3
ENDBRANCH   1   2
BRANCH   1  30
ATOM     30  C   UNL A   1      43.929  40.626  32.864  1.00  0.00     0.188 C 
BRANCH  30  31
ATOM     31  O   UNL A   1      44.376  39.329  32.489  1.00  0.00    -0.376 OA
BRANCH  31  32
ATOM     32  C   UNL A   1      43.725  38.700  31.399  1.00  0.00     0.202 C 
BRANCH  32  33
ATOM     33  C   UNL A   1      44.223  37.249  31.292  1.00  0.00     0.261 C 
BRANCH  33  34
ATOM     34  O   UNL A   1      45.626  37.177  30.936  1.00  0.00    -0.460 OA
BRANCH  34  35
ATOM     35  C   UNL A   1      45.927  36.986  29.622  1.00  0.00     0.338 C 
ATOM     36  O   UNL A   1      46.453  37.792  28.872  1.00  0.00    -0.246 OA
BRANCH  35  37
ATOM     37  C   UNL A   1      45.694  35.554  29.230  1.00  0.00     0.060 A 
ATOM     38  C   UNL A   1      44.917  35.292  28.089  1.00  0.00     0.016 A 
ATOM     39  C   UNL A   1      46.283  34.476  29.906  1.00  0.00     0.016 A 
ATOM     40  C   UNL A   1      44.665  33.973  27.678  1.00  0.00     0.010 A 
ATOM     41  C   UNL A   1      46.023  33.155  29.502  1.00  0.00     0.010 A 
ATOM     42  C   UNL A   1      45.166  32.891  28.421  1.00  0.00    -0.014 A 
BRANCH  42  43
ATOM     43  C   UNL A   1      44.518  31.551  28.296  1.00  0.00     0.031 A 
ATOM     44  C   UNL A   1      45.240  30.520  27.460  1.00  0.00     0.074 A 
ATOM     45  C   UNL A   1      43.346  31.217  28.870  1.00  0.00     0.049 A 
ATOM     46  N   UNL A   1      44.933  29.270  27.214  1.00  0.00    -0.248 NA
ATOM     47  C   UNL A   1      46.485  30.968  26.814  1.00  0.00     0.031 C 
ATOM     48  C   UNL A   1      42.518  32.085  29.700  1.00  0.00     0.029 A 
ATOM     49  N   UNL A   1      42.645  30.030  28.823  1.00  0.00    -0.354 N 
ATOM     50  C   UNL A   1      45.963  28.781  26.420  1.00  0.00     0.074 A 
ATOM     51  C   UNL A   1      46.877  29.875  26.184  1.00  0.00     0.031 C 
ATOM     52  C   UNL A   1      41.414  31.408  30.072  1.00  0.00     0.029 A 
ATOM     53  C   UNL A   1      41.449  30.059  29.499  1.00  0.00     0.049 A 
ATOM     54  H   UNL A   1      42.973  29.233  28.347  1.00  0.00     0.167 HD
ATOM     55  C   UNL A   1      46.150  27.532  25.933  1.00  0.00     0.037 A 
ATOM     56  C   UNL A   1      40.496  29.113  29.633  1.00  0.00     0.037 A 
ATOM     57  C   UNL A   1      45.226  26.444  26.085  1.00  0.00     0.049 A 
ATOM     58  C   UNL A   1      40.681  27.748  29.002  1.00  0.00     0.074 A 
ATOM     59  C   UNL A   1      45.321  25.154  25.591  1.00  0.00     0.029 A 
ATOM     60  N   UNL A   1      44.020  26.525  26.763  1.00  0.00    -0.354 N 
ATOM     61  N   UNL A   1      41.692  27.276  28.312  1.00  0.00    -0.248 NA
ATOM     62  C   UNL A   1      39.587  26.777  29.183  1.00  0.00     0.031 C 
ATOM     63  C   UNL A   1      44.151  24.468  25.931  1.00  0.00     0.029 A 
ATOM     64  C   UNL A   1      43.352  25.312  26.683  1.00  0.00     0.049 A 
ATOM     65  H   UNL A   1      43.687  27.324  27.232  1.00  0.00     0.167 HD
ATOM     66  C   UNL A   1      41.368  25.957  28.006  1.00  0.00     0.074 A 
ATOM     67  C   UNL A   1      40.080  25.691  28.604  1.00  0.00     0.031 C 
ATOM     68  C   UNL A   1      42.074  25.049  27.287  1.00  0.00     0.037 A 
BRANCH  55  69
ATOM     69  C   UNL A   1      47.413  27.291  25.164  1.00  0.00     0.064 A 
ATOM     70  C   UNL A   1      48.546  26.739  25.786  1.00  0.00     0.173 A 
ATOM     71  C   UNL A   1      47.496  27.606  23.801  1.00  0.00     0.173 A 
ATOM     72  F   UNL A   1      48.521  26.444  27.094  1.00  0.00    -0.203 F 
ATOM     73  C   UNL A   1      49.723  26.535  25.073  1.00  0.00     0.198 A 
ATOM     74  C   UNL A   1      48.667  27.376  23.086  1.00  0.00     0.198 A 
ATOM     75  F   UNL A   1      46.442  28.139  23.166  1.00  0.00    -0.203 F 
ATOM     76  F   UNL A   1      50.807  26.055  25.697  1.00  0.00    -0.200 F 
ATOM     77  C   UNL A   1      49.781  26.848  23.723  1.00  0.00     0.200 A 
ATOM     78  F   UNL A   1      48.721  27.672  21.781  1.00  0.00    -0.200 F 
ATOM     79  F   UNL A   1      50.915  26.650  23.037  1.00  0.00    -0.200 F 
ENDBRANCH  55  69
BRANCH  56  80
ATOM     80  C   UNL A   1      39.244  29.400  30.391  1.00  0.00     0.064 A 
ATOM     81  C   UNL A   1      38.114  29.933  29.751  1.00  0.00     0.173 A 
ATOM     82  C   UNL A   1      39.186  29.239  31.783  1.00  0.00     0.173 A 
ATOM     83  F   UNL A   1      38.134  30.149  28.427  1.00  0.00    -0.203 F 
ATOM     84  C   UNL A   1      36.990  30.323  30.478  1.00  0.00     0.198 A 
ATOM     85  C   UNL A   1      38.050  29.600  32.505  1.00  0.00     0.198 A 
ATOM     86  F   UNL A   1      40.246  28.755  32.448  1.00  0.00    -0.203 F 
ATOM     87  F   UNL A   1      35.957  30.901  29.850  1.00  0.00    -0.200 F 
ATOM     88  C   UNL A   1      36.958  30.153  31.854  1.00  0.00     0.200 A 
ATOM     89  F   UNL A   1      38.023  29.440  33.834  1.00  0.00    -0.200 F 
ATOM     90  F   UNL A   1      35.884  30.546  32.553  1.00  0.00    -0.200 F 
ENDBRANCH  56  80
BRANCH  68  91
ATOM     91  C   UNL A   1      41.492  23.669  27.132  1.00  0.00     0.064 A 
ATOM     92  C   UNL A   1      40.332  23.435  26.380  1.00  0.00     0.173 A 
ATOM     93  C   UNL A   1      42.126  22.560  27.716  1.00  0.00     0.173 A 
ATOM     94  F   UNL A   1      39.681  24.458  25.806  1.00  0.00    -0.203 F 
ATOM     95  C   UNL A   1      39.808  22.150  26.246  1.00  0.00     0.198 A 
ATOM     96  C   UNL A   1      41.619  21.273  27.554  1.00  0.00     0.198 A 
ATOM     97  F   UNL A   1      43.246  22.722  28.437  1.00  0.00    -0.203 F 
ATOM     98  F   UNL A   1      38.670  21.959  25.567  1.00  0.00    -0.200 F 
ATOM     99  C   UNL A   1      40.455  21.069  26.828  1.00  0.00     0.200 A 
ATOM    100  F   UNL A   1      42.255  20.228  28.103  1.00  0.00    -0.200 F 
ATOM    101  F   UNL A   1      39.953  19.834  26.695  1.00  0.00    -0.200 F 
ENDBRANCH  68  91
ENDBRANCH  42  43
ENDBRANCH  35  37
ENDBRANCH  34  35
ENDBRANCH  33  34
ENDBRANCH  32  33
ENDBRANCH  31  32
ENDBRANCH  30  31
ENDBRANCH   1  30
TORSDOF 20
ENDMDL
