MODEL 1
REMARK VINA RESULT:     -11.1      0.000      0.000
REMARK SMILES CCC1(C(=O)N[C@H]2C=C[C@H](C(=O)OCCOCCOCCOC(=O)c3ccc(-c4c5nc(c(-c6c(F)c(F)c(F)c(F)c6F)c6ccc([nH]6)c(-c6c(F)c(F)c(F)c(F)c6F)c6nc(c(-c7c(F)c(F)c(F)c(F)c7F)c7ccc4[nH]7)C=C6)C=C5)cc3)C2)CC[NH2+]CC1
REMARK SMILES IDX 17 1 16 2 15 3 14 4 13 5 11 6 12 7 10 8 7 9 8 10 88 11 9 12
REMARK SMILES IDX 6 13 4 14 5 15 3 17 89 18 93 19 90 20 92 21 91 22 2 25 1 26
REMARK SMILES IDX 18 27 19 28 20 29 21 30 22 31 23 32 24 33 25 34 26 35 87 36
REMARK SMILES IDX 27 37 86 38 28 39 29 40 30 41 80 42 31 43 85 44 79 45 81 46
REMARK SMILES IDX 32 47 84 48 78 49 77 50 33 52 65 53 45 54 64 55 46 56 49 57
REMARK SMILES IDX 63 58 82 59 47 60 48 61 62 63 83 64 50 65 34 66 35 67 43 68
REMARK SMILES IDX 36 69 37 70 41 71 44 72 38 73 39 74 42 75 40 76 66 77 67 78
REMARK SMILES IDX 75 79 68 80 69 81 73 82 76 83 70 84 71 85 74 86 72 87 51 88
REMARK SMILES IDX 52 89 60 90 53 91 54 92 58 93 61 94 55 95 56 96 59 97 57 98
REMARK H PARENT 6 16 91 23 91 24 81 51 49 62
REMARK Flexibility Score: inf
ROOT
ATOM      1  C   UNL A   1      42.994  19.842  25.634  1.00  0.00     0.188 C 
ENDROOT
BRANCH   1   2
ATOM      2  O   UNL A   1      41.794  20.600  25.603  1.00  0.00    -0.376 OA
BRANCH   2   3
ATOM      3  C   UNL A   1      41.630  21.444  26.747  1.00  0.00     0.202 C 
BRANCH   3   4
ATOM      4  C   UNL A   1      40.272  22.161  26.903  1.00  0.00     0.261 C 
BRANCH   4   5
ATOM      5  O   UNL A   1      39.164  21.511  26.248  1.00  0.00    -0.463 OA
BRANCH   5   6
ATOM      6  C   UNL A   1      38.240  22.362  25.714  1.00  0.00     0.312 C 
ATOM      7  O   UNL A   1      38.015  23.487  26.152  1.00  0.00    -0.252 OA
BRANCH   6   8
ATOM      8  C   UNL A   1      37.511  21.728  24.520  1.00  0.00     0.124 C 
ATOM      9  C   UNL A   1      35.127  22.404  24.506  1.00  0.00     0.106 C 
ATOM     10  C   UNL A   1      35.338  21.041  25.102  1.00  0.00    -0.006 C 
ATOM     11  C   UNL A   1      36.478  22.611  23.790  1.00  0.00     0.048 C 
ATOM     12  C   UNL A   1      36.615  20.645  25.050  1.00  0.00    -0.014 C 
BRANCH   9  13
ATOM     13  N   UNL A   1      34.015  22.267  23.591  1.00  0.00    -0.349 N 
ATOM     14  C   UNL A   1      32.750  22.716  23.462  1.00  0.00     0.227 C 
ATOM     15  O   UNL A   1      32.141  22.148  22.543  1.00  0.00    -0.274 OA
ATOM     16  H   UNL A   1      34.251  21.672  22.843  1.00  0.00     0.164 HD
BRANCH  14  17
ATOM     17  C   UNL A   1      32.071  23.877  24.238  1.00  0.00     0.060 C 
ATOM     18  C   UNL A   1      30.615  24.185  23.864  1.00  0.00     0.078 C 
ATOM     19  C   UNL A   1      32.049  23.515  25.744  1.00  0.00     0.078 C 
ATOM     20  C   UNL A   1      30.083  25.354  24.709  1.00  0.00     0.261 C 
ATOM     21  C   UNL A   1      31.411  24.606  26.618  1.00  0.00     0.261 C 
ATOM     22  N   UNL A   1      30.116  25.078  26.139  1.00  0.00    -0.346 N 
ATOM     23  H   UNL A   1      29.417  24.364  26.346  1.00  0.00     0.346 HD
ATOM     24  H   UNL A   1      29.926  25.959  26.616  1.00  0.00     0.346 HD
BRANCH  17  25
ATOM     25  C   UNL A   1      32.965  25.162  24.013  1.00  0.00     0.014 C 
ATOM     26  C   UNL A   1      33.623  25.265  22.634  1.00  0.00     0.005 C 
ENDBRANCH  17  25
ENDBRANCH  14  17
ENDBRANCH   9  13
ENDBRANCH   6   8
ENDBRANCH   5   6
ENDBRANCH   4   5
ENDBRANCH   3   4
ENDBRANCH   2   3
ENDBRANCH   1   2
BRANCH   1  27
ATOM     27  C   UNL A   1      44.307  20.566  25.380  1.00  0.00     0.188 C 
BRANCH  27  28
ATOM     28  O   UNL A   1      44.568  20.868  24.020  1.00  0.00    -0.376 OA
BRANCH  28  29
ATOM     29  C   UNL A   1      44.900  22.231  23.731  1.00  0.00     0.202 C 
BRANCH  29  30
ATOM     30  C   UNL A   1      44.880  23.173  24.936  1.00  0.00     0.261 C 
BRANCH  30  31
ATOM     31  O   UNL A   1      44.068  24.338  24.657  1.00  0.00    -0.460 OA
BRANCH  31  32
ATOM     32  C   UNL A   1      44.652  25.498  25.047  1.00  0.00     0.338 C 
ATOM     33  O   UNL A   1      45.763  25.873  24.705  1.00  0.00    -0.246 OA
BRANCH  32  34
ATOM     34  C   UNL A   1      43.759  26.351  25.882  1.00  0.00     0.060 A 
ATOM     35  C   UNL A   1      44.077  27.657  26.257  1.00  0.00     0.016 A 
ATOM     36  C   UNL A   1      42.647  25.736  26.469  1.00  0.00     0.016 A 
ATOM     37  C   UNL A   1      43.386  28.264  27.324  1.00  0.00     0.010 A 
ATOM     38  C   UNL A   1      41.915  26.378  27.478  1.00  0.00     0.010 A 
ATOM     39  C   UNL A   1      42.323  27.619  27.989  1.00  0.00    -0.014 A 
BRANCH  39  40
ATOM     40  C   UNL A   1      41.697  28.154  29.252  1.00  0.00     0.031 A 
ATOM     41  C   UNL A   1      40.444  29.024  29.206  1.00  0.00     0.074 A 
ATOM     42  C   UNL A   1      42.198  27.863  30.471  1.00  0.00     0.049 A 
ATOM     43  N   UNL A   1      39.887  29.735  30.161  1.00  0.00    -0.248 NA
ATOM     44  C   UNL A   1      39.705  29.081  27.935  1.00  0.00     0.031 C 
ATOM     45  C   UNL A   1      43.318  26.966  30.743  1.00  0.00     0.029 A 
ATOM     46  N   UNL A   1      41.827  28.313  31.722  1.00  0.00    -0.354 N 
ATOM     47  C   UNL A   1      38.751  30.318  29.605  1.00  0.00     0.074 A 
ATOM     48  C   UNL A   1      38.694  29.886  28.226  1.00  0.00     0.031 C 
ATOM     49  C   UNL A   1      43.535  26.919  32.064  1.00  0.00     0.029 A 
ATOM     50  C   UNL A   1      42.667  27.890  32.723  1.00  0.00     0.049 A 
ATOM     51  H   UNL A   1      41.038  28.881  31.881  1.00  0.00     0.167 HD
ATOM     52  C   UNL A   1      37.840  31.143  30.178  1.00  0.00     0.037 A 
ATOM     53  C   UNL A   1      42.816  28.298  34.000  1.00  0.00     0.037 A 
ATOM     54  C   UNL A   1      37.881  31.607  31.541  1.00  0.00     0.049 A 
ATOM     55  C   UNL A   1      41.948  29.392  34.551  1.00  0.00     0.074 A 
ATOM     56  C   UNL A   1      37.005  32.464  32.190  1.00  0.00     0.029 A 
ATOM     57  N   UNL A   1      38.853  31.264  32.462  1.00  0.00    -0.354 N 
ATOM     58  N   UNL A   1      40.932  30.001  33.995  1.00  0.00    -0.248 NA
ATOM     59  C   UNL A   1      42.276  29.883  35.898  1.00  0.00     0.031 C 
ATOM     60  C   UNL A   1      37.486  32.691  33.483  1.00  0.00     0.029 A 
ATOM     61  C   UNL A   1      38.631  31.933  33.656  1.00  0.00     0.049 A 
ATOM     62  H   UNL A   1      39.594  30.638  32.294  1.00  0.00     0.167 HD
ATOM     63  C   UNL A   1      40.497  30.938  34.922  1.00  0.00     0.074 A 
ATOM     64  C   UNL A   1      41.346  30.809  36.085  1.00  0.00     0.031 C 
ATOM     65  C   UNL A   1      39.481  31.827  34.811  1.00  0.00     0.037 A 
BRANCH  52  66
ATOM     66  C   UNL A   1      36.714  31.661  29.330  1.00  0.00     0.064 A 
ATOM     67  C   UNL A   1      35.636  30.845  28.961  1.00  0.00     0.173 A 
ATOM     68  C   UNL A   1      36.651  33.025  29.002  1.00  0.00     0.173 A 
ATOM     69  F   UNL A   1      35.651  29.535  29.250  1.00  0.00    -0.203 F 
ATOM     70  C   UNL A   1      34.531  31.379  28.300  1.00  0.00     0.198 A 
ATOM     71  C   UNL A   1      35.538  33.557  28.357  1.00  0.00     0.198 A 
ATOM     72  F   UNL A   1      37.654  33.848  29.344  1.00  0.00    -0.203 F 
ATOM     73  F   UNL A   1      33.508  30.583  27.957  1.00  0.00    -0.200 F 
ATOM     74  C   UNL A   1      34.478  32.735  28.009  1.00  0.00     0.200 A 
ATOM     75  F   UNL A   1      35.484  34.869  28.090  1.00  0.00    -0.200 F 
ATOM     76  F   UNL A   1      33.401  33.250  27.400  1.00  0.00    -0.200 F 
ENDBRANCH  52  66
BRANCH  53  77
ATOM     77  C   UNL A   1      43.948  27.760  34.803  1.00  0.00     0.064 A 
ATOM     78  C   UNL A   1      45.209  28.366  34.796  1.00  0.00     0.173 A 
ATOM     79  C   UNL A   1      43.778  26.612  35.595  1.00  0.00     0.173 A 
ATOM     80  F   UNL A   1      45.435  29.437  34.022  1.00  0.00    -0.203 F 
ATOM     81  C   UNL A   1      46.255  27.849  35.560  1.00  0.00     0.198 A 
ATOM     82  C   UNL A   1      44.810  26.122  36.388  1.00  0.00     0.198 A 
ATOM     83  F   UNL A   1      42.594  25.981  35.619  1.00  0.00    -0.203 F 
ATOM     84  F   UNL A   1      47.466  28.422  35.508  1.00  0.00    -0.200 F 
ATOM     85  C   UNL A   1      46.050  26.739  36.365  1.00  0.00     0.200 A 
ATOM     86  F   UNL A   1      44.600  25.058  37.174  1.00  0.00    -0.200 F 
ATOM     87  F   UNL A   1      47.052  26.256  37.113  1.00  0.00    -0.200 F 
ENDBRANCH  53  77
BRANCH  65  88
ATOM     88  C   UNL A   1      39.218  32.727  35.982  1.00  0.00     0.064 A 
ATOM     89  C   UNL A   1      39.761  34.019  36.047  1.00  0.00     0.173 A 
ATOM     90  C   UNL A   1      38.411  32.298  37.046  1.00  0.00     0.173 A 
ATOM     91  F   UNL A   1      40.553  34.468  35.062  1.00  0.00    -0.203 F 
ATOM     92  C   UNL A   1      39.530  34.837  37.150  1.00  0.00     0.198 A 
ATOM     93  C   UNL A   1      38.161  33.129  38.136  1.00  0.00     0.198 A 
ATOM     94  F   UNL A   1      37.863  31.073  37.030  1.00  0.00    -0.203 F 
ATOM     95  F   UNL A   1      40.102  36.046  37.216  1.00  0.00    -0.200 F 
ATOM     96  C   UNL A   1      38.728  34.393  38.191  1.00  0.00     0.200 A 
ATOM     97  F   UNL A   1      37.379  32.702  39.136  1.00  0.00    -0.200 F 
ATOM     98  F   UNL A   1      38.511  35.180  39.254  1.00  0.00    -0.200 F 
ENDBRANCH  65  88
ENDBRANCH  39  40
ENDBRANCH  32  34
ENDBRANCH  31  32
ENDBRANCH  30  31
ENDBRANCH  29  30
ENDBRANCH  28  29
ENDBRANCH  27  28
ENDBRANCH   1  27
TORSDOF 20
ENDMDL
MODEL 2
REMARK VINA RESULT:     -10.6      1.430      2.743
REMARK SMILES CCC1(C(=O)N[C@H]2C=C[C@H](C(=O)OCCOCCOCCOC(=O)c3ccc(-c4c5nc(c(-c6c(F)c(F)c(F)c(F)c6F)c6ccc([nH]6)c(-c6c(F)c(F)c(F)c(F)c6F)c6nc(c(-c7c(F)c(F)c(F)c(F)c7F)c7ccc4[nH]7)C=C6)C=C5)cc3)C2)CC[NH2+]CC1
REMARK SMILES IDX 17 1 16 2 15 3 14 4 13 5 11 6 12 7 10 8 7 9 8 10 88 11 9 12
REMARK SMILES IDX 6 13 4 14 5 15 3 17 89 18 93 19 90 20 92 21 91 22 2 25 1 26
REMARK SMILES IDX 18 27 19 28 20 29 21 30 22 31 23 32 24 33 25 34 26 35 87 36
REMARK SMILES IDX 27 37 86 38 28 39 29 40 30 41 80 42 31 43 85 44 79 45 81 46
REMARK SMILES IDX 32 47 84 48 78 49 77 50 33 52 65 53 45 54 64 55 46 56 49 57
REMARK SMILES IDX 63 58 82 59 47 60 48 61 62 63 83 64 50 65 34 66 35 67 43 68
REMARK SMILES IDX 36 69 37 70 41 71 44 72 38 73 39 74 42 75 40 76 66 77 67 78
REMARK SMILES IDX 75 79 68 80 69 81 73 82 76 83 70 84 71 85 74 86 72 87 51 88
REMARK SMILES IDX 52 89 60 90 53 91 54 92 58 93 61 94 55 95 56 96 59 97 57 98
REMARK H PARENT 6 16 91 23 91 24 81 51 49 62
REMARK Flexibility Score: inf
ROOT
ATOM      1  C   UNL A   1      40.082  21.666  26.115  1.00  0.00     0.188 C 
ENDROOT
BRANCH   1   2
ATOM      2  O   UNL A   1      38.763  22.157  25.922  1.00  0.00    -0.376 OA
BRANCH   2   3
ATOM      3  C   UNL A   1      37.894  21.207  25.297  1.00  0.00     0.202 C 
BRANCH   3   4
ATOM      4  C   UNL A   1      36.386  21.328  25.601  1.00  0.00     0.261 C 
BRANCH   4   5
ATOM      5  O   UNL A   1      35.629  22.072  24.624  1.00  0.00    -0.463 OA
BRANCH   5   6
ATOM      6  C   UNL A   1      34.329  21.676  24.490  1.00  0.00     0.312 C 
ATOM      7  O   UNL A   1      33.957  20.510  24.594  1.00  0.00    -0.252 OA
BRANCH   6   8
ATOM      8  C   UNL A   1      33.406  22.863  24.178  1.00  0.00     0.124 C 
ATOM      9  C   UNL A   1      32.398  23.745  26.263  1.00  0.00     0.106 C 
ATOM     10  C   UNL A   1      31.472  22.828  25.516  1.00  0.00    -0.006 C 
ATOM     11  C   UNL A   1      33.441  24.047  25.166  1.00  0.00     0.048 C 
ATOM     12  C   UNL A   1      31.987  22.403  24.357  1.00  0.00    -0.014 C 
BRANCH   9  13
ATOM     13  N   UNL A   1      31.604  24.900  26.624  1.00  0.00    -0.349 N 
ATOM     14  C   UNL A   1      31.368  26.147  26.169  1.00  0.00     0.227 C 
ATOM     15  O   UNL A   1      30.698  26.819  26.968  1.00  0.00    -0.274 OA
ATOM     16  H   UNL A   1      31.085  24.723  27.441  1.00  0.00     0.164 HD
BRANCH  14  17
ATOM     17  C   UNL A   1      31.741  26.738  24.783  1.00  0.00     0.060 C 
ATOM     18  C   UNL A   1      31.323  25.914  23.558  1.00  0.00     0.078 C 
ATOM     19  C   UNL A   1      31.036  28.109  24.627  1.00  0.00     0.078 C 
ATOM     20  C   UNL A   1      31.762  26.621  22.265  1.00  0.00     0.261 C 
ATOM     21  C   UNL A   1      31.349  28.799  23.291  1.00  0.00     0.261 C 
ATOM     22  N   UNL A   1      31.175  27.947  22.119  1.00  0.00    -0.346 N 
ATOM     23  H   UNL A   1      30.176  27.840  21.944  1.00  0.00     0.346 HD
ATOM     24  H   UNL A   1      31.660  28.403  21.346  1.00  0.00     0.346 HD
BRANCH  17  25
ATOM     25  C   UNL A   1      33.309  26.942  24.780  1.00  0.00     0.014 C 
ATOM     26  C   UNL A   1      33.815  28.112  25.629  1.00  0.00     0.005 C 
ENDBRANCH  17  25
ENDBRANCH  14  17
ENDBRANCH   9  13
ENDBRANCH   6   8
ENDBRANCH   5   6
ENDBRANCH   4   5
ENDBRANCH   3   4
ENDBRANCH   2   3
ENDBRANCH   1   2
BRANCH   1  27
ATOM     27  C   UNL A   1      41.002  22.428  27.056  1.00  0.00     0.188 C 
BRANCH  27  28
ATOM     28  O   UNL A   1      42.373  22.081  26.960  1.00  0.00    -0.376 OA
BRANCH  28  29
ATOM     29  C   UNL A   1      42.863  21.816  25.641  1.00  0.00     0.202 C 
BRANCH  29  30
ATOM     30  C   UNL A   1      43.896  22.817  25.119  1.00  0.00     0.261 C 
BRANCH  30  31
ATOM     31  O   UNL A   1      43.261  24.073  24.783  1.00  0.00    -0.460 OA
BRANCH  31  32
ATOM     32  C   UNL A   1      44.009  25.153  25.116  1.00  0.00     0.338 C 
ATOM     33  O   UNL A   1      45.154  25.355  24.739  1.00  0.00    -0.246 OA
BRANCH  32  34
ATOM     34  C   UNL A   1      43.265  26.153  25.933  1.00  0.00     0.060 A 
ATOM     35  C   UNL A   1      43.801  27.383  26.315  1.00  0.00     0.016 A 
ATOM     36  C   UNL A   1      42.049  25.746  26.495  1.00  0.00     0.016 A 
ATOM     37  C   UNL A   1      43.206  28.106  27.367  1.00  0.00     0.010 A 
ATOM     38  C   UNL A   1      41.422  26.511  27.490  1.00  0.00     0.010 A 
ATOM     39  C   UNL A   1      42.032  27.661  28.010  1.00  0.00    -0.014 A 
BRANCH  39  40
ATOM     40  C   UNL A   1      41.484  28.302  29.260  1.00  0.00     0.031 A 
ATOM     41  C   UNL A   1      40.252  29.201  29.212  1.00  0.00     0.074 A 
ATOM     42  C   UNL A   1      42.040  28.085  30.471  1.00  0.00     0.049 A 
ATOM     43  N   UNL A   1      39.762  29.994  30.140  1.00  0.00    -0.248 NA
ATOM     44  C   UNL A   1      39.451  29.188  27.978  1.00  0.00     0.031 C 
ATOM     45  C   UNL A   1      43.151  27.180  30.751  1.00  0.00     0.029 A 
ATOM     46  N   UNL A   1      41.744  28.634  31.702  1.00  0.00    -0.354 N 
ATOM     47  C   UNL A   1      38.614  30.567  29.599  1.00  0.00     0.074 A 
ATOM     48  C   UNL A   1      38.475  30.040  28.260  1.00  0.00     0.031 C 
ATOM     49  C   UNL A   1      43.434  27.221  32.060  1.00  0.00     0.029 A 
ATOM     50  C   UNL A   1      42.624  28.260  32.689  1.00  0.00     0.049 A 
ATOM     51  H   UNL A   1      40.979  29.233  31.859  1.00  0.00     0.167 HD
ATOM     52  C   UNL A   1      37.753  31.456  30.154  1.00  0.00     0.037 A 
ATOM     53  C   UNL A   1      42.848  28.754  33.924  1.00  0.00     0.037 A 
ATOM     54  C   UNL A   1      37.875  32.014  31.477  1.00  0.00     0.049 A 
ATOM     55  C   UNL A   1      42.036  29.909  34.435  1.00  0.00     0.074 A 
ATOM     56  C   UNL A   1      37.054  32.940  32.103  1.00  0.00     0.029 A 
ATOM     57  N   UNL A   1      38.884  31.712  32.371  1.00  0.00    -0.354 N 
ATOM     58  N   UNL A   1      41.008  30.504  33.887  1.00  0.00    -0.248 NA
ATOM     59  C   UNL A   1      42.444  30.485  35.726  1.00  0.00     0.031 C 
ATOM     60  C   UNL A   1      37.606  33.245  33.352  1.00  0.00     0.029 A 
ATOM     61  C   UNL A   1      38.739  32.470  33.523  1.00  0.00     0.049 A 
ATOM     62  H   UNL A   1      39.600  31.055  32.213  1.00  0.00     0.167 HD
ATOM     63  C   UNL A   1      40.643  31.517  34.764  1.00  0.00     0.074 A 
ATOM     64  C   UNL A   1      41.547  31.448  35.890  1.00  0.00     0.031 C 
ATOM     65  C   UNL A   1      39.644  32.424  34.639  1.00  0.00     0.037 A 
BRANCH  52  66
ATOM     66  C   UNL A   1      36.598  31.943  29.328  1.00  0.00     0.064 A 
ATOM     67  C   UNL A   1      35.517  31.109  29.011  1.00  0.00     0.173 A 
ATOM     68  C   UNL A   1      36.513  33.297  28.967  1.00  0.00     0.173 A 
ATOM     69  F   UNL A   1      35.551  29.808  29.333  1.00  0.00    -0.203 F 
ATOM     70  C   UNL A   1      34.388  31.617  28.371  1.00  0.00     0.198 A 
ATOM     71  C   UNL A   1      35.377  33.804  28.342  1.00  0.00     0.198 A 
ATOM     72  F   UNL A   1      37.519  34.137  29.259  1.00  0.00    -0.203 F 
ATOM     73  F   UNL A   1      33.362  30.805  28.079  1.00  0.00    -0.200 F 
ATOM     74  C   UNL A   1      34.315  32.965  28.047  1.00  0.00     0.200 A 
ATOM     75  F   UNL A   1      35.304  35.108  28.044  1.00  0.00    -0.200 F 
ATOM     76  F   UNL A   1      33.216  33.456  27.457  1.00  0.00    -0.200 F 
ENDBRANCH  52  66
BRANCH  53  77
ATOM     77  C   UNL A   1      44.006  28.244  34.707  1.00  0.00     0.064 A 
ATOM     78  C   UNL A   1      43.853  27.270  35.699  1.00  0.00     0.173 A 
ATOM     79  C   UNL A   1      45.300  28.738  34.469  1.00  0.00     0.173 A 
ATOM     80  F   UNL A   1      42.632  26.799  35.994  1.00  0.00    -0.203 F 
ATOM     81  C   UNL A   1      44.952  26.801  36.418  1.00  0.00     0.198 A 
ATOM     82  C   UNL A   1      46.401  28.240  35.158  1.00  0.00     0.198 A 
ATOM     83  F   UNL A   1      45.498  29.689  33.543  1.00  0.00    -0.203 F 
ATOM     84  F   UNL A   1      44.777  25.897  37.392  1.00  0.00    -0.200 F 
ATOM     85  C   UNL A   1      46.225  27.275  36.137  1.00  0.00     0.200 A 
ATOM     86  F   UNL A   1      47.628  28.693  34.871  1.00  0.00    -0.200 F 
ATOM     87  F   UNL A   1      47.282  26.810  36.816  1.00  0.00    -0.200 F 
ENDBRANCH  53  77
BRANCH  65  88
ATOM     88  C   UNL A   1      39.464  33.411  35.753  1.00  0.00     0.064 A 
ATOM     89  C   UNL A   1      38.731  33.088  36.904  1.00  0.00     0.173 A 
ATOM     90  C   UNL A   1      40.035  34.690  35.675  1.00  0.00     0.173 A 
ATOM     91  F   UNL A   1      38.151  31.884  37.018  1.00  0.00    -0.203 F 
ATOM     92  C   UNL A   1      38.550  34.021  37.922  1.00  0.00     0.198 A 
ATOM     93  C   UNL A   1      39.875  35.612  36.707  1.00  0.00     0.198 A 
ATOM     94  F   UNL A   1      40.751  35.047  34.597  1.00  0.00    -0.203 F 
ATOM     95  F   UNL A   1      37.801  33.709  38.988  1.00  0.00    -0.200 F 
ATOM     96  C   UNL A   1      39.124  35.280  37.825  1.00  0.00     0.200 A 
ATOM     97  F   UNL A   1      40.439  36.824  36.614  1.00  0.00    -0.200 F 
ATOM     98  F   UNL A   1      38.946  36.177  38.804  1.00  0.00    -0.200 F 
ENDBRANCH  65  88
ENDBRANCH  39  40
ENDBRANCH  32  34
ENDBRANCH  31  32
ENDBRANCH  30  31
ENDBRANCH  29  30
ENDBRANCH  28  29
ENDBRANCH  27  28
ENDBRANCH   1  27
TORSDOF 20
ENDMDL
MODEL 3
REMARK VINA RESULT:     -10.6      4.656      7.835
REMARK SMILES CCC1(C(=O)N[C@H]2C=C[C@H](C(=O)OCCOCCOCCOC(=O)c3ccc(-c4c5nc(c(-c6c(F)c(F)c(F)c(F)c6F)c6ccc([nH]6)c(-c6c(F)c(F)c(F)c(F)c6F)c6nc(c(-c7c(F)c(F)c(F)c(F)c7F)c7ccc4[nH]7)C=C6)C=C5)cc3)C2)CC[NH2+]CC1
REMARK SMILES IDX 17 1 16 2 15 3 14 4 13 5 11 6 12 7 10 8 7 9 8 10 88 11 9 12
REMARK SMILES IDX 6 13 4 14 5 15 3 17 89 18 93 19 90 20 92 21 91 22 2 25 1 26
REMARK SMILES IDX 18 27 19 28 20 29 21 30 22 31 23 32 24 33 25 34 26 35 87 36
REMARK SMILES IDX 27 37 86 38 28 39 29 40 30 41 80 42 31 43 85 44 79 45 81 46
REMARK SMILES IDX 32 47 84 48 78 49 77 50 33 52 65 53 45 54 64 55 46 56 49 57
REMARK SMILES IDX 63 58 82 59 47 60 48 61 62 63 83 64 50 65 34 66 35 67 43 68
REMARK SMILES IDX 36 69 37 70 41 71 44 72 38 73 39 74 42 75 40 76 66 77 67 78
REMARK SMILES IDX 75 79 68 80 69 81 73 82 76 83 70 84 71 85 74 86 72 87 51 88
REMARK SMILES IDX 52 89 60 90 53 91 54 92 58 93 61 94 55 95 56 96 59 97 57 98
REMARK H PARENT 6 16 91 23 91 24 81 51 49 62
REMARK Flexibility Score: inf
ROOT
ATOM      1  C   UNL A   1      34.862  17.811  24.300  1.00  0.00     0.188 C 
ENDROOT
BRANCH   1   2
ATOM      2  O   UNL A   1      34.097  16.974  25.154  1.00  0.00    -0.376 OA
BRANCH   2   3
ATOM      3  C   UNL A   1      32.792  17.492  25.430  1.00  0.00     0.202 C 
BRANCH   3   4
ATOM      4  C   UNL A   1      32.210  18.506  24.422  1.00  0.00     0.261 C 
BRANCH   4   5
ATOM      5  O   UNL A   1      31.780  19.755  24.999  1.00  0.00    -0.463 OA
BRANCH   5   6
ATOM      6  C   UNL A   1      32.651  20.792  24.825  1.00  0.00     0.312 C 
ATOM      7  O   UNL A   1      33.328  20.953  23.814  1.00  0.00    -0.252 OA
BRANCH   6   8
ATOM      8  C   UNL A   1      32.688  21.711  26.056  1.00  0.00     0.124 C 
ATOM      9  C   UNL A   1      31.715  23.923  25.511  1.00  0.00     0.106 C 
ATOM     10  C   UNL A   1      33.216  23.925  25.464  1.00  0.00    -0.006 C 
ATOM     11  C   UNL A   1      31.458  22.613  26.285  1.00  0.00     0.048 C 
ATOM     12  C   UNL A   1      33.747  22.750  25.822  1.00  0.00    -0.014 C 
BRANCH   9  13
ATOM     13  N   UNL A   1      31.342  25.106  26.257  1.00  0.00    -0.349 N 
ATOM     14  C   UNL A   1      31.266  26.438  26.069  1.00  0.00     0.227 C 
ATOM     15  O   UNL A   1      31.030  27.049  27.123  1.00  0.00    -0.274 OA
ATOM     16  H   UNL A   1      31.061  24.867  27.170  1.00  0.00     0.164 HD
BRANCH  14  17
ATOM     17  C   UNL A   1      31.336  27.212  24.725  1.00  0.00     0.060 C 
ATOM     18  C   UNL A   1      30.971  28.702  24.778  1.00  0.00     0.078 C 
ATOM     19  C   UNL A   1      32.792  27.156  24.199  1.00  0.00     0.078 C 
ATOM     20  C   UNL A   1      31.081  29.329  23.379  1.00  0.00     0.261 C 
ATOM     21  C   UNL A   1      32.977  27.879  22.857  1.00  0.00     0.261 C 
ATOM     22  N   UNL A   1      32.424  29.229  22.820  1.00  0.00    -0.346 N 
ATOM     23  H   UNL A   1      33.040  29.844  23.351  1.00  0.00     0.346 HD
ATOM     24  H   UNL A   1      32.357  29.497  21.838  1.00  0.00     0.346 HD
BRANCH  17  25
ATOM     25  C   UNL A   1      30.377  26.463  23.716  1.00  0.00     0.014 C 
ATOM     26  C   UNL A   1      28.921  26.332  24.174  1.00  0.00     0.005 C 
ENDBRANCH  17  25
ENDBRANCH  14  17
ENDBRANCH   9  13
ENDBRANCH   6   8
ENDBRANCH   5   6
ENDBRANCH   4   5
ENDBRANCH   3   4
ENDBRANCH   2   3
ENDBRANCH   1   2
BRANCH   1  27
ATOM     27  C   UNL A   1      36.116  18.460  24.864  1.00  0.00     0.188 C 
BRANCH  27  28
ATOM     28  O   UNL A   1      36.047  19.870  25.002  1.00  0.00    -0.376 OA
BRANCH  28  29
ATOM     29  C   UNL A   1      37.296  20.569  24.950  1.00  0.00     0.202 C 
BRANCH  29  30
ATOM     30  C   UNL A   1      38.532  19.707  25.215  1.00  0.00     0.261 C 
BRANCH  30  31
ATOM     31  O   UNL A   1      39.395  20.341  26.189  1.00  0.00    -0.460 OA
BRANCH  31  32
ATOM     32  C   UNL A   1      40.676  19.901  26.130  1.00  0.00     0.338 C 
ATOM     33  O   UNL A   1      41.018  18.792  25.750  1.00  0.00    -0.246 OA
BRANCH  32  34
ATOM     34  C   UNL A   1      41.672  20.948  26.492  1.00  0.00     0.060 A 
ATOM     35  C   UNL A   1      42.209  21.087  27.773  1.00  0.00     0.016 A 
ATOM     36  C   UNL A   1      41.926  21.949  25.546  1.00  0.00     0.016 A 
ATOM     37  C   UNL A   1      42.844  22.291  28.136  1.00  0.00     0.010 A 
ATOM     38  C   UNL A   1      42.627  23.112  25.895  1.00  0.00     0.010 A 
ATOM     39  C   UNL A   1      43.023  23.347  27.219  1.00  0.00    -0.014 A 
BRANCH  39  40
ATOM     40  C   UNL A   1      43.518  24.713  27.625  1.00  0.00     0.031 A 
ATOM     41  C   UNL A   1      42.552  25.797  28.091  1.00  0.00     0.074 A 
ATOM     42  C   UNL A   1      44.832  25.021  27.622  1.00  0.00     0.049 A 
ATOM     43  N   UNL A   1      42.767  27.080  28.283  1.00  0.00    -0.248 NA
ATOM     44  C   UNL A   1      41.175  25.387  28.410  1.00  0.00     0.031 C 
ATOM     45  C   UNL A   1      45.925  24.101  27.317  1.00  0.00     0.029 A 
ATOM     46  N   UNL A   1      45.471  26.218  27.875  1.00  0.00    -0.354 N 
ATOM     47  C   UNL A   1      41.564  27.617  28.734  1.00  0.00     0.074 A 
ATOM     48  C   UNL A   1      40.614  26.528  28.785  1.00  0.00     0.031 C 
ATOM     49  C   UNL A   1      47.091  24.755  27.412  1.00  0.00     0.029 A 
ATOM     50  C   UNL A   1      46.825  26.171  27.643  1.00  0.00     0.049 A 
ATOM     51  H   UNL A   1      45.004  27.025  28.190  1.00  0.00     0.167 HD
ATOM     52  C   UNL A   1      41.265  28.897  29.069  1.00  0.00     0.037 A 
ATOM     53  C   UNL A   1      47.746  27.147  27.516  1.00  0.00     0.037 A 
ATOM     54  C   UNL A   1      42.183  30.006  29.010  1.00  0.00     0.049 A 
ATOM     55  C   UNL A   1      47.346  28.588  27.654  1.00  0.00     0.074 A 
ATOM     56  C   UNL A   1      41.949  31.339  29.312  1.00  0.00     0.029 A 
ATOM     57  N   UNL A   1      43.503  29.917  28.612  1.00  0.00    -0.354 N 
ATOM     58  N   UNL A   1      46.189  29.096  27.995  1.00  0.00    -0.248 NA
ATOM     59  C   UNL A   1      48.376  29.594  27.351  1.00  0.00     0.031 C 
ATOM     60  C   UNL A   1      43.111  32.066  29.033  1.00  0.00     0.029 A 
ATOM     61  C   UNL A   1      44.083  31.177  28.609  1.00  0.00     0.049 A 
ATOM     62  H   UNL A   1      43.964  29.083  28.367  1.00  0.00     0.167 HD
ATOM     63  C   UNL A   1      46.353  30.475  27.953  1.00  0.00     0.074 A 
ATOM     64  C   UNL A   1      47.724  30.727  27.571  1.00  0.00     0.031 C 
ATOM     65  C   UNL A   1      45.439  31.441  28.210  1.00  0.00     0.037 A 
BRANCH  52  66
ATOM     66  C   UNL A   1      39.862  29.214  29.498  1.00  0.00     0.064 A 
ATOM     67  C   UNL A   1      38.855  29.497  28.566  1.00  0.00     0.173 A 
ATOM     68  C   UNL A   1      39.496  29.096  30.849  1.00  0.00     0.173 A 
ATOM     69  F   UNL A   1      39.154  29.621  27.265  1.00  0.00    -0.203 F 
ATOM     70  C   UNL A   1      37.528  29.643  28.971  1.00  0.00     0.198 A 
ATOM     71  C   UNL A   1      38.169  29.227  31.246  1.00  0.00     0.198 A 
ATOM     72  F   UNL A   1      40.424  28.815  31.777  1.00  0.00    -0.203 F 
ATOM     73  F   UNL A   1      36.578  29.911  28.064  1.00  0.00    -0.200 F 
ATOM     74  C   UNL A   1      37.186  29.497  30.308  1.00  0.00     0.200 A 
ATOM     75  F   UNL A   1      37.839  29.071  32.536  1.00  0.00    -0.200 F 
ATOM     76  F   UNL A   1      35.906  29.609  30.690  1.00  0.00    -0.200 F 
ENDBRANCH  52  66
BRANCH  53  77
ATOM     77  C   UNL A   1      49.124  26.788  27.086  1.00  0.00     0.064 A 
ATOM     78  C   UNL A   1      49.483  26.729  25.735  1.00  0.00     0.173 A 
ATOM     79  C   UNL A   1      50.113  26.490  28.039  1.00  0.00     0.173 A 
ATOM     80  F   UNL A   1      48.564  26.961  24.786  1.00  0.00    -0.203 F 
ATOM     81  C   UNL A   1      50.782  26.396  25.353  1.00  0.00     0.198 A 
ATOM     82  C   UNL A   1      51.418  26.198  27.658  1.00  0.00     0.198 A 
ATOM     83  F   UNL A   1      49.815  26.511  29.347  1.00  0.00    -0.203 F 
ATOM     84  F   UNL A   1      51.094  26.306  24.053  1.00  0.00    -0.200 F 
ATOM     85  C   UNL A   1      51.751  26.146  26.315  1.00  0.00     0.200 A 
ATOM     86  F   UNL A   1      52.351  25.972  28.593  1.00  0.00    -0.200 F 
ATOM     87  F   UNL A   1      53.003  25.844  25.946  1.00  0.00    -0.200 F 
ENDBRANCH  53  77
BRANCH  65  88
ATOM     88  C   UNL A   1      45.891  32.867  28.098  1.00  0.00     0.064 A 
ATOM     89  C   UNL A   1      45.741  33.589  26.905  1.00  0.00     0.173 A 
ATOM     90  C   UNL A   1      46.474  33.520  29.194  1.00  0.00     0.173 A 
ATOM     91  F   UNL A   1      45.206  33.003  25.824  1.00  0.00    -0.203 F 
ATOM     92  C   UNL A   1      46.186  34.906  26.805  1.00  0.00     0.198 A 
ATOM     93  C   UNL A   1      46.894  34.845  29.098  1.00  0.00     0.198 A 
ATOM     94  F   UNL A   1      46.635  32.875  30.360  1.00  0.00    -0.203 F 
ATOM     95  F   UNL A   1      46.081  35.559  25.641  1.00  0.00    -0.200 F 
ATOM     96  C   UNL A   1      46.759  35.533  27.902  1.00  0.00     0.200 A 
ATOM     97  F   UNL A   1      47.438  35.452  30.162  1.00  0.00    -0.200 F 
ATOM     98  F   UNL A   1      47.190  36.798  27.802  1.00  0.00    -0.200 F 
ENDBRANCH  65  88
ENDBRANCH  39  40
ENDBRANCH  32  34
ENDBRANCH  31  32
ENDBRANCH  30  31
ENDBRANCH  29  30
ENDBRANCH  28  29
ENDBRANCH  27  28
ENDBRANCH   1  27
TORSDOF 20
ENDMDL
