MODEL 1
REMARK VINA RESULT:     -11.0      0.000      0.000
REMARK SMILES COc1ccccc1-c1ccc(C(=O)OCCOCCOCCOC(=O)c2ccc(-c3c4nc(c(-c5c(F)c(F)c(F)c(F)c5F)c5ccc([nH]5)c(-c5c(F)c(F)c(F)c(F)c5F)c5nc(c(-c6c(F)c(F)c(F)c(F)c6F)c6ccc3[nH]6)C=C5)C=C4)cc2)c(O)c1
REMARK SMILES IDX 19 1 18 2 17 3 16 4 15 5 13 6 14 7 12 8 9 9 10 10 92 11
REMARK SMILES IDX 11 12 90 13 8 14 3 15 4 16 5 17 7 18 6 19 2 20 1 21 91 22
REMARK SMILES IDX 20 24 21 25 22 26 23 27 24 28 25 29 26 30 27 31 28 32 89 33
REMARK SMILES IDX 29 34 88 35 30 36 31 37 32 38 82 39 33 40 87 41 81 42 83 43
REMARK SMILES IDX 34 44 86 45 80 46 79 47 35 49 67 50 47 51 66 52 48 53 51 54
REMARK SMILES IDX 65 55 84 56 49 57 50 58 64 60 85 61 52 62 36 63 37 64 45 65
REMARK SMILES IDX 38 66 39 67 43 68 46 69 40 70 41 71 44 72 42 73 68 74 69 75
REMARK SMILES IDX 77 76 70 77 71 78 75 79 78 80 72 81 73 82 76 83 74 84 53 85
REMARK SMILES IDX 54 86 62 87 55 88 56 89 60 90 63 91 57 92 58 93 61 94 59 95
REMARK H PARENT 91 23 83 48 51 59
REMARK Flexibility Score: inf
ROOT
ATOM      1  C   UNL A   1      32.613  28.355  25.671  1.00  0.00     0.188 C 
ENDROOT
BRANCH   1   2
ATOM      2  O   UNL A   1      31.312  27.812  25.540  1.00  0.00    -0.376 OA
BRANCH   2   3
ATOM      3  C   UNL A   1      30.704  27.717  24.259  1.00  0.00     0.202 C 
BRANCH   3   4
ATOM      4  C   UNL A   1      31.390  28.271  23.010  1.00  0.00     0.261 C 
BRANCH   4   5
ATOM      5  O   UNL A   1      31.819  27.245  22.111  1.00  0.00    -0.460 OA
BRANCH   5   6
ATOM      6  C   UNL A   1      33.152  27.016  22.100  1.00  0.00     0.341 C 
ATOM      7  O   UNL A   1      34.029  27.823  21.833  1.00  0.00    -0.246 OA
BRANCH   6   8
ATOM      8  C   UNL A   1      33.468  25.702  22.691  1.00  0.00     0.101 A 
ATOM      9  C   UNL A   1      34.467  23.354  23.843  1.00  0.00    -0.011 A 
ATOM     10  C   UNL A   1      34.449  24.549  24.580  1.00  0.00     0.010 A 
ATOM     11  C   UNL A   1      33.842  23.319  22.583  1.00  0.00     0.056 A 
ATOM     12  C   UNL A   1      33.965  25.718  24.001  1.00  0.00     0.020 A 
ATOM     13  C   UNL A   1      33.355  24.493  22.003  1.00  0.00     0.130 A 
BRANCH   9  14
ATOM     14  C   UNL A   1      35.328  22.252  24.293  1.00  0.00     0.024 A 
ATOM     15  C   UNL A   1      34.782  20.991  24.626  1.00  0.00     0.126 A 
ATOM     16  C   UNL A   1      35.604  19.924  24.991  1.00  0.00     0.047 A 
ATOM     17  C   UNL A   1      36.988  20.081  24.999  1.00  0.00     0.004 A 
ATOM     18  C   UNL A   1      36.726  22.391  24.321  1.00  0.00     0.012 A 
ATOM     19  C   UNL A   1      37.548  21.313  24.670  1.00  0.00     0.001 A 
BRANCH  15  20
ATOM     20  O   UNL A   1      33.429  20.754  24.688  1.00  0.00    -0.496 OA
ATOM     21  C   UNL A   1      33.072  19.872  25.755  1.00  0.00     0.278 C 
ENDBRANCH  15  20
ENDBRANCH   9  14
BRANCH  13  22
ATOM     22  O   UNL A   1      32.844  24.455  20.738  1.00  0.00    -0.507 OA
ATOM     23  H   UNL A   1      33.327  24.040  20.050  1.00  0.00     0.293 HD
ENDBRANCH  13  22
ENDBRANCH   6   8
ENDBRANCH   5   6
ENDBRANCH   4   5
ENDBRANCH   3   4
ENDBRANCH   2   3
ENDBRANCH   1   2
BRANCH   1  24
ATOM     24  C   UNL A   1      32.827  29.769  26.255  1.00  0.00     0.188 C 
BRANCH  24  25
ATOM     25  O   UNL A   1      31.782  30.478  26.882  1.00  0.00    -0.376 OA
BRANCH  25  26
ATOM     26  C   UNL A   1      31.352  31.731  26.384  1.00  0.00     0.202 C 
BRANCH  26  27
ATOM     27  C   UNL A   1      31.801  33.073  26.975  1.00  0.00     0.261 C 
BRANCH  27  28
ATOM     28  O   UNL A   1      33.207  33.337  26.940  1.00  0.00    -0.460 OA
BRANCH  28  29
ATOM     29  C   UNL A   1      33.724  33.787  28.110  1.00  0.00     0.338 C 
ATOM     30  O   UNL A   1      33.246  34.607  28.871  1.00  0.00    -0.246 OA
BRANCH  29  31
ATOM     31  C   UNL A   1      34.923  33.001  28.447  1.00  0.00     0.060 A 
ATOM     32  C   UNL A   1      34.742  31.693  28.913  1.00  0.00     0.016 A 
ATOM     33  C   UNL A   1      36.196  33.568  28.381  1.00  0.00     0.016 A 
ATOM     34  C   UNL A   1      35.838  30.954  29.351  1.00  0.00     0.010 A 
ATOM     35  C   UNL A   1      37.293  32.832  28.841  1.00  0.00     0.010 A 
ATOM     36  C   UNL A   1      37.112  31.537  29.359  1.00  0.00    -0.014 A 
BRANCH  36  37
ATOM     37  C   UNL A   1      38.215  30.853  30.074  1.00  0.00     0.031 A 
ATOM     38  C   UNL A   1      38.459  31.193  31.517  1.00  0.00     0.074 A 
ATOM     39  C   UNL A   1      38.965  29.922  29.462  1.00  0.00     0.049 A 
ATOM     40  N   UNL A   1      39.360  30.724  32.342  1.00  0.00    -0.248 NA
ATOM     41  C   UNL A   1      37.567  32.202  32.109  1.00  0.00     0.031 C 
ATOM     42  C   UNL A   1      38.810  29.489  28.075  1.00  0.00     0.029 A 
ATOM     43  N   UNL A   1      40.017  29.179  29.933  1.00  0.00    -0.354 N 
ATOM     44  C   UNL A   1      39.146  31.381  33.546  1.00  0.00     0.074 A 
ATOM     45  C   UNL A   1      38.052  32.304  33.338  1.00  0.00     0.031 C 
ATOM     46  C   UNL A   1      39.745  28.564  27.802  1.00  0.00     0.029 A 
ATOM     47  C   UNL A   1      40.577  28.358  28.988  1.00  0.00     0.049 A 
ATOM     48  H   UNL A   1      40.339  29.228  30.862  1.00  0.00     0.167 HD
ATOM     49  C   UNL A   1      39.799  31.224  34.722  1.00  0.00     0.037 A 
ATOM     50  C   UNL A   1      41.649  27.547  29.068  1.00  0.00     0.037 A 
ATOM     51  C   UNL A   1      40.891  30.309  34.929  1.00  0.00     0.049 A 
ATOM     52  C   UNL A   1      42.391  27.426  30.374  1.00  0.00     0.074 A 
ATOM     53  C   UNL A   1      41.597  30.055  36.091  1.00  0.00     0.029 A 
ATOM     54  N   UNL A   1      41.444  29.506  33.942  1.00  0.00    -0.354 N 
ATOM     55  N   UNL A   1      42.155  28.015  31.522  1.00  0.00    -0.248 NA
ATOM     56  C   UNL A   1      43.544  26.514  30.398  1.00  0.00     0.031 C 
ATOM     57  C   UNL A   1      42.613  29.139  35.794  1.00  0.00     0.029 A 
ATOM     58  C   UNL A   1      42.502  28.778  34.461  1.00  0.00     0.049 A 
ATOM     59  H   UNL A   1      41.131  29.462  33.009  1.00  0.00     0.167 HD
ATOM     60  C   UNL A   1      43.109  27.529  32.407  1.00  0.00     0.074 A 
ATOM     61  C   UNL A   1      43.917  26.581  31.668  1.00  0.00     0.031 C 
ATOM     62  C   UNL A   1      43.299  27.838  33.715  1.00  0.00     0.037 A 
BRANCH  49  63
ATOM     63  C   UNL A   1      39.366  32.088  35.871  1.00  0.00     0.064 A 
ATOM     64  C   UNL A   1      39.933  33.350  36.102  1.00  0.00     0.173 A 
ATOM     65  C   UNL A   1      38.357  31.651  36.743  1.00  0.00     0.173 A 
ATOM     66  F   UNL A   1      40.913  33.806  35.307  1.00  0.00    -0.203 F 
ATOM     67  C   UNL A   1      39.526  34.131  37.180  1.00  0.00     0.198 A 
ATOM     68  C   UNL A   1      37.932  32.448  37.802  1.00  0.00     0.198 A 
ATOM     69  F   UNL A   1      37.780  30.453  36.565  1.00  0.00    -0.203 F 
ATOM     70  F   UNL A   1      40.116  35.312  37.412  1.00  0.00    -0.200 F 
ATOM     71  C   UNL A   1      38.521  33.683  38.025  1.00  0.00     0.200 A 
ATOM     72  F   UNL A   1      36.952  32.018  38.611  1.00  0.00    -0.200 F 
ATOM     73  F   UNL A   1      38.127  34.438  39.060  1.00  0.00    -0.200 F 
ENDBRANCH  49  63
BRANCH  50  74
ATOM     74  C   UNL A   1      42.095  26.789  27.870  1.00  0.00     0.064 A 
ATOM     75  C   UNL A   1      43.048  27.318  26.989  1.00  0.00     0.173 A 
ATOM     76  C   UNL A   1      41.561  25.526  27.574  1.00  0.00     0.173 A 
ATOM     77  F   UNL A   1      43.567  28.534  27.217  1.00  0.00    -0.203 F 
ATOM     78  C   UNL A   1      43.437  26.621  25.847  1.00  0.00     0.198 A 
ATOM     79  C   UNL A   1      41.972  24.818  26.446  1.00  0.00     0.198 A 
ATOM     80  F   UNL A   1      40.643  24.978  28.382  1.00  0.00    -0.203 F 
ATOM     81  F   UNL A   1      44.314  27.172  24.997  1.00  0.00    -0.200 F 
ATOM     82  C   UNL A   1      42.904  25.370  25.580  1.00  0.00     0.200 A 
ATOM     83  F   UNL A   1      41.461  23.604  26.197  1.00  0.00    -0.200 F 
ATOM     84  F   UNL A   1      43.279  24.699  24.482  1.00  0.00    -0.200 F 
ENDBRANCH  50  74
BRANCH  62  85
ATOM     85  C   UNL A   1      44.403  27.120  34.439  1.00  0.00     0.064 A 
ATOM     86  C   UNL A   1      45.689  27.669  34.558  1.00  0.00     0.173 A 
ATOM     87  C   UNL A   1      44.163  25.876  35.045  1.00  0.00     0.173 A 
ATOM     88  F   UNL A   1      45.974  28.849  33.986  1.00  0.00    -0.203 F 
ATOM     89  C   UNL A   1      46.701  26.984  35.226  1.00  0.00     0.198 A 
ATOM     90  C   UNL A   1      45.169  25.210  35.741  1.00  0.00     0.198 A 
ATOM     91  F   UNL A   1      42.950  25.310  34.970  1.00  0.00    -0.203 F 
ATOM     92  F   UNL A   1      47.936  27.503  35.278  1.00  0.00    -0.200 F 
ATOM     93  C   UNL A   1      46.439  25.759  35.822  1.00  0.00     0.200 A 
ATOM     94  F   UNL A   1      44.909  24.034  36.328  1.00  0.00    -0.200 F 
ATOM     95  F   UNL A   1      47.414  25.104  36.466  1.00  0.00    -0.200 F 
ENDBRANCH  62  85
ENDBRANCH  36  37
ENDBRANCH  29  31
ENDBRANCH  28  29
ENDBRANCH  27  28
ENDBRANCH  26  27
ENDBRANCH  25  26
ENDBRANCH  24  25
ENDBRANCH   1  24
TORSDOF 20
ENDMDL
MODEL 2
REMARK VINA RESULT:     -10.8      3.008      8.788
REMARK SMILES COc1ccccc1-c1ccc(C(=O)OCCOCCOCCOC(=O)c2ccc(-c3c4nc(c(-c5c(F)c(F)c(F)c(F)c5F)c5ccc([nH]5)c(-c5c(F)c(F)c(F)c(F)c5F)c5nc(c(-c6c(F)c(F)c(F)c(F)c6F)c6ccc3[nH]6)C=C5)C=C4)cc2)c(O)c1
REMARK SMILES IDX 19 1 18 2 17 3 16 4 15 5 13 6 14 7 12 8 9 9 10 10 92 11
REMARK SMILES IDX 11 12 90 13 8 14 3 15 4 16 5 17 7 18 6 19 2 20 1 21 91 22
REMARK SMILES IDX 20 24 21 25 22 26 23 27 24 28 25 29 26 30 27 31 28 32 89 33
REMARK SMILES IDX 29 34 88 35 30 36 31 37 32 38 82 39 33 40 87 41 81 42 83 43
REMARK SMILES IDX 34 44 86 45 80 46 79 47 35 49 67 50 47 51 66 52 48 53 51 54
REMARK SMILES IDX 65 55 84 56 49 57 50 58 64 60 85 61 52 62 36 63 37 64 45 65
REMARK SMILES IDX 38 66 39 67 43 68 46 69 40 70 41 71 44 72 42 73 68 74 69 75
REMARK SMILES IDX 77 76 70 77 71 78 75 79 78 80 72 81 73 82 76 83 74 84 53 85
REMARK SMILES IDX 54 86 62 87 55 88 56 89 60 90 63 91 57 92 58 93 61 94 59 95
REMARK H PARENT 91 23 83 48 51 59
REMARK Flexibility Score: inf
ROOT
ATOM      1  C   UNL A   1      40.311  21.462  25.977  1.00  0.00     0.188 C 
ENDROOT
BRANCH   1   2
ATOM      2  O   UNL A   1      38.917  21.247  26.098  1.00  0.00    -0.376 OA
BRANCH   2   3
ATOM      3  C   UNL A   1      38.004  22.288  25.778  1.00  0.00     0.202 C 
BRANCH   3   4
ATOM      4  C   UNL A   1      36.820  22.047  24.842  1.00  0.00     0.261 C 
BRANCH   4   5
ATOM      5  O   UNL A   1      35.626  22.705  25.276  1.00  0.00    -0.460 OA
BRANCH   5   6
ATOM      6  C   UNL A   1      34.539  22.481  24.503  1.00  0.00     0.341 C 
ATOM      7  O   UNL A   1      34.030  21.399  24.255  1.00  0.00    -0.246 OA
BRANCH   6   8
ATOM      8  C   UNL A   1      33.864  23.747  24.161  1.00  0.00     0.101 A 
ATOM      9  C   UNL A   1      32.250  25.995  23.732  1.00  0.00    -0.011 A 
ATOM     10  C   UNL A   1      32.682  25.675  25.028  1.00  0.00     0.010 A 
ATOM     11  C   UNL A   1      32.759  25.264  22.642  1.00  0.00     0.056 A 
ATOM     12  C   UNL A   1      33.472  24.550  25.242  1.00  0.00     0.020 A 
ATOM     13  C   UNL A   1      33.554  24.136  22.857  1.00  0.00     0.130 A 
BRANCH   9  14
ATOM     14  C   UNL A   1      31.115  26.913  23.564  1.00  0.00     0.024 A 
ATOM     15  C   UNL A   1      31.314  28.244  23.130  1.00  0.00     0.126 A 
ATOM     16  C   UNL A   1      30.233  29.098  22.908  1.00  0.00     0.047 A 
ATOM     17  C   UNL A   1      28.931  28.634  23.082  1.00  0.00     0.004 A 
ATOM     18  C   UNL A   1      29.794  26.472  23.746  1.00  0.00     0.012 A 
ATOM     19  C   UNL A   1      28.712  27.325  23.505  1.00  0.00     0.001 A 
BRANCH  15  20
ATOM     20  O   UNL A   1      32.561  28.802  22.973  1.00  0.00    -0.496 OA
ATOM     21  C   UNL A   1      33.118  29.264  24.206  1.00  0.00     0.278 C 
ENDBRANCH  15  20
ENDBRANCH   9  14
BRANCH  13  22
ATOM     22  O   UNL A   1      33.954  23.383  21.792  1.00  0.00    -0.507 OA
ATOM     23  H   UNL A   1      34.742  22.877  21.845  1.00  0.00     0.293 HD
ENDBRANCH  13  22
ENDBRANCH   6   8
ENDBRANCH   5   6
ENDBRANCH   4   5
ENDBRANCH   3   4
ENDBRANCH   2   3
ENDBRANCH   1   2
BRANCH   1  24
ATOM     24  C   UNL A   1      41.241  21.349  27.204  1.00  0.00     0.188 C 
BRANCH  24  25
ATOM     25  O   UNL A   1      42.645  21.311  27.070  1.00  0.00    -0.376 OA
BRANCH  25  26
ATOM     26  C   UNL A   1      43.249  21.033  25.820  1.00  0.00     0.202 C 
BRANCH  26  27
ATOM     27  C   UNL A   1      43.926  22.102  24.954  1.00  0.00     0.261 C 
BRANCH  27  28
ATOM     28  O   UNL A   1      43.196  23.320  24.772  1.00  0.00    -0.460 OA
BRANCH  28  29
ATOM     29  C   UNL A   1      43.914  24.446  25.007  1.00  0.00     0.338 C 
ATOM     30  O   UNL A   1      44.951  24.795  24.476  1.00  0.00    -0.246 OA
BRANCH  29  31
ATOM     31  C   UNL A   1      43.159  25.322  25.918  1.00  0.00     0.060 A 
ATOM     32  C   UNL A   1      43.639  26.622  26.128  1.00  0.00     0.016 A 
ATOM     33  C   UNL A   1      42.046  24.850  26.614  1.00  0.00     0.016 A 
ATOM     34  C   UNL A   1      43.023  27.446  27.066  1.00  0.00     0.010 A 
ATOM     35  C   UNL A   1      41.442  25.671  27.571  1.00  0.00     0.010 A 
ATOM     36  C   UNL A   1      41.950  26.957  27.824  1.00  0.00    -0.014 A 
BRANCH  36  37
ATOM     37  C   UNL A   1      41.484  27.732  28.998  1.00  0.00     0.031 A 
ATOM     38  C   UNL A   1      42.224  27.588  30.298  1.00  0.00     0.074 A 
ATOM     39  C   UNL A   1      40.441  28.574  28.902  1.00  0.00     0.049 A 
ATOM     40  N   UNL A   1      42.001  28.164  31.451  1.00  0.00    -0.248 NA
ATOM     41  C   UNL A   1      43.370  26.666  30.296  1.00  0.00     0.031 C 
ATOM     42  C   UNL A   1      39.660  28.818  27.692  1.00  0.00     0.029 A 
ATOM     43  N   UNL A   1      39.857  29.375  29.851  1.00  0.00    -0.354 N 
ATOM     44  C   UNL A   1      42.972  27.673  32.312  1.00  0.00     0.074 A 
ATOM     45  C   UNL A   1      43.769  26.730  31.558  1.00  0.00     0.031 C 
ATOM     46  C   UNL A   1      38.686  29.699  27.975  1.00  0.00     0.029 A 
ATOM     47  C   UNL A   1      38.764  30.063  29.389  1.00  0.00     0.049 A 
ATOM     48  H   UNL A   1      40.191  29.450  30.774  1.00  0.00     0.167 HD
ATOM     49  C   UNL A   1      43.187  27.986  33.611  1.00  0.00     0.037 A 
ATOM     50  C   UNL A   1      37.913  30.879  30.042  1.00  0.00     0.037 A 
ATOM     51  C   UNL A   1      42.392  28.922  34.363  1.00  0.00     0.049 A 
ATOM     52  C   UNL A   1      38.143  31.174  31.503  1.00  0.00     0.074 A 
ATOM     53  C   UNL A   1      42.549  29.329  35.676  1.00  0.00     0.029 A 
ATOM     54  N   UNL A   1      41.279  29.587  33.868  1.00  0.00    -0.354 N 
ATOM     55  N   UNL A   1      39.092  30.743  32.298  1.00  0.00    -0.248 NA
ATOM     56  C   UNL A   1      37.187  32.082  32.152  1.00  0.00     0.031 C 
ATOM     57  C   UNL A   1      41.498  30.199  35.992  1.00  0.00     0.029 A 
ATOM     58  C   UNL A   1      40.722  30.379  34.859  1.00  0.00     0.049 A 
ATOM     59  H   UNL A   1      40.936  29.506  32.949  1.00  0.00     0.167 HD
ATOM     60  C   UNL A   1      38.864  31.343  33.530  1.00  0.00     0.074 A 
ATOM     61  C   UNL A   1      37.696  32.185  33.372  1.00  0.00     0.031 C 
ATOM     62  C   UNL A   1      39.558  31.212  34.688  1.00  0.00     0.037 A 
BRANCH  49  63
ATOM     63  C   UNL A   1      44.313  27.283  34.313  1.00  0.00     0.064 A 
ATOM     64  C   UNL A   1      45.604  27.828  34.370  1.00  0.00     0.173 A 
ATOM     65  C   UNL A   1      44.089  26.054  34.952  1.00  0.00     0.173 A 
ATOM     66  F   UNL A   1      45.873  28.993  33.760  1.00  0.00    -0.203 F 
ATOM     67  C   UNL A   1      46.637  27.155  35.016  1.00  0.00     0.198 A 
ATOM     68  C   UNL A   1      45.118  25.399  35.623  1.00  0.00     0.198 A 
ATOM     69  F   UNL A   1      42.872  25.491  34.930  1.00  0.00    -0.203 F 
ATOM     70  F   UNL A   1      47.875  27.670  35.015  1.00  0.00    -0.200 F 
ATOM     71  C   UNL A   1      46.392  25.945  35.648  1.00  0.00     0.200 A 
ATOM     72  F   UNL A   1      44.877  24.235  36.243  1.00  0.00    -0.200 F 
ATOM     73  F   UNL A   1      47.387  25.300  36.273  1.00  0.00    -0.200 F 
ENDBRANCH  49  63
BRANCH  50  74
ATOM     74  C   UNL A   1      36.756  31.471  29.322  1.00  0.00     0.064 A 
ATOM     75  C   UNL A   1      36.722  32.835  29.001  1.00  0.00     0.173 A 
ATOM     76  C   UNL A   1      35.652  30.686  28.958  1.00  0.00     0.173 A 
ATOM     77  F   UNL A   1      37.744  33.630  29.352  1.00  0.00    -0.203 F 
ATOM     78  C   UNL A   1      35.620  33.395  28.360  1.00  0.00     0.198 A 
ATOM     79  C   UNL A   1      34.563  31.242  28.291  1.00  0.00     0.198 A 
ATOM     80  F   UNL A   1      35.634  29.377  29.247  1.00  0.00    -0.203 F 
ATOM     81  F   UNL A   1      35.593  34.711  28.107  1.00  0.00    -0.200 F 
ATOM     82  C   UNL A   1      34.545  32.598  28.000  1.00  0.00     0.200 A 
ATOM     83  F   UNL A   1      33.529  30.466  27.937  1.00  0.00    -0.200 F 
ATOM     84  F   UNL A   1      33.485  33.137  27.380  1.00  0.00    -0.200 F 
ENDBRANCH  50  74
BRANCH  62  85
ATOM     85  C   UNL A   1      39.094  32.021  35.866  1.00  0.00     0.064 A 
ATOM     86  C   UNL A   1      39.499  33.352  36.054  1.00  0.00     0.173 A 
ATOM     87  C   UNL A   1      38.209  31.467  36.805  1.00  0.00     0.173 A 
ATOM     88  F   UNL A   1      40.353  33.926  35.193  1.00  0.00    -0.203 F 
ATOM     89  C   UNL A   1      39.064  34.084  37.156  1.00  0.00     0.198 A 
ATOM     90  C   UNL A   1      37.751  32.213  37.888  1.00  0.00     0.198 A 
ATOM     91  F   UNL A   1      37.783  30.203  36.669  1.00  0.00    -0.203 F 
ATOM     92  F   UNL A   1      39.509  35.334  37.345  1.00  0.00    -0.200 F 
ATOM     93  C   UNL A   1      38.186  33.517  38.069  1.00  0.00     0.200 A 
ATOM     94  F   UNL A   1      36.891  31.668  38.759  1.00  0.00    -0.200 F 
ATOM     95  F   UNL A   1      37.768  34.224  39.126  1.00  0.00    -0.200 F 
ENDBRANCH  62  85
ENDBRANCH  36  37
ENDBRANCH  29  31
ENDBRANCH  28  29
ENDBRANCH  27  28
ENDBRANCH  26  27
ENDBRANCH  25  26
ENDBRANCH  24  25
ENDBRANCH   1  24
TORSDOF 20
ENDMDL
MODEL 3
REMARK VINA RESULT:     -10.8      3.715      9.078
REMARK SMILES COc1ccccc1-c1ccc(C(=O)OCCOCCOCCOC(=O)c2ccc(-c3c4nc(c(-c5c(F)c(F)c(F)c(F)c5F)c5ccc([nH]5)c(-c5c(F)c(F)c(F)c(F)c5F)c5nc(c(-c6c(F)c(F)c(F)c(F)c6F)c6ccc3[nH]6)C=C5)C=C4)cc2)c(O)c1
REMARK SMILES IDX 19 1 18 2 17 3 16 4 15 5 13 6 14 7 12 8 9 9 10 10 92 11
REMARK SMILES IDX 11 12 90 13 8 14 3 15 4 16 5 17 7 18 6 19 2 20 1 21 91 22
REMARK SMILES IDX 20 24 21 25 22 26 23 27 24 28 25 29 26 30 27 31 28 32 89 33
REMARK SMILES IDX 29 34 88 35 30 36 31 37 32 38 82 39 33 40 87 41 81 42 83 43
REMARK SMILES IDX 34 44 86 45 80 46 79 47 35 49 67 50 47 51 66 52 48 53 51 54
REMARK SMILES IDX 65 55 84 56 49 57 50 58 64 60 85 61 52 62 36 63 37 64 45 65
REMARK SMILES IDX 38 66 39 67 43 68 46 69 40 70 41 71 44 72 42 73 68 74 69 75
REMARK SMILES IDX 77 76 70 77 71 78 75 79 78 80 72 81 73 82 76 83 74 84 53 85
REMARK SMILES IDX 54 86 62 87 55 88 56 89 60 90 63 91 57 92 58 93 61 94 59 95
REMARK H PARENT 91 23 83 48 51 59
REMARK Flexibility Score: inf
ROOT
ATOM      1  C   UNL A   1      33.263  19.924  25.576  1.00  0.00     0.188 C 
ENDROOT
BRANCH   1   2
ATOM      2  O   UNL A   1      32.174  20.095  24.688  1.00  0.00    -0.376 OA
BRANCH   2   3
ATOM      3  C   UNL A   1      32.383  20.674  23.407  1.00  0.00     0.202 C 
BRANCH   3   4
ATOM      4  C   UNL A   1      32.087  22.151  23.144  1.00  0.00     0.261 C 
BRANCH   4   5
ATOM      5  O   UNL A   1      33.228  22.990  23.345  1.00  0.00    -0.460 OA
BRANCH   5   6
ATOM      6  C   UNL A   1      33.321  24.039  22.497  1.00  0.00     0.341 C 
ATOM      7  O   UNL A   1      33.026  24.048  21.311  1.00  0.00    -0.246 OA
BRANCH   6   8
ATOM      8  C   UNL A   1      33.608  25.287  23.229  1.00  0.00     0.101 A 
ATOM      9  C   UNL A   1      33.783  27.584  24.821  1.00  0.00    -0.011 A 
ATOM     10  C   UNL A   1      33.833  26.312  25.411  1.00  0.00     0.010 A 
ATOM     11  C   UNL A   1      33.796  27.687  23.417  1.00  0.00     0.056 A 
ATOM     12  C   UNL A   1      33.732  25.172  24.621  1.00  0.00     0.020 A 
ATOM     13  C   UNL A   1      33.696  26.541  22.624  1.00  0.00     0.130 A 
BRANCH   9  14
ATOM     14  C   UNL A   1      33.484  28.751  25.663  1.00  0.00     0.024 A 
ATOM     15  C   UNL A   1      32.162  29.234  25.794  1.00  0.00     0.126 A 
ATOM     16  C   UNL A   1      31.866  30.301  26.643  1.00  0.00     0.047 A 
ATOM     17  C   UNL A   1      32.876  30.887  27.403  1.00  0.00     0.004 A 
ATOM     18  C   UNL A   1      34.488  29.366  26.429  1.00  0.00     0.012 A 
ATOM     19  C   UNL A   1      34.185  30.424  27.293  1.00  0.00     0.001 A 
BRANCH  15  20
ATOM     20  O   UNL A   1      31.110  28.749  25.052  1.00  0.00    -0.496 OA
ATOM     21  C   UNL A   1      30.642  29.685  24.080  1.00  0.00     0.278 C 
ENDBRANCH  15  20
ENDBRANCH   9  14
BRANCH  13  22
ATOM     22  O   UNL A   1      33.609  26.669  21.268  1.00  0.00    -0.507 OA
ATOM     23  H   UNL A   1      33.616  27.521  20.876  1.00  0.00     0.293 HD
ENDBRANCH  13  22
ENDBRANCH   6   8
ENDBRANCH   5   6
ENDBRANCH   4   5
ENDBRANCH   3   4
ENDBRANCH   2   3
ENDBRANCH   1   2
BRANCH   1  24
ATOM     24  C   UNL A   1      33.561  20.967  26.675  1.00  0.00     0.188 C 
BRANCH  24  25
ATOM     25  O   UNL A   1      34.146  22.215  26.374  1.00  0.00    -0.376 OA
BRANCH  25  26
ATOM     26  C   UNL A   1      35.508  22.309  25.999  1.00  0.00     0.202 C 
BRANCH  26  27
ATOM     27  C   UNL A   1      36.336  23.592  26.146  1.00  0.00     0.261 C 
BRANCH  27  28
ATOM     28  O   UNL A   1      37.584  23.619  25.445  1.00  0.00    -0.460 OA
BRANCH  28  29
ATOM     29  C   UNL A   1      38.637  23.144  26.155  1.00  0.00     0.338 C 
ATOM     30  O   UNL A   1      39.057  22.003  26.195  1.00  0.00    -0.246 OA
BRANCH  29  31
ATOM     31  C   UNL A   1      39.349  24.271  26.781  1.00  0.00     0.060 A 
ATOM     32  C   UNL A   1      39.214  24.449  28.163  1.00  0.00     0.016 A 
ATOM     33  C   UNL A   1      40.073  25.181  26.010  1.00  0.00     0.016 A 
ATOM     34  C   UNL A   1      39.776  25.564  28.779  1.00  0.00     0.010 A 
ATOM     35  C   UNL A   1      40.619  26.311  26.626  1.00  0.00     0.010 A 
ATOM     36  C   UNL A   1      40.442  26.523  28.005  1.00  0.00    -0.014 A 
BRANCH  36  37
ATOM     37  C   UNL A   1      40.793  27.827  28.616  1.00  0.00     0.031 A 
ATOM     38  C   UNL A   1      42.212  28.061  29.052  1.00  0.00     0.074 A 
ATOM     39  C   UNL A   1      39.874  28.798  28.751  1.00  0.00     0.049 A 
ATOM     40  N   UNL A   1      42.749  29.118  29.605  1.00  0.00    -0.248 NA
ATOM     41  C   UNL A   1      43.152  26.951  28.834  1.00  0.00     0.031 C 
ATOM     42  C   UNL A   1      38.474  28.699  28.345  1.00  0.00     0.029 A 
ATOM     43  N   UNL A   1      39.986  30.059  29.280  1.00  0.00    -0.354 N 
ATOM     44  C   UNL A   1      44.084  28.800  29.807  1.00  0.00     0.074 A 
ATOM     45  C   UNL A   1      44.272  27.442  29.344  1.00  0.00     0.031 C 
ATOM     46  C   UNL A   1      37.851  29.849  28.654  1.00  0.00     0.029 A 
ATOM     47  C   UNL A   1      38.803  30.753  29.298  1.00  0.00     0.049 A 
ATOM     48  H   UNL A   1      40.834  30.431  29.613  1.00  0.00     0.167 HD
ATOM     49  C   UNL A   1      45.069  29.573  30.324  1.00  0.00     0.037 A 
ATOM     50  C   UNL A   1      38.521  31.973  29.795  1.00  0.00     0.037 A 
ATOM     51  C   UNL A   1      44.882  30.922  30.788  1.00  0.00     0.049 A 
ATOM     52  C   UNL A   1      39.623  32.796  30.411  1.00  0.00     0.074 A 
ATOM     53  C   UNL A   1      45.824  31.798  31.300  1.00  0.00     0.029 A 
ATOM     54  N   UNL A   1      43.665  31.588  30.808  1.00  0.00    -0.354 N 
ATOM     55  N   UNL A   1      40.894  32.507  30.555  1.00  0.00    -0.248 NA
ATOM     56  C   UNL A   1      39.251  34.123  30.923  1.00  0.00     0.031 C 
ATOM     57  C   UNL A   1      45.166  32.973  31.681  1.00  0.00     0.029 A 
ATOM     58  C   UNL A   1      43.825  32.852  31.351  1.00  0.00     0.049 A 
ATOM     59  H   UNL A   1      42.813  31.215  30.486  1.00  0.00     0.167 HD
ATOM     60  C   UNL A   1      41.477  33.620  31.149  1.00  0.00     0.074 A 
ATOM     61  C   UNL A   1      40.423  34.599  31.321  1.00  0.00     0.031 C 
ATOM     62  C   UNL A   1      42.767  33.817  31.518  1.00  0.00     0.037 A 
BRANCH  49  63
ATOM     63  C   UNL A   1      46.435  28.961  30.443  1.00  0.00     0.064 A 
ATOM     64  C   UNL A   1      47.363  29.015  29.393  1.00  0.00     0.173 A 
ATOM     65  C   UNL A   1      46.824  28.327  31.633  1.00  0.00     0.173 A 
ATOM     66  F   UNL A   1      47.034  29.596  28.229  1.00  0.00    -0.203 F 
ATOM     67  C   UNL A   1      48.621  28.432  29.519  1.00  0.00     0.198 A 
ATOM     68  C   UNL A   1      48.093  27.771  31.765  1.00  0.00     0.198 A 
ATOM     69  F   UNL A   1      45.974  28.250  32.668  1.00  0.00    -0.203 F 
ATOM     70  F   UNL A   1      49.475  28.451  28.486  1.00  0.00    -0.200 F 
ATOM     71  C   UNL A   1      48.988  27.816  30.707  1.00  0.00     0.200 A 
ATOM     72  F   UNL A   1      48.449  27.187  32.919  1.00  0.00    -0.200 F 
ATOM     73  F   UNL A   1      50.200  27.259  30.829  1.00  0.00    -0.200 F 
ENDBRANCH  49  63
BRANCH  50  74
ATOM     74  C   UNL A   1      37.129  32.491  29.740  1.00  0.00     0.064 A 
ATOM     75  C   UNL A   1      36.224  32.254  30.784  1.00  0.00     0.173 A 
ATOM     76  C   UNL A   1      36.672  33.219  28.631  1.00  0.00     0.173 A 
ATOM     77  F   UNL A   1      36.609  31.540  31.853  1.00  0.00    -0.203 F 
ATOM     78  C   UNL A   1      34.909  32.708  30.713  1.00  0.00     0.198 A 
ATOM     79  C   UNL A   1      35.365  33.697  28.574  1.00  0.00     0.198 A 
ATOM     80  F   UNL A   1      37.497  33.468  27.605  1.00  0.00    -0.203 F 
ATOM     81  F   UNL A   1      34.052  32.426  31.703  1.00  0.00    -0.200 F 
ATOM     82  C   UNL A   1      34.482  33.434  29.612  1.00  0.00     0.200 A 
ATOM     83  F   UNL A   1      34.959  34.406  27.512  1.00  0.00    -0.200 F 
ATOM     84  F   UNL A   1      33.218  33.873  29.544  1.00  0.00    -0.200 F 
ENDBRANCH  50  74
BRANCH  62  85
ATOM     85  C   UNL A   1      43.119  35.151  32.112  1.00  0.00     0.064 A 
ATOM     86  C   UNL A   1      42.992  35.405  33.487  1.00  0.00     0.173 A 
ATOM     87  C   UNL A   1      43.615  36.183  31.299  1.00  0.00     0.173 A 
ATOM     88  F   UNL A   1      42.511  34.458  34.306  1.00  0.00    -0.203 F 
ATOM     89  C   UNL A   1      43.315  36.651  34.018  1.00  0.00     0.198 A 
ATOM     90  C   UNL A   1      43.968  37.417  31.839  1.00  0.00     0.198 A 
ATOM     91  F   UNL A   1      43.765  35.991  29.980  1.00  0.00    -0.203 F 
ATOM     92  F   UNL A   1      43.132  36.888  35.324  1.00  0.00    -0.200 F 
ATOM     93  C   UNL A   1      43.809  37.654  33.196  1.00  0.00     0.200 A 
ATOM     94  F   UNL A   1      44.459  38.378  31.045  1.00  0.00    -0.200 F 
ATOM     95  F   UNL A   1      44.121  38.850  33.710  1.00  0.00    -0.200 F 
ENDBRANCH  62  85
ENDBRANCH  36  37
ENDBRANCH  29  31
ENDBRANCH  28  29
ENDBRANCH  27  28
ENDBRANCH  26  27
ENDBRANCH  25  26
ENDBRANCH  24  25
ENDBRANCH   1  24
TORSDOF 20
ENDMDL
