MODEL 1
REMARK VINA RESULT:     -11.0      0.000      0.000
REMARK SMILES C[C@@H]1[C@@H](C(=O)OCCOCCOCCOC(=O)c2ccc(-c3c4nc(c(-c5c(F)c(F)c(F)c(F)c5F)c5ccc([nH]5)c(-c5c(F)c(F)c(F)c(F)c5F)c5nc(c(-c6c(F)c(F)c(F)c(F)c6F)c6ccc3[nH]6)C=C5)C=C4)cc2)CCN1C(=O)[C@]1([NH3+])CCOC1
REMARK SMILES IDX 10 1 9 2 8 3 7 4 6 5 4 6 5 7 3 8 1 9 2 10 83 11 81 12 82 13
REMARK SMILES IDX 84 14 85 15 86 16 88 17 91 18 89 19 90 20 87 21 11 25 12 26
REMARK SMILES IDX 13 27 14 28 15 29 16 30 17 31 18 32 19 33 80 34 20 35 79 36
REMARK SMILES IDX 21 37 22 38 23 39 73 40 24 41 78 42 72 43 74 44 25 45 77 46
REMARK SMILES IDX 71 47 70 48 26 50 58 51 38 52 57 53 39 54 42 55 56 56 75 57
REMARK SMILES IDX 40 58 41 59 55 61 76 62 43 63 27 64 28 65 36 66 29 67 30 68
REMARK SMILES IDX 34 69 37 70 31 71 32 72 35 73 33 74 59 75 60 76 68 77 61 78
REMARK SMILES IDX 62 79 66 80 69 81 63 82 64 83 67 84 65 85 44 86 45 87 53 88
REMARK SMILES IDX 46 89 47 90 51 91 54 92 48 93 49 94 52 95 50 96
REMARK H PARENT 87 22 87 23 87 24 74 49 42 60
REMARK Flexibility Score: inf
ROOT
ATOM      1  C   UNL A   1      40.073  21.602  26.919  1.00  0.00     0.188 C 
ENDROOT
BRANCH   1   2
ATOM      2  O   UNL A   1      38.910  21.225  26.208  1.00  0.00    -0.376 OA
BRANCH   2   3
ATOM      3  C   UNL A   1      38.202  22.170  25.418  1.00  0.00     0.202 C 
BRANCH   3   4
ATOM      4  C   UNL A   1      36.676  22.326  25.501  1.00  0.00     0.261 C 
BRANCH   4   5
ATOM      5  O   UNL A   1      36.032  22.699  24.276  1.00  0.00    -0.463 OA
BRANCH   5   6
ATOM      6  C   UNL A   1      34.781  22.195  24.104  1.00  0.00     0.311 C 
ATOM      7  O   UNL A   1      34.314  21.264  24.746  1.00  0.00    -0.252 OA
BRANCH   6   8
ATOM      8  C   UNL A   1      34.017  22.977  23.048  1.00  0.00     0.123 C 
ATOM      9  C   UNL A   1      33.340  25.348  22.479  1.00  0.00     0.032 C 
ATOM     10  C   UNL A   1      33.609  24.349  23.611  1.00  0.00     0.096 C 
ATOM     11  N   UNL A   1      32.390  24.039  24.362  1.00  0.00    -0.334 N 
ATOM     12  C   UNL A   1      32.687  22.310  22.738  1.00  0.00     0.039 C 
ATOM     13  C   UNL A   1      31.797  22.791  23.875  1.00  0.00     0.121 C 
BRANCH  11  14
ATOM     14  C   UNL A   1      31.943  24.520  25.575  1.00  0.00     0.286 C 
ATOM     15  O   UNL A   1      32.456  24.063  26.612  1.00  0.00    -0.267 OA
BRANCH  14  16
ATOM     16  C   UNL A   1      30.804  25.596  25.742  1.00  0.00     0.199 C 
ATOM     17  C   UNL A   1      30.217  26.076  24.431  1.00  0.00     0.110 C 
ATOM     18  C   UNL A   1      31.206  26.873  26.477  1.00  0.00     0.239 C 
ATOM     19  C   UNL A   1      30.588  27.539  24.323  1.00  0.00     0.167 C 
ATOM     20  O   UNL A   1      31.162  27.974  25.553  1.00  0.00    -0.374 OA
BRANCH  16  21
ATOM     21  N   UNL A   1      29.701  24.923  26.510  1.00  0.00    -0.343 N 
ATOM     22  H   UNL A   1      29.920  23.933  26.623  1.00  0.00     0.345 HD
ATOM     23  H   UNL A   1      28.822  25.020  26.001  1.00  0.00     0.345 HD
ATOM     24  H   UNL A   1      29.611  25.357  27.428  1.00  0.00     0.345 HD
ENDBRANCH  16  21
ENDBRANCH  14  16
ENDBRANCH  11  14
ENDBRANCH   6   8
ENDBRANCH   5   6
ENDBRANCH   4   5
ENDBRANCH   3   4
ENDBRANCH   2   3
ENDBRANCH   1   2
BRANCH   1  25
ATOM     25  C   UNL A   1      41.167  20.562  27.237  1.00  0.00     0.188 C 
BRANCH  25  26
ATOM     26  O   UNL A   1      41.668  19.814  26.162  1.00  0.00    -0.376 OA
BRANCH  26  27
ATOM     27  C   UNL A   1      42.897  20.182  25.556  1.00  0.00     0.202 C 
BRANCH  27  28
ATOM     28  C   UNL A   1      43.568  21.573  25.625  1.00  0.00     0.261 C 
BRANCH  28  29
ATOM     29  O   UNL A   1      42.894  22.694  25.043  1.00  0.00    -0.460 OA
BRANCH  29  30
ATOM     30  C   UNL A   1      43.589  23.855  25.014  1.00  0.00     0.338 C 
ATOM     31  O   UNL A   1      44.500  24.157  24.251  1.00  0.00    -0.246 OA
BRANCH  30  32
ATOM     32  C   UNL A   1      42.948  24.823  25.921  1.00  0.00     0.060 A 
ATOM     33  C   UNL A   1      43.422  26.143  25.951  1.00  0.00     0.016 A 
ATOM     34  C   UNL A   1      41.908  24.425  26.761  1.00  0.00     0.016 A 
ATOM     35  C   UNL A   1      42.864  27.069  26.832  1.00  0.00     0.010 A 
ATOM     36  C   UNL A   1      41.370  25.346  27.664  1.00  0.00     0.010 A 
ATOM     37  C   UNL A   1      41.861  26.665  27.722  1.00  0.00    -0.014 A 
BRANCH  37  38
ATOM     38  C   UNL A   1      41.453  27.553  28.837  1.00  0.00     0.031 A 
ATOM     39  C   UNL A   1      42.218  27.478  30.129  1.00  0.00     0.074 A 
ATOM     40  C   UNL A   1      40.427  28.414  28.711  1.00  0.00     0.049 A 
ATOM     41  N   UNL A   1      41.990  28.073  31.272  1.00  0.00    -0.248 NA
ATOM     42  C   UNL A   1      43.407  26.609  30.130  1.00  0.00     0.031 C 
ATOM     43  C   UNL A   1      39.646  28.632  27.496  1.00  0.00     0.029 A 
ATOM     44  N   UNL A   1      39.857  29.257  29.635  1.00  0.00    -0.354 N 
ATOM     45  C   UNL A   1      42.999  27.648  32.126  1.00  0.00     0.074 A 
ATOM     46  C   UNL A   1      43.824  26.721  31.381  1.00  0.00     0.031 C 
ATOM     47  C   UNL A   1      38.683  29.532  27.754  1.00  0.00     0.029 A 
ATOM     48  C   UNL A   1      38.754  29.923  29.161  1.00  0.00     0.049 A 
ATOM     49  H   UNL A   1      40.207  29.371  30.548  1.00  0.00     0.167 HD
ATOM     50  C   UNL A   1      43.224  28.005  33.412  1.00  0.00     0.037 A 
ATOM     51  C   UNL A   1      37.887  30.730  29.804  1.00  0.00     0.037 A 
ATOM     52  C   UNL A   1      42.396  28.919  34.155  1.00  0.00     0.049 A 
ATOM     53  C   UNL A   1      38.095  31.027  31.270  1.00  0.00     0.074 A 
ATOM     54  C   UNL A   1      42.539  29.343  35.465  1.00  0.00     0.029 A 
ATOM     55  N   UNL A   1      41.264  29.543  33.655  1.00  0.00    -0.354 N 
ATOM     56  N   UNL A   1      39.056  30.633  32.070  1.00  0.00    -0.248 NA
ATOM     57  C   UNL A   1      37.093  31.883  31.921  1.00  0.00     0.031 C 
ATOM     58  C   UNL A   1      41.463  30.180  35.774  1.00  0.00     0.029 A 
ATOM     59  C   UNL A   1      40.684  30.331  34.637  1.00  0.00     0.049 A 
ATOM     60  H   UNL A   1      40.922  29.443  32.736  1.00  0.00     0.167 HD
ATOM     61  C   UNL A   1      38.798  31.225  33.302  1.00  0.00     0.074 A 
ATOM     62  C   UNL A   1      37.595  32.013  33.142  1.00  0.00     0.031 C 
ATOM     63  C   UNL A   1      39.497  31.127  34.460  1.00  0.00     0.037 A 
BRANCH  50  64
ATOM     64  C   UNL A   1      44.398  27.383  34.109  1.00  0.00     0.064 A 
ATOM     65  C   UNL A   1      45.656  28.005  34.133  1.00  0.00     0.173 A 
ATOM     66  C   UNL A   1      44.256  26.167  34.796  1.00  0.00     0.173 A 
ATOM     67  F   UNL A   1      45.849  29.161  33.480  1.00  0.00    -0.203 F 
ATOM     68  C   UNL A   1      46.733  27.420  34.794  1.00  0.00     0.198 A 
ATOM     69  C   UNL A   1      45.327  25.602  35.482  1.00  0.00     0.198 A 
ATOM     70  F   UNL A   1      43.075  25.531  34.809  1.00  0.00    -0.203 F 
ATOM     71  F   UNL A   1      47.936  28.008  34.760  1.00  0.00    -0.200 F 
ATOM     72  C   UNL A   1      46.566  26.224  35.474  1.00  0.00     0.200 A 
ATOM     73  F   UNL A   1      45.160  24.452  36.152  1.00  0.00    -0.200 F 
ATOM     74  F   UNL A   1      47.601  25.668  36.118  1.00  0.00    -0.200 F 
ENDBRANCH  50  64
BRANCH  51  75
ATOM     75  C   UNL A   1      36.723  31.308  29.079  1.00  0.00     0.064 A 
ATOM     76  C   UNL A   1      36.683  32.670  28.747  1.00  0.00     0.173 A 
ATOM     77  C   UNL A   1      35.606  30.526  28.749  1.00  0.00     0.173 A 
ATOM     78  F   UNL A   1      37.712  33.468  29.071  1.00  0.00    -0.203 F 
ATOM     79  C   UNL A   1      35.562  33.232  28.139  1.00  0.00     0.198 A 
ATOM     80  C   UNL A   1      34.499  31.082  28.112  1.00  0.00     0.198 A 
ATOM     81  F   UNL A   1      35.586  29.220  29.056  1.00  0.00    -0.203 F 
ATOM     82  F   UNL A   1      35.525  34.549  27.897  1.00  0.00    -0.200 F 
ATOM     83  C   UNL A   1      34.472  32.436  27.818  1.00  0.00     0.200 A 
ATOM     84  F   UNL A   1      33.449  30.309  27.803  1.00  0.00    -0.200 F 
ATOM     85  F   UNL A   1      33.390  32.979  27.246  1.00  0.00    -0.200 F 
ENDBRANCH  51  75
BRANCH  63  86
ATOM     86  C   UNL A   1      39.017  31.935  35.634  1.00  0.00     0.064 A 
ATOM     87  C   UNL A   1      38.209  31.381  36.637  1.00  0.00     0.173 A 
ATOM     88  C   UNL A   1      39.414  33.275  35.780  1.00  0.00     0.173 A 
ATOM     89  F   UNL A   1      37.792  30.109  36.541  1.00  0.00    -0.203 F 
ATOM     90  C   UNL A   1      37.793  32.143  37.726  1.00  0.00     0.198 A 
ATOM     91  C   UNL A   1      39.025  34.024  36.886  1.00  0.00     0.198 A 
ATOM     92  F   UNL A   1      40.195  33.854  34.855  1.00  0.00    -0.203 F 
ATOM     93  F   UNL A   1      36.980  31.606  38.646  1.00  0.00    -0.200 F 
ATOM     94  C   UNL A   1      38.208  33.460  37.854  1.00  0.00     0.200 A 
ATOM     95  F   UNL A   1      39.442  35.290  37.017  1.00  0.00    -0.200 F 
ATOM     96  F   UNL A   1      37.815  34.188  38.908  1.00  0.00    -0.200 F 
ENDBRANCH  63  86
ENDBRANCH  37  38
ENDBRANCH  30  32
ENDBRANCH  29  30
ENDBRANCH  28  29
ENDBRANCH  27  28
ENDBRANCH  26  27
ENDBRANCH  25  26
ENDBRANCH   1  25
TORSDOF 20
ENDMDL
MODEL 2
REMARK VINA RESULT:     -10.7      3.077      8.518
REMARK SMILES C[C@@H]1[C@@H](C(=O)OCCOCCOCCOC(=O)c2ccc(-c3c4nc(c(-c5c(F)c(F)c(F)c(F)c5F)c5ccc([nH]5)c(-c5c(F)c(F)c(F)c(F)c5F)c5nc(c(-c6c(F)c(F)c(F)c(F)c6F)c6ccc3[nH]6)C=C5)C=C4)cc2)CCN1C(=O)[C@]1([NH3+])CCOC1
REMARK SMILES IDX 10 1 9 2 8 3 7 4 6 5 4 6 5 7 3 8 1 9 2 10 83 11 81 12 82 13
REMARK SMILES IDX 84 14 85 15 86 16 88 17 91 18 89 19 90 20 87 21 11 25 12 26
REMARK SMILES IDX 13 27 14 28 15 29 16 30 17 31 18 32 19 33 80 34 20 35 79 36
REMARK SMILES IDX 21 37 22 38 23 39 73 40 24 41 78 42 72 43 74 44 25 45 77 46
REMARK SMILES IDX 71 47 70 48 26 50 58 51 38 52 57 53 39 54 42 55 56 56 75 57
REMARK SMILES IDX 40 58 41 59 55 61 76 62 43 63 27 64 28 65 36 66 29 67 30 68
REMARK SMILES IDX 34 69 37 70 31 71 32 72 35 73 33 74 59 75 60 76 68 77 61 78
REMARK SMILES IDX 62 79 66 80 69 81 63 82 64 83 67 84 65 85 44 86 45 87 53 88
REMARK SMILES IDX 46 89 47 90 51 91 54 92 48 93 49 94 52 95 50 96
REMARK H PARENT 87 22 87 23 87 24 74 49 42 60
REMARK Flexibility Score: inf
ROOT
ATOM      1  C   UNL A   1      32.331  28.304  24.935  1.00  0.00     0.188 C 
ENDROOT
BRANCH   1   2
ATOM      2  O   UNL A   1      32.870  28.186  23.632  1.00  0.00    -0.376 OA
BRANCH   2   3
ATOM      3  C   UNL A   1      33.777  27.141  23.312  1.00  0.00     0.202 C 
BRANCH   3   4
ATOM      4  C   UNL A   1      33.313  25.820  22.679  1.00  0.00     0.261 C 
BRANCH   4   5
ATOM      5  O   UNL A   1      34.323  24.810  22.562  1.00  0.00    -0.463 OA
BRANCH   5   6
ATOM      6  C   UNL A   1      33.949  23.569  22.968  1.00  0.00     0.311 C 
ATOM      7  O   UNL A   1      32.933  22.995  22.600  1.00  0.00    -0.252 OA
BRANCH   6   8
ATOM      8  C   UNL A   1      34.986  22.962  23.898  1.00  0.00     0.123 C 
ATOM      9  C   UNL A   1      35.300  20.996  25.461  1.00  0.00     0.032 C 
ATOM     10  C   UNL A   1      34.300  22.010  24.894  1.00  0.00     0.096 C 
ATOM     11  N   UNL A   1      33.810  22.926  25.927  1.00  0.00    -0.334 N 
ATOM     12  C   UNL A   1      35.603  24.026  24.791  1.00  0.00     0.039 C 
ATOM     13  C   UNL A   1      34.566  24.181  25.894  1.00  0.00     0.121 C 
BRANCH  11  14
ATOM     14  C   UNL A   1      32.628  22.919  26.637  1.00  0.00     0.286 C 
ATOM     15  O   UNL A   1      32.680  22.710  27.863  1.00  0.00    -0.267 OA
BRANCH  14  16
ATOM     16  C   UNL A   1      31.203  23.135  25.999  1.00  0.00     0.199 C 
ATOM     17  C   UNL A   1      31.078  24.416  25.200  1.00  0.00     0.110 C 
ATOM     18  C   UNL A   1      30.039  23.178  26.985  1.00  0.00     0.239 C 
ATOM     19  C   UNL A   1      30.077  25.271  25.945  1.00  0.00     0.167 C 
ATOM     20  O   UNL A   1      29.480  24.502  26.987  1.00  0.00    -0.374 OA
BRANCH  16  21
ATOM     21  N   UNL A   1      30.992  21.988  25.049  1.00  0.00    -0.343 N 
ATOM     22  H   UNL A   1      30.117  22.122  24.544  1.00  0.00     0.345 HD
ATOM     23  H   UNL A   1      30.951  21.114  25.575  1.00  0.00     0.345 HD
ATOM     24  H   UNL A   1      31.766  21.949  24.386  1.00  0.00     0.345 HD
ENDBRANCH  16  21
ENDBRANCH  14  16
ENDBRANCH  11  14
ENDBRANCH   6   8
ENDBRANCH   5   6
ENDBRANCH   4   5
ENDBRANCH   3   4
ENDBRANCH   2   3
ENDBRANCH   1   2
BRANCH   1  25
ATOM     25  C   UNL A   1      31.575  29.580  25.356  1.00  0.00     0.188 C 
BRANCH  25  26
ATOM     26  O   UNL A   1      32.310  30.562  26.035  1.00  0.00    -0.376 OA
BRANCH  26  27
ATOM     27  C   UNL A   1      31.637  31.626  26.687  1.00  0.00     0.202 C 
BRANCH  27  28
ATOM     28  C   UNL A   1      32.135  33.085  26.806  1.00  0.00     0.261 C 
BRANCH  28  29
ATOM     29  O   UNL A   1      32.549  33.570  28.089  1.00  0.00    -0.460 OA
BRANCH  29  30
ATOM     30  C   UNL A   1      33.703  34.279  28.112  1.00  0.00     0.338 C 
ATOM     31  O   UNL A   1      33.832  35.491  27.992  1.00  0.00    -0.246 OA
BRANCH  30  32
ATOM     32  C   UNL A   1      34.805  33.390  28.517  1.00  0.00     0.060 A 
ATOM     33  C   UNL A   1      34.499  32.147  29.092  1.00  0.00     0.016 A 
ATOM     34  C   UNL A   1      36.133  33.790  28.362  1.00  0.00     0.016 A 
ATOM     35  C   UNL A   1      35.522  31.304  29.527  1.00  0.00     0.010 A 
ATOM     36  C   UNL A   1      37.155  32.958  28.825  1.00  0.00     0.010 A 
ATOM     37  C   UNL A   1      36.855  31.723  29.431  1.00  0.00    -0.014 A 
BRANCH  37  38
ATOM     38  C   UNL A   1      37.925  30.967  30.128  1.00  0.00     0.031 A 
ATOM     39  C   UNL A   1      38.183  31.266  31.579  1.00  0.00     0.074 A 
ATOM     40  C   UNL A   1      38.653  30.032  29.493  1.00  0.00     0.049 A 
ATOM     41  N   UNL A   1      39.122  30.816  32.371  1.00  0.00    -0.248 NA
ATOM     42  C   UNL A   1      37.249  32.202  32.225  1.00  0.00     0.031 C 
ATOM     43  C   UNL A   1      38.463  29.602  28.110  1.00  0.00     0.029 A 
ATOM     44  N   UNL A   1      39.719  29.285  29.935  1.00  0.00    -0.354 N 
ATOM     45  C   UNL A   1      38.897  31.417  33.602  1.00  0.00     0.074 A 
ATOM     46  C   UNL A   1      37.752  32.288  33.447  1.00  0.00     0.031 C 
ATOM     47  C   UNL A   1      39.395  28.683  27.808  1.00  0.00     0.029 A 
ATOM     48  C   UNL A   1      40.273  28.490  28.962  1.00  0.00     0.049 A 
ATOM     49  H   UNL A   1      40.053  29.318  30.861  1.00  0.00     0.167 HD
ATOM     50  C   UNL A   1      39.578  31.251  34.761  1.00  0.00     0.037 A 
ATOM     51  C   UNL A   1      41.379  27.722  28.996  1.00  0.00     0.037 A 
ATOM     52  C   UNL A   1      40.724  30.393  34.911  1.00  0.00     0.049 A 
ATOM     53  C   UNL A   1      42.187  27.639  30.269  1.00  0.00     0.074 A 
ATOM     54  C   UNL A   1      41.484  30.160  36.044  1.00  0.00     0.029 A 
ATOM     55  N   UNL A   1      41.280  29.634  33.893  1.00  0.00    -0.354 N 
ATOM     56  N   UNL A   1      41.964  28.199  31.434  1.00  0.00    -0.248 NA
ATOM     57  C   UNL A   1      43.403  26.814  30.230  1.00  0.00     0.031 C 
ATOM     58  C   UNL A   1      42.533  29.302  35.697  1.00  0.00     0.029 A 
ATOM     59  C   UNL A   1      42.388  28.949  34.364  1.00  0.00     0.049 A 
ATOM     60  H   UNL A   1      40.937  29.588  32.970  1.00  0.00     0.167 HD
ATOM     61  C   UNL A   1      42.983  27.762  32.273  1.00  0.00     0.074 A 
ATOM     62  C   UNL A   1      43.822  26.883  31.486  1.00  0.00     0.031 C 
ATOM     63  C   UNL A   1      43.204  28.060  33.577  1.00  0.00     0.037 A 
BRANCH  50  64
ATOM     64  C   UNL A   1      39.117  32.037  35.954  1.00  0.00     0.064 A 
ATOM     65  C   UNL A   1      38.228  31.496  36.895  1.00  0.00     0.173 A 
ATOM     66  C   UNL A   1      39.600  33.335  36.180  1.00  0.00     0.173 A 
ATOM     67  F   UNL A   1      37.726  30.264  36.718  1.00  0.00    -0.203 F 
ATOM     68  C   UNL A   1      37.820  32.234  38.002  1.00  0.00     0.198 A 
ATOM     69  C   UNL A   1      39.214  34.058  37.305  1.00  0.00     0.198 A 
ATOM     70  F   UNL A   1      40.455  33.900  35.314  1.00  0.00    -0.203 F 
ATOM     71  F   UNL A   1      36.932  31.714  38.861  1.00  0.00    -0.200 F 
ATOM     72  C   UNL A   1      38.318  33.511  38.211  1.00  0.00     0.200 A 
ATOM     73  F   UNL A   1      39.709  35.287  37.513  1.00  0.00    -0.200 F 
ATOM     74  F   UNL A   1      37.932  34.216  39.283  1.00  0.00    -0.200 F 
ENDBRANCH  50  64
BRANCH  51  75
ATOM     75  C   UNL A   1      41.811  26.976  27.783  1.00  0.00     0.064 A 
ATOM     76  C   UNL A   1      41.359  25.672  27.538  1.00  0.00     0.173 A 
ATOM     77  C   UNL A   1      42.723  27.531  26.872  1.00  0.00     0.173 A 
ATOM     78  F   UNL A   1      40.513  25.084  28.399  1.00  0.00    -0.203 F 
ATOM     79  C   UNL A   1      41.823  24.941  26.447  1.00  0.00     0.198 A 
ATOM     80  C   UNL A   1      43.161  26.810  25.762  1.00  0.00     0.198 A 
ATOM     81  F   UNL A   1      43.198  28.770  27.066  1.00  0.00    -0.203 F 
ATOM     82  F   UNL A   1      41.427  23.672  26.277  1.00  0.00    -0.200 F 
ATOM     83  C   UNL A   1      42.720  25.512  25.556  1.00  0.00     0.200 A 
ATOM     84  F   UNL A   1      44.027  27.367  24.905  1.00  0.00    -0.200 F 
ATOM     85  F   UNL A   1      43.175  24.805  24.514  1.00  0.00    -0.200 F 
ENDBRANCH  51  75
BRANCH  63  86
ATOM     86  C   UNL A   1      44.363  27.388  34.260  1.00  0.00     0.064 A 
ATOM     87  C   UNL A   1      44.246  26.119  34.845  1.00  0.00     0.173 A 
ATOM     88  C   UNL A   1      45.624  28.007  34.287  1.00  0.00     0.173 A 
ATOM     89  F   UNL A   1      43.063  25.488  34.857  1.00  0.00    -0.203 F 
ATOM     90  C   UNL A   1      45.339  25.507  35.455  1.00  0.00     0.198 A 
ATOM     91  C   UNL A   1      46.721  27.379  34.867  1.00  0.00     0.198 A 
ATOM     92  F   UNL A   1      45.794  29.218  33.735  1.00  0.00    -0.203 F 
ATOM     93  F   UNL A   1      45.191  24.316  36.051  1.00  0.00    -0.200 F 
ATOM     94  C   UNL A   1      46.576  26.133  35.458  1.00  0.00     0.200 A 
ATOM     95  F   UNL A   1      47.920  27.977  34.852  1.00  0.00    -0.200 F 
ATOM     96  F   UNL A   1      47.629  25.538  36.036  1.00  0.00    -0.200 F 
ENDBRANCH  63  86
ENDBRANCH  37  38
ENDBRANCH  30  32
ENDBRANCH  29  30
ENDBRANCH  28  29
ENDBRANCH  27  28
ENDBRANCH  26  27
ENDBRANCH  25  26
ENDBRANCH   1  25
TORSDOF 20
ENDMDL
MODEL 3
REMARK VINA RESULT:     -10.6      5.275     10.612
REMARK SMILES C[C@@H]1[C@@H](C(=O)OCCOCCOCCOC(=O)c2ccc(-c3c4nc(c(-c5c(F)c(F)c(F)c(F)c5F)c5ccc([nH]5)c(-c5c(F)c(F)c(F)c(F)c5F)c5nc(c(-c6c(F)c(F)c(F)c(F)c6F)c6ccc3[nH]6)C=C5)C=C4)cc2)CCN1C(=O)[C@]1([NH3+])CCOC1
REMARK SMILES IDX 10 1 9 2 8 3 7 4 6 5 4 6 5 7 3 8 1 9 2 10 83 11 81 12 82 13
REMARK SMILES IDX 84 14 85 15 86 16 88 17 91 18 89 19 90 20 87 21 11 25 12 26
REMARK SMILES IDX 13 27 14 28 15 29 16 30 17 31 18 32 19 33 80 34 20 35 79 36
REMARK SMILES IDX 21 37 22 38 23 39 73 40 24 41 78 42 72 43 74 44 25 45 77 46
REMARK SMILES IDX 71 47 70 48 26 50 58 51 38 52 57 53 39 54 42 55 56 56 75 57
REMARK SMILES IDX 40 58 41 59 55 61 76 62 43 63 27 64 28 65 36 66 29 67 30 68
REMARK SMILES IDX 34 69 37 70 31 71 32 72 35 73 33 74 59 75 60 76 68 77 61 78
REMARK SMILES IDX 62 79 66 80 69 81 63 82 64 83 67 84 65 85 44 86 45 87 53 88
REMARK SMILES IDX 46 89 47 90 51 91 54 92 48 93 49 94 52 95 50 96
REMARK H PARENT 87 22 87 23 87 24 74 49 42 60
REMARK Flexibility Score: inf
ROOT
ATOM      1  C   UNL A   1      34.489  32.570  28.092  1.00  0.00     0.188 C 
ENDROOT
BRANCH   1   2
ATOM      2  O   UNL A   1      33.683  31.541  27.549  1.00  0.00    -0.376 OA
BRANCH   2   3
ATOM      3  C   UNL A   1      34.244  30.280  27.213  1.00  0.00     0.202 C 
BRANCH   3   4
ATOM      4  C   UNL A   1      33.380  29.101  26.741  1.00  0.00     0.261 C 
BRANCH   4   5
ATOM      5  O   UNL A   1      33.999  28.237  25.779  1.00  0.00    -0.463 OA
BRANCH   5   6
ATOM      6  C   UNL A   1      33.422  28.238  24.548  1.00  0.00     0.311 C 
ATOM      7  O   UNL A   1      33.291  29.230  23.844  1.00  0.00    -0.252 OA
BRANCH   6   8
ATOM      8  C   UNL A   1      33.012  26.834  24.135  1.00  0.00     0.123 C 
ATOM      9  C   UNL A   1      31.895  25.606  22.225  1.00  0.00     0.032 C 
ATOM     10  C   UNL A   1      31.941  26.907  23.033  1.00  0.00     0.096 C 
ATOM     11  N   UNL A   1      30.708  27.117  23.796  1.00  0.00    -0.334 N 
ATOM     12  C   UNL A   1      32.302  26.120  25.273  1.00  0.00     0.039 C 
ATOM     13  C   UNL A   1      30.884  26.665  25.178  1.00  0.00     0.121 C 
BRANCH  11  14
ATOM     14  C   UNL A   1      29.617  27.916  23.526  1.00  0.00     0.286 C 
ATOM     15  O   UNL A   1      28.492  27.384  23.502  1.00  0.00    -0.267 OA
BRANCH  14  16
ATOM     16  C   UNL A   1      29.696  29.460  23.221  1.00  0.00     0.199 C 
ATOM     17  C   UNL A   1      28.369  30.179  23.351  1.00  0.00     0.110 C 
ATOM     18  C   UNL A   1      30.203  29.832  21.830  1.00  0.00     0.239 C 
ATOM     19  C   UNL A   1      28.019  30.656  21.959  1.00  0.00     0.167 C 
ATOM     20  O   UNL A   1      29.130  30.441  21.092  1.00  0.00    -0.374 OA
BRANCH  16  21
ATOM     21  N   UNL A   1      30.627  30.042  24.248  1.00  0.00    -0.343 N 
ATOM     22  H   UNL A   1      30.208  30.881  24.649  1.00  0.00     0.345 HD
ATOM     23  H   UNL A   1      31.514  30.283  23.805  1.00  0.00     0.345 HD
ATOM     24  H   UNL A   1      30.791  29.357  24.986  1.00  0.00     0.345 HD
ENDBRANCH  16  21
ENDBRANCH  14  16
ENDBRANCH  11  14
ENDBRANCH   6   8
ENDBRANCH   5   6
ENDBRANCH   4   5
ENDBRANCH   3   4
ENDBRANCH   2   3
ENDBRANCH   1   2
BRANCH   1  25
ATOM     25  C   UNL A   1      34.364  32.959  29.579  1.00  0.00     0.188 C 
BRANCH  25  26
ATOM     26  O   UNL A   1      33.692  34.155  29.871  1.00  0.00    -0.376 OA
BRANCH  26  27
ATOM     27  C   UNL A   1      34.025  34.887  31.039  1.00  0.00     0.202 C 
BRANCH  27  28
ATOM     28  C   UNL A   1      34.755  34.334  32.285  1.00  0.00     0.261 C 
BRANCH  28  29
ATOM     29  O   UNL A   1      36.108  33.882  32.148  1.00  0.00    -0.460 OA
BRANCH  29  30
ATOM     30  C   UNL A   1      36.438  32.776  32.855  1.00  0.00     0.338 C 
ATOM     31  O   UNL A   1      35.906  32.361  33.878  1.00  0.00    -0.246 OA
BRANCH  30  32
ATOM     32  C   UNL A   1      37.427  31.995  32.092  1.00  0.00     0.060 A 
ATOM     33  C   UNL A   1      38.339  31.188  32.788  1.00  0.00     0.016 A 
ATOM     34  C   UNL A   1      37.479  32.083  30.700  1.00  0.00     0.016 A 
ATOM     35  C   UNL A   1      39.316  30.473  32.095  1.00  0.00     0.010 A 
ATOM     36  C   UNL A   1      38.476  31.389  30.009  1.00  0.00     0.010 A 
ATOM     37  C   UNL A   1      39.414  30.601  30.704  1.00  0.00    -0.014 A 
BRANCH  37  38
ATOM     38  C   UNL A   1      40.601  30.071  29.989  1.00  0.00     0.031 A 
ATOM     39  C   UNL A   1      41.748  31.004  29.716  1.00  0.00     0.074 A 
ATOM     40  C   UNL A   1      40.667  28.788  29.591  1.00  0.00     0.049 A 
ATOM     41  N   UNL A   1      42.841  30.805  29.025  1.00  0.00    -0.248 NA
ATOM     42  C   UNL A   1      41.646  32.349  30.307  1.00  0.00     0.031 C 
ATOM     43  C   UNL A   1      39.656  27.767  29.849  1.00  0.00     0.029 A 
ATOM     44  N   UNL A   1      41.632  28.133  28.865  1.00  0.00    -0.354 N 
ATOM     45  C   UNL A   1      43.551  31.997  29.092  1.00  0.00     0.074 A 
ATOM     46  C   UNL A   1      42.753  32.925  29.865  1.00  0.00     0.031 C 
ATOM     47  C   UNL A   1      40.042  26.617  29.271  1.00  0.00     0.029 A 
ATOM     48  C   UNL A   1      41.306  26.832  28.568  1.00  0.00     0.049 A 
ATOM     49  H   UNL A   1      42.477  28.555  28.586  1.00  0.00     0.167 HD
ATOM     50  C   UNL A   1      44.764  32.289  28.564  1.00  0.00     0.037 A 
ATOM     51  C   UNL A   1      41.943  25.934  27.791  1.00  0.00     0.037 A 
ATOM     52  C   UNL A   1      45.551  31.369  27.787  1.00  0.00     0.049 A 
ATOM     53  C   UNL A   1      43.241  26.320  27.122  1.00  0.00     0.074 A 
ATOM     54  C   UNL A   1      46.792  31.571  27.206  1.00  0.00     0.029 A 
ATOM     55  N   UNL A   1      45.169  30.073  27.472  1.00  0.00    -0.354 N 
ATOM     56  N   UNL A   1      43.915  27.442  27.198  1.00  0.00    -0.248 NA
ATOM     57  C   UNL A   1      43.867  25.309  26.257  1.00  0.00     0.031 C 
ATOM     58  C   UNL A   1      47.135  30.417  26.496  1.00  0.00     0.029 A 
ATOM     59  C   UNL A   1      46.139  29.472  26.686  1.00  0.00     0.049 A 
ATOM     60  H   UNL A   1      44.333  29.643  27.765  1.00  0.00     0.167 HD
ATOM     61  C   UNL A   1      45.059  27.257  26.429  1.00  0.00     0.074 A 
ATOM     62  C   UNL A   1      44.993  25.911  25.901  1.00  0.00     0.031 C 
ATOM     63  C   UNL A   1      46.073  28.124  26.184  1.00  0.00     0.037 A 
BRANCH  50  64
ATOM     64  C   UNL A   1      45.301  33.672  28.788  1.00  0.00     0.064 A 
ATOM     65  C   UNL A   1      45.074  34.709  27.870  1.00  0.00     0.173 A 
ATOM     66  C   UNL A   1      46.021  33.976  29.954  1.00  0.00     0.173 A 
ATOM     67  F   UNL A   1      44.403  34.469  26.733  1.00  0.00    -0.203 F 
ATOM     68  C   UNL A   1      45.570  35.990  28.098  1.00  0.00     0.198 A 
ATOM     69  C   UNL A   1      46.488  35.265  30.193  1.00  0.00     0.198 A 
ATOM     70  F   UNL A   1      46.265  33.023  30.867  1.00  0.00    -0.203 F 
ATOM     71  F   UNL A   1      45.382  36.951  27.183  1.00  0.00    -0.200 F 
ATOM     72  C   UNL A   1      46.269  36.269  29.262  1.00  0.00     0.200 A 
ATOM     73  F   UNL A   1      47.152  35.536  31.326  1.00  0.00    -0.200 F 
ATOM     74  F   UNL A   1      46.737  37.505  29.484  1.00  0.00    -0.200 F 
ENDBRANCH  50  64
BRANCH  51  75
ATOM     75  C   UNL A   1      41.362  24.581  27.579  1.00  0.00     0.064 A 
ATOM     76  C   UNL A   1      41.952  23.445  28.151  1.00  0.00     0.173 A 
ATOM     77  C   UNL A   1      40.239  24.388  26.761  1.00  0.00     0.173 A 
ATOM     78  F   UNL A   1      43.049  23.572  28.914  1.00  0.00    -0.203 F 
ATOM     79  C   UNL A   1      41.460  22.167  27.890  1.00  0.00     0.198 A 
ATOM     80  C   UNL A   1      39.727  23.114  26.528  1.00  0.00     0.198 A 
ATOM     81  F   UNL A   1      39.644  25.440  26.178  1.00  0.00    -0.203 F 
ATOM     82  F   UNL A   1      42.086  21.095  28.394  1.00  0.00    -0.200 F 
ATOM     83  C   UNL A   1      40.344  22.003  27.083  1.00  0.00     0.200 A 
ATOM     84  F   UNL A   1      38.649  22.960  25.747  1.00  0.00    -0.200 F 
ATOM     85  F   UNL A   1      39.879  20.775  26.822  1.00  0.00    -0.200 F 
ENDBRANCH  51  75
BRANCH  63  86
ATOM     86  C   UNL A   1      47.227  27.629  25.356  1.00  0.00     0.064 A 
ATOM     87  C   UNL A   1      47.287  27.829  23.970  1.00  0.00     0.173 A 
ATOM     88  C   UNL A   1      48.314  26.987  25.972  1.00  0.00     0.173 A 
ATOM     89  F   UNL A   1      46.271  28.426  23.330  1.00  0.00    -0.203 F 
ATOM     90  C   UNL A   1      48.376  27.379  23.227  1.00  0.00     0.198 A 
ATOM     91  C   UNL A   1      49.416  26.570  25.232  1.00  0.00     0.198 A 
ATOM     92  F   UNL A   1      48.314  26.778  27.297  1.00  0.00    -0.203 F 
ATOM     93  F   UNL A   1      48.388  27.537  21.896  1.00  0.00    -0.200 F 
ATOM     94  C   UNL A   1      49.442  26.758  23.859  1.00  0.00     0.200 A 
ATOM     95  F   UNL A   1      50.454  25.987  25.848  1.00  0.00    -0.200 F 
ATOM     96  F   UNL A   1      50.494  26.337  23.143  1.00  0.00    -0.200 F 
ENDBRANCH  63  86
ENDBRANCH  37  38
ENDBRANCH  30  32
ENDBRANCH  29  30
ENDBRANCH  28  29
ENDBRANCH  27  28
ENDBRANCH  26  27
ENDBRANCH  25  26
ENDBRANCH   1  25
TORSDOF 20
ENDMDL
