MODEL 1
REMARK VINA RESULT:     -10.5      0.000      0.000
REMARK SMILES C[NH2+][C@@]1(C(=O)OCCOCCOCCOC(=O)c2ccc(-c3c4nc(c(-c5c(F)c(F)c(F)c(F)c5F)c5ccc([nH]5)c(-c5c(F)c(F)c(F)c(F)c5F)c5nc(c(-c6c(F)c(F)c(F)c(F)c6F)c6ccc3[nH]6)C=C5)C=C4)cc2)CC[C@@H](OC2CCC2)C1
REMARK SMILES IDX 10 1 9 2 8 3 7 4 6 5 4 6 5 7 3 8 81 9 89 10 82 11 83 12 2 13
REMARK SMILES IDX 1 14 84 17 85 18 86 19 88 20 87 21 11 22 12 23 13 24 14 25
REMARK SMILES IDX 15 26 16 27 17 28 18 29 19 30 80 31 20 32 79 33 21 34 22 35
REMARK SMILES IDX 23 36 73 37 24 38 78 39 72 40 74 41 25 42 77 43 71 44 70 45
REMARK SMILES IDX 26 47 58 48 38 49 57 50 39 51 42 52 56 53 75 54 40 55 41 56
REMARK SMILES IDX 55 58 76 59 43 60 27 61 28 62 36 63 29 64 30 65 34 66 37 67
REMARK SMILES IDX 31 68 32 69 35 70 33 71 59 72 60 73 68 74 61 75 62 76 66 77
REMARK SMILES IDX 69 78 63 79 64 80 67 81 65 82 44 83 45 84 53 85 46 86 47 87
REMARK SMILES IDX 51 88 54 89 48 90 49 91 52 92 50 93
REMARK H PARENT 2 15 2 16 74 46 42 57
REMARK Flexibility Score: inf
ROOT
ATOM      1  C   UNL A   1      34.122  31.196  27.803  1.00  0.00     0.188 C 
ENDROOT
BRANCH   1   2
ATOM      2  O   UNL A   1      33.109  30.825  26.884  1.00  0.00    -0.376 OA
BRANCH   2   3
ATOM      3  C   UNL A   1      32.251  29.737  27.224  1.00  0.00     0.202 C 
BRANCH   3   4
ATOM      4  C   UNL A   1      32.854  28.333  27.421  1.00  0.00     0.261 C 
BRANCH   4   5
ATOM      5  O   UNL A   1      32.951  27.525  26.223  1.00  0.00    -0.459 OA
BRANCH   5   6
ATOM      6  C   UNL A   1      31.883  26.724  25.959  1.00  0.00     0.368 C 
ATOM      7  O   UNL A   1      31.190  26.218  26.840  1.00  0.00    -0.245 OA
BRANCH   6   8
ATOM      8  C   UNL A   1      31.536  26.571  24.424  1.00  0.00     0.196 C 
ATOM      9  C   UNL A   1      32.567  27.459  23.697  1.00  0.00     0.084 C 
ATOM     10  C   UNL A   1      30.186  27.157  23.941  1.00  0.00     0.113 C 
ATOM     11  C   UNL A   1      31.934  28.851  23.717  1.00  0.00     0.039 C 
ATOM     12  C   UNL A   1      30.452  28.598  23.509  1.00  0.00     0.125 C 
BRANCH   8  13
ATOM     13  N   UNL A   1      31.692  25.115  24.157  1.00  0.00    -0.334 N 
ATOM     14  C   UNL A   1      33.014  24.586  23.892  1.00  0.00     0.331 C 
ATOM     15  H   UNL A   1      31.331  24.621  24.974  1.00  0.00     0.347 HD
ATOM     16  H   UNL A   1      31.191  24.971  23.280  1.00  0.00     0.347 HD
ENDBRANCH   8  13
BRANCH  12  17
ATOM     17  O   UNL A   1      29.868  28.990  22.276  1.00  0.00    -0.375 OA
BRANCH  17  18
ATOM     18  C   UNL A   1      28.752  29.872  22.027  1.00  0.00     0.118 C 
ATOM     19  C   UNL A   1      27.503  29.931  22.916  1.00  0.00     0.032 C 
ATOM     20  C   UNL A   1      28.908  31.395  22.152  1.00  0.00     0.032 C 
ATOM     21  C   UNL A   1      27.620  31.458  22.982  1.00  0.00     0.005 C 
ENDBRANCH  17  18
ENDBRANCH  12  17
ENDBRANCH   6   8
ENDBRANCH   5   6
ENDBRANCH   4   5
ENDBRANCH   3   4
ENDBRANCH   2   3
ENDBRANCH   1   2
BRANCH   1  22
ATOM     22  C   UNL A   1      34.549  32.666  27.863  1.00  0.00     0.188 C 
BRANCH  22  23
ATOM     23  O   UNL A   1      33.783  33.474  28.726  1.00  0.00    -0.376 OA
BRANCH  23  24
ATOM     24  C   UNL A   1      34.456  34.291  29.675  1.00  0.00     0.202 C 
BRANCH  24  25
ATOM     25  C   UNL A   1      34.379  33.895  31.164  1.00  0.00     0.261 C 
BRANCH  25  26
ATOM     26  O   UNL A   1      34.675  32.520  31.478  1.00  0.00    -0.460 OA
BRANCH  26  27
ATOM     27  C   UNL A   1      35.611  32.282  32.429  1.00  0.00     0.338 C 
ATOM     28  O   UNL A   1      35.479  32.413  33.634  1.00  0.00    -0.246 OA
BRANCH  27  29
ATOM     29  C   UNL A   1      36.729  31.546  31.779  1.00  0.00     0.060 A 
ATOM     30  C   UNL A   1      37.736  30.994  32.590  1.00  0.00     0.016 A 
ATOM     31  C   UNL A   1      36.746  31.326  30.400  1.00  0.00     0.016 A 
ATOM     32  C   UNL A   1      38.776  30.255  32.021  1.00  0.00     0.010 A 
ATOM     33  C   UNL A   1      37.803  30.608  29.828  1.00  0.00     0.010 A 
ATOM     34  C   UNL A   1      38.839  30.096  30.630  1.00  0.00    -0.014 A 
BRANCH  34  35
ATOM     35  C   UNL A   1      40.085  29.599  29.989  1.00  0.00     0.031 A 
ATOM     36  C   UNL A   1      41.221  30.571  29.811  1.00  0.00     0.074 A 
ATOM     37  C   UNL A   1      40.222  28.329  29.567  1.00  0.00     0.049 A 
ATOM     38  N   UNL A   1      42.368  30.417  29.202  1.00  0.00    -0.248 NA
ATOM     39  C   UNL A   1      41.028  31.905  30.402  1.00  0.00     0.031 C 
ATOM     40  C   UNL A   1      39.227  27.272  29.719  1.00  0.00     0.029 A 
ATOM     41  N   UNL A   1      41.262  27.721  28.905  1.00  0.00    -0.354 N 
ATOM     42  C   UNL A   1      43.025  31.634  29.325  1.00  0.00     0.074 A 
ATOM     43  C   UNL A   1      42.140  32.525  30.042  1.00  0.00     0.031 C 
ATOM     44  C   UNL A   1      39.696  26.148  29.148  1.00  0.00     0.029 A 
ATOM     45  C   UNL A   1      41.007  26.416  28.558  1.00  0.00     0.049 A 
ATOM     46  H   UNL A   1      42.110  28.177  28.700  1.00  0.00     0.167 HD
ATOM     47  C   UNL A   1      44.259  31.978  28.888  1.00  0.00     0.037 A 
ATOM     48  C   UNL A   1      41.737  25.552  27.822  1.00  0.00     0.037 A 
ATOM     49  C   UNL A   1      45.141  31.096  28.170  1.00  0.00     0.049 A 
ATOM     50  C   UNL A   1      43.072  25.987  27.266  1.00  0.00     0.074 A 
ATOM     51  C   UNL A   1      46.417  31.350  27.697  1.00  0.00     0.029 A 
ATOM     52  N   UNL A   1      44.833  29.793  27.810  1.00  0.00    -0.354 N 
ATOM     53  N   UNL A   1      43.699  27.130  27.406  1.00  0.00    -0.248 NA
ATOM     54  C   UNL A   1      43.804  25.005  26.450  1.00  0.00     0.031 C 
ATOM     55  C   UNL A   1      46.856  30.222  26.999  1.00  0.00     0.029 A 
ATOM     56  C   UNL A   1      45.884  29.240  27.096  1.00  0.00     0.049 A 
ATOM     57  H   UNL A   1      43.993  29.329  28.030  1.00  0.00     0.167 HD
ATOM     58  C   UNL A   1      44.907  26.993  26.729  1.00  0.00     0.074 A 
ATOM     59  C   UNL A   1      44.931  25.652  26.189  1.00  0.00     0.031 C 
ATOM     60  C   UNL A   1      45.906  27.897  26.573  1.00  0.00     0.037 A 
BRANCH  47  61
ATOM     61  C   UNL A   1      44.716  33.386  29.143  1.00  0.00     0.064 A 
ATOM     62  C   UNL A   1      44.591  34.391  28.172  1.00  0.00     0.173 A 
ATOM     63  C   UNL A   1      45.260  33.739  30.387  1.00  0.00     0.173 A 
ATOM     64  F   UNL A   1      44.094  34.101  26.959  1.00  0.00    -0.203 F 
ATOM     65  C   UNL A   1      45.021  35.690  28.427  1.00  0.00     0.198 A 
ATOM     66  C   UNL A   1      45.658  35.046  30.650  1.00  0.00     0.198 A 
ATOM     67  F   UNL A   1      45.399  32.816  31.351  1.00  0.00    -0.203 F 
ATOM     68  F   UNL A   1      44.942  36.621  27.466  1.00  0.00    -0.200 F 
ATOM     69  C   UNL A   1      45.546  36.019  29.668  1.00  0.00     0.200 A 
ATOM     70  F   UNL A   1      46.151  35.364  31.855  1.00  0.00    -0.200 F 
ATOM     71  F   UNL A   1      45.952  37.272  29.916  1.00  0.00    -0.200 F 
ENDBRANCH  47  61
BRANCH  48  72
ATOM     72  C   UNL A   1      41.217  24.185  27.540  1.00  0.00     0.064 A 
ATOM     73  C   UNL A   1      41.815  23.052  28.109  1.00  0.00     0.173 A 
ATOM     74  C   UNL A   1      40.142  23.982  26.663  1.00  0.00     0.173 A 
ATOM     75  F   UNL A   1      42.869  23.190  28.927  1.00  0.00    -0.203 F 
ATOM     76  C   UNL A   1      41.371  21.768  27.796  1.00  0.00     0.198 A 
ATOM     77  C   UNL A   1      39.678  22.700  26.375  1.00  0.00     0.198 A 
ATOM     78  F   UNL A   1      39.541  25.030  26.081  1.00  0.00    -0.203 F 
ATOM     79  F   UNL A   1      41.999  20.701  28.308  1.00  0.00    -0.200 F 
ATOM     80  C   UNL A   1      40.299  21.593  26.934  1.00  0.00     0.200 A 
ATOM     81  F   UNL A   1      38.637  22.536  25.546  1.00  0.00    -0.200 F 
ATOM     82  F   UNL A   1      39.874  20.359  26.631  1.00  0.00    -0.200 F 
ENDBRANCH  48  72
BRANCH  60  83
ATOM     83  C   UNL A   1      47.138  27.457  25.830  1.00  0.00     0.064 A 
ATOM     84  C   UNL A   1      48.203  26.811  26.474  1.00  0.00     0.173 A 
ATOM     85  C   UNL A   1      47.229  27.641  24.440  1.00  0.00     0.173 A 
ATOM     86  F   UNL A   1      48.172  26.619  27.801  1.00  0.00    -0.203 F 
ATOM     87  C   UNL A   1      49.324  26.393  25.762  1.00  0.00     0.198 A 
ATOM     88  C   UNL A   1      48.336  27.189  23.726  1.00  0.00     0.198 A 
ATOM     89  F   UNL A   1      46.235  28.243  23.771  1.00  0.00    -0.203 F 
ATOM     90  F   UNL A   1      50.352  25.822  26.407  1.00  0.00    -0.200 F 
ATOM     91  C   UNL A   1      49.386  26.574  24.388  1.00  0.00     0.200 A 
ATOM     92  F   UNL A   1      48.384  27.350  22.397  1.00  0.00    -0.200 F 
ATOM     93  F   UNL A   1      50.461  26.160  23.703  1.00  0.00    -0.200 F 
ENDBRANCH  60  83
ENDBRANCH  34  35
ENDBRANCH  27  29
ENDBRANCH  26  27
ENDBRANCH  25  26
ENDBRANCH  24  25
ENDBRANCH  23  24
ENDBRANCH  22  23
ENDBRANCH   1  22
TORSDOF 20
ENDMDL
MODEL 2
REMARK VINA RESULT:     -10.3      4.489      6.979
REMARK SMILES C[NH2+][C@@]1(C(=O)OCCOCCOCCOC(=O)c2ccc(-c3c4nc(c(-c5c(F)c(F)c(F)c(F)c5F)c5ccc([nH]5)c(-c5c(F)c(F)c(F)c(F)c5F)c5nc(c(-c6c(F)c(F)c(F)c(F)c6F)c6ccc3[nH]6)C=C5)C=C4)cc2)CC[C@@H](OC2CCC2)C1
REMARK SMILES IDX 10 1 9 2 8 3 7 4 6 5 4 6 5 7 3 8 81 9 89 10 82 11 83 12 2 13
REMARK SMILES IDX 1 14 84 17 85 18 86 19 88 20 87 21 11 22 12 23 13 24 14 25
REMARK SMILES IDX 15 26 16 27 17 28 18 29 19 30 80 31 20 32 79 33 21 34 22 35
REMARK SMILES IDX 23 36 73 37 24 38 78 39 72 40 74 41 25 42 77 43 71 44 70 45
REMARK SMILES IDX 26 47 58 48 38 49 57 50 39 51 42 52 56 53 75 54 40 55 41 56
REMARK SMILES IDX 55 58 76 59 43 60 27 61 28 62 36 63 29 64 30 65 34 66 37 67
REMARK SMILES IDX 31 68 32 69 35 70 33 71 59 72 60 73 68 74 61 75 62 76 66 77
REMARK SMILES IDX 69 78 63 79 64 80 67 81 65 82 44 83 45 84 53 85 46 86 47 87
REMARK SMILES IDX 51 88 54 89 48 90 49 91 52 92 50 93
REMARK H PARENT 2 15 2 16 74 46 42 57
REMARK Flexibility Score: inf
ROOT
ATOM      1  C   UNL A   1      34.665  29.496  27.035  1.00  0.00     0.188 C 
ENDROOT
BRANCH   1   2
ATOM      2  O   UNL A   1      34.153  28.650  26.019  1.00  0.00    -0.376 OA
BRANCH   2   3
ATOM      3  C   UNL A   1      33.487  27.450  26.408  1.00  0.00     0.202 C 
BRANCH   3   4
ATOM      4  C   UNL A   1      33.940  26.106  25.805  1.00  0.00     0.261 C 
BRANCH   4   5
ATOM      5  O   UNL A   1      33.855  26.014  24.362  1.00  0.00    -0.459 OA
BRANCH   5   6
ATOM      6  C   UNL A   1      32.608  25.825  23.851  1.00  0.00     0.368 C 
ATOM      7  O   UNL A   1      31.718  25.229  24.456  1.00  0.00    -0.245 OA
BRANCH   6   8
ATOM      8  C   UNL A   1      32.354  26.522  22.455  1.00  0.00     0.196 C 
ATOM      9  C   UNL A   1      33.111  27.863  22.540  1.00  0.00     0.084 C 
ATOM     10  C   UNL A   1      30.905  26.971  22.139  1.00  0.00     0.113 C 
ATOM     11  C   UNL A   1      32.112  28.808  23.209  1.00  0.00     0.039 C 
ATOM     12  C   UNL A   1      30.766  28.410  22.631  1.00  0.00     0.125 C 
BRANCH   8  13
ATOM     13  N   UNL A   1      32.919  25.566  21.462  1.00  0.00    -0.334 N 
ATOM     14  C   UNL A   1      32.463  25.628  20.088  1.00  0.00     0.331 C 
ATOM     15  H   UNL A   1      33.929  25.712  21.448  1.00  0.00     0.347 HD
ATOM     16  H   UNL A   1      32.594  24.655  21.786  1.00  0.00     0.347 HD
ENDBRANCH   8  13
BRANCH  12  17
ATOM     17  O   UNL A   1      30.126  29.308  21.737  1.00  0.00    -0.375 OA
BRANCH  17  18
ATOM     18  C   UNL A   1      29.149  30.336  22.011  1.00  0.00     0.118 C 
ATOM     19  C   UNL A   1      27.655  30.053  22.219  1.00  0.00     0.032 C 
ATOM     20  C   UNL A   1      29.180  31.122  23.330  1.00  0.00     0.032 C 
ATOM     21  C   UNL A   1      27.673  30.896  23.499  1.00  0.00     0.005 C 
ENDBRANCH  17  18
ENDBRANCH  12  17
ENDBRANCH   6   8
ENDBRANCH   5   6
ENDBRANCH   4   5
ENDBRANCH   3   4
ENDBRANCH   2   3
ENDBRANCH   1   2
BRANCH   1  22
ATOM     22  C   UNL A   1      33.773  30.625  27.560  1.00  0.00     0.188 C 
BRANCH  22  23
ATOM     23  O   UNL A   1      32.558  30.794  26.870  1.00  0.00    -0.376 OA
BRANCH  23  24
ATOM     24  C   UNL A   1      32.046  32.108  26.695  1.00  0.00     0.202 C 
BRANCH  24  25
ATOM     25  C   UNL A   1      32.157  33.098  27.873  1.00  0.00     0.261 C 
BRANCH  25  26
ATOM     26  O   UNL A   1      32.705  34.396  27.570  1.00  0.00    -0.460 OA
BRANCH  26  27
ATOM     27  C   UNL A   1      33.025  35.200  28.614  1.00  0.00     0.338 C 
ATOM     28  O   UNL A   1      32.371  36.135  29.045  1.00  0.00    -0.246 OA
BRANCH  27  29
ATOM     29  C   UNL A   1      34.159  34.562  29.335  1.00  0.00     0.060 A 
ATOM     30  C   UNL A   1      35.419  34.523  28.713  1.00  0.00     0.016 A 
ATOM     31  C   UNL A   1      34.010  34.083  30.639  1.00  0.00     0.016 A 
ATOM     32  C   UNL A   1      36.519  33.975  29.379  1.00  0.00     0.010 A 
ATOM     33  C   UNL A   1      35.106  33.510  31.294  1.00  0.00     0.010 A 
ATOM     34  C   UNL A   1      36.358  33.424  30.657  1.00  0.00    -0.014 A 
BRANCH  34  35
ATOM     35  C   UNL A   1      37.420  32.563  31.240  1.00  0.00     0.031 A 
ATOM     36  C   UNL A   1      37.921  32.901  32.619  1.00  0.00     0.074 A 
ATOM     37  C   UNL A   1      37.939  31.511  30.581  1.00  0.00     0.049 A 
ATOM     38  N   UNL A   1      38.899  32.372  33.309  1.00  0.00    -0.248 NA
ATOM     39  C   UNL A   1      37.221  33.995  33.312  1.00  0.00     0.031 C 
ATOM     40  C   UNL A   1      37.516  31.041  29.266  1.00  0.00     0.029 A 
ATOM     41  N   UNL A   1      38.956  30.656  30.935  1.00  0.00    -0.354 N 
ATOM     42  C   UNL A   1      38.937  33.074  34.506  1.00  0.00     0.074 A 
ATOM     43  C   UNL A   1      37.906  34.086  34.439  1.00  0.00     0.031 C 
ATOM     44  C   UNL A   1      38.281  29.992  28.913  1.00  0.00     0.029 A 
ATOM     45  C   UNL A   1      39.272  29.742  29.959  1.00  0.00     0.049 A 
ATOM     46  H   UNL A   1      39.415  30.695  31.805  1.00  0.00     0.167 HD
ATOM     47  C   UNL A   1      39.754  32.889  35.570  1.00  0.00     0.037 A 
ATOM     48  C   UNL A   1      40.266  28.831  29.909  1.00  0.00     0.037 A 
ATOM     49  C   UNL A   1      40.785  31.888  35.638  1.00  0.00     0.049 A 
ATOM     50  C   UNL A   1      41.222  28.703  31.070  1.00  0.00     0.074 A 
ATOM     51  C   UNL A   1      41.654  31.615  36.680  1.00  0.00     0.029 A 
ATOM     52  N   UNL A   1      41.093  31.002  34.617  1.00  0.00    -0.354 N 
ATOM     53  N   UNL A   1      41.240  29.353  32.209  1.00  0.00    -0.248 NA
ATOM     54  C   UNL A   1      42.299  27.709  30.939  1.00  0.00     0.031 C 
ATOM     55  C   UNL A   1      42.527  30.605  36.267  1.00  0.00     0.029 A 
ATOM     56  C   UNL A   1      42.159  30.201  34.994  1.00  0.00     0.049 A 
ATOM     57  H   UNL A   1      40.625  30.950  33.753  1.00  0.00     0.167 HD
ATOM     58  C   UNL A   1      42.300  28.825  32.939  1.00  0.00     0.074 A 
ATOM     59  C   UNL A   1      42.895  27.792  32.119  1.00  0.00     0.031 C 
ATOM     60  C   UNL A   1      42.738  29.164  34.176  1.00  0.00     0.037 A 
BRANCH  47  61
ATOM     61  C   UNL A   1      39.588  33.818  36.738  1.00  0.00     0.064 A 
ATOM     62  C   UNL A   1      40.195  35.083  36.769  1.00  0.00     0.173 A 
ATOM     63  C   UNL A   1      38.788  33.448  37.830  1.00  0.00     0.173 A 
ATOM     64  F   UNL A   1      40.984  35.479  35.758  1.00  0.00    -0.203 F 
ATOM     65  C   UNL A   1      40.030  35.930  37.861  1.00  0.00     0.198 A 
ATOM     66  C   UNL A   1      38.598  34.311  38.905  1.00  0.00     0.198 A 
ATOM     67  F   UNL A   1      38.183  32.250  37.850  1.00  0.00    -0.203 F 
ATOM     68  F   UNL A   1      40.662  37.112  37.892  1.00  0.00    -0.200 F 
ATOM     69  C   UNL A   1      39.225  35.548  38.924  1.00  0.00     0.200 A 
ATOM     70  F   UNL A   1      37.809  33.944  39.924  1.00  0.00    -0.200 F 
ATOM     71  F   UNL A   1      39.060  36.367  39.971  1.00  0.00    -0.200 F 
ENDBRANCH  47  61
BRANCH  48  72
ATOM     72  C   UNL A   1      40.432  27.972  28.703  1.00  0.00     0.064 A 
ATOM     73  C   UNL A   1      41.187  28.406  27.604  1.00  0.00     0.173 A 
ATOM     74  C   UNL A   1      39.805  26.721  28.608  1.00  0.00     0.173 A 
ATOM     75  F   UNL A   1      41.778  29.610  27.631  1.00  0.00    -0.203 F 
ATOM     76  C   UNL A   1      41.291  27.631  26.449  1.00  0.00     0.198 A 
ATOM     77  C   UNL A   1      39.936  25.934  27.466  1.00  0.00     0.198 A 
ATOM     78  F   UNL A   1      39.061  26.263  29.625  1.00  0.00    -0.203 F 
ATOM     79  F   UNL A   1      41.970  28.097  25.392  1.00  0.00    -0.200 F 
ATOM     80  C   UNL A   1      40.670  26.393  26.384  1.00  0.00     0.200 A 
ATOM     81  F   UNL A   1      39.339  24.734  27.410  1.00  0.00    -0.200 F 
ATOM     82  F   UNL A   1      40.769  25.651  25.273  1.00  0.00    -0.200 F 
ENDBRANCH  48  72
BRANCH  60  83
ATOM     83  C   UNL A   1      43.886  28.381  34.751  1.00  0.00     0.064 A 
ATOM     84  C   UNL A   1      45.215  28.814  34.631  1.00  0.00     0.173 A 
ATOM     85  C   UNL A   1      43.646  27.204  35.479  1.00  0.00     0.173 A 
ATOM     86  F   UNL A   1      45.503  29.925  33.937  1.00  0.00    -0.203 F 
ATOM     87  C   UNL A   1      46.261  28.084  35.190  1.00  0.00     0.198 A 
ATOM     88  C   UNL A   1      44.690  26.496  36.068  1.00  0.00     0.198 A 
ATOM     89  F   UNL A   1      42.394  26.750  35.636  1.00  0.00    -0.203 F 
ATOM     90  F   UNL A   1      47.527  28.490  35.019  1.00  0.00    -0.200 F 
ATOM     91  C   UNL A   1      45.997  26.931  35.916  1.00  0.00     0.200 A 
ATOM     92  F   UNL A   1      44.430  25.393  36.782  1.00  0.00    -0.200 F 
ATOM     93  F   UNL A   1      47.004  26.235  36.463  1.00  0.00    -0.200 F 
ENDBRANCH  60  83
ENDBRANCH  34  35
ENDBRANCH  27  29
ENDBRANCH  26  27
ENDBRANCH  25  26
ENDBRANCH  24  25
ENDBRANCH  23  24
ENDBRANCH  22  23
ENDBRANCH   1  22
TORSDOF 20
ENDMDL
MODEL 3
REMARK VINA RESULT:     -10.3      3.165      8.585
REMARK SMILES C[NH2+][C@@]1(C(=O)OCCOCCOCCOC(=O)c2ccc(-c3c4nc(c(-c5c(F)c(F)c(F)c(F)c5F)c5ccc([nH]5)c(-c5c(F)c(F)c(F)c(F)c5F)c5nc(c(-c6c(F)c(F)c(F)c(F)c6F)c6ccc3[nH]6)C=C5)C=C4)cc2)CC[C@@H](OC2CCC2)C1
REMARK SMILES IDX 10 1 9 2 8 3 7 4 6 5 4 6 5 7 3 8 81 9 89 10 82 11 83 12 2 13
REMARK SMILES IDX 1 14 84 17 85 18 86 19 88 20 87 21 11 22 12 23 13 24 14 25
REMARK SMILES IDX 15 26 16 27 17 28 18 29 19 30 80 31 20 32 79 33 21 34 22 35
REMARK SMILES IDX 23 36 73 37 24 38 78 39 72 40 74 41 25 42 77 43 71 44 70 45
REMARK SMILES IDX 26 47 58 48 38 49 57 50 39 51 42 52 56 53 75 54 40 55 41 56
REMARK SMILES IDX 55 58 76 59 43 60 27 61 28 62 36 63 29 64 30 65 34 66 37 67
REMARK SMILES IDX 31 68 32 69 35 70 33 71 59 72 60 73 68 74 61 75 62 76 66 77
REMARK SMILES IDX 69 78 63 79 64 80 67 81 65 82 44 83 45 84 53 85 46 86 47 87
REMARK SMILES IDX 51 88 54 89 48 90 49 91 52 92 50 93
REMARK H PARENT 2 15 2 16 74 46 42 57
REMARK Flexibility Score: inf
ROOT
ATOM      1  C   UNL A   1      36.348  23.335  24.279  1.00  0.00     0.188 C 
ENDROOT
BRANCH   1   2
ATOM      2  O   UNL A   1      34.963  23.563  24.074  1.00  0.00    -0.376 OA
BRANCH   2   3
ATOM      3  C   UNL A   1      34.132  23.756  25.217  1.00  0.00     0.202 C 
BRANCH   3   4
ATOM      4  C   UNL A   1      33.905  25.183  25.754  1.00  0.00     0.261 C 
BRANCH   4   5
ATOM      5  O   UNL A   1      32.761  25.879  25.202  1.00  0.00    -0.459 OA
BRANCH   5   6
ATOM      6  C   UNL A   1      33.037  26.817  24.255  1.00  0.00     0.368 C 
ATOM      7  O   UNL A   1      33.906  26.669  23.397  1.00  0.00    -0.245 OA
BRANCH   6   8
ATOM      8  C   UNL A   1      32.081  28.076  24.277  1.00  0.00     0.196 C 
ATOM      9  C   UNL A   1      30.709  27.523  24.710  1.00  0.00     0.084 C 
ATOM     10  C   UNL A   1      31.761  28.746  22.916  1.00  0.00     0.113 C 
ATOM     11  C   UNL A   1      30.074  27.045  23.404  1.00  0.00     0.039 C 
ATOM     12  C   UNL A   1      30.499  28.077  22.374  1.00  0.00     0.125 C 
BRANCH   8  13
ATOM     13  N   UNL A   1      32.709  28.994  25.267  1.00  0.00    -0.334 N 
ATOM     14  C   UNL A   1      31.939  30.109  25.778  1.00  0.00     0.331 C 
ATOM     15  H   UNL A   1      32.980  28.426  26.070  1.00  0.00     0.347 HD
ATOM     16  H   UNL A   1      33.465  29.438  24.746  1.00  0.00     0.347 HD
ENDBRANCH   8  13
BRANCH  12  17
ATOM     17  O   UNL A   1      29.513  28.953  21.853  1.00  0.00    -0.375 OA
BRANCH  17  18
ATOM     18  C   UNL A   1      29.254  30.339  22.170  1.00  0.00     0.118 C 
ATOM     19  C   UNL A   1      28.024  31.108  21.672  1.00  0.00     0.032 C 
ATOM     20  C   UNL A   1      28.938  30.773  23.609  1.00  0.00     0.032 C 
ATOM     21  C   UNL A   1      27.750  31.596  23.099  1.00  0.00     0.005 C 
ENDBRANCH  17  18
ENDBRANCH  12  17
ENDBRANCH   6   8
ENDBRANCH   5   6
ENDBRANCH   4   5
ENDBRANCH   3   4
ENDBRANCH   2   3
ENDBRANCH   1   2
BRANCH   1  22
ATOM     22  C   UNL A   1      36.768  22.176  25.188  1.00  0.00     0.188 C 
BRANCH  22  23
ATOM     23  O   UNL A   1      37.783  21.350  24.668  1.00  0.00    -0.376 OA
BRANCH  23  24
ATOM     24  C   UNL A   1      37.697  19.946  24.877  1.00  0.00     0.202 C 
BRANCH  24  25
ATOM     25  C   UNL A   1      38.952  19.204  25.382  1.00  0.00     0.261 C 
BRANCH  25  26
ATOM     26  O   UNL A   1      39.840  19.954  26.234  1.00  0.00    -0.460 OA
BRANCH  26  27
ATOM     27  C   UNL A   1      41.162  19.662  26.172  1.00  0.00     0.338 C 
ATOM     28  O   UNL A   1      41.665  18.636  25.748  1.00  0.00    -0.246 OA
BRANCH  27  29
ATOM     29  C   UNL A   1      41.909  20.924  26.427  1.00  0.00     0.060 A 
ATOM     30  C   UNL A   1      42.254  21.249  27.750  1.00  0.00     0.016 A 
ATOM     31  C   UNL A   1      42.338  21.735  25.374  1.00  0.00     0.016 A 
ATOM     32  C   UNL A   1      42.996  22.401  28.024  1.00  0.00     0.010 A 
ATOM     33  C   UNL A   1      43.059  22.902  25.653  1.00  0.00     0.010 A 
ATOM     34  C   UNL A   1      43.365  23.258  26.979  1.00  0.00    -0.014 A 
BRANCH  34  35
ATOM     35  C   UNL A   1      43.865  24.626  27.274  1.00  0.00     0.031 A 
ATOM     36  C   UNL A   1      42.874  25.647  27.766  1.00  0.00     0.074 A 
ATOM     37  C   UNL A   1      45.155  24.973  27.114  1.00  0.00     0.049 A 
ATOM     38  N   UNL A   1      43.032  26.924  28.002  1.00  0.00    -0.248 NA
ATOM     39  C   UNL A   1      41.510  25.154  28.021  1.00  0.00     0.031 C 
ATOM     40  C   UNL A   1      46.229  24.078  26.694  1.00  0.00     0.029 A 
ATOM     41  N   UNL A   1      45.773  26.191  27.274  1.00  0.00    -0.354 N 
ATOM     42  C   UNL A   1      41.791  27.386  28.419  1.00  0.00     0.074 A 
ATOM     43  C   UNL A   1      40.882  26.262  28.378  1.00  0.00     0.031 C 
ATOM     44  C   UNL A   1      47.373  24.781  26.610  1.00  0.00     0.029 A 
ATOM     45  C   UNL A   1      47.104  26.182  26.933  1.00  0.00     0.049 A 
ATOM     46  H   UNL A   1      45.307  26.993  27.602  1.00  0.00     0.167 HD
ATOM     47  C   UNL A   1      41.439  28.634  28.810  1.00  0.00     0.037 A 
ATOM     48  C   UNL A   1      47.991  27.196  26.862  1.00  0.00     0.037 A 
ATOM     49  C   UNL A   1      42.339  29.756  28.848  1.00  0.00     0.049 A 
ATOM     50  C   UNL A   1      47.554  28.598  27.216  1.00  0.00     0.074 A 
ATOM     51  C   UNL A   1      42.079  31.057  29.242  1.00  0.00     0.029 A 
ATOM     52  N   UNL A   1      43.671  29.713  28.465  1.00  0.00    -0.354 N 
ATOM     53  N   UNL A   1      46.386  29.025  27.633  1.00  0.00    -0.248 NA
ATOM     54  C   UNL A   1      48.564  29.661  27.092  1.00  0.00     0.031 C 
ATOM     55  C   UNL A   1      43.236  31.814  29.041  1.00  0.00     0.029 A 
ATOM     56  C   UNL A   1      44.237  30.972  28.587  1.00  0.00     0.049 A 
ATOM     57  H   UNL A   1      44.144  28.909  28.153  1.00  0.00     0.167 HD
ATOM     58  C   UNL A   1      46.531  30.391  27.852  1.00  0.00     0.074 A 
ATOM     59  C   UNL A   1      47.903  30.721  27.534  1.00  0.00     0.031 C 
ATOM     60  C   UNL A   1      45.610  31.289  28.281  1.00  0.00     0.037 A 
BRANCH  47  61
ATOM     61  C   UNL A   1      40.006  28.860  29.195  1.00  0.00     0.064 A 
ATOM     62  C   UNL A   1      39.029  29.194  28.244  1.00  0.00     0.173 A 
ATOM     63  C   UNL A   1      39.599  28.712  30.529  1.00  0.00     0.173 A 
ATOM     64  F   UNL A   1      39.369  29.365  26.957  1.00  0.00    -0.203 F 
ATOM     65  C   UNL A   1      37.705  29.400  28.621  1.00  0.00     0.198 A 
ATOM     66  C   UNL A   1      38.268  28.886  30.897  1.00  0.00     0.198 A 
ATOM     67  F   UNL A   1      40.492  28.391  31.477  1.00  0.00    -0.203 F 
ATOM     68  F   UNL A   1      36.799  29.772  27.705  1.00  0.00    -0.200 F 
ATOM     69  C   UNL A   1      37.323  29.238  29.944  1.00  0.00     0.200 A 
ATOM     70  F   UNL A   1      37.900  28.714  32.173  1.00  0.00    -0.200 F 
ATOM     71  F   UNL A   1      36.047  29.428  30.304  1.00  0.00    -0.200 F 
ENDBRANCH  47  61
BRANCH  48  72
ATOM     72  C   UNL A   1      49.388  26.938  26.415  1.00  0.00     0.064 A 
ATOM     73  C   UNL A   1      49.741  27.016  25.060  1.00  0.00     0.173 A 
ATOM     74  C   UNL A   1      50.387  26.565  27.326  1.00  0.00     0.173 A 
ATOM     75  F   UNL A   1      48.814  27.335  24.145  1.00  0.00    -0.203 F 
ATOM     76  C   UNL A   1      51.033  26.712  24.632  1.00  0.00     0.198 A 
ATOM     77  C   UNL A   1      51.686  26.292  26.901  1.00  0.00     0.198 A 
ATOM     78  F   UNL A   1      50.102  26.462  28.633  1.00  0.00    -0.203 F 
ATOM     79  F   UNL A   1      51.326  26.738  23.325  1.00  0.00    -0.200 F 
ATOM     80  C   UNL A   1      52.006  26.356  25.554  1.00  0.00     0.200 A 
ATOM     81  F   UNL A   1      52.625  25.955  27.796  1.00  0.00    -0.200 F 
ATOM     82  F   UNL A   1      53.245  26.062  25.141  1.00  0.00    -0.200 F 
ENDBRANCH  48  72
BRANCH  60  83
ATOM     83  C   UNL A   1      46.060  32.710  28.484  1.00  0.00     0.064 A 
ATOM     84  C   UNL A   1      46.582  33.157  29.706  1.00  0.00     0.173 A 
ATOM     85  C   UNL A   1      46.014  33.626  27.419  1.00  0.00     0.173 A 
ATOM     86  F   UNL A   1      46.640  32.328  30.759  1.00  0.00    -0.203 F 
ATOM     87  C   UNL A   1      47.014  34.472  29.865  1.00  0.00     0.198 A 
ATOM     88  C   UNL A   1      46.480  34.929  27.571  1.00  0.00     0.198 A 
ATOM     89  F   UNL A   1      45.535  33.250  26.224  1.00  0.00    -0.203 F 
ATOM     90  F   UNL A   1      47.463  34.889  31.057  1.00  0.00    -0.200 F 
ATOM     91  C   UNL A   1      46.971  35.354  28.795  1.00  0.00     0.200 A 
ATOM     92  F   UNL A   1      46.452  35.773  26.531  1.00  0.00    -0.200 F 
ATOM     93  F   UNL A   1      47.396  36.616  28.946  1.00  0.00    -0.200 F 
ENDBRANCH  60  83
ENDBRANCH  34  35
ENDBRANCH  27  29
ENDBRANCH  26  27
ENDBRANCH  25  26
ENDBRANCH  24  25
ENDBRANCH  23  24
ENDBRANCH  22  23
ENDBRANCH   1  22
TORSDOF 20
ENDMDL
