MODEL 1
REMARK VINA RESULT:     -11.5      0.000      0.000
REMARK SMILES COc1cccc([C@H]2CC(c3ccc(S(C)(=O)=O)cc3)=NN2c2ccc(C(=O)OCCOCCOCCOC(=O)c3ccc(-c4c5nc(c(-c6c(F)c(F)c(F)c(F)c6F)c6ccc([nH]6)c(-c6c(F)c(F)c(F)c(F)c6F)c6nc(c(-c7c(F)c(F)c(F)c(F)c7F)c7ccc4[nH]7)C=C6)C=C5)cc3)cc2)c1
REMARK SMILES IDX 33 1 32 2 31 3 30 4 29 5 27 6 28 7 26 8 23 9 24 10 105 11
REMARK SMILES IDX 25 12 104 13 22 14 8 15 9 16 10 17 21 18 7 19 3 20 4 21
REMARK SMILES IDX 106 22 5 23 6 24 2 25 1 26 11 27 12 28 20 29 13 30 19 31
REMARK SMILES IDX 14 32 15 33 16 34 17 35 18 36 34 37 35 38 36 39 37 40 38 41
REMARK SMILES IDX 39 42 40 43 41 44 42 45 103 46 43 47 102 48 44 49 45 50
REMARK SMILES IDX 46 51 96 52 47 53 101 54 95 55 97 56 48 57 100 58 94 59
REMARK SMILES IDX 93 60 49 62 81 63 61 64 80 65 62 66 65 67 79 68 98 69 63 70
REMARK SMILES IDX 64 71 78 73 99 74 66 75 50 76 51 77 59 78 52 79 53 80 57 81
REMARK SMILES IDX 60 82 54 83 55 84 58 85 56 86 82 87 83 88 91 89 84 90 85 91
REMARK SMILES IDX 89 92 92 93 86 94 87 95 90 96 88 97 67 98 68 99 76 100
REMARK SMILES IDX 69 101 70 102 74 103 77 104 71 105 72 106 75 107 73 108
REMARK H PARENT 97 61 65 72
REMARK Flexibility Score: inf
ROOT
ATOM      1  C   UNL A   1      35.049  31.760  28.451  1.00  0.00     0.188 C 
ENDROOT
BRANCH   1   2
ATOM      2  O   UNL A   1      34.380  31.234  27.326  1.00  0.00    -0.376 OA
BRANCH   2   3
ATOM      3  C   UNL A   1      32.966  31.248  27.246  1.00  0.00     0.202 C 
BRANCH   3   4
ATOM      4  C   UNL A   1      32.145  30.484  26.193  1.00  0.00     0.261 C 
BRANCH   4   5
ATOM      5  O   UNL A   1      31.756  29.147  26.524  1.00  0.00    -0.460 OA
BRANCH   5   6
ATOM      6  C   UNL A   1      31.411  28.374  25.463  1.00  0.00     0.338 C 
ATOM      7  O   UNL A   1      30.654  28.675  24.555  1.00  0.00    -0.246 OA
BRANCH   6   8
ATOM      8  C   UNL A   1      32.237  27.147  25.441  1.00  0.00     0.060 A 
ATOM      9  C   UNL A   1      33.847  24.854  25.620  1.00  0.00     0.060 A 
ATOM     10  C   UNL A   1      32.674  24.956  26.376  1.00  0.00     0.029 A 
ATOM     11  C   UNL A   1      34.145  25.875  24.702  1.00  0.00     0.029 A 
ATOM     12  C   UNL A   1      31.891  26.111  26.316  1.00  0.00     0.018 A 
ATOM     13  C   UNL A   1      33.336  27.013  24.593  1.00  0.00     0.018 A 
BRANCH   9  14
ATOM     14  N   UNL A   1      34.769  23.838  25.870  1.00  0.00    -0.257 N 
ATOM     15  C   UNL A   1      34.422  22.432  25.621  1.00  0.00     0.144 C 
ATOM     16  C   UNL A   1      35.774  21.724  25.729  1.00  0.00     0.091 C 
ATOM     17  C   UNL A   1      36.681  22.909  25.916  1.00  0.00     0.071 C 
ATOM     18  N   UNL A   1      36.109  24.074  25.952  1.00  0.00    -0.176 NA
BRANCH  15  19
ATOM     19  C   UNL A   1      33.736  22.222  24.274  1.00  0.00    -0.019 A 
ATOM     20  C   UNL A   1      33.213  22.944  22.001  1.00  0.00     0.119 A 
ATOM     21  C   UNL A   1      32.320  21.880  21.877  1.00  0.00     0.046 A 
ATOM     22  C   UNL A   1      33.912  23.118  23.198  1.00  0.00     0.052 A 
ATOM     23  C   UNL A   1      32.137  20.981  22.926  1.00  0.00     0.004 A 
ATOM     24  C   UNL A   1      32.841  21.152  24.118  1.00  0.00     0.006 A 
BRANCH  20  25
ATOM     25  O   UNL A   1      33.275  23.771  20.913  1.00  0.00    -0.497 OA
ATOM     26  C   UNL A   1      32.907  25.126  21.128  1.00  0.00     0.278 C 
ENDBRANCH  20  25
ENDBRANCH  15  19
BRANCH  17  27
ATOM     27  C   UNL A   1      38.122  22.701  26.118  1.00  0.00    -0.002 A 
ATOM     28  C   UNL A   1      38.661  21.441  25.843  1.00  0.00     0.011 A 
ATOM     29  C   UNL A   1      38.944  23.762  26.507  1.00  0.00     0.011 A 
ATOM     30  C   UNL A   1      40.040  21.240  25.940  1.00  0.00     0.021 A 
ATOM     31  C   UNL A   1      40.321  23.556  26.631  1.00  0.00     0.021 A 
ATOM     32  C   UNL A   1      40.862  22.296  26.346  1.00  0.00     0.067 A 
BRANCH  32  33
ATOM     33  S   UNL A   1      42.620  22.042  26.447  1.00  0.00     0.175 S 
ATOM     34  C   UNL A   1      42.997  22.240  28.169  1.00  0.00     0.163 C 
ATOM     35  O   UNL A   1      42.861  20.659  26.080  1.00  0.00    -0.224 OA
ATOM     36  O   UNL A   1      43.261  23.128  25.731  1.00  0.00    -0.224 OA
ENDBRANCH  32  33
ENDBRANCH  17  27
ENDBRANCH   9  14
ENDBRANCH   6   8
ENDBRANCH   5   6
ENDBRANCH   4   5
ENDBRANCH   3   4
ENDBRANCH   2   3
ENDBRANCH   1   2
BRANCH   1  37
ATOM     37  C   UNL A   1      35.505  33.234  28.467  1.00  0.00     0.188 C 
BRANCH  37  38
ATOM     38  O   UNL A   1      34.781  34.194  27.734  1.00  0.00    -0.376 OA
BRANCH  38  39
ATOM     39  C   UNL A   1      34.093  35.244  28.389  1.00  0.00     0.202 C 
BRANCH  39  40
ATOM     40  C   UNL A   1      33.075  35.072  29.531  1.00  0.00     0.261 C 
BRANCH  40  41
ATOM     41  O   UNL A   1      33.033  36.079  30.543  1.00  0.00    -0.460 OA
BRANCH  41  42
ATOM     42  C   UNL A   1      32.667  35.649  31.772  1.00  0.00     0.338 C 
ATOM     43  O   UNL A   1      31.550  35.675  32.273  1.00  0.00    -0.246 OA
BRANCH  42  44
ATOM     44  C   UNL A   1      33.814  34.985  32.408  1.00  0.00     0.060 A 
ATOM     45  C   UNL A   1      35.073  35.598  32.350  1.00  0.00     0.016 A 
ATOM     46  C   UNL A   1      33.652  33.741  33.016  1.00  0.00     0.016 A 
ATOM     47  C   UNL A   1      36.186  34.953  32.890  1.00  0.00     0.010 A 
ATOM     48  C   UNL A   1      34.770  33.087  33.536  1.00  0.00     0.010 A 
ATOM     49  C   UNL A   1      36.045  33.679  33.452  1.00  0.00    -0.014 A 
BRANCH  49  50
ATOM     50  C   UNL A   1      37.242  32.877  33.797  1.00  0.00     0.031 A 
ATOM     51  C   UNL A   1      37.944  33.162  35.094  1.00  0.00     0.074 A 
ATOM     52  C   UNL A   1      37.710  31.930  32.966  1.00  0.00     0.049 A 
ATOM     53  N   UNL A   1      39.072  32.684  35.555  1.00  0.00    -0.248 NA
ATOM     54  C   UNL A   1      37.285  34.124  35.992  1.00  0.00     0.031 C 
ATOM     55  C   UNL A   1      37.091  31.532  31.705  1.00  0.00     0.029 A 
ATOM     56  N   UNL A   1      38.835  31.148  33.055  1.00  0.00    -0.354 N 
ATOM     57  C   UNL A   1      39.264  33.299  36.785  1.00  0.00     0.074 A 
ATOM     58  C   UNL A   1      38.152  34.201  36.990  1.00  0.00     0.031 C 
ATOM     59  C   UNL A   1      37.858  30.592  31.123  1.00  0.00     0.029 A 
ATOM     60  C   UNL A   1      39.041  30.358  31.951  1.00  0.00     0.049 A 
ATOM     61  H   UNL A   1      39.436  31.153  33.835  1.00  0.00     0.167 HD
ATOM     62  C   UNL A   1      40.278  33.122  37.665  1.00  0.00     0.037 A 
ATOM     63  C   UNL A   1      40.084  29.566  31.634  1.00  0.00     0.037 A 
ATOM     64  C   UNL A   1      41.385  32.229  37.453  1.00  0.00     0.049 A 
ATOM     65  C   UNL A   1      41.242  29.449  32.594  1.00  0.00     0.074 A 
ATOM     66  C   UNL A   1      42.455  31.967  38.289  1.00  0.00     0.029 A 
ATOM     67  N   UNL A   1      41.570  31.457  36.314  1.00  0.00    -0.354 N 
ATOM     68  N   UNL A   1      41.413  30.014  33.765  1.00  0.00    -0.248 NA
ATOM     69  C   UNL A   1      42.357  28.580  32.185  1.00  0.00     0.031 C 
ATOM     70  C   UNL A   1      43.317  31.083  37.632  1.00  0.00     0.029 A 
ATOM     71  C   UNL A   1      42.750  30.739  36.416  1.00  0.00     0.049 A 
ATOM     72  H   UNL A   1      40.952  31.425  35.547  1.00  0.00     0.167 HD
ATOM     73  C   UNL A   1      42.626  29.541  34.248  1.00  0.00     0.074 A 
ATOM     74  C   UNL A   1      43.149  28.637  33.246  1.00  0.00     0.031 C 
ATOM     75  C   UNL A   1      43.249  29.826  35.418  1.00  0.00     0.037 A 
BRANCH  62  76
ATOM     76  C   UNL A   1      40.253  33.940  38.924  1.00  0.00     0.064 A 
ATOM     77  C   UNL A   1      40.913  35.175  39.018  1.00  0.00     0.173 A 
ATOM     78  C   UNL A   1      39.531  33.495  40.043  1.00  0.00     0.173 A 
ATOM     79  F   UNL A   1      41.629  35.638  37.983  1.00  0.00    -0.203 F 
ATOM     80  C   UNL A   1      40.874  35.920  40.193  1.00  0.00     0.198 A 
ATOM     81  C   UNL A   1      39.467  34.260  41.205  1.00  0.00     0.198 A 
ATOM     82  F   UNL A   1      38.878  32.325  40.006  1.00  0.00    -0.203 F 
ATOM     83  F   UNL A   1      41.554  37.072  40.276  1.00  0.00    -0.200 F 
ATOM     84  C   UNL A   1      40.145  35.466  41.283  1.00  0.00     0.200 A 
ATOM     85  F   UNL A   1      38.749  33.827  42.251  1.00  0.00    -0.200 F 
ATOM     86  F   UNL A   1      40.101  36.190  42.410  1.00  0.00    -0.200 F 
ENDBRANCH  62  76
BRANCH  63  87
ATOM     87  C   UNL A   1      40.095  28.832  30.341  1.00  0.00     0.064 A 
ATOM     88  C   UNL A   1      40.690  29.388  29.200  1.00  0.00     0.173 A 
ATOM     89  C   UNL A   1      39.488  27.573  30.212  1.00  0.00     0.173 A 
ATOM     90  F   UNL A   1      41.259  30.600  29.263  1.00  0.00    -0.203 F 
ATOM     91  C   UNL A   1      40.657  28.723  27.975  1.00  0.00     0.198 A 
ATOM     92  C   UNL A   1      39.483  26.897  28.994  1.00  0.00     0.198 A 
ATOM     93  F   UNL A   1      38.899  27.000  31.272  1.00  0.00    -0.203 F 
ATOM     94  F   UNL A   1      41.184  29.303  26.888  1.00  0.00    -0.200 F 
ATOM     95  C   UNL A   1      40.060  27.476  27.874  1.00  0.00     0.200 A 
ATOM     96  F   UNL A   1      38.913  25.687  28.905  1.00  0.00    -0.200 F 
ATOM     97  F   UNL A   1      40.027  26.839  26.696  1.00  0.00    -0.200 F 
ENDBRANCH  63  87
BRANCH  75  98
ATOM     98  C   UNL A   1      44.536  29.109  35.716  1.00  0.00     0.064 A 
ATOM     99  C   UNL A   1      45.787  29.689  35.464  1.00  0.00     0.173 A 
ATOM    100  C   UNL A   1      44.512  27.839  36.316  1.00  0.00     0.173 A 
ATOM    101  F   UNL A   1      45.867  30.895  34.881  1.00  0.00    -0.203 F 
ATOM    102  C   UNL A   1      46.967  29.015  35.777  1.00  0.00     0.198 A 
ATOM    103  C   UNL A   1      45.691  27.184  36.659  1.00  0.00     0.198 A 
ATOM    104  F   UNL A   1      43.342  27.242  36.588  1.00  0.00    -0.203 F 
ATOM    105  F   UNL A   1      48.151  29.568  35.483  1.00  0.00    -0.200 F 
ATOM    106  C   UNL A   1      46.916  27.768  36.382  1.00  0.00     0.200 A 
ATOM    107  F   UNL A   1      45.640  25.987  37.260  1.00  0.00    -0.200 F 
ATOM    108  F   UNL A   1      48.051  27.127  36.694  1.00  0.00    -0.200 F 
ENDBRANCH  75  98
ENDBRANCH  49  50
ENDBRANCH  42  44
ENDBRANCH  41  42
ENDBRANCH  40  41
ENDBRANCH  39  40
ENDBRANCH  38  39
ENDBRANCH  37  38
ENDBRANCH   1  37
TORSDOF 22
ENDMDL
MODEL 2
REMARK VINA RESULT:     -10.7      0.686      6.810
REMARK SMILES COc1cccc([C@H]2CC(c3ccc(S(C)(=O)=O)cc3)=NN2c2ccc(C(=O)OCCOCCOCCOC(=O)c3ccc(-c4c5nc(c(-c6c(F)c(F)c(F)c(F)c6F)c6ccc([nH]6)c(-c6c(F)c(F)c(F)c(F)c6F)c6nc(c(-c7c(F)c(F)c(F)c(F)c7F)c7ccc4[nH]7)C=C6)C=C5)cc3)cc2)c1
REMARK SMILES IDX 33 1 32 2 31 3 30 4 29 5 27 6 28 7 26 8 23 9 24 10 105 11
REMARK SMILES IDX 25 12 104 13 22 14 8 15 9 16 10 17 21 18 7 19 3 20 4 21
REMARK SMILES IDX 106 22 5 23 6 24 2 25 1 26 11 27 12 28 20 29 13 30 19 31
REMARK SMILES IDX 14 32 15 33 16 34 17 35 18 36 34 37 35 38 36 39 37 40 38 41
REMARK SMILES IDX 39 42 40 43 41 44 42 45 103 46 43 47 102 48 44 49 45 50
REMARK SMILES IDX 46 51 96 52 47 53 101 54 95 55 97 56 48 57 100 58 94 59
REMARK SMILES IDX 93 60 49 62 81 63 61 64 80 65 62 66 65 67 79 68 98 69 63 70
REMARK SMILES IDX 64 71 78 73 99 74 66 75 50 76 51 77 59 78 52 79 53 80 57 81
REMARK SMILES IDX 60 82 54 83 55 84 58 85 56 86 82 87 83 88 91 89 84 90 85 91
REMARK SMILES IDX 89 92 92 93 86 94 87 95 90 96 88 97 67 98 68 99 76 100
REMARK SMILES IDX 69 101 70 102 74 103 77 104 71 105 72 106 75 107 73 108
REMARK H PARENT 97 61 65 72
REMARK Flexibility Score: inf
ROOT
ATOM      1  C   UNL A   1      34.872  31.093  28.188  1.00  0.00     0.188 C 
ENDROOT
BRANCH   1   2
ATOM      2  O   UNL A   1      34.010  30.752  27.124  1.00  0.00    -0.376 OA
BRANCH   2   3
ATOM      3  C   UNL A   1      32.657  31.175  27.118  1.00  0.00     0.202 C 
BRANCH   3   4
ATOM      4  C   UNL A   1      31.570  30.601  26.196  1.00  0.00     0.261 C 
BRANCH   4   5
ATOM      5  O   UNL A   1      31.408  29.178  26.196  1.00  0.00    -0.460 OA
BRANCH   5   6
ATOM      6  C   UNL A   1      31.473  28.595  24.973  1.00  0.00     0.338 C 
ATOM      7  O   UNL A   1      31.096  29.072  23.915  1.00  0.00    -0.246 OA
BRANCH   6   8
ATOM      8  C   UNL A   1      32.256  27.343  25.050  1.00  0.00     0.060 A 
ATOM      9  C   UNL A   1      33.794  25.022  25.411  1.00  0.00     0.060 A 
ATOM     10  C   UNL A   1      32.656  25.247  26.195  1.00  0.00     0.029 A 
ATOM     11  C   UNL A   1      34.089  25.931  24.381  1.00  0.00     0.029 A 
ATOM     12  C   UNL A   1      31.911  26.418  26.042  1.00  0.00     0.018 A 
ATOM     13  C   UNL A   1      33.315  27.080  24.182  1.00  0.00     0.018 A 
BRANCH   9  14
ATOM     14  N   UNL A   1      34.692  24.004  25.734  1.00  0.00    -0.257 N 
ATOM     15  C   UNL A   1      34.321  22.594  25.554  1.00  0.00     0.144 C 
ATOM     16  C   UNL A   1      35.656  21.867  25.726  1.00  0.00     0.091 C 
ATOM     17  C   UNL A   1      36.583  23.042  25.866  1.00  0.00     0.071 C 
ATOM     18  N   UNL A   1      36.034  24.218  25.828  1.00  0.00    -0.176 NA
BRANCH  15  19
ATOM     19  C   UNL A   1      33.655  22.323  24.207  1.00  0.00    -0.019 A 
ATOM     20  C   UNL A   1      33.204  22.920  21.883  1.00  0.00     0.119 A 
ATOM     21  C   UNL A   1      32.276  21.882  21.805  1.00  0.00     0.046 A 
ATOM     22  C   UNL A   1      33.884  23.144  23.082  1.00  0.00     0.052 A 
ATOM     23  C   UNL A   1      32.040  21.057  22.903  1.00  0.00     0.004 A 
ATOM     24  C   UNL A   1      32.726  21.277  24.097  1.00  0.00     0.006 A 
BRANCH  20  25
ATOM     25  O   UNL A   1      33.317  23.675  20.748  1.00  0.00    -0.497 OA
ATOM     26  C   UNL A   1      32.889  25.027  20.843  1.00  0.00     0.278 C 
ENDBRANCH  20  25
ENDBRANCH  15  19
BRANCH  17  27
ATOM     27  C   UNL A   1      38.016  22.819  26.107  1.00  0.00    -0.002 A 
ATOM     28  C   UNL A   1      38.555  21.563  25.812  1.00  0.00     0.011 A 
ATOM     29  C   UNL A   1      38.832  23.862  26.551  1.00  0.00     0.011 A 
ATOM     30  C   UNL A   1      39.929  21.349  25.945  1.00  0.00     0.021 A 
ATOM     31  C   UNL A   1      40.203  23.643  26.712  1.00  0.00     0.021 A 
ATOM     32  C   UNL A   1      40.745  22.388  26.407  1.00  0.00     0.067 A 
BRANCH  32  33
ATOM     33  S   UNL A   1      42.497  22.118  26.555  1.00  0.00     0.175 S 
ATOM     34  C   UNL A   1      43.215  23.720  26.299  1.00  0.00     0.163 C 
ATOM     35  O   UNL A   1      42.741  21.719  27.928  1.00  0.00    -0.224 OA
ATOM     36  O   UNL A   1      42.904  21.274  25.448  1.00  0.00    -0.224 OA
ENDBRANCH  32  33
ENDBRANCH  17  27
ENDBRANCH   9  14
ENDBRANCH   6   8
ENDBRANCH   5   6
ENDBRANCH   4   5
ENDBRANCH   3   4
ENDBRANCH   2   3
ENDBRANCH   1   2
BRANCH   1  37
ATOM     37  C   UNL A   1      35.964  32.164  27.991  1.00  0.00     0.188 C 
BRANCH  37  38
ATOM     38  O   UNL A   1      35.594  33.510  27.808  1.00  0.00    -0.376 OA
BRANCH  38  39
ATOM     39  C   UNL A   1      34.419  34.030  28.402  1.00  0.00     0.202 C 
BRANCH  39  40
ATOM     40  C   UNL A   1      34.119  34.064  29.911  1.00  0.00     0.261 C 
BRANCH  40  41
ATOM     41  O   UNL A   1      33.124  34.979  30.372  1.00  0.00    -0.460 OA
BRANCH  41  42
ATOM     42  C   UNL A   1      32.966  35.036  31.714  1.00  0.00     0.338 C 
ATOM     43  O   UNL A   1      31.942  35.283  32.339  1.00  0.00    -0.246 OA
BRANCH  42  44
ATOM     44  C   UNL A   1      34.213  34.602  32.360  1.00  0.00     0.060 A 
ATOM     45  C   UNL A   1      35.376  35.363  32.177  1.00  0.00     0.016 A 
ATOM     46  C   UNL A   1      34.241  33.423  33.105  1.00  0.00     0.016 A 
ATOM     47  C   UNL A   1      36.583  34.934  32.728  1.00  0.00     0.010 A 
ATOM     48  C   UNL A   1      35.454  32.983  33.637  1.00  0.00     0.010 A 
ATOM     49  C   UNL A   1      36.634  33.722  33.428  1.00  0.00    -0.014 A 
BRANCH  49  50
ATOM     50  C   UNL A   1      37.939  33.127  33.798  1.00  0.00     0.031 A 
ATOM     51  C   UNL A   1      38.543  32.102  32.880  1.00  0.00     0.074 A 
ATOM     52  C   UNL A   1      38.566  33.472  34.936  1.00  0.00     0.049 A 
ATOM     53  N   UNL A   1      39.605  31.355  33.047  1.00  0.00    -0.248 NA
ATOM     54  C   UNL A   1      37.848  31.884  31.601  1.00  0.00     0.031 C 
ATOM     55  C   UNL A   1      38.104  34.485  35.881  1.00  0.00     0.029 A 
ATOM     56  N   UNL A   1      39.719  32.984  35.497  1.00  0.00    -0.354 N 
ATOM     57  C   UNL A   1      39.694  30.570  31.905  1.00  0.00     0.074 A 
ATOM     58  C   UNL A   1      38.570  30.914  31.063  1.00  0.00     0.031 C 
ATOM     59  C   UNL A   1      38.956  34.528  36.921  1.00  0.00     0.029 A 
ATOM     60  C   UNL A   1      39.994  33.516  36.732  1.00  0.00     0.049 A 
ATOM     61  H   UNL A   1      40.294  32.316  35.056  1.00  0.00     0.167 HD
ATOM     62  C   UNL A   1      40.635  29.650  31.588  1.00  0.00     0.037 A 
ATOM     63  C   UNL A   1      40.956  33.194  37.620  1.00  0.00     0.037 A 
ATOM     64  C   UNL A   1      41.748  29.309  32.433  1.00  0.00     0.049 A 
ATOM     65  C   UNL A   1      41.943  32.107  37.280  1.00  0.00     0.074 A 
ATOM     66  C   UNL A   1      42.764  28.400  32.196  1.00  0.00     0.029 A 
ATOM     67  N   UNL A   1      41.986  29.856  33.686  1.00  0.00    -0.354 N 
ATOM     68  N   UNL A   1      42.040  31.381  36.191  1.00  0.00    -0.248 NA
ATOM     69  C   UNL A   1      42.960  31.792  38.295  1.00  0.00     0.031 C 
ATOM     70  C   UNL A   1      43.582  28.354  33.330  1.00  0.00     0.029 A 
ATOM     71  C   UNL A   1      43.117  29.285  34.244  1.00  0.00     0.049 A 
ATOM     72  H   UNL A   1      41.431  30.549  34.114  1.00  0.00     0.167 HD
ATOM     73  C   UNL A   1      43.144  30.558  36.373  1.00  0.00     0.074 A 
ATOM     74  C   UNL A   1      43.691  30.876  37.675  1.00  0.00     0.031 C 
ATOM     75  C   UNL A   1      43.662  29.626  35.535  1.00  0.00     0.037 A 
BRANCH  62  76
ATOM     76  C   UNL A   1      40.480  28.920  30.285  1.00  0.00     0.064 A 
ATOM     77  C   UNL A   1      39.747  27.727  30.187  1.00  0.00     0.173 A 
ATOM     78  C   UNL A   1      41.045  29.441  29.110  1.00  0.00     0.173 A 
ATOM     79  F   UNL A   1      39.198  27.180  31.282  1.00  0.00    -0.203 F 
ATOM     80  C   UNL A   1      39.611  27.069  28.968  1.00  0.00     0.198 A 
ATOM     81  C   UNL A   1      40.878  28.796  27.887  1.00  0.00     0.198 A 
ATOM     82  F   UNL A   1      41.752  30.580  29.146  1.00  0.00    -0.203 F 
ATOM     83  F   UNL A   1      38.949  25.904  28.909  1.00  0.00    -0.200 F 
ATOM     84  C   UNL A   1      40.170  27.607  27.818  1.00  0.00     0.200 A 
ATOM     85  F   UNL A   1      41.405  29.327  26.775  1.00  0.00    -0.200 F 
ATOM     86  F   UNL A   1      40.029  26.977  26.644  1.00  0.00    -0.200 F 
ENDBRANCH  62  76
BRANCH  63  87
ATOM     87  C   UNL A   1      41.025  33.897  38.929  1.00  0.00     0.064 A 
ATOM     88  C   UNL A   1      40.266  33.460  40.024  1.00  0.00     0.173 A 
ATOM     89  C   UNL A   1      41.827  35.034  39.105  1.00  0.00     0.173 A 
ATOM     90  F   UNL A   1      39.461  32.395  39.900  1.00  0.00    -0.203 F 
ATOM     91  C   UNL A   1      40.290  34.147  41.237  1.00  0.00     0.198 A 
ATOM     92  C   UNL A   1      41.875  35.701  40.328  1.00  0.00     0.198 A 
ATOM     93  F   UNL A   1      42.568  35.497  38.087  1.00  0.00    -0.203 F 
ATOM     94  F   UNL A   1      39.512  33.741  42.249  1.00  0.00    -0.200 F 
ATOM     95  C   UNL A   1      41.099  35.263  41.390  1.00  0.00     0.200 A 
ATOM     96  F   UNL A   1      42.666  36.774  40.472  1.00  0.00    -0.200 F 
ATOM     97  F   UNL A   1      41.121  35.924  42.555  1.00  0.00    -0.200 F 
ENDBRANCH  63  87
BRANCH  75  98
ATOM     98  C   UNL A   1      44.919  28.923  35.965  1.00  0.00     0.064 A 
ATOM     99  C   UNL A   1      46.193  29.446  35.700  1.00  0.00     0.173 A 
ATOM    100  C   UNL A   1      44.842  27.731  36.704  1.00  0.00     0.173 A 
ATOM    101  F   UNL A   1      46.324  30.576  34.988  1.00  0.00    -0.203 F 
ATOM    102  C   UNL A   1      47.342  28.790  36.135  1.00  0.00     0.198 A 
ATOM    103  C   UNL A   1      45.990  27.097  37.167  1.00  0.00     0.198 A 
ATOM    104  F   UNL A   1      43.648  27.192  36.994  1.00  0.00    -0.203 F 
ATOM    105  F   UNL A   1      48.550  29.283  35.829  1.00  0.00    -0.200 F 
ATOM    106  C   UNL A   1      47.239  27.622  36.876  1.00  0.00     0.200 A 
ATOM    107  F   UNL A   1      45.888  25.978  37.898  1.00  0.00    -0.200 F 
ATOM    108  F   UNL A   1      48.346  26.999  37.305  1.00  0.00    -0.200 F 
ENDBRANCH  75  98
ENDBRANCH  49  50
ENDBRANCH  42  44
ENDBRANCH  41  42
ENDBRANCH  40  41
ENDBRANCH  39  40
ENDBRANCH  38  39
ENDBRANCH  37  38
ENDBRANCH   1  37
TORSDOF 22
ENDMDL
MODEL 3
REMARK VINA RESULT:     -10.2      5.560      9.227
REMARK SMILES COc1cccc([C@H]2CC(c3ccc(S(C)(=O)=O)cc3)=NN2c2ccc(C(=O)OCCOCCOCCOC(=O)c3ccc(-c4c5nc(c(-c6c(F)c(F)c(F)c(F)c6F)c6ccc([nH]6)c(-c6c(F)c(F)c(F)c(F)c6F)c6nc(c(-c7c(F)c(F)c(F)c(F)c7F)c7ccc4[nH]7)C=C6)C=C5)cc3)cc2)c1
REMARK SMILES IDX 33 1 32 2 31 3 30 4 29 5 27 6 28 7 26 8 23 9 24 10 105 11
REMARK SMILES IDX 25 12 104 13 22 14 8 15 9 16 10 17 21 18 7 19 3 20 4 21
REMARK SMILES IDX 106 22 5 23 6 24 2 25 1 26 11 27 12 28 20 29 13 30 19 31
REMARK SMILES IDX 14 32 15 33 16 34 17 35 18 36 34 37 35 38 36 39 37 40 38 41
REMARK SMILES IDX 39 42 40 43 41 44 42 45 103 46 43 47 102 48 44 49 45 50
REMARK SMILES IDX 46 51 96 52 47 53 101 54 95 55 97 56 48 57 100 58 94 59
REMARK SMILES IDX 93 60 49 62 81 63 61 64 80 65 62 66 65 67 79 68 98 69 63 70
REMARK SMILES IDX 64 71 78 73 99 74 66 75 50 76 51 77 59 78 52 79 53 80 57 81
REMARK SMILES IDX 60 82 54 83 55 84 58 85 56 86 82 87 83 88 91 89 84 90 85 91
REMARK SMILES IDX 89 92 92 93 86 94 87 95 90 96 88 97 67 98 68 99 76 100
REMARK SMILES IDX 69 101 70 102 74 103 77 104 71 105 72 106 75 107 73 108
REMARK H PARENT 97 61 65 72
REMARK Flexibility Score: inf
ROOT
ATOM      1  C   UNL A   1      35.964  32.831  31.133  1.00  0.00     0.188 C 
ENDROOT
BRANCH   1   2
ATOM      2  O   UNL A   1      36.150  31.890  30.098  1.00  0.00    -0.376 OA
BRANCH   2   3
ATOM      3  C   UNL A   1      36.776  30.645  30.350  1.00  0.00     0.202 C 
BRANCH   3   4
ATOM      4  C   UNL A   1      38.266  30.353  30.100  1.00  0.00     0.261 C 
BRANCH   4   5
ATOM      5  O   UNL A   1      38.579  29.145  29.398  1.00  0.00    -0.460 OA
BRANCH   5   6
ATOM      6  C   UNL A   1      38.764  29.293  28.062  1.00  0.00     0.338 C 
ATOM      7  O   UNL A   1      37.950  29.702  27.252  1.00  0.00    -0.246 OA
BRANCH   6   8
ATOM      8  C   UNL A   1      40.185  29.064  27.720  1.00  0.00     0.060 A 
ATOM      9  C   UNL A   1      42.826  28.412  27.026  1.00  0.00     0.060 A 
ATOM     10  C   UNL A   1      41.800  28.313  26.079  1.00  0.00     0.029 A 
ATOM     11  C   UNL A   1      42.521  28.936  28.294  1.00  0.00     0.029 A 
ATOM     12  C   UNL A   1      40.481  28.602  26.433  1.00  0.00     0.018 A 
ATOM     13  C   UNL A   1      41.209  29.281  28.641  1.00  0.00     0.018 A 
BRANCH   9  14
ATOM     14  N   UNL A   1      44.087  27.874  26.769  1.00  0.00    -0.257 N 
ATOM     15  C   UNL A   1      44.545  26.668  27.473  1.00  0.00     0.144 C 
ATOM     16  C   UNL A   1      45.796  26.272  26.687  1.00  0.00     0.091 C 
ATOM     17  C   UNL A   1      45.754  27.293  25.585  1.00  0.00     0.071 C 
ATOM     18  N   UNL A   1      44.777  28.147  25.627  1.00  0.00    -0.176 NA
BRANCH  15  19
ATOM     19  C   UNL A   1      43.486  25.569  27.515  1.00  0.00    -0.019 A 
ATOM     20  C   UNL A   1      42.416  23.588  26.571  1.00  0.00     0.119 A 
ATOM     21  C   UNL A   1      41.418  23.675  27.541  1.00  0.00     0.046 A 
ATOM     22  C   UNL A   1      43.442  24.537  26.554  1.00  0.00     0.052 A 
ATOM     23  C   UNL A   1      41.448  24.684  28.501  1.00  0.00     0.004 A 
ATOM     24  C   UNL A   1      42.476  25.625  28.488  1.00  0.00     0.006 A 
BRANCH  20  25
ATOM     25  O   UNL A   1      42.253  22.574  25.668  1.00  0.00    -0.497 OA
ATOM     26  C   UNL A   1      43.393  22.228  24.893  1.00  0.00     0.278 C 
ENDBRANCH  20  25
ENDBRANCH  15  19
BRANCH  17  27
ATOM     27  C   UNL A   1      46.825  27.329  24.579  1.00  0.00    -0.002 A 
ATOM     28  C   UNL A   1      47.860  26.392  24.670  1.00  0.00     0.011 A 
ATOM     29  C   UNL A   1      46.771  28.233  23.515  1.00  0.00     0.011 A 
ATOM     30  C   UNL A   1      48.843  26.345  23.679  1.00  0.00     0.021 A 
ATOM     31  C   UNL A   1      47.768  28.205  22.536  1.00  0.00     0.021 A 
ATOM     32  C   UNL A   1      48.798  27.261  22.623  1.00  0.00     0.067 A 
BRANCH  32  33
ATOM     33  S   UNL A   1      50.040  27.183  21.350  1.00  0.00     0.175 S 
ATOM     34  C   UNL A   1      50.292  28.874  20.874  1.00  0.00     0.163 C 
ATOM     35  O   UNL A   1      51.252  26.699  21.982  1.00  0.00    -0.224 OA
ATOM     36  O   UNL A   1      49.460  26.491  20.216  1.00  0.00    -0.224 OA
ENDBRANCH  32  33
ENDBRANCH  17  27
ENDBRANCH   9  14
ENDBRANCH   6   8
ENDBRANCH   5   6
ENDBRANCH   4   5
ENDBRANCH   3   4
ENDBRANCH   2   3
ENDBRANCH   1   2
BRANCH   1  37
ATOM     37  C   UNL A   1      34.774  32.693  32.106  1.00  0.00     0.188 C 
BRANCH  37  38
ATOM     38  O   UNL A   1      34.964  32.947  33.477  1.00  0.00    -0.376 OA
BRANCH  38  39
ATOM     39  C   UNL A   1      36.046  33.741  33.929  1.00  0.00     0.202 C 
BRANCH  39  40
ATOM     40  C   UNL A   1      37.085  33.322  34.984  1.00  0.00     0.261 C 
BRANCH  40  41
ATOM     41  O   UNL A   1      37.037  31.979  35.469  1.00  0.00    -0.460 OA
BRANCH  41  42
ATOM     42  C   UNL A   1      38.130  31.572  36.154  1.00  0.00     0.338 C 
ATOM     43  O   UNL A   1      38.220  31.339  37.353  1.00  0.00    -0.246 OA
BRANCH  42  44
ATOM     44  C   UNL A   1      39.216  31.298  35.201  1.00  0.00     0.060 A 
ATOM     45  C   UNL A   1      38.982  30.416  34.137  1.00  0.00     0.016 A 
ATOM     46  C   UNL A   1      40.472  31.874  35.389  1.00  0.00     0.016 A 
ATOM     47  C   UNL A   1      40.018  30.093  33.262  1.00  0.00     0.010 A 
ATOM     48  C   UNL A   1      41.513  31.532  34.525  1.00  0.00     0.010 A 
ATOM     49  C   UNL A   1      41.297  30.620  33.474  1.00  0.00    -0.014 A 
BRANCH  49  50
ATOM     50  C   UNL A   1      42.458  30.097  32.717  1.00  0.00     0.031 A 
ATOM     51  C   UNL A   1      43.139  28.856  33.221  1.00  0.00     0.074 A 
ATOM     52  C   UNL A   1      42.912  30.721  31.617  1.00  0.00     0.049 A 
ATOM     53  N   UNL A   1      44.239  28.281  32.806  1.00  0.00    -0.248 NA
ATOM     54  C   UNL A   1      42.494  28.175  34.354  1.00  0.00     0.031 C 
ATOM     55  C   UNL A   1      42.308  31.902  31.006  1.00  0.00     0.029 A 
ATOM     56  N   UNL A   1      44.006  30.454  30.833  1.00  0.00    -0.354 N 
ATOM     57  C   UNL A   1      44.425  27.184  33.636  1.00  0.00     0.074 A 
ATOM     58  C   UNL A   1      43.340  27.184  34.592  1.00  0.00     0.031 C 
ATOM     59  C   UNL A   1      43.056  32.275  29.951  1.00  0.00     0.029 A 
ATOM     60  C   UNL A   1      44.210  31.384  29.843  1.00  0.00     0.049 A 
ATOM     61  H   UNL A   1      44.590  29.672  30.968  1.00  0.00     0.167 HD
ATOM     62  C   UNL A   1      45.412  26.257  33.598  1.00  0.00     0.037 A 
ATOM     63  C   UNL A   1      45.233  31.516  28.976  1.00  0.00     0.037 A 
ATOM     64  C   UNL A   1      46.492  26.266  32.649  1.00  0.00     0.049 A 
ATOM     65  C   UNL A   1      46.364  30.519  29.007  1.00  0.00     0.074 A 
ATOM     66  C   UNL A   1      47.534  25.365  32.518  1.00  0.00     0.029 A 
ATOM     67  N   UNL A   1      46.676  27.234  31.671  1.00  0.00    -0.354 N 
ATOM     68  N   UNL A   1      46.528  29.470  29.778  1.00  0.00    -0.248 NA
ATOM     69  C   UNL A   1      47.458  30.725  28.045  1.00  0.00     0.031 C 
ATOM     70  C   UNL A   1      48.380  25.820  31.501  1.00  0.00     0.029 A 
ATOM     71  C   UNL A   1      47.828  26.965  30.951  1.00  0.00     0.049 A 
ATOM     72  H   UNL A   1      46.075  27.999  31.513  1.00  0.00     0.167 HD
ATOM     73  C   UNL A   1      47.713  28.872  29.370  1.00  0.00     0.074 A 
ATOM     74  C   UNL A   1      48.227  29.671  28.277  1.00  0.00     0.031 C 
ATOM     75  C   UNL A   1      48.318  27.759  29.852  1.00  0.00     0.037 A 
BRANCH  62  76
ATOM     76  C   UNL A   1      45.387  25.176  34.639  1.00  0.00     0.064 A 
ATOM     77  C   UNL A   1      44.785  23.931  34.400  1.00  0.00     0.173 A 
ATOM     78  C   UNL A   1      46.003  25.378  35.884  1.00  0.00     0.173 A 
ATOM     79  F   UNL A   1      44.170  23.692  33.232  1.00  0.00    -0.203 F 
ATOM     80  C   UNL A   1      44.777  22.940  35.377  1.00  0.00     0.198 A 
ATOM     81  C   UNL A   1      46.022  24.371  36.847  1.00  0.00     0.198 A 
ATOM     82  F   UNL A   1      46.597  26.547  36.165  1.00  0.00    -0.203 F 
ATOM     83  F   UNL A   1      44.151  21.777  35.144  1.00  0.00    -0.200 F 
ATOM     84  C   UNL A   1      45.401  23.158  36.597  1.00  0.00     0.200 A 
ATOM     85  F   UNL A   1      46.640  24.579  38.018  1.00  0.00    -0.200 F 
ATOM     86  F   UNL A   1      45.401  22.198  37.533  1.00  0.00    -0.200 F 
ENDBRANCH  62  76
BRANCH  63  87
ATOM     87  C   UNL A   1      45.248  32.647  28.010  1.00  0.00     0.064 A 
ATOM     88  C   UNL A   1      45.955  33.826  28.289  1.00  0.00     0.173 A 
ATOM     89  C   UNL A   1      44.535  32.586  26.803  1.00  0.00     0.173 A 
ATOM     90  F   UNL A   1      46.629  33.945  29.442  1.00  0.00    -0.203 F 
ATOM     91  C   UNL A   1      45.929  34.906  27.409  1.00  0.00     0.198 A 
ATOM     92  C   UNL A   1      44.536  33.656  25.910  1.00  0.00     0.198 A 
ATOM     93  F   UNL A   1      43.837  31.484  26.491  1.00  0.00    -0.203 F 
ATOM     94  F   UNL A   1      46.568  36.040  27.728  1.00  0.00    -0.200 F 
ATOM     95  C   UNL A   1      45.225  34.818  26.218  1.00  0.00     0.200 A 
ATOM     96  F   UNL A   1      43.861  33.561  24.756  1.00  0.00    -0.200 F 
ATOM     97  F   UNL A   1      45.199  35.857  25.373  1.00  0.00    -0.200 F 
ENDBRANCH  63  87
BRANCH  75  98
ATOM     98  C   UNL A   1      49.573  27.295  29.166  1.00  0.00     0.064 A 
ATOM     99  C   UNL A   1      50.838  27.790  29.514  1.00  0.00     0.173 A 
ATOM    100  C   UNL A   1      49.509  26.296  28.180  1.00  0.00     0.173 A 
ATOM    101  F   UNL A   1      50.955  28.753  30.441  1.00  0.00    -0.203 F 
ATOM    102  C   UNL A   1      51.990  27.321  28.884  1.00  0.00     0.198 A 
ATOM    103  C   UNL A   1      50.663  25.806  27.578  1.00  0.00     0.198 A 
ATOM    104  F   UNL A   1      48.325  25.781  27.816  1.00  0.00    -0.203 F 
ATOM    105  F   UNL A   1      53.183  27.842  29.198  1.00  0.00    -0.200 F 
ATOM    106  C   UNL A   1      51.901  26.324  27.923  1.00  0.00     0.200 A 
ATOM    107  F   UNL A   1      50.577  24.830  26.664  1.00  0.00    -0.200 F 
ATOM    108  F   UNL A   1      53.011  25.865  27.328  1.00  0.00    -0.200 F 
ENDBRANCH  75  98
ENDBRANCH  49  50
ENDBRANCH  42  44
ENDBRANCH  41  42
ENDBRANCH  40  41
ENDBRANCH  39  40
ENDBRANCH  38  39
ENDBRANCH  37  38
ENDBRANCH   1  37
TORSDOF 22
ENDMDL
