MODEL 1
REMARK VINA RESULT:     -10.5      0.000      0.000
REMARK SMILES CS(=O)(=O)CCSCc1cc(F)cc(/C=C/C(=O)OCCOCCOCCOC(=O)c2ccc(-c3c4nc(c(-c5c(F)c(F)c(F)c(F)c5F)c5ccc([nH]5)c(-c5c(F)c(F)c(F)c(F)c5F)c5nc(c(-c6c(F)c(F)c(F)c(F)c6F)c6ccc3[nH]6)C=C5)C=C4)cc2)c1
REMARK SMILES IDX 21 1 20 2 19 3 17 4 18 5 16 6 15 7 14 8 9 9 10 10 94 11
REMARK SMILES IDX 11 12 12 13 13 14 8 15 7 16 6 17 5 18 2 19 1 20 3 21 4 22
REMARK SMILES IDX 22 23 23 24 24 25 25 26 26 27 27 28 28 29 29 30 30 31 31 32
REMARK SMILES IDX 32 33 93 34 33 35 92 36 34 37 35 38 36 39 86 40 37 41 91 42
REMARK SMILES IDX 85 43 87 44 38 45 90 46 84 47 83 48 39 50 71 51 51 52 70 53
REMARK SMILES IDX 52 54 55 55 69 56 88 57 53 58 54 59 68 61 89 62 56 63 40 64
REMARK SMILES IDX 41 65 49 66 42 67 43 68 47 69 50 70 44 71 45 72 48 73 46 74
REMARK SMILES IDX 72 75 73 76 81 77 74 78 75 79 79 80 82 81 76 82 77 83 80 84
REMARK SMILES IDX 78 85 57 86 58 87 66 88 59 89 60 90 64 91 67 92 61 93 62 94
REMARK SMILES IDX 65 95 63 96
REMARK H PARENT 87 49 55 60
REMARK Flexibility Score: inf
ROOT
ATOM      1  C   UNL A   1      33.503  36.397  30.366  1.00  0.00     0.202 C 
ENDROOT
BRANCH   1   2
ATOM      2  C   UNL A   1      32.979  35.804  29.049  1.00  0.00     0.261 C 
BRANCH   2   3
ATOM      3  O   UNL A   1      32.852  34.374  29.053  1.00  0.00    -0.460 OA
BRANCH   3   4
ATOM      4  C   UNL A   1      33.767  33.701  28.313  1.00  0.00     0.330 C 
ATOM      5  O   UNL A   1      34.978  33.857  28.330  1.00  0.00    -0.247 OA
BRANCH   4   6
ATOM      6  C   UNL A   1      33.150  32.583  27.566  1.00  0.00     0.094 C 
ATOM      7  C   UNL A   1      33.555  31.305  27.611  1.00  0.00     0.016 C 
BRANCH   7   8
ATOM      8  C   UNL A   1      33.017  30.257  26.730  1.00  0.00    -0.022 A 
ATOM      9  C   UNL A   1      33.189  27.972  25.830  1.00  0.00    -0.035 A 
ATOM     10  C   UNL A   1      32.051  28.225  25.061  1.00  0.00     0.043 A 
ATOM     11  C   UNL A   1      33.670  29.015  26.652  1.00  0.00     0.013 A 
ATOM     12  C   UNL A   1      31.425  29.465  25.106  1.00  0.00     0.124 A 
ATOM     13  F   UNL A   1      30.331  29.675  24.363  1.00  0.00    -0.207 F 
ATOM     14  C   UNL A   1      31.896  30.479  25.925  1.00  0.00     0.047 A 
BRANCH   9  15
ATOM     15  C   UNL A   1      33.801  26.598  25.975  1.00  0.00     0.105 C 
BRANCH  15  16
ATOM     16  S   UNL A   1      32.964  25.168  25.238  1.00  0.00    -0.156 SA
BRANCH  16  17
ATOM     17  C   UNL A   1      33.993  24.710  23.788  1.00  0.00     0.086 C 
BRANCH  17  18
ATOM     18  C   UNL A   1      33.307  24.431  22.460  1.00  0.00     0.147 C 
BRANCH  18  19
ATOM     19  S   UNL A   1      32.988  25.865  21.448  1.00  0.00     0.148 S 
ATOM     20  C   UNL A   1      31.342  26.357  21.916  1.00  0.00     0.158 C 
ATOM     21  O   UNL A   1      32.923  25.430  20.067  1.00  0.00    -0.229 OA
ATOM     22  O   UNL A   1      33.899  26.923  21.833  1.00  0.00    -0.229 OA
ENDBRANCH  18  19
ENDBRANCH  17  18
ENDBRANCH  16  17
ENDBRANCH  15  16
ENDBRANCH   9  15
ENDBRANCH   7   8
ENDBRANCH   4   6
ENDBRANCH   3   4
ENDBRANCH   2   3
ENDBRANCH   1   2
BRANCH   1  23
ATOM     23  O   UNL A   1      32.618  37.149  31.189  1.00  0.00    -0.376 OA
BRANCH  23  24
ATOM     24  C   UNL A   1      32.387  36.744  32.534  1.00  0.00     0.188 C 
BRANCH  24  25
ATOM     25  C   UNL A   1      33.233  35.621  33.167  1.00  0.00     0.188 C 
BRANCH  25  26
ATOM     26  O   UNL A   1      34.429  36.072  33.767  1.00  0.00    -0.376 OA
BRANCH  26  27
ATOM     27  C   UNL A   1      35.341  35.079  34.209  1.00  0.00     0.202 C 
BRANCH  27  28
ATOM     28  C   UNL A   1      35.991  34.146  33.170  1.00  0.00     0.261 C 
BRANCH  28  29
ATOM     29  O   UNL A   1      35.629  32.757  33.228  1.00  0.00    -0.460 OA
BRANCH  29  30
ATOM     30  C   UNL A   1      35.210  32.176  32.080  1.00  0.00     0.338 C 
ATOM     31  O   UNL A   1      34.126  32.299  31.547  1.00  0.00    -0.246 OA
BRANCH  30  32
ATOM     32  C   UNL A   1      36.366  31.472  31.481  1.00  0.00     0.060 A 
ATOM     33  C   UNL A   1      37.254  30.784  32.318  1.00  0.00     0.016 A 
ATOM     34  C   UNL A   1      36.581  31.508  30.102  1.00  0.00     0.016 A 
ATOM     35  C   UNL A   1      38.374  30.147  31.775  1.00  0.00     0.010 A 
ATOM     36  C   UNL A   1      37.713  30.885  29.563  1.00  0.00     0.010 A 
ATOM     37  C   UNL A   1      38.628  30.222  30.398  1.00  0.00    -0.014 A 
BRANCH  37  38
ATOM     38  C   UNL A   1      39.921  29.741  29.848  1.00  0.00     0.031 A 
ATOM     39  C   UNL A   1      41.079  30.698  29.779  1.00  0.00     0.074 A 
ATOM     40  C   UNL A   1      40.071  28.473  29.424  1.00  0.00     0.049 A 
ATOM     41  N   UNL A   1      42.278  30.520  29.282  1.00  0.00    -0.248 NA
ATOM     42  C   UNL A   1      40.859  32.036  30.351  1.00  0.00     0.031 C 
ATOM     43  C   UNL A   1      39.044  27.437  29.478  1.00  0.00     0.029 A 
ATOM     44  N   UNL A   1      41.154  27.845  28.855  1.00  0.00    -0.354 N 
ATOM     45  C   UNL A   1      42.950  31.718  29.481  1.00  0.00     0.074 A 
ATOM     46  C   UNL A   1      42.022  32.626  30.119  1.00  0.00     0.031 C 
ATOM     47  C   UNL A   1      39.541  26.302  28.956  1.00  0.00     0.029 A 
ATOM     48  C   UNL A   1      40.911  26.540  28.500  1.00  0.00     0.049 A 
ATOM     49  H   UNL A   1      42.022  28.288  28.715  1.00  0.00     0.167 HD
ATOM     50  C   UNL A   1      44.229  32.028  29.170  1.00  0.00     0.037 A 
ATOM     51  C   UNL A   1      41.696  25.650  27.860  1.00  0.00     0.037 A 
ATOM     52  C   UNL A   1      45.155  31.126  28.537  1.00  0.00     0.049 A 
ATOM     53  C   UNL A   1      43.090  26.049  27.446  1.00  0.00     0.074 A 
ATOM     54  C   UNL A   1      46.475  31.353  28.188  1.00  0.00     0.029 A 
ATOM     55  N   UNL A   1      44.856  29.827  28.156  1.00  0.00    -0.354 N 
ATOM     56  N   UNL A   1      43.721  27.181  27.644  1.00  0.00    -0.248 NA
ATOM     57  C   UNL A   1      43.882  25.047  26.715  1.00  0.00     0.031 C 
ATOM     58  C   UNL A   1      46.961  30.208  27.553  1.00  0.00     0.029 A 
ATOM     59  C   UNL A   1      45.962  29.249  27.554  1.00  0.00     0.049 A 
ATOM     60  H   UNL A   1      43.988  29.383  28.292  1.00  0.00     0.167 HD
ATOM     61  C   UNL A   1      44.986  27.019  27.093  1.00  0.00     0.074 A 
ATOM     62  C   UNL A   1      45.040  25.675  26.557  1.00  0.00     0.031 C 
ATOM     63  C   UNL A   1      46.010  27.904  27.038  1.00  0.00     0.037 A 
BRANCH  50  64
ATOM     64  C   UNL A   1      44.717  33.407  29.498  1.00  0.00     0.064 A 
ATOM     65  C   UNL A   1      44.686  34.420  28.529  1.00  0.00     0.173 A 
ATOM     66  C   UNL A   1      45.297  33.700  30.741  1.00  0.00     0.173 A 
ATOM     67  F   UNL A   1      44.146  34.187  27.324  1.00  0.00    -0.203 F 
ATOM     68  C   UNL A   1      45.236  35.673  28.785  1.00  0.00     0.198 A 
ATOM     69  C   UNL A   1      45.823  34.962  31.003  1.00  0.00     0.198 A 
ATOM     70  F   UNL A   1      45.338  32.768  31.704  1.00  0.00    -0.203 F 
ATOM     71  F   UNL A   1      45.229  36.615  27.832  1.00  0.00    -0.200 F 
ATOM     72  C   UNL A   1      45.804  35.943  30.022  1.00  0.00     0.200 A 
ATOM     73  F   UNL A   1      46.353  35.229  32.205  1.00  0.00    -0.200 F 
ATOM     74  F   UNL A   1      46.332  37.149  30.268  1.00  0.00    -0.200 F 
ENDBRANCH  50  64
BRANCH  51  75
ATOM     75  C   UNL A   1      41.181  24.287  27.562  1.00  0.00     0.064 A 
ATOM     76  C   UNL A   1      40.138  24.086  26.644  1.00  0.00     0.173 A 
ATOM     77  C   UNL A   1      41.731  23.156  28.179  1.00  0.00     0.173 A 
ATOM     78  F   UNL A   1      39.584  25.135  26.018  1.00  0.00    -0.203 F 
ATOM     79  C   UNL A   1      39.654  22.808  26.371  1.00  0.00     0.198 A 
ATOM     80  C   UNL A   1      41.264  21.876  27.884  1.00  0.00     0.198 A 
ATOM     81  F   UNL A   1      42.751  23.292  29.039  1.00  0.00    -0.203 F 
ATOM     82  F   UNL A   1      38.642  22.649  25.508  1.00  0.00    -0.200 F 
ATOM     83  C   UNL A   1      40.222  21.704  26.987  1.00  0.00     0.200 A 
ATOM     84  F   UNL A   1      41.837  20.808  28.457  1.00  0.00    -0.200 F 
ATOM     85  F   UNL A   1      39.771  20.473  26.708  1.00  0.00    -0.200 F 
ENDBRANCH  51  75
BRANCH  63  86
ATOM     86  C   UNL A   1      47.297  27.457  26.408  1.00  0.00     0.064 A 
ATOM     87  C   UNL A   1      47.498  27.603  25.026  1.00  0.00     0.173 A 
ATOM     88  C   UNL A   1      48.288  26.799  27.150  1.00  0.00     0.173 A 
ATOM     89  F   UNL A   1      46.574  28.215  24.269  1.00  0.00    -0.203 F 
ATOM     90  C   UNL A   1      48.634  27.089  24.409  1.00  0.00     0.198 A 
ATOM     91  C   UNL A   1      49.437  26.311  26.533  1.00  0.00     0.198 A 
ATOM     92  F   UNL A   1      48.147  26.643  28.475  1.00  0.00    -0.203 F 
ATOM     93  F   UNL A   1      48.784  27.203  23.081  1.00  0.00    -0.200 F 
ATOM     94  C   UNL A   1      49.603  26.446  25.162  1.00  0.00     0.200 A 
ATOM     95  F   UNL A   1      50.383  25.708  27.265  1.00  0.00    -0.200 F 
ATOM     96  F   UNL A   1      50.700  25.955  24.568  1.00  0.00    -0.200 F 
ENDBRANCH  63  86
ENDBRANCH  37  38
ENDBRANCH  30  32
ENDBRANCH  29  30
ENDBRANCH  28  29
ENDBRANCH  27  28
ENDBRANCH  26  27
ENDBRANCH  25  26
ENDBRANCH  24  25
ENDBRANCH  23  24
ENDBRANCH   1  23
TORSDOF 23
ENDMDL
MODEL 2
REMARK VINA RESULT:      -9.9      4.630      7.930
REMARK SMILES CS(=O)(=O)CCSCc1cc(F)cc(/C=C/C(=O)OCCOCCOCCOC(=O)c2ccc(-c3c4nc(c(-c5c(F)c(F)c(F)c(F)c5F)c5ccc([nH]5)c(-c5c(F)c(F)c(F)c(F)c5F)c5nc(c(-c6c(F)c(F)c(F)c(F)c6F)c6ccc3[nH]6)C=C5)C=C4)cc2)c1
REMARK SMILES IDX 21 1 20 2 19 3 17 4 18 5 16 6 15 7 14 8 9 9 10 10 94 11
REMARK SMILES IDX 11 12 12 13 13 14 8 15 7 16 6 17 5 18 2 19 1 20 3 21 4 22
REMARK SMILES IDX 22 23 23 24 24 25 25 26 26 27 27 28 28 29 29 30 30 31 31 32
REMARK SMILES IDX 32 33 93 34 33 35 92 36 34 37 35 38 36 39 86 40 37 41 91 42
REMARK SMILES IDX 85 43 87 44 38 45 90 46 84 47 83 48 39 50 71 51 51 52 70 53
REMARK SMILES IDX 52 54 55 55 69 56 88 57 53 58 54 59 68 61 89 62 56 63 40 64
REMARK SMILES IDX 41 65 49 66 42 67 43 68 47 69 50 70 44 71 45 72 48 73 46 74
REMARK SMILES IDX 72 75 73 76 81 77 74 78 75 79 79 80 82 81 76 82 77 83 80 84
REMARK SMILES IDX 78 85 57 86 58 87 66 88 59 89 60 90 64 91 67 92 61 93 62 94
REMARK SMILES IDX 65 95 63 96
REMARK H PARENT 87 49 55 60
REMARK Flexibility Score: inf
ROOT
ATOM      1  C   UNL A   1      32.004  28.343  23.146  1.00  0.00     0.202 C 
ENDROOT
BRANCH   1   2
ATOM      2  C   UNL A   1      31.363  26.954  23.002  1.00  0.00     0.261 C 
BRANCH   2   3
ATOM      3  O   UNL A   1      31.341  26.449  21.659  1.00  0.00    -0.460 OA
BRANCH   3   4
ATOM      4  C   UNL A   1      32.404  25.689  21.299  1.00  0.00     0.330 C 
ATOM      5  O   UNL A   1      33.209  25.932  20.413  1.00  0.00    -0.247 OA
BRANCH   4   6
ATOM      6  C   UNL A   1      32.612  24.562  22.234  1.00  0.00     0.094 C 
ATOM      7  C   UNL A   1      33.194  23.394  21.921  1.00  0.00     0.016 C 
BRANCH   7   8
ATOM      8  C   UNL A   1      33.235  22.243  22.836  1.00  0.00    -0.022 A 
ATOM      9  C   UNL A   1      34.226  21.162  24.814  1.00  0.00    -0.035 A 
ATOM     10  C   UNL A   1      33.373  20.075  24.605  1.00  0.00     0.043 A 
ATOM     11  C   UNL A   1      34.153  22.237  23.901  1.00  0.00     0.013 A 
ATOM     12  C   UNL A   1      32.492  20.061  23.530  1.00  0.00     0.124 A 
ATOM     13  F   UNL A   1      31.681  19.008  23.361  1.00  0.00    -0.207 F 
ATOM     14  C   UNL A   1      32.417  21.126  22.647  1.00  0.00     0.047 A 
BRANCH   9  15
ATOM     15  C   UNL A   1      35.064  21.328  26.059  1.00  0.00     0.105 C 
BRANCH  15  16
ATOM     16  S   UNL A   1      34.734  22.718  27.177  1.00  0.00    -0.156 SA
BRANCH  16  17
ATOM     17  C   UNL A   1      32.905  22.824  27.277  1.00  0.00     0.086 C 
BRANCH  17  18
ATOM     18  C   UNL A   1      32.233  24.167  27.040  1.00  0.00     0.147 C 
BRANCH  18  19
ATOM     19  S   UNL A   1      30.519  24.088  26.551  1.00  0.00     0.148 S 
ATOM     20  C   UNL A   1      30.568  23.290  24.961  1.00  0.00     0.158 C 
ATOM     21  O   UNL A   1      30.056  25.445  26.330  1.00  0.00    -0.229 OA
ATOM     22  O   UNL A   1      29.809  23.220  27.468  1.00  0.00    -0.229 OA
ENDBRANCH  18  19
ENDBRANCH  17  18
ENDBRANCH  16  17
ENDBRANCH  15  16
ENDBRANCH   9  15
ENDBRANCH   7   8
ENDBRANCH   4   6
ENDBRANCH   3   4
ENDBRANCH   2   3
ENDBRANCH   1   2
BRANCH   1  23
ATOM     23  O   UNL A   1      31.418  29.289  24.035  1.00  0.00    -0.376 OA
BRANCH  23  24
ATOM     24  C   UNL A   1      31.875  29.374  25.380  1.00  0.00     0.188 C 
BRANCH  24  25
ATOM     25  C   UNL A   1      31.851  30.723  26.129  1.00  0.00     0.188 C 
BRANCH  25  26
ATOM     26  O   UNL A   1      32.600  30.728  27.325  1.00  0.00    -0.376 OA
BRANCH  26  27
ATOM     27  C   UNL A   1      33.355  31.896  27.607  1.00  0.00     0.202 C 
BRANCH  27  28
ATOM     28  C   UNL A   1      32.734  33.274  27.313  1.00  0.00     0.261 C 
BRANCH  28  29
ATOM     29  O   UNL A   1      32.296  34.044  28.445  1.00  0.00    -0.460 OA
BRANCH  29  30
ATOM     30  C   UNL A   1      33.088  35.066  28.844  1.00  0.00     0.338 C 
ATOM     31  O   UNL A   1      32.849  36.255  28.767  1.00  0.00    -0.246 OA
BRANCH  30  32
ATOM     32  C   UNL A   1      34.255  34.487  29.546  1.00  0.00     0.060 A 
ATOM     33  C   UNL A   1      35.520  34.572  28.950  1.00  0.00     0.016 A 
ATOM     34  C   UNL A   1      34.097  33.848  30.777  1.00  0.00     0.016 A 
ATOM     35  C   UNL A   1      36.628  33.995  29.578  1.00  0.00     0.010 A 
ATOM     36  C   UNL A   1      35.205  33.255  31.395  1.00  0.00     0.010 A 
ATOM     37  C   UNL A   1      36.471  33.305  30.788  1.00  0.00    -0.014 A 
BRANCH  37  38
ATOM     38  C   UNL A   1      37.593  32.506  31.346  1.00  0.00     0.031 A 
ATOM     39  C   UNL A   1      38.125  32.858  32.708  1.00  0.00     0.074 A 
ATOM     40  C   UNL A   1      38.127  31.479  30.661  1.00  0.00     0.049 A 
ATOM     41  N   UNL A   1      39.133  32.344  33.366  1.00  0.00    -0.248 NA
ATOM     42  C   UNL A   1      37.423  33.932  33.428  1.00  0.00     0.031 C 
ATOM     43  C   UNL A   1      37.675  31.009  29.355  1.00  0.00     0.029 A 
ATOM     44  N   UNL A   1      39.178  30.648  30.973  1.00  0.00    -0.354 N 
ATOM     45  C   UNL A   1      39.186  33.030  34.571  1.00  0.00     0.074 A 
ATOM     46  C   UNL A   1      38.127  34.015  34.547  1.00  0.00     0.031 C 
ATOM     47  C   UNL A   1      38.446  29.977  28.972  1.00  0.00     0.029 A 
ATOM     48  C   UNL A   1      39.470  29.735  29.989  1.00  0.00     0.049 A 
ATOM     49  H   UNL A   1      39.673  30.703  31.822  1.00  0.00     0.167 HD
ATOM     50  C   UNL A   1      40.034  32.846  35.609  1.00  0.00     0.037 A 
ATOM     51  C   UNL A   1      40.463  28.826  29.911  1.00  0.00     0.037 A 
ATOM     52  C   UNL A   1      41.087  31.866  35.636  1.00  0.00     0.049 A 
ATOM     53  C   UNL A   1      41.449  28.700  31.045  1.00  0.00     0.074 A 
ATOM     54  C   UNL A   1      41.993  31.604  36.649  1.00  0.00     0.029 A 
ATOM     55  N   UNL A   1      41.376  30.989  34.602  1.00  0.00    -0.354 N 
ATOM     56  N   UNL A   1      41.487  29.347  32.185  1.00  0.00    -0.248 NA
ATOM     57  C   UNL A   1      42.533  27.720  30.881  1.00  0.00     0.031 C 
ATOM     58  C   UNL A   1      42.861  30.602  36.210  1.00  0.00     0.029 A 
ATOM     59  C   UNL A   1      42.463  30.200  34.946  1.00  0.00     0.049 A 
ATOM     60  H   UNL A   1      40.884  30.934  33.752  1.00  0.00     0.167 HD
ATOM     61  C   UNL A   1      42.573  28.834  32.882  1.00  0.00     0.074 A 
ATOM     62  C   UNL A   1      43.167  27.815  32.043  1.00  0.00     0.031 C 
ATOM     63  C   UNL A   1      43.036  29.177  34.109  1.00  0.00     0.037 A 
BRANCH  50  64
ATOM     64  C   UNL A   1      39.874  33.727  36.811  1.00  0.00     0.064 A 
ATOM     65  C   UNL A   1      39.037  33.339  37.868  1.00  0.00     0.173 A 
ATOM     66  C   UNL A   1      40.477  34.991  36.877  1.00  0.00     0.173 A 
ATOM     67  F   UNL A   1      38.434  32.141  37.849  1.00  0.00    -0.203 F 
ATOM     68  C   UNL A   1      38.793  34.195  38.939  1.00  0.00     0.198 A 
ATOM     69  C   UNL A   1      40.251  35.834  37.962  1.00  0.00     0.198 A 
ATOM     70  F   UNL A   1      41.295  35.400  35.897  1.00  0.00    -0.203 F 
ATOM     71  F   UNL A   1      37.960  33.820  39.919  1.00  0.00    -0.200 F 
ATOM     72  C   UNL A   1      39.401  35.441  38.985  1.00  0.00     0.200 A 
ATOM     73  F   UNL A   1      40.855  37.030  38.016  1.00  0.00    -0.200 F 
ATOM     74  F   UNL A   1      39.166  36.264  40.016  1.00  0.00    -0.200 F 
ENDBRANCH  50  64
BRANCH  51  75
ATOM     75  C   UNL A   1      40.583  27.961  28.706  1.00  0.00     0.064 A 
ATOM     76  C   UNL A   1      39.943  26.715  28.637  1.00  0.00     0.173 A 
ATOM     77  C   UNL A   1      41.331  28.372  27.594  1.00  0.00     0.173 A 
ATOM     78  F   UNL A   1      39.207  26.279  29.671  1.00  0.00    -0.203 F 
ATOM     79  C   UNL A   1      40.063  25.904  27.510  1.00  0.00     0.198 A 
ATOM     80  C   UNL A   1      41.426  27.573  26.456  1.00  0.00     0.198 A 
ATOM     81  F   UNL A   1      41.934  29.569  27.599  1.00  0.00    -0.203 F 
ATOM     82  F   UNL A   1      39.459  24.708  27.481  1.00  0.00    -0.200 F 
ATOM     83  C   UNL A   1      40.799  26.337  26.418  1.00  0.00     0.200 A 
ATOM     84  F   UNL A   1      42.112  28.009  25.390  1.00  0.00    -0.200 F 
ATOM     85  F   UNL A   1      40.895  25.568  25.325  1.00  0.00    -0.200 F 
ENDBRANCH  51  75
BRANCH  63  86
ATOM     86  C   UNL A   1      44.222  28.434  34.649  1.00  0.00     0.064 A 
ATOM     87  C   UNL A   1      44.041  27.297  35.454  1.00  0.00     0.173 A 
ATOM     88  C   UNL A   1      45.531  28.898  34.455  1.00  0.00     0.173 A 
ATOM     89  F   UNL A   1      42.807  26.820  35.680  1.00  0.00    -0.203 F 
ATOM     90  C   UNL A   1      45.124  26.666  36.058  1.00  0.00     0.198 A 
ATOM     91  C   UNL A   1      46.615  28.246  35.038  1.00  0.00     0.198 A 
ATOM     92  F   UNL A   1      45.759  29.975  33.687  1.00  0.00    -0.203 F 
ATOM     93  F   UNL A   1      44.920  25.608  36.856  1.00  0.00    -0.200 F 
ATOM     94  C   UNL A   1      46.409  27.139  35.848  1.00  0.00     0.200 A 
ATOM     95  F   UNL A   1      47.859  28.691  34.819  1.00  0.00    -0.200 F 
ATOM     96  F   UNL A   1      47.453  26.528  36.427  1.00  0.00    -0.200 F 
ENDBRANCH  63  86
ENDBRANCH  37  38
ENDBRANCH  30  32
ENDBRANCH  29  30
ENDBRANCH  28  29
ENDBRANCH  27  28
ENDBRANCH  26  27
ENDBRANCH  25  26
ENDBRANCH  24  25
ENDBRANCH  23  24
ENDBRANCH   1  23
TORSDOF 23
ENDMDL
MODEL 3
REMARK VINA RESULT:      -9.9      4.953      8.277
REMARK SMILES CS(=O)(=O)CCSCc1cc(F)cc(/C=C/C(=O)OCCOCCOCCOC(=O)c2ccc(-c3c4nc(c(-c5c(F)c(F)c(F)c(F)c5F)c5ccc([nH]5)c(-c5c(F)c(F)c(F)c(F)c5F)c5nc(c(-c6c(F)c(F)c(F)c(F)c6F)c6ccc3[nH]6)C=C5)C=C4)cc2)c1
REMARK SMILES IDX 21 1 20 2 19 3 17 4 18 5 16 6 15 7 14 8 9 9 10 10 94 11
REMARK SMILES IDX 11 12 12 13 13 14 8 15 7 16 6 17 5 18 2 19 1 20 3 21 4 22
REMARK SMILES IDX 22 23 23 24 24 25 25 26 26 27 27 28 28 29 29 30 30 31 31 32
REMARK SMILES IDX 32 33 93 34 33 35 92 36 34 37 35 38 36 39 86 40 37 41 91 42
REMARK SMILES IDX 85 43 87 44 38 45 90 46 84 47 83 48 39 50 71 51 51 52 70 53
REMARK SMILES IDX 52 54 55 55 69 56 88 57 53 58 54 59 68 61 89 62 56 63 40 64
REMARK SMILES IDX 41 65 49 66 42 67 43 68 47 69 50 70 44 71 45 72 48 73 46 74
REMARK SMILES IDX 72 75 73 76 81 77 74 78 75 79 79 80 82 81 76 82 77 83 80 84
REMARK SMILES IDX 78 85 57 86 58 87 66 88 59 89 60 90 64 91 67 92 61 93 62 94
REMARK SMILES IDX 65 95 63 96
REMARK H PARENT 87 49 55 60
REMARK Flexibility Score: inf
ROOT
ATOM      1  C   UNL A   1      31.592  28.461  23.343  1.00  0.00     0.202 C 
ENDROOT
BRANCH   1   2
ATOM      2  C   UNL A   1      31.636  26.942  23.115  1.00  0.00     0.261 C 
BRANCH   2   3
ATOM      3  O   UNL A   1      31.537  26.547  21.738  1.00  0.00    -0.460 OA
BRANCH   3   4
ATOM      4  C   UNL A   1      32.451  25.637  21.322  1.00  0.00     0.330 C 
ATOM      5  O   UNL A   1      33.060  25.645  20.263  1.00  0.00    -0.247 OA
BRANCH   4   6
ATOM      6  C   UNL A   1      32.786  24.670  22.390  1.00  0.00     0.094 C 
ATOM      7  C   UNL A   1      33.853  23.857  22.391  1.00  0.00     0.016 C 
BRANCH   7   8
ATOM      8  C   UNL A   1      34.061  22.800  23.393  1.00  0.00    -0.022 A 
ATOM      9  C   UNL A   1      35.624  21.422  24.703  1.00  0.00    -0.035 A 
ATOM     10  C   UNL A   1      34.524  20.785  25.283  1.00  0.00     0.043 A 
ATOM     11  C   UNL A   1      35.369  22.422  23.740  1.00  0.00     0.013 A 
ATOM     12  C   UNL A   1      33.229  21.129  24.914  1.00  0.00     0.124 A 
ATOM     13  F   UNL A   1      32.194  20.507  25.494  1.00  0.00    -0.207 F 
ATOM     14  C   UNL A   1      32.988  22.121  23.977  1.00  0.00     0.047 A 
BRANCH   9  15
ATOM     15  C   UNL A   1      37.041  21.235  25.194  1.00  0.00     0.105 C 
BRANCH  15  16
ATOM     16  S   UNL A   1      37.939  22.652  25.883  1.00  0.00    -0.156 SA
BRANCH  16  17
ATOM     17  C   UNL A   1      39.622  22.016  26.250  1.00  0.00     0.086 C 
BRANCH  17  18
ATOM     18  C   UNL A   1      39.921  20.547  26.003  1.00  0.00     0.147 C 
BRANCH  18  19
ATOM     19  S   UNL A   1      41.598  20.041  26.343  1.00  0.00     0.148 S 
ATOM     20  C   UNL A   1      42.523  21.559  26.265  1.00  0.00     0.158 C 
ATOM     21  O   UNL A   1      42.046  19.215  25.239  1.00  0.00    -0.229 OA
ATOM     22  O   UNL A   1      41.671  19.539  27.700  1.00  0.00    -0.229 OA
ENDBRANCH  18  19
ENDBRANCH  17  18
ENDBRANCH  16  17
ENDBRANCH  15  16
ENDBRANCH   9  15
ENDBRANCH   7   8
ENDBRANCH   4   6
ENDBRANCH   3   4
ENDBRANCH   2   3
ENDBRANCH   1   2
BRANCH   1  23
ATOM     23  O   UNL A   1      31.063  28.965  24.565  1.00  0.00    -0.376 OA
BRANCH  23  24
ATOM     24  C   UNL A   1      31.936  29.224  25.660  1.00  0.00     0.188 C 
BRANCH  24  25
ATOM     25  C   UNL A   1      32.036  30.642  26.259  1.00  0.00     0.188 C 
BRANCH  25  26
ATOM     26  O   UNL A   1      32.859  30.725  27.403  1.00  0.00    -0.376 OA
BRANCH  26  27
ATOM     27  C   UNL A   1      33.484  31.973  27.656  1.00  0.00     0.202 C 
BRANCH  27  28
ATOM     28  C   UNL A   1      32.726  33.270  27.318  1.00  0.00     0.261 C 
BRANCH  28  29
ATOM     29  O   UNL A   1      32.278  34.068  28.426  1.00  0.00    -0.460 OA
BRANCH  29  30
ATOM     30  C   UNL A   1      33.068  35.098  28.807  1.00  0.00     0.338 C 
ATOM     31  O   UNL A   1      32.842  36.285  28.680  1.00  0.00    -0.246 OA
BRANCH  30  32
ATOM     32  C   UNL A   1      34.211  34.537  29.562  1.00  0.00     0.060 A 
ATOM     33  C   UNL A   1      35.497  34.618  29.012  1.00  0.00     0.016 A 
ATOM     34  C   UNL A   1      34.010  33.918  30.797  1.00  0.00     0.016 A 
ATOM     35  C   UNL A   1      36.583  34.057  29.690  1.00  0.00     0.010 A 
ATOM     36  C   UNL A   1      35.096  33.342  31.466  1.00  0.00     0.010 A 
ATOM     37  C   UNL A   1      36.385  33.387  30.906  1.00  0.00    -0.014 A 
BRANCH  37  38
ATOM     38  C   UNL A   1      37.488  32.603  31.518  1.00  0.00     0.031 A 
ATOM     39  C   UNL A   1      37.999  33.009  32.873  1.00  0.00     0.074 A 
ATOM     40  C   UNL A   1      38.024  31.542  30.889  1.00  0.00     0.049 A 
ATOM     41  N   UNL A   1      38.991  32.516  33.571  1.00  0.00    -0.248 NA
ATOM     42  C   UNL A   1      37.295  34.121  33.533  1.00  0.00     0.031 C 
ATOM     43  C   UNL A   1      37.590  31.019  29.596  1.00  0.00     0.029 A 
ATOM     44  N   UNL A   1      39.061  30.716  31.256  1.00  0.00    -0.354 N 
ATOM     45  C   UNL A   1      39.029  33.254  34.746  1.00  0.00     0.074 A 
ATOM     46  C   UNL A   1      37.980  34.246  34.659  1.00  0.00     0.031 C 
ATOM     47  C   UNL A   1      38.359  29.964  29.273  1.00  0.00     0.029 A 
ATOM     48  C   UNL A   1      39.361  29.758  30.319  1.00  0.00     0.049 A 
ATOM     49  H   UNL A   1      39.541  30.804  32.111  1.00  0.00     0.167 HD
ATOM     50  C   UNL A   1      39.856  33.108  35.806  1.00  0.00     0.037 A 
ATOM     51  C   UNL A   1      40.347  28.838  30.298  1.00  0.00     0.037 A 
ATOM     52  C   UNL A   1      40.898  32.120  35.895  1.00  0.00     0.049 A 
ATOM     53  C   UNL A   1      41.311  28.753  31.455  1.00  0.00     0.074 A 
ATOM     54  C   UNL A   1      41.784  31.895  36.936  1.00  0.00     0.029 A 
ATOM     55  N   UNL A   1      41.197  31.196  34.907  1.00  0.00    -0.354 N 
ATOM     56  N   UNL A   1      41.335  29.449  32.566  1.00  0.00    -0.248 NA
ATOM     57  C   UNL A   1      42.388  27.756  31.353  1.00  0.00     0.031 C 
ATOM     58  C   UNL A   1      42.649  30.867  36.557  1.00  0.00     0.029 A 
ATOM     59  C   UNL A   1      42.270  30.414  35.304  1.00  0.00     0.049 A 
ATOM     60  H   UNL A   1      40.720  31.109  34.050  1.00  0.00     0.167 HD
ATOM     61  C   UNL A   1      42.403  28.957  33.305  1.00  0.00     0.074 A 
ATOM     62  C   UNL A   1      43.002  27.897  32.521  1.00  0.00     0.031 C 
ATOM     63  C   UNL A   1      42.848  29.350  34.523  1.00  0.00     0.037 A 
BRANCH  50  64
ATOM     64  C   UNL A   1      39.683  34.042  36.966  1.00  0.00     0.064 A 
ATOM     65  C   UNL A   1      40.392  35.252  37.014  1.00  0.00     0.173 A 
ATOM     66  C   UNL A   1      38.885  33.700  38.067  1.00  0.00     0.173 A 
ATOM     67  F   UNL A   1      41.171  35.621  35.987  1.00  0.00    -0.203 F 
ATOM     68  C   UNL A   1      40.325  36.076  38.134  1.00  0.00     0.198 A 
ATOM     69  C   UNL A   1      38.801  34.539  39.175  1.00  0.00     0.198 A 
ATOM     70  F   UNL A   1      38.179  32.561  38.061  1.00  0.00    -0.203 F 
ATOM     71  F   UNL A   1      41.040  37.208  38.175  1.00  0.00    -0.200 F 
ATOM     72  C   UNL A   1      39.529  35.719  39.213  1.00  0.00     0.200 A 
ATOM     73  F   UNL A   1      38.016  34.205  40.208  1.00  0.00    -0.200 F 
ATOM     74  F   UNL A   1      39.465  36.514  40.290  1.00  0.00    -0.200 F 
ENDBRANCH  50  64
BRANCH  51  75
ATOM     75  C   UNL A   1      40.480  27.920  29.135  1.00  0.00     0.064 A 
ATOM     76  C   UNL A   1      41.332  28.221  28.063  1.00  0.00     0.173 A 
ATOM     77  C   UNL A   1      39.765  26.716  29.081  1.00  0.00     0.173 A 
ATOM     78  F   UNL A   1      42.046  29.357  28.071  1.00  0.00    -0.203 F 
ATOM     79  C   UNL A   1      41.450  27.362  26.972  1.00  0.00     0.198 A 
ATOM     80  C   UNL A   1      39.905  25.844  28.002  1.00  0.00     0.198 A 
ATOM     81  F   UNL A   1      38.962  26.367  30.096  1.00  0.00    -0.203 F 
ATOM     82  F   UNL A   1      42.255  27.686  25.950  1.00  0.00    -0.200 F 
ATOM     83  C   UNL A   1      40.741  26.171  26.946  1.00  0.00     0.200 A 
ATOM     84  F   UNL A   1      39.244  24.678  27.996  1.00  0.00    -0.200 F 
ATOM     85  F   UNL A   1      40.872  25.334  25.907  1.00  0.00    -0.200 F 
ENDBRANCH  51  75
BRANCH  63  86
ATOM     86  C   UNL A   1      44.017  28.620  35.117  1.00  0.00     0.064 A 
ATOM     87  C   UNL A   1      45.329  29.019  34.817  1.00  0.00     0.173 A 
ATOM     88  C   UNL A   1      43.844  27.472  35.903  1.00  0.00     0.173 A 
ATOM     89  F   UNL A   1      45.549  30.105  34.060  1.00  0.00    -0.203 F 
ATOM     90  C   UNL A   1      46.423  28.283  35.265  1.00  0.00     0.198 A 
ATOM     91  C   UNL A   1      44.941  26.754  36.372  1.00  0.00     0.198 A 
ATOM     92  F   UNL A   1      42.610  27.054  36.226  1.00  0.00    -0.203 F 
ATOM     93  F   UNL A   1      47.664  28.661  34.929  1.00  0.00    -0.200 F 
ATOM     94  C   UNL A   1      46.228  27.153  36.043  1.00  0.00     0.200 A 
ATOM     95  F   UNL A   1      44.753  25.674  37.143  1.00  0.00    -0.200 F 
ATOM     96  F   UNL A   1      47.282  26.448  36.478  1.00  0.00    -0.200 F 
ENDBRANCH  63  86
ENDBRANCH  37  38
ENDBRANCH  30  32
ENDBRANCH  29  30
ENDBRANCH  28  29
ENDBRANCH  27  28
ENDBRANCH  26  27
ENDBRANCH  25  26
ENDBRANCH  24  25
ENDBRANCH  23  24
ENDBRANCH   1  23
TORSDOF 23
ENDMDL
