MODEL 1
REMARK VINA RESULT:      -7.3      0.000      0.000
REMARK SMILES CCCCN1C(=O)[C@@H]2[C@H](CCC(=O)OCCOCCOCCOC(=O)c3ccc(-c4c5nc(c(-c6c(F)c(F)c(F)c(F)c6F)c6ccc([nH]6)c(-c6c(F)c(F)c(F)c(F)c6F)c6nc(c(-c7c(F)c(F)c(F)c(F)c7F)c7ccc4[nH]7)C=C6)C=C5)cc3)[NH2+][C@]3(C(=O)Nc4c(CC)cccc43)[C@@H]2C1=O
REMARK SMILES IDX 17 1 16 2 15 3 14 4 12 5 13 6 11 7 10 8 9 9 5 10 6 11 103 12
REMARK SMILES IDX 7 13 8 14 102 15 104 16 90 17 89 18 91 19 101 20 92 23 93 24
REMARK SMILES IDX 94 25 100 26 95 28 99 29 98 30 4 31 3 32 2 33 1 34 96 35
REMARK SMILES IDX 97 36 18 37 19 38 20 39 21 40 22 41 23 42 24 43 25 44 26 45
REMARK SMILES IDX 27 46 88 47 28 48 87 49 29 50 30 51 31 52 81 53 32 54 86 55
REMARK SMILES IDX 80 56 82 57 33 58 85 59 79 60 78 61 34 63 66 64 46 65 65 66
REMARK SMILES IDX 47 67 50 68 64 69 83 70 48 71 49 72 63 74 84 75 51 76 35 77
REMARK SMILES IDX 36 78 44 79 37 80 38 81 42 82 45 83 39 84 40 85 43 86 41 87
REMARK SMILES IDX 67 88 68 89 76 90 69 91 70 92 74 93 77 94 71 95 72 96 75 97
REMARK SMILES IDX 73 98 52 99 53 100 61 101 54 102 55 103 59 104 62 105 56 106
REMARK SMILES IDX 57 107 60 108 58 109
REMARK H PARENT 89 21 89 22 93 27 82 62 50 73
REMARK Flexibility Score: inf
ROOT
ATOM      1  O   UNL A   1      36.672  33.150  36.251  1.00  0.00    -0.376 OA
ENDROOT
BRANCH   1   2
ATOM      2  C   UNL A   1      37.419  32.745  35.103  1.00  0.00     0.202 C 
BRANCH   2   3
ATOM      3  C   UNL A   1      38.128  31.384  35.161  1.00  0.00     0.261 C 
BRANCH   3   4
ATOM      4  O   UNL A   1      39.023  31.155  34.049  1.00  0.00    -0.463 OA
BRANCH   4   5
ATOM      5  C   UNL A   1      39.662  29.961  34.048  1.00  0.00     0.306 C 
ATOM      6  O   UNL A   1      40.222  29.476  35.026  1.00  0.00    -0.252 OA
BRANCH   5   7
ATOM      7  C   UNL A   1      39.476  29.147  32.780  1.00  0.00     0.129 C 
BRANCH   7   8
ATOM      8  C   UNL A   1      38.269  29.230  31.842  1.00  0.00     0.077 C 
BRANCH   8   9
ATOM      9  C   UNL A   1      38.240  28.415  30.539  1.00  0.00     0.197 C 
ATOM     10  N   UNL A   1      39.546  31.143  29.608  1.00  0.00    -0.282 N 
ATOM     11  C   UNL A   1      38.325  30.625  29.281  1.00  0.00     0.239 C 
ATOM     12  C   UNL A   1      40.548  30.235  29.338  1.00  0.00     0.240 C 
ATOM     13  O   UNL A   1      37.272  31.190  29.111  1.00  0.00    -0.274 OA
ATOM     14  C   UNL A   1      38.462  29.137  29.207  1.00  0.00     0.157 C 
ATOM     15  C   UNL A   1      39.927  28.943  28.857  1.00  0.00     0.174 C 
ATOM     16  O   UNL A   1      41.747  30.471  29.342  1.00  0.00    -0.274 OA
ATOM     17  C   UNL A   1      40.310  27.652  29.560  1.00  0.00     0.216 C 
ATOM     18  N   UNL A   1      39.362  27.471  30.674  1.00  0.00    -0.326 N 
ATOM     19  C   UNL A   1      41.779  27.581  30.095  1.00  0.00     0.291 C 
ATOM     20  C   UNL A   1      40.280  26.453  28.629  1.00  0.00     0.047 A 
ATOM     21  H   UNL A   1      39.003  26.516  30.661  1.00  0.00     0.347 HD
ATOM     22  H   UNL A   1      39.844  27.648  31.556  1.00  0.00     0.347 HD
ATOM     23  O   UNL A   1      42.282  28.224  31.003  1.00  0.00    -0.267 OA
ATOM     24  N   UNL A   1      42.423  26.566  29.391  1.00  0.00    -0.320 N 
ATOM     25  C   UNL A   1      41.556  25.883  28.548  1.00  0.00     0.054 A 
ATOM     26  C   UNL A   1      39.210  25.889  27.948  1.00  0.00     0.013 A 
ATOM     27  H   UNL A   1      43.381  26.357  29.481  1.00  0.00     0.170 HD
ATOM     28  C   UNL A   1      41.828  24.768  27.766  1.00  0.00    -0.024 A 
ATOM     29  C   UNL A   1      39.447  24.757  27.170  1.00  0.00     0.001 A 
ATOM     30  C   UNL A   1      40.739  24.212  27.070  1.00  0.00     0.006 A 
BRANCH  10  31
ATOM     31  C   UNL A   1      39.824  32.434  30.237  1.00  0.00     0.128 C 
BRANCH  31  32
ATOM     32  C   UNL A   1      38.981  32.898  31.434  1.00  0.00     0.022 C 
BRANCH  32  33
ATOM     33  C   UNL A   1      39.122  34.349  31.918  1.00  0.00    -0.002 C 
ATOM     34  C   UNL A   1      40.026  34.569  33.123  1.00  0.00     0.004 C 
ENDBRANCH  32  33
ENDBRANCH  31  32
ENDBRANCH  10  31
BRANCH  28  35
ATOM     35  C   UNL A   1      43.198  24.158  27.633  1.00  0.00     0.034 C 
ATOM     36  C   UNL A   1      43.510  23.149  28.730  1.00  0.00     0.009 C 
ENDBRANCH  28  35
ENDBRANCH   8   9
ENDBRANCH   7   8
ENDBRANCH   5   7
ENDBRANCH   4   5
ENDBRANCH   3   4
ENDBRANCH   2   3
ENDBRANCH   1   2
BRANCH   1  37
ATOM     37  C   UNL A   1      37.374  33.533  37.429  1.00  0.00     0.188 C 
BRANCH  37  38
ATOM     38  C   UNL A   1      37.230  32.650  38.675  1.00  0.00     0.188 C 
BRANCH  38  39
ATOM     39  O   UNL A   1      38.458  32.165  39.164  1.00  0.00    -0.376 OA
BRANCH  39  40
ATOM     40  C   UNL A   1      38.853  32.501  40.478  1.00  0.00     0.202 C 
BRANCH  40  41
ATOM     41  C   UNL A   1      39.823  33.682  40.625  1.00  0.00     0.261 C 
BRANCH  41  42
ATOM     42  O   UNL A   1      41.060  33.575  39.903  1.00  0.00    -0.460 OA
BRANCH  42  43
ATOM     43  C   UNL A   1      41.366  34.560  39.024  1.00  0.00     0.338 C 
ATOM     44  O   UNL A   1      41.376  35.757  39.242  1.00  0.00    -0.246 OA
BRANCH  43  45
ATOM     45  C   UNL A   1      41.952  33.896  37.829  1.00  0.00     0.060 A 
ATOM     46  C   UNL A   1      43.324  33.971  37.576  1.00  0.00     0.016 A 
ATOM     47  C   UNL A   1      41.101  33.275  36.902  1.00  0.00     0.016 A 
ATOM     48  C   UNL A   1      43.846  33.409  36.409  1.00  0.00     0.010 A 
ATOM     49  C   UNL A   1      41.626  32.719  35.727  1.00  0.00     0.010 A 
ATOM     50  C   UNL A   1      43.007  32.763  35.483  1.00  0.00    -0.014 A 
BRANCH  50  51
ATOM     51  C   UNL A   1      43.616  31.960  34.392  1.00  0.00     0.031 A 
ATOM     52  C   UNL A   1      43.922  30.499  34.527  1.00  0.00     0.074 A 
ATOM     53  C   UNL A   1      43.877  32.597  33.234  1.00  0.00     0.049 A 
ATOM     54  N   UNL A   1      44.337  29.663  33.604  1.00  0.00    -0.248 NA
ATOM     55  C   UNL A   1      43.751  29.893  35.853  1.00  0.00     0.031 C 
ATOM     56  C   UNL A   1      43.664  34.027  33.002  1.00  0.00     0.029 A 
ATOM     57  N   UNL A   1      44.365  32.133  32.039  1.00  0.00    -0.354 N 
ATOM     58  C   UNL A   1      44.458  28.431  34.230  1.00  0.00     0.074 A 
ATOM     59  C   UNL A   1      44.111  28.633  35.623  1.00  0.00     0.031 C 
ATOM     60  C   UNL A   1      44.000  34.319  31.738  1.00  0.00     0.029 A 
ATOM     61  C   UNL A   1      44.466  33.106  31.076  1.00  0.00     0.049 A 
ATOM     62  H   UNL A   1      44.618  31.194  31.887  1.00  0.00     0.167 HD
ATOM     63  C   UNL A   1      44.809  27.243  33.680  1.00  0.00     0.037 A 
ATOM     64  C   UNL A   1      44.882  33.033  29.797  1.00  0.00     0.037 A 
ATOM     65  C   UNL A   1      45.154  27.048  32.291  1.00  0.00     0.049 A 
ATOM     66  C   UNL A   1      45.278  31.701  29.224  1.00  0.00     0.074 A 
ATOM     67  C   UNL A   1      45.452  25.863  31.637  1.00  0.00     0.029 A 
ATOM     68  N   UNL A   1      45.266  28.057  31.348  1.00  0.00    -0.354 N 
ATOM     69  N   UNL A   1      45.277  30.523  29.797  1.00  0.00    -0.248 NA
ATOM     70  C   UNL A   1      45.720  31.686  27.822  1.00  0.00     0.031 C 
ATOM     71  C   UNL A   1      45.798  26.161  30.317  1.00  0.00     0.029 A 
ATOM     72  C   UNL A   1      45.662  27.525  30.129  1.00  0.00     0.049 A 
ATOM     73  H   UNL A   1      45.090  29.012  31.517  1.00  0.00     0.167 HD
ATOM     74  C   UNL A   1      45.696  29.626  28.824  1.00  0.00     0.074 A 
ATOM     75  C   UNL A   1      45.920  30.392  27.616  1.00  0.00     0.031 C 
ATOM     76  C   UNL A   1      45.883  28.289  28.929  1.00  0.00     0.037 A 
BRANCH  63  77
ATOM     77  C   UNL A   1      44.822  26.021  34.552  1.00  0.00     0.064 A 
ATOM     78  C   UNL A   1      43.665  25.248  34.731  1.00  0.00     0.173 A 
ATOM     79  C   UNL A   1      46.031  25.524  35.067  1.00  0.00     0.173 A 
ATOM     80  F   UNL A   1      42.488  25.676  34.251  1.00  0.00    -0.203 F 
ATOM     81  C   UNL A   1      43.720  24.020  35.384  1.00  0.00     0.198 A 
ATOM     82  C   UNL A   1      46.084  24.285  35.700  1.00  0.00     0.198 A 
ATOM     83  F   UNL A   1      47.169  26.216  34.905  1.00  0.00    -0.203 F 
ATOM     84  F   UNL A   1      42.602  23.295  35.538  1.00  0.00    -0.200 F 
ATOM     85  C   UNL A   1      44.930  23.533  35.856  1.00  0.00     0.200 A 
ATOM     86  F   UNL A   1      47.259  23.805  36.133  1.00  0.00    -0.200 F 
ATOM     87  F   UNL A   1      44.986  22.332  36.449  1.00  0.00    -0.200 F 
ENDBRANCH  63  77
BRANCH  64  88
ATOM     88  C   UNL A   1      44.921  34.262  28.967  1.00  0.00     0.064 A 
ATOM     89  C   UNL A   1      43.789  34.695  28.262  1.00  0.00     0.173 A 
ATOM     90  C   UNL A   1      46.090  35.028  28.863  1.00  0.00     0.173 A 
ATOM     91  F   UNL A   1      42.653  33.987  28.319  1.00  0.00    -0.203 F 
ATOM     92  C   UNL A   1      43.834  35.836  27.466  1.00  0.00     0.198 A 
ATOM     93  C   UNL A   1      46.125  36.187  28.091  1.00  0.00     0.198 A 
ATOM     94  F   UNL A   1      47.197  34.660  29.525  1.00  0.00    -0.203 F 
ATOM     95  F   UNL A   1      42.753  36.202  26.764  1.00  0.00    -0.200 F 
ATOM     96  C   UNL A   1      45.000  36.584  27.385  1.00  0.00     0.200 A 
ATOM     97  F   UNL A   1      47.247  36.916  28.030  1.00  0.00    -0.200 F 
ATOM     98  F   UNL A   1      45.040  37.685  26.621  1.00  0.00    -0.200 F 
ENDBRANCH  64  88
BRANCH  76  99
ATOM     99  C   UNL A   1      46.346  27.553  27.704  1.00  0.00     0.064 A 
ATOM    100  C   UNL A   1      47.704  27.274  27.487  1.00  0.00     0.173 A 
ATOM    101  C   UNL A   1      45.419  27.070  26.768  1.00  0.00     0.173 A 
ATOM    102  F   UNL A   1      48.631  27.728  28.344  1.00  0.00    -0.203 F 
ATOM    103  C   UNL A   1      48.117  26.552  26.371  1.00  0.00     0.198 A 
ATOM    104  C   UNL A   1      45.834  26.321  25.669  1.00  0.00     0.198 A 
ATOM    105  F   UNL A   1      44.109  27.303  26.930  1.00  0.00    -0.203 F 
ATOM    106  F   UNL A   1      49.423  26.331  26.165  1.00  0.00    -0.200 F 
ATOM    107  C   UNL A   1      47.182  26.067  25.469  1.00  0.00     0.200 A 
ATOM    108  F   UNL A   1      44.928  25.842  24.806  1.00  0.00    -0.200 F 
ATOM    109  F   UNL A   1      47.582  25.359  24.403  1.00  0.00    -0.200 F 
ENDBRANCH  76  99
ENDBRANCH  50  51
ENDBRANCH  43  45
ENDBRANCH  42  43
ENDBRANCH  41  42
ENDBRANCH  40  41
ENDBRANCH  39  40
ENDBRANCH  38  39
ENDBRANCH  37  38
ENDBRANCH   1  37
TORSDOF 23
ENDMDL
MODEL 2
REMARK VINA RESULT:      -7.3      6.001     11.564
REMARK SMILES CCCCN1C(=O)[C@@H]2[C@H](CCC(=O)OCCOCCOCCOC(=O)c3ccc(-c4c5nc(c(-c6c(F)c(F)c(F)c(F)c6F)c6ccc([nH]6)c(-c6c(F)c(F)c(F)c(F)c6F)c6nc(c(-c7c(F)c(F)c(F)c(F)c7F)c7ccc4[nH]7)C=C6)C=C5)cc3)[NH2+][C@]3(C(=O)Nc4c(CC)cccc43)[C@@H]2C1=O
REMARK SMILES IDX 17 1 16 2 15 3 14 4 12 5 13 6 11 7 10 8 9 9 5 10 6 11 103 12
REMARK SMILES IDX 7 13 8 14 102 15 104 16 90 17 89 18 91 19 101 20 92 23 93 24
REMARK SMILES IDX 94 25 100 26 95 28 99 29 98 30 4 31 3 32 2 33 1 34 96 35
REMARK SMILES IDX 97 36 18 37 19 38 20 39 21 40 22 41 23 42 24 43 25 44 26 45
REMARK SMILES IDX 27 46 88 47 28 48 87 49 29 50 30 51 31 52 81 53 32 54 86 55
REMARK SMILES IDX 80 56 82 57 33 58 85 59 79 60 78 61 34 63 66 64 46 65 65 66
REMARK SMILES IDX 47 67 50 68 64 69 83 70 48 71 49 72 63 74 84 75 51 76 35 77
REMARK SMILES IDX 36 78 44 79 37 80 38 81 42 82 45 83 39 84 40 85 43 86 41 87
REMARK SMILES IDX 67 88 68 89 76 90 69 91 70 92 74 93 77 94 71 95 72 96 75 97
REMARK SMILES IDX 73 98 52 99 53 100 61 101 54 102 55 103 59 104 62 105 56 106
REMARK SMILES IDX 57 107 60 108 58 109
REMARK H PARENT 89 21 89 22 93 27 82 62 50 73
REMARK Flexibility Score: inf
ROOT
ATOM      1  O   UNL A   1      40.179  23.934  26.537  1.00  0.00    -0.376 OA
ENDROOT
BRANCH   1   2
ATOM      2  C   UNL A   1      38.800  23.781  26.879  1.00  0.00     0.202 C 
BRANCH   2   3
ATOM      3  C   UNL A   1      37.822  23.432  25.747  1.00  0.00     0.261 C 
BRANCH   3   4
ATOM      4  O   UNL A   1      36.487  23.942  25.964  1.00  0.00    -0.463 OA
BRANCH   4   5
ATOM      5  C   UNL A   1      35.819  24.327  24.851  1.00  0.00     0.306 C 
ATOM      6  O   UNL A   1      35.898  23.760  23.766  1.00  0.00    -0.252 OA
BRANCH   5   7
ATOM      7  C   UNL A   1      34.789  25.419  25.081  1.00  0.00     0.129 C 
BRANCH   7   8
ATOM      8  C   UNL A   1      33.403  25.217  25.696  1.00  0.00     0.077 C 
BRANCH   8   9
ATOM      9  C   UNL A   1      32.955  23.822  26.160  1.00  0.00     0.197 C 
ATOM     10  N   UNL A   1      30.329  24.969  24.817  1.00  0.00    -0.282 N 
ATOM     11  C   UNL A   1      30.566  24.699  26.135  1.00  0.00     0.239 C 
ATOM     12  C   UNL A   1      30.593  23.863  24.037  1.00  0.00     0.240 C 
ATOM     13  O   UNL A   1      30.199  25.294  27.119  1.00  0.00    -0.274 OA
ATOM     14  C   UNL A   1      31.458  23.500  26.204  1.00  0.00     0.157 C 
ATOM     15  C   UNL A   1      31.144  22.762  24.915  1.00  0.00     0.174 C 
ATOM     16  O   UNL A   1      30.300  23.732  22.858  1.00  0.00    -0.274 OA
ATOM     17  C   UNL A   1      32.463  22.118  24.523  1.00  0.00     0.216 C 
ATOM     18  N   UNL A   1      33.532  22.903  25.166  1.00  0.00    -0.326 N 
ATOM     19  C   UNL A   1      32.734  22.008  22.986  1.00  0.00     0.291 C 
ATOM     20  C   UNL A   1      32.543  20.659  24.939  1.00  0.00     0.047 A 
ATOM     21  H   UNL A   1      34.185  22.270  25.629  1.00  0.00     0.347 HD
ATOM     22  H   UNL A   1      34.023  23.446  24.454  1.00  0.00     0.347 HD
ATOM     23  O   UNL A   1      32.940  22.911  22.191  1.00  0.00    -0.267 OA
ATOM     24  N   UNL A   1      32.785  20.651  22.675  1.00  0.00    -0.320 N 
ATOM     25  C   UNL A   1      32.698  19.851  23.807  1.00  0.00     0.054 A 
ATOM     26  C   UNL A   1      32.525  20.101  26.209  1.00  0.00     0.013 A 
ATOM     27  H   UNL A   1      32.873  20.300  21.759  1.00  0.00     0.170 HD
ATOM     28  C   UNL A   1      32.800  18.468  23.885  1.00  0.00    -0.024 A 
ATOM     29  C   UNL A   1      32.646  18.716  26.321  1.00  0.00     0.001 A 
ATOM     30  C   UNL A   1      32.768  17.910  25.176  1.00  0.00     0.006 A 
BRANCH  10  31
ATOM     31  C   UNL A   1      29.932  26.249  24.230  1.00  0.00     0.128 C 
BRANCH  31  32
ATOM     32  C   UNL A   1      30.856  27.469  24.362  1.00  0.00     0.022 C 
BRANCH  32  33
ATOM     33  C   UNL A   1      30.438  28.787  23.692  1.00  0.00    -0.002 C 
ATOM     34  C   UNL A   1      29.126  28.761  22.920  1.00  0.00     0.004 C 
ENDBRANCH  32  33
ENDBRANCH  31  32
ENDBRANCH  10  31
BRANCH  28  35
ATOM     35  C   UNL A   1      32.930  17.574  22.680  1.00  0.00     0.034 C 
ATOM     36  C   UNL A   1      34.129  16.638  22.760  1.00  0.00     0.009 C 
ENDBRANCH  28  35
ENDBRANCH   8   9
ENDBRANCH   7   8
ENDBRANCH   5   7
ENDBRANCH   4   5
ENDBRANCH   3   4
ENDBRANCH   2   3
ENDBRANCH   1   2
BRANCH   1  37
ATOM     37  C   UNL A   1      41.041  22.806  26.639  1.00  0.00     0.188 C 
BRANCH  37  38
ATOM     38  C   UNL A   1      40.956  21.943  27.905  1.00  0.00     0.188 C 
BRANCH  38  39
ATOM     39  O   UNL A   1      40.753  20.576  27.639  1.00  0.00    -0.376 OA
BRANCH  39  40
ATOM     40  C   UNL A   1      40.703  20.139  26.296  1.00  0.00     0.202 C 
BRANCH  40  41
ATOM     41  C   UNL A   1      41.833  19.210  25.832  1.00  0.00     0.261 C 
BRANCH  41  42
ATOM     42  O   UNL A   1      43.171  19.661  26.101  1.00  0.00    -0.460 OA
BRANCH  42  43
ATOM     43  C   UNL A   1      43.893  20.152  25.066  1.00  0.00     0.338 C 
ATOM     44  O   UNL A   1      43.988  19.676  23.949  1.00  0.00    -0.246 OA
BRANCH  43  45
ATOM     45  C   UNL A   1      44.324  21.521  25.459  1.00  0.00     0.060 A 
ATOM     46  C   UNL A   1      44.216  22.585  24.560  1.00  0.00     0.016 A 
ATOM     47  C   UNL A   1      44.932  21.717  26.708  1.00  0.00     0.016 A 
ATOM     48  C   UNL A   1      44.696  23.847  24.918  1.00  0.00     0.010 A 
ATOM     49  C   UNL A   1      45.421  22.981  27.061  1.00  0.00     0.010 A 
ATOM     50  C   UNL A   1      45.287  24.061  26.176  1.00  0.00    -0.014 A 
BRANCH  50  51
ATOM     51  C   UNL A   1      45.552  25.453  26.622  1.00  0.00     0.031 A 
ATOM     52  C   UNL A   1      46.905  26.093  26.542  1.00  0.00     0.074 A 
ATOM     53  C   UNL A   1      44.505  26.155  27.098  1.00  0.00     0.049 A 
ATOM     54  N   UNL A   1      47.235  27.339  26.782  1.00  0.00    -0.248 NA
ATOM     55  C   UNL A   1      48.033  25.237  26.152  1.00  0.00     0.031 C 
ATOM     56  C   UNL A   1      43.151  25.623  27.266  1.00  0.00     0.029 A 
ATOM     57  N   UNL A   1      44.407  27.457  27.518  1.00  0.00    -0.354 N 
ATOM     58  C   UNL A   1      48.600  27.426  26.554  1.00  0.00     0.074 A 
ATOM     59  C   UNL A   1      49.049  26.096  26.194  1.00  0.00     0.031 C 
ATOM     60  C   UNL A   1      42.354  26.595  27.732  1.00  0.00     0.029 A 
ATOM     61  C   UNL A   1      43.141  27.810  27.913  1.00  0.00     0.049 A 
ATOM     62  H   UNL A   1      45.171  28.079  27.533  1.00  0.00     0.167 HD
ATOM     63  C   UNL A   1      49.394  28.522  26.624  1.00  0.00     0.037 A 
ATOM     64  C   UNL A   1      42.660  28.983  28.366  1.00  0.00     0.037 A 
ATOM     65  C   UNL A   1      48.940  29.846  26.984  1.00  0.00     0.049 A 
ATOM     66  C   UNL A   1      43.571  30.175  28.444  1.00  0.00     0.074 A 
ATOM     67  C   UNL A   1      49.666  31.026  27.008  1.00  0.00     0.029 A 
ATOM     68  N   UNL A   1      47.656  30.164  27.397  1.00  0.00    -0.354 N 
ATOM     69  N   UNL A   1      44.835  30.270  28.114  1.00  0.00    -0.248 NA
ATOM     70  C   UNL A   1      42.986  31.428  28.943  1.00  0.00     0.031 C 
ATOM     71  C   UNL A   1      48.840  32.044  27.489  1.00  0.00     0.029 A 
ATOM     72  C   UNL A   1      47.581  31.513  27.712  1.00  0.00     0.049 A 
ATOM     73  H   UNL A   1      46.908  29.527  27.459  1.00  0.00     0.167 HD
ATOM     74  C   UNL A   1      45.192  31.591  28.346  1.00  0.00     0.074 A 
ATOM     75  C   UNL A   1      44.003  32.269  28.821  1.00  0.00     0.031 C 
ATOM     76  C   UNL A   1      46.398  32.184  28.184  1.00  0.00     0.037 A 
BRANCH  63  77
ATOM     77  C   UNL A   1      50.849  28.382  26.281  1.00  0.00     0.064 A 
ATOM     78  C   UNL A   1      51.815  28.216  27.283  1.00  0.00     0.173 A 
ATOM     79  C   UNL A   1      51.256  28.235  24.944  1.00  0.00     0.173 A 
ATOM     80  F   UNL A   1      51.475  28.338  28.575  1.00  0.00    -0.203 F 
ATOM     81  C   UNL A   1      53.133  27.901  26.961  1.00  0.00     0.198 A 
ATOM     82  C   UNL A   1      52.569  27.899  24.628  1.00  0.00     0.198 A 
ATOM     83  F   UNL A   1      50.365  28.365  23.949  1.00  0.00    -0.203 F 
ATOM     84  F   UNL A   1      54.039  27.741  27.936  1.00  0.00    -0.200 F 
ATOM     85  C   UNL A   1      53.506  27.729  25.636  1.00  0.00     0.200 A 
ATOM     86  F   UNL A   1      52.922  27.709  23.348  1.00  0.00    -0.200 F 
ATOM     87  F   UNL A   1      54.766  27.386  25.331  1.00  0.00    -0.200 F 
ENDBRANCH  63  77
BRANCH  64  88
ATOM     88  C   UNL A   1      41.232  29.088  28.758  1.00  0.00     0.064 A 
ATOM     89  C   UNL A   1      40.228  29.259  27.796  1.00  0.00     0.173 A 
ATOM     90  C   UNL A   1      40.845  29.018  30.105  1.00  0.00     0.173 A 
ATOM     91  F   UNL A   1      40.551  29.346  26.498  1.00  0.00    -0.203 F 
ATOM     92  C   UNL A   1      38.891  29.380  28.169  1.00  0.00     0.198 A 
ATOM     93  C   UNL A   1      39.505  29.108  30.473  1.00  0.00     0.198 A 
ATOM     94  F   UNL A   1      41.769  28.847  31.062  1.00  0.00    -0.203 F 
ATOM     95  F   UNL A   1      37.955  29.591  27.233  1.00  0.00    -0.200 F 
ATOM     96  C   UNL A   1      38.530  29.298  29.506  1.00  0.00     0.200 A 
ATOM     97  F   UNL A   1      39.159  29.011  31.764  1.00  0.00    -0.200 F 
ATOM     98  F   UNL A   1      37.243  29.411  29.862  1.00  0.00    -0.200 F 
ENDBRANCH  64  88
BRANCH  76  99
ATOM     99  C   UNL A   1      46.504  33.647  28.512  1.00  0.00     0.064 A 
ATOM    100  C   UNL A   1      46.238  34.633  27.551  1.00  0.00     0.173 A 
ATOM    101  C   UNL A   1      46.814  34.066  29.814  1.00  0.00     0.173 A 
ATOM    102  F   UNL A   1      45.952  34.286  26.287  1.00  0.00    -0.203 F 
ATOM    103  C   UNL A   1      46.294  35.986  27.878  1.00  0.00     0.198 A 
ATOM    104  C   UNL A   1      46.839  35.419  30.145  1.00  0.00     0.198 A 
ATOM    105  F   UNL A   1      47.070  33.164  30.773  1.00  0.00    -0.203 F 
ATOM    106  F   UNL A   1      46.075  36.911  26.933  1.00  0.00    -0.200 F 
ATOM    107  C   UNL A   1      46.584  36.377  29.176  1.00  0.00     0.200 A 
ATOM    108  F   UNL A   1      47.105  35.794  31.403  1.00  0.00    -0.200 F 
ATOM    109  F   UNL A   1      46.623  37.679  29.492  1.00  0.00    -0.200 F 
ENDBRANCH  76  99
ENDBRANCH  50  51
ENDBRANCH  43  45
ENDBRANCH  42  43
ENDBRANCH  41  42
ENDBRANCH  40  41
ENDBRANCH  39  40
ENDBRANCH  38  39
ENDBRANCH  37  38
ENDBRANCH   1  37
TORSDOF 23
ENDMDL
MODEL 3
REMARK VINA RESULT:      -7.0      6.049      9.994
REMARK SMILES CCCCN1C(=O)[C@@H]2[C@H](CCC(=O)OCCOCCOCCOC(=O)c3ccc(-c4c5nc(c(-c6c(F)c(F)c(F)c(F)c6F)c6ccc([nH]6)c(-c6c(F)c(F)c(F)c(F)c6F)c6nc(c(-c7c(F)c(F)c(F)c(F)c7F)c7ccc4[nH]7)C=C6)C=C5)cc3)[NH2+][C@]3(C(=O)Nc4c(CC)cccc43)[C@@H]2C1=O
REMARK SMILES IDX 17 1 16 2 15 3 14 4 12 5 13 6 11 7 10 8 9 9 5 10 6 11 103 12
REMARK SMILES IDX 7 13 8 14 102 15 104 16 90 17 89 18 91 19 101 20 92 23 93 24
REMARK SMILES IDX 94 25 100 26 95 28 99 29 98 30 4 31 3 32 2 33 1 34 96 35
REMARK SMILES IDX 97 36 18 37 19 38 20 39 21 40 22 41 23 42 24 43 25 44 26 45
REMARK SMILES IDX 27 46 88 47 28 48 87 49 29 50 30 51 31 52 81 53 32 54 86 55
REMARK SMILES IDX 80 56 82 57 33 58 85 59 79 60 78 61 34 63 66 64 46 65 65 66
REMARK SMILES IDX 47 67 50 68 64 69 83 70 48 71 49 72 63 74 84 75 51 76 35 77
REMARK SMILES IDX 36 78 44 79 37 80 38 81 42 82 45 83 39 84 40 85 43 86 41 87
REMARK SMILES IDX 67 88 68 89 76 90 69 91 70 92 74 93 77 94 71 95 72 96 75 97
REMARK SMILES IDX 73 98 52 99 53 100 61 101 54 102 55 103 59 104 62 105 56 106
REMARK SMILES IDX 57 107 60 108 58 109
REMARK H PARENT 89 21 89 22 93 27 82 62 50 73
REMARK Flexibility Score: inf
ROOT
ATOM      1  O   UNL A   1      37.709  29.652  28.319  1.00  0.00    -0.376 OA
ENDROOT
BRANCH   1   2
ATOM      2  C   UNL A   1      36.784  29.957  27.273  1.00  0.00     0.202 C 
BRANCH   2   3
ATOM      3  C   UNL A   1      35.287  29.909  27.613  1.00  0.00     0.261 C 
BRANCH   3   4
ATOM      4  O   UNL A   1      34.483  29.294  26.581  1.00  0.00    -0.463 OA
BRANCH   4   5
ATOM      5  C   UNL A   1      33.146  29.306  26.795  1.00  0.00     0.306 C 
ATOM      6  O   UNL A   1      32.588  29.989  27.649  1.00  0.00    -0.252 OA
BRANCH   5   7
ATOM      7  C   UNL A   1      32.336  28.546  25.760  1.00  0.00     0.129 C 
BRANCH   7   8
ATOM      8  C   UNL A   1      31.040  27.779  26.035  1.00  0.00     0.077 C 
BRANCH   8   9
ATOM      9  C   UNL A   1      31.031  26.242  26.029  1.00  0.00     0.197 C 
ATOM     10  N   UNL A   1      30.223  26.941  23.049  1.00  0.00    -0.282 N 
ATOM     11  C   UNL A   1      29.463  26.367  24.029  1.00  0.00     0.239 C 
ATOM     12  C   UNL A   1      31.400  26.244  22.874  1.00  0.00     0.240 C 
ATOM     13  O   UNL A   1      28.289  26.509  24.271  1.00  0.00    -0.274 OA
ATOM     14  C   UNL A   1      30.360  25.509  24.863  1.00  0.00     0.157 C 
ATOM     15  C   UNL A   1      31.472  25.135  23.900  1.00  0.00     0.174 C 
ATOM     16  O   UNL A   1      32.191  26.394  21.956  1.00  0.00    -0.274 OA
ATOM     17  C   UNL A   1      32.710  25.042  24.777  1.00  0.00     0.216 C 
ATOM     18  N   UNL A   1      32.454  25.869  25.970  1.00  0.00    -0.326 N 
ATOM     19  C   UNL A   1      34.052  25.480  24.104  1.00  0.00     0.291 C 
ATOM     20  C   UNL A   1      33.034  23.612  25.174  1.00  0.00     0.047 A 
ATOM     21  H   UNL A   1      32.699  25.340  26.807  1.00  0.00     0.347 HD
ATOM     22  H   UNL A   1      33.020  26.716  25.918  1.00  0.00     0.347 HD
ATOM     23  O   UNL A   1      34.388  26.600  23.750  1.00  0.00    -0.267 OA
ATOM     24  N   UNL A   1      34.869  24.353  24.045  1.00  0.00    -0.320 N 
ATOM     25  C   UNL A   1      34.297  23.260  24.685  1.00  0.00     0.054 A 
ATOM     26  C   UNL A   1      32.297  22.718  25.935  1.00  0.00     0.013 A 
ATOM     27  H   UNL A   1      35.748  24.333  23.602  1.00  0.00     0.170 HD
ATOM     28  C   UNL A   1      34.858  22.007  24.897  1.00  0.00    -0.024 A 
ATOM     29  C   UNL A   1      32.841  21.458  26.182  1.00  0.00     0.001 A 
ATOM     30  C   UNL A   1      34.097  21.103  25.660  1.00  0.00     0.006 A 
BRANCH  10  31
ATOM     31  C   UNL A   1      29.938  28.169  22.308  1.00  0.00     0.128 C 
BRANCH  31  32
ATOM     32  C   UNL A   1      30.142  29.534  22.982  1.00  0.00     0.022 C 
BRANCH  32  33
ATOM     33  C   UNL A   1      28.905  30.365  23.357  1.00  0.00    -0.002 C 
ATOM     34  C   UNL A   1      28.257  31.150  22.225  1.00  0.00     0.004 C 
ENDBRANCH  32  33
ENDBRANCH  31  32
ENDBRANCH  10  31
BRANCH  28  35
ATOM     35  C   UNL A   1      36.198  21.591  24.352  1.00  0.00     0.034 C 
ATOM     36  C   UNL A   1      36.733  20.318  24.994  1.00  0.00     0.009 C 
ENDBRANCH  28  35
ENDBRANCH   8   9
ENDBRANCH   7   8
ENDBRANCH   5   7
ENDBRANCH   4   5
ENDBRANCH   3   4
ENDBRANCH   2   3
ENDBRANCH   1   2
BRANCH   1  37
ATOM     37  C   UNL A   1      38.849  28.856  28.017  1.00  0.00     0.188 C 
BRANCH  37  38
ATOM     38  C   UNL A   1      39.096  27.598  28.860  1.00  0.00     0.188 C 
BRANCH  38  39
ATOM     39  O   UNL A   1      39.710  26.554  28.141  1.00  0.00    -0.376 OA
BRANCH  39  40
ATOM     40  C   UNL A   1      38.933  25.438  27.756  1.00  0.00     0.202 C 
BRANCH  40  41
ATOM     41  C   UNL A   1      39.690  24.129  27.495  1.00  0.00     0.261 C 
BRANCH  41  42
ATOM     42  O   UNL A   1      41.089  24.260  27.192  1.00  0.00    -0.460 OA
BRANCH  42  43
ATOM     43  C   UNL A   1      41.978  23.934  28.161  1.00  0.00     0.338 C 
ATOM     44  O   UNL A   1      41.955  22.947  28.873  1.00  0.00    -0.246 OA
BRANCH  43  45
ATOM     45  C   UNL A   1      43.133  24.860  28.008  1.00  0.00     0.060 A 
ATOM     46  C   UNL A   1      43.672  25.118  26.745  1.00  0.00     0.016 A 
ATOM     47  C   UNL A   1      43.740  25.396  29.153  1.00  0.00     0.016 A 
ATOM     48  C   UNL A   1      44.804  25.929  26.627  1.00  0.00     0.010 A 
ATOM     49  C   UNL A   1      44.880  26.201  29.033  1.00  0.00     0.010 A 
ATOM     50  C   UNL A   1      45.408  26.492  27.766  1.00  0.00    -0.014 A 
BRANCH  50  51
ATOM     51  C   UNL A   1      46.442  27.543  27.591  1.00  0.00     0.031 A 
ATOM     52  C   UNL A   1      47.905  27.239  27.481  1.00  0.00     0.074 A 
ATOM     53  C   UNL A   1      46.013  28.818  27.510  1.00  0.00     0.049 A 
ATOM     54  N   UNL A   1      48.891  28.058  27.201  1.00  0.00    -0.248 NA
ATOM     55  C   UNL A   1      48.326  25.853  27.719  1.00  0.00     0.031 C 
ATOM     56  C   UNL A   1      44.618  29.239  27.650  1.00  0.00     0.029 A 
ATOM     57  N   UNL A   1      46.695  29.987  27.286  1.00  0.00    -0.354 N 
ATOM     58  C   UNL A   1      50.044  27.287  27.208  1.00  0.00     0.074 A 
ATOM     59  C   UNL A   1      49.644  25.940  27.560  1.00  0.00     0.031 C 
ATOM     60  C   UNL A   1      44.544  30.568  27.487  1.00  0.00     0.029 A 
ATOM     61  C   UNL A   1      45.884  31.094  27.250  1.00  0.00     0.049 A 
ATOM     62  H   UNL A   1      47.671  30.029  27.162  1.00  0.00     0.167 HD
ATOM     63  C   UNL A   1      51.313  27.674  26.927  1.00  0.00     0.037 A 
ATOM     64  C   UNL A   1      46.181  32.391  27.043  1.00  0.00     0.037 A 
ATOM     65  C   UNL A   1      51.705  29.020  26.577  1.00  0.00     0.049 A 
ATOM     66  C   UNL A   1      47.600  32.786  26.749  1.00  0.00     0.074 A 
ATOM     67  C   UNL A   1      52.958  29.480  26.207  1.00  0.00     0.029 A 
ATOM     68  N   UNL A   1      50.862  30.119  26.569  1.00  0.00    -0.354 N 
ATOM     69  N   UNL A   1      48.663  32.028  26.645  1.00  0.00    -0.248 NA
ATOM     70  C   UNL A   1      47.860  34.216  26.528  1.00  0.00     0.031 C 
ATOM     71  C   UNL A   1      52.887  30.864  26.031  1.00  0.00     0.029 A 
ATOM     72  C   UNL A   1      51.577  31.261  26.236  1.00  0.00     0.049 A 
ATOM     73  H   UNL A   1      49.898  30.095  26.770  1.00  0.00     0.167 HD
ATOM     74  C   UNL A   1      49.711  32.882  26.328  1.00  0.00     0.074 A 
ATOM     75  C   UNL A   1      49.152  34.214  26.233  1.00  0.00     0.031 C 
ATOM     76  C   UNL A   1      51.018  32.585  26.140  1.00  0.00     0.037 A 
BRANCH  63  77
ATOM     77  C   UNL A   1      52.402  26.641  26.949  1.00  0.00     0.064 A 
ATOM     78  C   UNL A   1      52.607  25.783  25.859  1.00  0.00     0.173 A 
ATOM     79  C   UNL A   1      53.352  26.628  27.984  1.00  0.00     0.173 A 
ATOM     80  F   UNL A   1      51.733  25.765  24.842  1.00  0.00    -0.203 F 
ATOM     81  C   UNL A   1      53.726  24.956  25.800  1.00  0.00     0.198 A 
ATOM     82  C   UNL A   1      54.480  25.815  27.911  1.00  0.00     0.198 A 
ATOM     83  F   UNL A   1      53.212  27.444  29.040  1.00  0.00    -0.203 F 
ATOM     84  F   UNL A   1      53.904  24.148  24.745  1.00  0.00    -0.200 F 
ATOM     85  C   UNL A   1      54.668  24.982  26.818  1.00  0.00     0.200 A 
ATOM     86  F   UNL A   1      55.401  25.860  28.883  1.00  0.00    -0.200 F 
ATOM     87  F   UNL A   1      55.764  24.214  26.739  1.00  0.00    -0.200 F 
ENDBRANCH  63  77
BRANCH  64  88
ATOM     88  C   UNL A   1      45.099  33.407  27.085  1.00  0.00     0.064 A 
ATOM     89  C   UNL A   1      44.324  33.686  25.951  1.00  0.00     0.173 A 
ATOM     90  C   UNL A   1      44.819  34.117  28.261  1.00  0.00     0.173 A 
ATOM     91  F   UNL A   1      44.565  33.042  24.800  1.00  0.00    -0.203 F 
ATOM     92  C   UNL A   1      43.325  34.655  25.986  1.00  0.00     0.198 A 
ATOM     93  C   UNL A   1      43.799  35.064  28.304  1.00  0.00     0.198 A 
ATOM     94  F   UNL A   1      45.528  33.880  29.375  1.00  0.00    -0.203 F 
ATOM     95  F   UNL A   1      42.631  34.937  24.875  1.00  0.00    -0.200 F 
ATOM     96  C   UNL A   1      43.060  35.339  27.163  1.00  0.00     0.200 A 
ATOM     97  F   UNL A   1      43.534  35.710  29.447  1.00  0.00    -0.200 F 
ATOM     98  F   UNL A   1      42.095  36.270  27.196  1.00  0.00    -0.200 F 
ENDBRANCH  64  88
BRANCH  76  99
ATOM     99  C   UNL A   1      51.947  33.716  25.802  1.00  0.00     0.064 A 
ATOM    100  C   UNL A   1      52.261  34.031  24.472  1.00  0.00     0.173 A 
ATOM    101  C   UNL A   1      52.479  34.531  26.813  1.00  0.00     0.173 A 
ATOM    102  F   UNL A   1      51.791  33.275  23.468  1.00  0.00    -0.203 F 
ATOM    103  C   UNL A   1      53.087  35.111  24.167  1.00  0.00     0.198 A 
ATOM    104  C   UNL A   1      53.279  35.628  26.503  1.00  0.00     0.198 A 
ATOM    105  F   UNL A   1      52.205  34.277  28.101  1.00  0.00    -0.203 F 
ATOM    106  F   UNL A   1      53.404  35.369  22.891  1.00  0.00    -0.200 F 
ATOM    107  C   UNL A   1      53.586  35.914  25.181  1.00  0.00     0.200 A 
ATOM    108  F   UNL A   1      53.749  36.411  27.483  1.00  0.00    -0.200 F 
ATOM    109  F   UNL A   1      54.368  36.961  24.885  1.00  0.00    -0.200 F 
ENDBRANCH  76  99
ENDBRANCH  50  51
ENDBRANCH  43  45
ENDBRANCH  42  43
ENDBRANCH  41  42
ENDBRANCH  40  41
ENDBRANCH  39  40
ENDBRANCH  38  39
ENDBRANCH  37  38
ENDBRANCH   1  37
TORSDOF 23
ENDMDL
