MODEL 1
REMARK VINA RESULT:     -11.3      0.000      0.000
REMARK SMILES Cc1cscc1C(=O)N1C[C@@H](C(=O)OCCOCCOCCOC(=O)c2ccc(-c3c4nc(c(-c5c(F)c(F)c(F)c(F)c5F)c5ccc([nH]5)c(-c5c(F)c(F)c(F)c(F)c5F)c5nc(c(-c6c(F)c(F)c(F)c(F)c6F)c6ccc3[nH]6)C=C5)C=C4)cc2)Oc2ccccc21
REMARK SMILES IDX 18 1 17 2 16 3 15 4 14 5 12 6 13 7 11 8 9 9 10 10 95 11
REMARK SMILES IDX 90 12 94 13 89 14 91 15 93 16 92 17 7 18 8 19 6 20 1 21 2 22
REMARK SMILES IDX 3 23 4 24 5 25 19 26 20 27 21 28 22 29 23 30 24 31 25 32
REMARK SMILES IDX 26 33 27 34 88 35 28 36 87 37 29 38 30 39 31 40 81 41 32 42
REMARK SMILES IDX 86 43 80 44 82 45 33 46 85 47 79 48 78 49 34 51 66 52 46 53
REMARK SMILES IDX 65 54 47 55 50 56 64 57 83 58 48 59 49 60 63 62 84 63 51 64
REMARK SMILES IDX 35 65 36 66 44 67 37 68 38 69 42 70 45 71 39 72 40 73 43 74
REMARK SMILES IDX 41 75 67 76 68 77 76 78 69 79 70 80 74 81 77 82 71 83 72 84
REMARK SMILES IDX 75 85 73 86 52 87 53 88 61 89 54 90 55 91 59 92 62 93 56 94
REMARK SMILES IDX 57 95 60 96 58 97
REMARK H PARENT 82 50 50 61
REMARK Flexibility Score: inf
ROOT
ATOM      1  C   UNL A   1      35.490  23.072  23.593  1.00  0.00     0.188 C 
ENDROOT
BRANCH   1   2
ATOM      2  O   UNL A   1      34.378  22.380  24.136  1.00  0.00    -0.376 OA
BRANCH   2   3
ATOM      3  C   UNL A   1      33.205  22.328  23.336  1.00  0.00     0.202 C 
BRANCH   3   4
ATOM      4  C   UNL A   1      32.869  23.638  22.616  1.00  0.00     0.261 C 
BRANCH   4   5
ATOM      5  O   UNL A   1      31.845  24.421  23.248  1.00  0.00    -0.460 OA
BRANCH   5   6
ATOM      6  C   UNL A   1      32.241  25.277  24.223  1.00  0.00     0.349 C 
ATOM      7  O   UNL A   1      33.280  25.928  24.201  1.00  0.00    -0.248 OA
BRANCH   6   8
ATOM      8  C   UNL A   1      31.166  25.433  25.305  1.00  0.00     0.302 C 
ATOM      9  N   UNL A   1      30.342  27.436  24.220  1.00  0.00    -0.300 N 
ATOM     10  C   UNL A   1      29.955  26.094  24.667  1.00  0.00     0.183 C 
ATOM     11  C   UNL A   1      31.113  28.164  25.185  1.00  0.00     0.086 A 
ATOM     12  C   UNL A   1      31.613  27.494  26.319  1.00  0.00     0.144 A 
ATOM     13  C   UNL A   1      31.359  29.534  25.059  1.00  0.00     0.030 A 
ATOM     14  O   UNL A   1      31.525  26.132  26.497  1.00  0.00    -0.475 OA
ATOM     15  C   UNL A   1      32.279  28.190  27.328  1.00  0.00     0.049 A 
ATOM     16  C   UNL A   1      32.052  30.226  26.056  1.00  0.00     0.002 A 
ATOM     17  C   UNL A   1      32.497  29.559  27.195  1.00  0.00     0.004 A 
BRANCH   9  18
ATOM     18  C   UNL A   1      30.278  27.830  22.878  1.00  0.00     0.259 C 
ATOM     19  O   UNL A   1      30.932  27.272  21.997  1.00  0.00    -0.269 OA
BRANCH  18  20
ATOM     20  C   UNL A   1      29.366  28.926  22.506  1.00  0.00     0.053 A 
ATOM     21  C   UNL A   1      27.064  28.155  23.533  1.00  0.00     0.046 C 
ATOM     22  C   UNL A   1      27.957  29.109  22.810  1.00  0.00    -0.028 A 
ATOM     23  C   UNL A   1      27.510  30.343  22.369  1.00  0.00     0.069 A 
ATOM     24  S   UNL A   1      28.715  31.261  21.593  1.00  0.00    -0.151 S 
ATOM     25  C   UNL A   1      29.871  30.039  21.848  1.00  0.00     0.079 A 
ENDBRANCH  18  20
ENDBRANCH   9  18
ENDBRANCH   6   8
ENDBRANCH   5   6
ENDBRANCH   4   5
ENDBRANCH   3   4
ENDBRANCH   2   3
ENDBRANCH   1   2
BRANCH   1  26
ATOM     26  C   UNL A   1      36.831  22.304  23.650  1.00  0.00     0.188 C 
BRANCH  26  27
ATOM     27  O   UNL A   1      37.404  21.923  24.892  1.00  0.00    -0.376 OA
BRANCH  27  28
ATOM     28  C   UNL A   1      37.564  20.548  25.201  1.00  0.00     0.202 C 
BRANCH  28  29
ATOM     29  C   UNL A   1      38.959  19.928  25.050  1.00  0.00     0.261 C 
BRANCH  29  30
ATOM     30  O   UNL A   1      39.716  19.830  26.271  1.00  0.00    -0.460 OA
BRANCH  30  31
ATOM     31  C   UNL A   1      41.046  19.611  26.124  1.00  0.00     0.338 C 
ATOM     32  O   UNL A   1      41.588  18.627  25.653  1.00  0.00    -0.246 OA
BRANCH  31  33
ATOM     33  C   UNL A   1      41.799  20.839  26.467  1.00  0.00     0.060 A 
ATOM     34  C   UNL A   1      42.002  21.130  27.823  1.00  0.00     0.016 A 
ATOM     35  C   UNL A   1      42.253  21.721  25.485  1.00  0.00     0.016 A 
ATOM     36  C   UNL A   1      42.647  22.308  28.203  1.00  0.00     0.010 A 
ATOM     37  C   UNL A   1      42.875  22.917  25.868  1.00  0.00     0.010 A 
ATOM     38  C   UNL A   1      43.056  23.228  27.229  1.00  0.00    -0.014 A 
BRANCH  38  39
ATOM     39  C   UNL A   1      43.536  24.573  27.635  1.00  0.00     0.031 A 
ATOM     40  C   UNL A   1      42.526  25.634  27.974  1.00  0.00     0.074 A 
ATOM     41  C   UNL A   1      44.849  24.851  27.715  1.00  0.00     0.049 A 
ATOM     42  N   UNL A   1      42.712  26.890  28.294  1.00  0.00    -0.248 NA
ATOM     43  C   UNL A   1      41.114  25.222  27.951  1.00  0.00     0.031 C 
ATOM     44  C   UNL A   1      45.931  23.904  27.458  1.00  0.00     0.029 A 
ATOM     45  N   UNL A   1      45.494  26.025  28.024  1.00  0.00    -0.354 N 
ATOM     46  C   UNL A   1      41.445  27.418  28.506  1.00  0.00     0.074 A 
ATOM     47  C   UNL A   1      40.496  26.353  28.256  1.00  0.00     0.031 C 
ATOM     48  C   UNL A   1      47.108  24.539  27.600  1.00  0.00     0.029 A 
ATOM     49  C   UNL A   1      46.862  25.944  27.923  1.00  0.00     0.049 A 
ATOM     50  H   UNL A   1      45.021  26.846  28.292  1.00  0.00     0.167 HD
ATOM     51  C   UNL A   1      41.103  28.674  28.879  1.00  0.00     0.037 A 
ATOM     52  C   UNL A   1      47.802  26.902  28.047  1.00  0.00     0.037 A 
ATOM     53  C   UNL A   1      42.042  29.738  29.119  1.00  0.00     0.049 A 
ATOM     54  C   UNL A   1      47.388  28.317  28.367  1.00  0.00     0.074 A 
ATOM     55  C   UNL A   1      41.789  31.037  29.527  1.00  0.00     0.029 A 
ATOM     56  N   UNL A   1      43.415  29.630  28.959  1.00  0.00    -0.354 N 
ATOM     57  N   UNL A   1      46.192  28.800  28.597  1.00  0.00    -0.248 NA
ATOM     58  C   UNL A   1      48.462  29.321  28.440  1.00  0.00     0.031 C 
ATOM     59  C   UNL A   1      43.004  31.730  29.559  1.00  0.00     0.029 A 
ATOM     60  C   UNL A   1      44.020  30.849  29.224  1.00  0.00     0.049 A 
ATOM     61  H   UNL A   1      43.890  28.809  28.696  1.00  0.00     0.167 HD
ATOM     62  C   UNL A   1      46.369  30.154  28.860  1.00  0.00     0.074 A 
ATOM     63  C   UNL A   1      47.790  30.413  28.781  1.00  0.00     0.031 C 
ATOM     64  C   UNL A   1      45.436  31.097  29.139  1.00  0.00     0.037 A 
BRANCH  51  65
ATOM     65  C   UNL A   1      39.640  28.978  29.022  1.00  0.00     0.064 A 
ATOM     66  C   UNL A   1      38.859  29.368  27.924  1.00  0.00     0.173 A 
ATOM     67  C   UNL A   1      39.006  28.842  30.265  1.00  0.00     0.173 A 
ATOM     68  F   UNL A   1      39.421  29.524  26.717  1.00  0.00    -0.203 F 
ATOM     69  C   UNL A   1      37.500  29.633  28.072  1.00  0.00     0.198 A 
ATOM     70  C   UNL A   1      37.641  29.082  30.405  1.00  0.00     0.198 A 
ATOM     71  F   UNL A   1      39.708  28.468  31.346  1.00  0.00    -0.203 F 
ATOM     72  F   UNL A   1      36.781  30.046  27.018  1.00  0.00    -0.200 F 
ATOM     73  C   UNL A   1      36.891  29.483  29.310  1.00  0.00     0.200 A 
ATOM     74  F   UNL A   1      37.053  28.925  31.598  1.00  0.00    -0.200 F 
ATOM     75  F   UNL A   1      35.581  29.732  29.449  1.00  0.00    -0.200 F 
ENDBRANCH  51  65
BRANCH  52  76
ATOM     76  C   UNL A   1      49.235  26.568  27.837  1.00  0.00     0.064 A 
ATOM     77  C   UNL A   1      50.098  26.366  28.923  1.00  0.00     0.173 A 
ATOM     78  C   UNL A   1      49.779  26.479  26.547  1.00  0.00     0.173 A 
ATOM     79  F   UNL A   1      49.632  26.471  30.176  1.00  0.00    -0.203 F 
ATOM     80  C   UNL A   1      51.453  26.102  28.727  1.00  0.00     0.198 A 
ATOM     81  C   UNL A   1      51.127  26.188  26.352  1.00  0.00     0.198 A 
ATOM     82  F   UNL A   1      48.997  26.673  25.474  1.00  0.00    -0.203 F 
ATOM     83  F   UNL A   1      52.264  25.960  29.784  1.00  0.00    -0.200 F 
ATOM     84  C   UNL A   1      51.964  26.008  27.442  1.00  0.00     0.200 A 
ATOM     85  F   UNL A   1      51.616  26.090  25.108  1.00  0.00    -0.200 F 
ATOM     86  F   UNL A   1      53.268  25.755  27.255  1.00  0.00    -0.200 F 
ENDBRANCH  52  76
BRANCH  64  87
ATOM     87  C   UNL A   1      45.920  32.496  29.401  1.00  0.00     0.064 A 
ATOM     88  C   UNL A   1      46.044  33.435  28.366  1.00  0.00     0.173 A 
ATOM     89  C   UNL A   1      46.220  32.915  30.705  1.00  0.00     0.173 A 
ATOM     90  F   UNL A   1      45.783  33.080  27.098  1.00  0.00    -0.203 F 
ATOM     91  C   UNL A   1      46.471  34.735  28.625  1.00  0.00     0.198 A 
ATOM     92  C   UNL A   1      46.618  34.224  30.965  1.00  0.00     0.198 A 
ATOM     93  F   UNL A   1      46.112  32.060  31.732  1.00  0.00    -0.203 F 
ATOM     94  F   UNL A   1      46.624  35.602  27.614  1.00  0.00    -0.200 F 
ATOM     95  C   UNL A   1      46.750  35.131  29.924  1.00  0.00     0.200 A 
ATOM     96  F   UNL A   1      46.875  34.609  32.223  1.00  0.00    -0.200 F 
ATOM     97  F   UNL A   1      47.153  36.385  30.173  1.00  0.00    -0.200 F 
ENDBRANCH  64  87
ENDBRANCH  38  39
ENDBRANCH  31  33
ENDBRANCH  30  31
ENDBRANCH  29  30
ENDBRANCH  28  29
ENDBRANCH  27  28
ENDBRANCH  26  27
ENDBRANCH   1  26
TORSDOF 19
ENDMDL
MODEL 2
REMARK VINA RESULT:     -11.2      4.591      8.535
REMARK SMILES Cc1cscc1C(=O)N1C[C@@H](C(=O)OCCOCCOCCOC(=O)c2ccc(-c3c4nc(c(-c5c(F)c(F)c(F)c(F)c5F)c5ccc([nH]5)c(-c5c(F)c(F)c(F)c(F)c5F)c5nc(c(-c6c(F)c(F)c(F)c(F)c6F)c6ccc3[nH]6)C=C5)C=C4)cc2)Oc2ccccc21
REMARK SMILES IDX 18 1 17 2 16 3 15 4 14 5 12 6 13 7 11 8 9 9 10 10 95 11
REMARK SMILES IDX 90 12 94 13 89 14 91 15 93 16 92 17 7 18 8 19 6 20 1 21 2 22
REMARK SMILES IDX 3 23 4 24 5 25 19 26 20 27 21 28 22 29 23 30 24 31 25 32
REMARK SMILES IDX 26 33 27 34 88 35 28 36 87 37 29 38 30 39 31 40 81 41 32 42
REMARK SMILES IDX 86 43 80 44 82 45 33 46 85 47 79 48 78 49 34 51 66 52 46 53
REMARK SMILES IDX 65 54 47 55 50 56 64 57 83 58 48 59 49 60 63 62 84 63 51 64
REMARK SMILES IDX 35 65 36 66 44 67 37 68 38 69 42 70 45 71 39 72 40 73 43 74
REMARK SMILES IDX 41 75 67 76 68 77 76 78 69 79 70 80 74 81 77 82 71 83 72 84
REMARK SMILES IDX 75 85 73 86 52 87 53 88 61 89 54 90 55 91 59 92 62 93 56 94
REMARK SMILES IDX 57 95 60 96 58 97
REMARK H PARENT 82 50 50 61
REMARK Flexibility Score: inf
ROOT
ATOM      1  C   UNL A   1      31.356  28.428  22.492  1.00  0.00     0.188 C 
ENDROOT
BRANCH   1   2
ATOM      2  O   UNL A   1      30.858  27.298  21.796  1.00  0.00    -0.376 OA
BRANCH   2   3
ATOM      3  C   UNL A   1      31.669  26.131  21.809  1.00  0.00     0.202 C 
BRANCH   3   4
ATOM      4  C   UNL A   1      33.097  26.355  22.318  1.00  0.00     0.261 C 
BRANCH   4   5
ATOM      5  O   UNL A   1      33.930  25.185  22.293  1.00  0.00    -0.460 OA
BRANCH   5   6
ATOM      6  C   UNL A   1      33.341  24.006  22.615  1.00  0.00     0.349 C 
ATOM      7  O   UNL A   1      33.264  23.038  21.867  1.00  0.00    -0.248 OA
BRANCH   6   8
ATOM      8  C   UNL A   1      32.892  23.984  24.081  1.00  0.00     0.302 C 
ATOM      9  N   UNL A   1      34.945  22.862  24.708  1.00  0.00    -0.300 N 
ATOM     10  C   UNL A   1      34.136  24.062  24.950  1.00  0.00     0.183 C 
ATOM     11  C   UNL A   1      34.182  21.649  24.681  1.00  0.00     0.086 A 
ATOM     12  C   UNL A   1      32.775  21.718  24.650  1.00  0.00     0.144 A 
ATOM     13  C   UNL A   1      34.787  20.390  24.719  1.00  0.00     0.030 A 
ATOM     14  O   UNL A   1      32.074  22.894  24.505  1.00  0.00    -0.475 OA
ATOM     15  C   UNL A   1      31.999  20.561  24.725  1.00  0.00     0.049 A 
ATOM     16  C   UNL A   1      34.009  19.230  24.764  1.00  0.00     0.002 A 
ATOM     17  C   UNL A   1      32.619  19.315  24.783  1.00  0.00     0.004 A 
BRANCH   9  18
ATOM     18  C   UNL A   1      36.251  22.924  24.208  1.00  0.00     0.259 C 
ATOM     19  O   UNL A   1      36.490  23.081  23.011  1.00  0.00    -0.269 OA
BRANCH  18  20
ATOM     20  C   UNL A   1      37.376  22.835  25.156  1.00  0.00     0.053 A 
ATOM     21  C   UNL A   1      38.154  20.328  24.918  1.00  0.00     0.046 C 
ATOM     22  C   UNL A   1      38.249  21.715  25.462  1.00  0.00    -0.028 A 
ATOM     23  C   UNL A   1      39.259  22.095  26.330  1.00  0.00     0.069 A 
ATOM     24  S   UNL A   1      39.170  23.730  26.795  1.00  0.00    -0.151 S 
ATOM     25  C   UNL A   1      37.792  23.976  25.829  1.00  0.00     0.079 A 
ENDBRANCH  18  20
ENDBRANCH   9  18
ENDBRANCH   6   8
ENDBRANCH   5   6
ENDBRANCH   4   5
ENDBRANCH   3   4
ENDBRANCH   2   3
ENDBRANCH   1   2
BRANCH   1  26
ATOM     26  C   UNL A   1      30.506  28.880  23.701  1.00  0.00     0.188 C 
BRANCH  26  27
ATOM     27  O   UNL A   1      31.103  29.121  24.967  1.00  0.00    -0.376 OA
BRANCH  27  28
ATOM     28  C   UNL A   1      31.233  30.452  25.441  1.00  0.00     0.202 C 
BRANCH  28  29
ATOM     29  C   UNL A   1      31.978  30.680  26.763  1.00  0.00     0.261 C 
BRANCH  29  30
ATOM     30  O   UNL A   1      33.403  30.846  26.637  1.00  0.00    -0.460 OA
BRANCH  30  31
ATOM     31  C   UNL A   1      33.968  31.750  27.476  1.00  0.00     0.338 C 
ATOM     32  O   UNL A   1      33.475  32.781  27.896  1.00  0.00    -0.246 OA
BRANCH  31  33
ATOM     33  C   UNL A   1      35.258  31.227  27.981  1.00  0.00     0.060 A 
ATOM     34  C   UNL A   1      35.314  29.884  28.380  1.00  0.00     0.016 A 
ATOM     35  C   UNL A   1      36.381  32.045  28.115  1.00  0.00     0.016 A 
ATOM     36  C   UNL A   1      36.487  29.358  28.926  1.00  0.00     0.010 A 
ATOM     37  C   UNL A   1      37.548  31.524  28.688  1.00  0.00     0.010 A 
ATOM     38  C   UNL A   1      37.601  30.185  29.117  1.00  0.00    -0.014 A 
BRANCH  38  39
ATOM     39  C   UNL A   1      38.765  29.691  29.897  1.00  0.00     0.031 A 
ATOM     40  C   UNL A   1      39.010  30.249  31.271  1.00  0.00     0.074 A 
ATOM     41  C   UNL A   1      39.589  28.751  29.401  1.00  0.00     0.049 A 
ATOM     42  N   UNL A   1      39.991  30.012  32.105  1.00  0.00    -0.248 NA
ATOM     43  C   UNL A   1      38.010  31.204  31.775  1.00  0.00     0.031 C 
ATOM     44  C   UNL A   1      39.440  28.095  28.105  1.00  0.00     0.029 A 
ATOM     45  N   UNL A   1      40.729  28.195  29.933  1.00  0.00    -0.354 N 
ATOM     46  C   UNL A   1      39.731  30.788  33.226  1.00  0.00     0.074 A 
ATOM     47  C   UNL A   1      38.512  31.521  32.959  1.00  0.00     0.031 C 
ATOM     48  C   UNL A   1      40.463  27.239  27.931  1.00  0.00     0.029 A 
ATOM     49  C   UNL A   1      41.355  27.313  29.087  1.00  0.00     0.049 A 
ATOM     50  H   UNL A   1      41.064  28.410  30.833  1.00  0.00     0.167 HD
ATOM     51  C   UNL A   1      40.440  30.878  34.377  1.00  0.00     0.037 A 
ATOM     52  C   UNL A   1      42.530  26.664  29.220  1.00  0.00     0.037 A 
ATOM     53  C   UNL A   1      41.658  30.158  34.643  1.00  0.00     0.049 A 
ATOM     54  C   UNL A   1      43.351  26.857  30.471  1.00  0.00     0.074 A 
ATOM     55  C   UNL A   1      42.431  30.165  35.790  1.00  0.00     0.029 A 
ATOM     56  N   UNL A   1      42.286  29.310  33.743  1.00  0.00    -0.354 N 
ATOM     57  N   UNL A   1      43.082  27.567  31.538  1.00  0.00    -0.248 NA
ATOM     58  C   UNL A   1      44.644  26.157  30.529  1.00  0.00     0.031 C 
ATOM     59  C   UNL A   1      43.558  29.367  35.564  1.00  0.00     0.029 A 
ATOM     60  C   UNL A   1      43.458  28.819  34.295  1.00  0.00     0.049 A 
ATOM     61  H   UNL A   1      41.950  29.091  32.844  1.00  0.00     0.167 HD
ATOM     62  C   UNL A   1      44.158  27.386  32.400  1.00  0.00     0.074 A 
ATOM     63  C   UNL A   1      45.076  26.483  31.740  1.00  0.00     0.031 C 
ATOM     64  C   UNL A   1      44.367  27.922  33.628  1.00  0.00     0.037 A 
BRANCH  51  65
ATOM     65  C   UNL A   1      39.932  31.817  35.430  1.00  0.00     0.064 A 
ATOM     66  C   UNL A   1      40.435  33.120  35.560  1.00  0.00     0.173 A 
ATOM     67  C   UNL A   1      38.902  31.421  36.296  1.00  0.00     0.173 A 
ATOM     68  F   UNL A   1      41.429  33.542  34.764  1.00  0.00    -0.203 F 
ATOM     69  C   UNL A   1      39.942  33.984  36.535  1.00  0.00     0.198 A 
ATOM     70  C   UNL A   1      38.392  32.296  37.252  1.00  0.00     0.198 A 
ATOM     71  F   UNL A   1      38.383  30.187  36.210  1.00  0.00    -0.203 F 
ATOM     72  F   UNL A   1      40.468  35.210  36.669  1.00  0.00    -0.200 F 
ATOM     73  C   UNL A   1      38.917  33.574  37.375  1.00  0.00     0.200 A 
ATOM     74  F   UNL A   1      37.394  31.903  38.054  1.00  0.00    -0.200 F 
ATOM     75  F   UNL A   1      38.439  34.409  38.308  1.00  0.00    -0.200 F 
ENDBRANCH  51  65
BRANCH  52  76
ATOM     76  C   UNL A   1      43.025  25.790  28.124  1.00  0.00     0.064 A 
ATOM     77  C   UNL A   1      42.740  24.417  28.109  1.00  0.00     0.173 A 
ATOM     78  C   UNL A   1      43.820  26.302  27.089  1.00  0.00     0.173 A 
ATOM     79  F   UNL A   1      42.009  23.875  29.093  1.00  0.00    -0.203 F 
ATOM     80  C   UNL A   1      43.245  23.589  27.108  1.00  0.00     0.198 A 
ATOM     81  C   UNL A   1      44.302  25.478  26.075  1.00  0.00     0.198 A 
ATOM     82  F   UNL A   1      44.129  27.608  27.063  1.00  0.00    -0.203 F 
ATOM     83  F   UNL A   1      42.997  22.273  27.145  1.00  0.00    -0.200 F 
ATOM     84  C   UNL A   1      44.021  24.121  26.090  1.00  0.00     0.200 A 
ATOM     85  F   UNL A   1      45.045  25.998  25.088  1.00  0.00    -0.200 F 
ATOM     86  F   UNL A   1      44.507  23.322  25.129  1.00  0.00    -0.200 F 
ENDBRANCH  52  76
BRANCH  64  87
ATOM     87  C   UNL A   1      45.626  27.534  34.350  1.00  0.00     0.064 A 
ATOM     88  C   UNL A   1      46.813  28.267  34.201  1.00  0.00     0.173 A 
ATOM     89  C   UNL A   1      45.636  26.445  35.234  1.00  0.00     0.173 A 
ATOM     90  F   UNL A   1      46.862  29.309  33.356  1.00  0.00    -0.203 F 
ATOM     91  C   UNL A   1      47.967  27.910  34.894  1.00  0.00     0.198 A 
ATOM     92  C   UNL A   1      46.784  26.109  35.948  1.00  0.00     0.198 A 
ATOM     93  F   UNL A   1      44.526  25.714  35.419  1.00  0.00    -0.203 F 
ATOM     94  F   UNL A   1      49.102  28.599  34.703  1.00  0.00    -0.200 F 
ATOM     95  C   UNL A   1      47.950  26.838  35.772  1.00  0.00     0.200 A 
ATOM     96  F   UNL A   1      46.761  25.080  36.806  1.00  0.00    -0.200 F 
ATOM     97  F   UNL A   1      49.059  26.501  36.445  1.00  0.00    -0.200 F 
ENDBRANCH  64  87
ENDBRANCH  38  39
ENDBRANCH  31  33
ENDBRANCH  30  31
ENDBRANCH  29  30
ENDBRANCH  28  29
ENDBRANCH  27  28
ENDBRANCH  26  27
ENDBRANCH   1  26
TORSDOF 19
ENDMDL
MODEL 3
REMARK VINA RESULT:     -11.0      2.187      3.957
REMARK SMILES Cc1cscc1C(=O)N1C[C@@H](C(=O)OCCOCCOCCOC(=O)c2ccc(-c3c4nc(c(-c5c(F)c(F)c(F)c(F)c5F)c5ccc([nH]5)c(-c5c(F)c(F)c(F)c(F)c5F)c5nc(c(-c6c(F)c(F)c(F)c(F)c6F)c6ccc3[nH]6)C=C5)C=C4)cc2)Oc2ccccc21
REMARK SMILES IDX 18 1 17 2 16 3 15 4 14 5 12 6 13 7 11 8 9 9 10 10 95 11
REMARK SMILES IDX 90 12 94 13 89 14 91 15 93 16 92 17 7 18 8 19 6 20 1 21 2 22
REMARK SMILES IDX 3 23 4 24 5 25 19 26 20 27 21 28 22 29 23 30 24 31 25 32
REMARK SMILES IDX 26 33 27 34 88 35 28 36 87 37 29 38 30 39 31 40 81 41 32 42
REMARK SMILES IDX 86 43 80 44 82 45 33 46 85 47 79 48 78 49 34 51 66 52 46 53
REMARK SMILES IDX 65 54 47 55 50 56 64 57 83 58 48 59 49 60 63 62 84 63 51 64
REMARK SMILES IDX 35 65 36 66 44 67 37 68 38 69 42 70 45 71 39 72 40 73 43 74
REMARK SMILES IDX 41 75 67 76 68 77 76 78 69 79 70 80 74 81 77 82 71 83 72 84
REMARK SMILES IDX 75 85 73 86 52 87 53 88 61 89 54 90 55 91 59 92 62 93 56 94
REMARK SMILES IDX 57 95 60 96 58 97
REMARK H PARENT 82 50 50 61
REMARK Flexibility Score: inf
ROOT
ATOM      1  C   UNL A   1      32.723  21.745  26.425  1.00  0.00     0.188 C 
ENDROOT
BRANCH   1   2
ATOM      2  O   UNL A   1      32.077  22.627  25.523  1.00  0.00    -0.376 OA
BRANCH   2   3
ATOM      3  C   UNL A   1      30.782  23.082  25.891  1.00  0.00     0.202 C 
BRANCH   3   4
ATOM      4  C   UNL A   1      30.626  24.606  25.910  1.00  0.00     0.261 C 
BRANCH   4   5
ATOM      5  O   UNL A   1      31.309  25.290  24.847  1.00  0.00    -0.460 OA
BRANCH   5   6
ATOM      6  C   UNL A   1      30.545  26.021  23.998  1.00  0.00     0.349 C 
ATOM      7  O   UNL A   1      29.331  26.162  24.096  1.00  0.00    -0.248 OA
BRANCH   6   8
ATOM      8  C   UNL A   1      31.404  26.760  22.964  1.00  0.00     0.302 C 
ATOM      9  N   UNL A   1      31.721  28.593  24.516  1.00  0.00    -0.300 N 
ATOM     10  C   UNL A   1      32.431  27.587  23.719  1.00  0.00     0.183 C 
ATOM     11  C   UNL A   1      30.671  29.258  23.800  1.00  0.00     0.086 A 
ATOM     12  C   UNL A   1      30.269  28.762  22.545  1.00  0.00     0.144 A 
ATOM     13  C   UNL A   1      30.052  30.411  24.292  1.00  0.00     0.030 A 
ATOM     14  O   UNL A   1      30.730  27.580  22.011  1.00  0.00    -0.475 OA
ATOM     15  C   UNL A   1      29.323  29.442  21.776  1.00  0.00     0.049 A 
ATOM     16  C   UNL A   1      29.084  31.074  23.534  1.00  0.00     0.002 A 
ATOM     17  C   UNL A   1      28.732  30.600  22.273  1.00  0.00     0.004 A 
BRANCH   9  18
ATOM     18  C   UNL A   1      31.813  28.649  25.912  1.00  0.00     0.259 C 
ATOM     19  O   UNL A   1      31.040  28.034  26.647  1.00  0.00    -0.269 OA
BRANCH  18  20
ATOM     20  C   UNL A   1      32.897  29.442  26.517  1.00  0.00     0.053 A 
ATOM     21  C   UNL A   1      31.780  31.805  26.863  1.00  0.00     0.046 C 
ATOM     22  C   UNL A   1      32.899  30.822  26.975  1.00  0.00    -0.028 A 
ATOM     23  C   UNL A   1      34.096  31.138  27.593  1.00  0.00     0.069 A 
ATOM     24  S   UNL A   1      35.207  29.848  27.616  1.00  0.00    -0.151 S 
ATOM     25  C   UNL A   1      34.104  28.827  26.819  1.00  0.00     0.079 A 
ENDBRANCH  18  20
ENDBRANCH   9  18
ENDBRANCH   6   8
ENDBRANCH   5   6
ENDBRANCH   4   5
ENDBRANCH   3   4
ENDBRANCH   2   3
ENDBRANCH   1   2
BRANCH   1  26
ATOM     26  C   UNL A   1      33.659  20.705  25.768  1.00  0.00     0.188 C 
BRANCH  26  27
ATOM     27  O   UNL A   1      34.141  20.888  24.444  1.00  0.00    -0.376 OA
BRANCH  27  28
ATOM     28  C   UNL A   1      35.416  21.472  24.234  1.00  0.00     0.202 C 
BRANCH  28  29
ATOM     29  C   UNL A   1      36.610  20.909  25.017  1.00  0.00     0.261 C 
BRANCH  29  30
ATOM     30  O   UNL A   1      37.309  21.868  25.831  1.00  0.00    -0.460 OA
BRANCH  30  31
ATOM     31  C   UNL A   1      38.614  21.593  26.077  1.00  0.00     0.338 C 
ATOM     32  O   UNL A   1      39.231  20.590  25.768  1.00  0.00    -0.246 OA
BRANCH  31  33
ATOM     33  C   UNL A   1      39.280  22.785  26.648  1.00  0.00     0.060 A 
ATOM     34  C   UNL A   1      38.750  24.047  26.342  1.00  0.00     0.016 A 
ATOM     35  C   UNL A   1      40.435  22.681  27.426  1.00  0.00     0.016 A 
ATOM     36  C   UNL A   1      39.378  25.206  26.799  1.00  0.00     0.010 A 
ATOM     37  C   UNL A   1      41.080  23.846  27.861  1.00  0.00     0.010 A 
ATOM     38  C   UNL A   1      40.568  25.116  27.532  1.00  0.00    -0.014 A 
BRANCH  38  39
ATOM     39  C   UNL A   1      41.353  26.342  27.826  1.00  0.00     0.031 A 
ATOM     40  C   UNL A   1      40.694  27.465  28.578  1.00  0.00     0.074 A 
ATOM     41  C   UNL A   1      42.637  26.456  27.445  1.00  0.00     0.049 A 
ATOM     42  N   UNL A   1      41.163  28.646  28.892  1.00  0.00    -0.248 NA
ATOM     43  C   UNL A   1      39.318  27.222  29.039  1.00  0.00     0.031 C 
ATOM     44  C   UNL A   1      43.409  25.428  26.752  1.00  0.00     0.029 A 
ATOM     45  N   UNL A   1      43.515  27.506  27.578  1.00  0.00    -0.354 N 
ATOM     46  C   UNL A   1      40.143  29.287  29.582  1.00  0.00     0.074 A 
ATOM     47  C   UNL A   1      39.020  28.374  29.621  1.00  0.00     0.031 C 
ATOM     48  C   UNL A   1      44.641  25.904  26.501  1.00  0.00     0.029 A 
ATOM     49  C   UNL A   1      44.734  27.281  26.984  1.00  0.00     0.049 A 
ATOM     50  H   UNL A   1      43.292  28.339  28.053  1.00  0.00     0.167 HD
ATOM     51  C   UNL A   1      40.142  30.523  30.136  1.00  0.00     0.037 A 
ATOM     52  C   UNL A   1      45.789  28.104  26.824  1.00  0.00     0.037 A 
ATOM     53  C   UNL A   1      41.252  31.438  30.091  1.00  0.00     0.049 A 
ATOM     54  C   UNL A   1      45.727  29.511  27.365  1.00  0.00     0.074 A 
ATOM     55  C   UNL A   1      41.353  32.701  30.648  1.00  0.00     0.029 A 
ATOM     56  N   UNL A   1      42.451  31.192  29.439  1.00  0.00    -0.354 N 
ATOM     57  N   UNL A   1      44.772  30.098  28.043  1.00  0.00    -0.248 NA
ATOM     58  C   UNL A   1      46.895  30.370  27.112  1.00  0.00     0.031 C 
ATOM     59  C   UNL A   1      42.591  33.243  30.285  1.00  0.00     0.029 A 
ATOM     60  C   UNL A   1      43.284  32.295  29.548  1.00  0.00     0.049 A 
ATOM     61  H   UNL A   1      42.678  30.358  28.968  1.00  0.00     0.167 HD
ATOM     62  C   UNL A   1      45.228  31.383  28.314  1.00  0.00     0.074 A 
ATOM     63  C   UNL A   1      46.553  31.485  27.744  1.00  0.00     0.031 C 
ATOM     64  C   UNL A   1      44.602  32.388  28.974  1.00  0.00     0.037 A 
BRANCH  51  65
ATOM     65  C   UNL A   1      38.884  30.974  30.818  1.00  0.00     0.064 A 
ATOM     66  C   UNL A   1      38.716  30.856  32.206  1.00  0.00     0.173 A 
ATOM     67  C   UNL A   1      37.849  31.565  30.078  1.00  0.00     0.173 A 
ATOM     68  F   UNL A   1      39.671  30.286  32.955  1.00  0.00    -0.203 F 
ATOM     69  C   UNL A   1      37.547  31.293  32.824  1.00  0.00     0.198 A 
ATOM     70  C   UNL A   1      36.693  32.026  30.703  1.00  0.00     0.198 A 
ATOM     71  F   UNL A   1      37.963  31.705  28.748  1.00  0.00    -0.203 F 
ATOM     72  F   UNL A   1      37.389  31.132  34.146  1.00  0.00    -0.200 F 
ATOM     73  C   UNL A   1      36.540  31.883  32.074  1.00  0.00     0.200 A 
ATOM     74  F   UNL A   1      35.728  32.607  29.978  1.00  0.00    -0.200 F 
ATOM     75  F   UNL A   1      35.419  32.310  32.671  1.00  0.00    -0.200 F 
ENDBRANCH  51  65
BRANCH  52  76
ATOM     76  C   UNL A   1      46.993  27.635  26.088  1.00  0.00     0.064 A 
ATOM     77  C   UNL A   1      47.058  27.704  24.689  1.00  0.00     0.173 A 
ATOM     78  C   UNL A   1      48.086  27.076  26.765  1.00  0.00     0.173 A 
ATOM     79  F   UNL A   1      46.024  28.202  23.995  1.00  0.00    -0.203 F 
ATOM     80  C   UNL A   1      48.166  27.218  23.996  1.00  0.00     0.198 A 
ATOM     81  C   UNL A   1      49.204  26.616  26.072  1.00  0.00     0.198 A 
ATOM     82  F   UNL A   1      48.069  26.979  28.103  1.00  0.00    -0.203 F 
ATOM     83  F   UNL A   1      48.181  27.253  22.656  1.00  0.00    -0.200 F 
ATOM     84  C   UNL A   1      49.239  26.680  24.688  1.00  0.00     0.200 A 
ATOM     85  F   UNL A   1      50.242  26.103  26.747  1.00  0.00    -0.200 F 
ATOM     86  F   UNL A   1      50.303  26.213  24.020  1.00  0.00    -0.200 F 
ENDBRANCH  52  76
BRANCH  64  87
ATOM     87  C   UNL A   1      45.347  33.683  29.136  1.00  0.00     0.064 A 
ATOM     88  C   UNL A   1      46.185  33.915  30.237  1.00  0.00     0.173 A 
ATOM     89  C   UNL A   1      45.258  34.685  28.158  1.00  0.00     0.173 A 
ATOM     90  F   UNL A   1      46.294  32.994  31.208  1.00  0.00    -0.203 F 
ATOM     91  C   UNL A   1      46.888  35.110  30.363  1.00  0.00     0.198 A 
ATOM     92  C   UNL A   1      45.985  35.867  28.273  1.00  0.00     0.198 A 
ATOM     93  F   UNL A   1      44.476  34.512  27.082  1.00  0.00    -0.203 F 
ATOM     94  F   UNL A   1      47.649  35.328  31.446  1.00  0.00    -0.200 F 
ATOM     95  C   UNL A   1      46.795  36.082  29.378  1.00  0.00     0.200 A 
ATOM     96  F   UNL A   1      45.903  36.799  27.313  1.00  0.00    -0.200 F 
ATOM     97  F   UNL A   1      47.478  37.228  29.497  1.00  0.00    -0.200 F 
ENDBRANCH  64  87
ENDBRANCH  38  39
ENDBRANCH  31  33
ENDBRANCH  30  31
ENDBRANCH  29  30
ENDBRANCH  28  29
ENDBRANCH  27  28
ENDBRANCH  26  27
ENDBRANCH   1  26
TORSDOF 19
ENDMDL
