MODEL 1
REMARK VINA RESULT:     -10.3      0.000      0.000
REMARK SMILES O=C(C[C@@H]1CN(C(=O)[C@H]2C[C@H](O)C[NH2+]2)CCO1)OCCOCCOCCOC(=O)c1ccc(-c2c3nc(c(-c4c(F)c(F)c(F)c(F)c4F)c4ccc([nH]4)c(-c4c(F)c(F)c(F)c(F)c4F)c4nc(c(-c5c(F)c(F)c(F)c(F)c5F)c5ccc2[nH]5)C=C4)C=C3)cc1
REMARK SMILES IDX 22 1 21 2 20 3 19 4 18 5 2 6 1 7 3 8 4 9 5 10 17 11 6 12
REMARK SMILES IDX 16 13 15 14 7 15 8 16 9 17 10 18 14 19 11 20 13 21 12 24
REMARK SMILES IDX 23 26 24 27 25 28 26 29 27 30 28 31 29 32 30 33 31 34 92 35
REMARK SMILES IDX 32 36 91 37 33 38 34 39 35 40 85 41 36 42 90 43 84 44 86 45
REMARK SMILES IDX 37 46 89 47 83 48 82 49 38 51 70 52 50 53 69 54 51 55 54 56
REMARK SMILES IDX 68 57 87 58 52 59 53 60 67 62 88 63 55 64 39 65 40 66 48 67
REMARK SMILES IDX 41 68 42 69 46 70 49 71 43 72 44 73 47 74 45 75 71 76 72 77
REMARK SMILES IDX 80 78 73 79 74 80 78 81 81 82 75 83 76 84 79 85 77 86 56 87
REMARK SMILES IDX 57 88 65 89 58 90 59 91 63 92 66 93 60 94 61 95 64 96 62 97
REMARK H PARENT 14 22 14 23 12 25 86 50 54 61
REMARK Flexibility Score: inf
ROOT
ATOM      1  C   UNL A   1      33.370  29.372  25.526  1.00  0.00     0.188 C 
ENDROOT
BRANCH   1   2
ATOM      2  O   UNL A   1      33.406  27.965  25.417  1.00  0.00    -0.376 OA
BRANCH   2   3
ATOM      3  C   UNL A   1      32.332  27.338  24.751  1.00  0.00     0.202 C 
BRANCH   3   4
ATOM      4  C   UNL A   1      31.158  26.861  25.596  1.00  0.00     0.261 C 
BRANCH   4   5
ATOM      5  O   UNL A   1      31.220  25.551  26.210  1.00  0.00    -0.463 OA
BRANCH   5   6
ATOM      6  C   UNL A   1      30.264  24.660  26.531  1.00  0.00     0.308 C 
ATOM      7  O   UNL A   1      29.121  25.057  26.750  1.00  0.00    -0.252 OA
BRANCH   6   8
ATOM      8  C   UNL A   1      30.596  23.202  26.662  1.00  0.00     0.156 C 
BRANCH   8   9
ATOM      9  C   UNL A   1      31.400  22.641  25.509  1.00  0.00     0.148 C 
ATOM     10  C   UNL A   1      32.910  22.686  25.784  1.00  0.00     0.152 C 
ATOM     11  O   UNL A   1      31.067  23.406  24.337  1.00  0.00    -0.374 OA
ATOM     12  N   UNL A   1      33.663  22.230  24.631  1.00  0.00    -0.333 N 
ATOM     13  C   UNL A   1      31.751  22.885  23.187  1.00  0.00     0.182 C 
ATOM     14  C   UNL A   1      33.271  22.913  23.387  1.00  0.00     0.148 C 
BRANCH  12  15
ATOM     15  C   UNL A   1      34.759  21.379  24.631  1.00  0.00     0.281 C 
ATOM     16  O   UNL A   1      34.589  20.164  24.789  1.00  0.00    -0.268 OA
BRANCH  15  17
ATOM     17  C   UNL A   1      36.218  21.915  24.519  1.00  0.00     0.275 C 
ATOM     18  C   UNL A   1      36.546  23.308  25.056  1.00  0.00     0.113 C 
ATOM     19  N   UNL A   1      37.188  20.960  25.116  1.00  0.00    -0.334 N 
ATOM     20  C   UNL A   1      37.770  23.118  25.949  1.00  0.00     0.175 C 
ATOM     21  C   UNL A   1      38.342  21.777  25.505  1.00  0.00     0.293 C 
ATOM     22  H   UNL A   1      37.463  20.255  24.432  1.00  0.00     0.347 HD
ATOM     23  H   UNL A   1      36.790  20.459  25.910  1.00  0.00     0.347 HD
BRANCH  20  24
ATOM     24  O   UNL A   1      38.689  24.182  25.781  1.00  0.00    -0.387 OA
ATOM     25  H   UNL A   1      38.577  24.571  24.900  1.00  0.00     0.211 HD
ENDBRANCH  20  24
ENDBRANCH  15  17
ENDBRANCH  12  15
ENDBRANCH   8   9
ENDBRANCH   6   8
ENDBRANCH   5   6
ENDBRANCH   4   5
ENDBRANCH   3   4
ENDBRANCH   2   3
ENDBRANCH   1   2
BRANCH   1  26
ATOM     26  C   UNL A   1      33.064  29.906  26.934  1.00  0.00     0.188 C 
BRANCH  26  27
ATOM     27  O   UNL A   1      31.786  30.467  27.186  1.00  0.00    -0.376 OA
BRANCH  27  28
ATOM     28  C   UNL A   1      31.390  31.652  26.503  1.00  0.00     0.202 C 
BRANCH  28  29
ATOM     29  C   UNL A   1      32.007  33.027  26.839  1.00  0.00     0.261 C 
BRANCH  29  30
ATOM     30  O   UNL A   1      32.534  33.184  28.171  1.00  0.00    -0.460 OA
BRANCH  30  31
ATOM     31  C   UNL A   1      33.584  34.035  28.305  1.00  0.00     0.338 C 
ATOM     32  O   UNL A   1      33.536  35.252  28.368  1.00  0.00    -0.246 OA
BRANCH  31  33
ATOM     33  C   UNL A   1      34.826  33.277  28.599  1.00  0.00     0.060 A 
ATOM     34  C   UNL A   1      34.691  31.976  29.109  1.00  0.00     0.016 A 
ATOM     35  C   UNL A   1      36.098  33.800  28.352  1.00  0.00     0.016 A 
ATOM     36  C   UNL A   1      35.820  31.214  29.413  1.00  0.00     0.010 A 
ATOM     37  C   UNL A   1      37.234  33.046  28.690  1.00  0.00     0.010 A 
ATOM     38  C   UNL A   1      37.100  31.765  29.258  1.00  0.00    -0.014 A 
BRANCH  38  39
ATOM     39  C   UNL A   1      38.247  31.093  29.924  1.00  0.00     0.031 A 
ATOM     40  C   UNL A   1      38.516  31.427  31.369  1.00  0.00     0.074 A 
ATOM     41  C   UNL A   1      38.992  30.156  29.308  1.00  0.00     0.049 A 
ATOM     42  N   UNL A   1      39.413  30.939  32.188  1.00  0.00    -0.248 NA
ATOM     43  C   UNL A   1      37.648  32.452  31.971  1.00  0.00     0.031 C 
ATOM     44  C   UNL A   1      38.825  29.713  27.927  1.00  0.00     0.029 A 
ATOM     45  N   UNL A   1      40.042  29.404  29.778  1.00  0.00    -0.354 N 
ATOM     46  C   UNL A   1      39.202  31.580  33.402  1.00  0.00     0.074 A 
ATOM     47  C   UNL A   1      38.129  32.529  33.202  1.00  0.00     0.031 C 
ATOM     48  C   UNL A   1      39.750  28.774  27.656  1.00  0.00     0.029 A 
ATOM     49  C   UNL A   1      40.582  28.559  28.840  1.00  0.00     0.049 A 
ATOM     50  H   UNL A   1      40.376  29.466  30.702  1.00  0.00     0.167 HD
ATOM     51  C   UNL A   1      39.828  31.385  34.587  1.00  0.00     0.037 A 
ATOM     52  C   UNL A   1      41.633  27.717  28.927  1.00  0.00     0.037 A 
ATOM     53  C   UNL A   1      40.911  30.461  34.792  1.00  0.00     0.049 A 
ATOM     54  C   UNL A   1      42.366  27.573  30.241  1.00  0.00     0.074 A 
ATOM     55  C   UNL A   1      41.617  30.203  35.955  1.00  0.00     0.029 A 
ATOM     56  N   UNL A   1      41.452  29.649  33.808  1.00  0.00    -0.354 N 
ATOM     57  N   UNL A   1      42.136  28.158  31.392  1.00  0.00    -0.248 NA
ATOM     58  C   UNL A   1      43.498  26.633  30.269  1.00  0.00     0.031 C 
ATOM     59  C   UNL A   1      42.618  29.270  35.661  1.00  0.00     0.029 A 
ATOM     60  C   UNL A   1      42.497  28.904  34.331  1.00  0.00     0.049 A 
ATOM     61  H   UNL A   1      41.140  29.607  32.875  1.00  0.00     0.167 HD
ATOM     62  C   UNL A   1      43.073  27.642  32.280  1.00  0.00     0.074 A 
ATOM     63  C   UNL A   1      43.856  26.674  31.544  1.00  0.00     0.031 C 
ATOM     64  C   UNL A   1      43.272  27.944  33.588  1.00  0.00     0.037 A 
BRANCH  51  65
ATOM     65  C   UNL A   1      39.360  32.202  35.755  1.00  0.00     0.064 A 
ATOM     66  C   UNL A   1      38.386  31.719  36.644  1.00  0.00     0.173 A 
ATOM     67  C   UNL A   1      39.912  33.465  36.010  1.00  0.00     0.173 A 
ATOM     68  F   UNL A   1      37.813  30.524  36.433  1.00  0.00    -0.203 F 
ATOM     69  C   UNL A   1      37.970  32.480  37.732  1.00  0.00     0.198 A 
ATOM     70  C   UNL A   1      39.515  34.211  37.117  1.00  0.00     0.198 A 
ATOM     71  F   UNL A   1      40.845  33.973  35.191  1.00  0.00    -0.203 F 
ATOM     72  F   UNL A   1      37.007  32.017  38.542  1.00  0.00    -0.200 F 
ATOM     73  C   UNL A   1      38.541  33.721  37.973  1.00  0.00     0.200 A 
ATOM     74  F   UNL A   1      40.075  35.404  37.354  1.00  0.00    -0.200 F 
ATOM     75  F   UNL A   1      38.146  34.447  39.028  1.00  0.00    -0.200 F 
ENDBRANCH  51  65
BRANCH  52  76
ATOM     76  C   UNL A   1      42.081  26.948  27.734  1.00  0.00     0.064 A 
ATOM     77  C   UNL A   1      41.623  25.644  27.488  1.00  0.00     0.173 A 
ATOM     78  C   UNL A   1      43.025  27.482  26.844  1.00  0.00     0.173 A 
ATOM     79  F   UNL A   1      40.745  25.074  28.326  1.00  0.00    -0.203 F 
ATOM     80  C   UNL A   1      42.115  24.897  26.419  1.00  0.00     0.198 A 
ATOM     81  C   UNL A   1      43.490  26.746  25.756  1.00  0.00     0.198 A 
ATOM     82  F   UNL A   1      43.501  28.721  27.034  1.00  0.00    -0.203 F 
ATOM     83  F   UNL A   1      41.710  23.630  26.248  1.00  0.00    -0.200 F 
ATOM     84  C   UNL A   1      43.044  25.449  25.551  1.00  0.00     0.200 A 
ATOM     85  F   UNL A   1      44.381  27.288  24.915  1.00  0.00    -0.200 F 
ATOM     86  F   UNL A   1      43.520  24.729  24.527  1.00  0.00    -0.200 F 
ENDBRANCH  52  76
BRANCH  64  87
ATOM     87  C   UNL A   1      44.359  27.198  34.312  1.00  0.00     0.064 A 
ATOM     88  C   UNL A   1      44.123  25.958  34.924  1.00  0.00     0.173 A 
ATOM     89  C   UNL A   1      45.659  27.723  34.380  1.00  0.00     0.173 A 
ATOM     90  F   UNL A   1      42.897  25.413  34.896  1.00  0.00    -0.203 F 
ATOM     91  C   UNL A   1      45.135  25.294  35.615  1.00  0.00     0.198 A 
ATOM     92  C   UNL A   1      46.677  27.041  35.040  1.00  0.00     0.198 A 
ATOM     93  F   UNL A   1      45.946  28.899  33.801  1.00  0.00    -0.203 F 
ATOM     94  F   UNL A   1      44.868  24.144  36.247  1.00  0.00    -0.200 F 
ATOM     95  C   UNL A   1      46.411  25.834  35.669  1.00  0.00     0.200 A 
ATOM     96  F   UNL A   1      47.914  27.554  35.077  1.00  0.00    -0.200 F 
ATOM     97  F   UNL A   1      47.383  25.195  36.336  1.00  0.00    -0.200 F 
ENDBRANCH  64  87
ENDBRANCH  38  39
ENDBRANCH  31  33
ENDBRANCH  30  31
ENDBRANCH  29  30
ENDBRANCH  28  29
ENDBRANCH  27  28
ENDBRANCH  26  27
ENDBRANCH   1  26
TORSDOF 21
ENDMDL
MODEL 2
REMARK VINA RESULT:     -10.3      2.762      8.968
REMARK SMILES O=C(C[C@@H]1CN(C(=O)[C@H]2C[C@H](O)C[NH2+]2)CCO1)OCCOCCOCCOC(=O)c1ccc(-c2c3nc(c(-c4c(F)c(F)c(F)c(F)c4F)c4ccc([nH]4)c(-c4c(F)c(F)c(F)c(F)c4F)c4nc(c(-c5c(F)c(F)c(F)c(F)c5F)c5ccc2[nH]5)C=C4)C=C3)cc1
REMARK SMILES IDX 22 1 21 2 20 3 19 4 18 5 2 6 1 7 3 8 4 9 5 10 17 11 6 12
REMARK SMILES IDX 16 13 15 14 7 15 8 16 9 17 10 18 14 19 11 20 13 21 12 24
REMARK SMILES IDX 23 26 24 27 25 28 26 29 27 30 28 31 29 32 30 33 31 34 92 35
REMARK SMILES IDX 32 36 91 37 33 38 34 39 35 40 85 41 36 42 90 43 84 44 86 45
REMARK SMILES IDX 37 46 89 47 83 48 82 49 38 51 70 52 50 53 69 54 51 55 54 56
REMARK SMILES IDX 68 57 87 58 52 59 53 60 67 62 88 63 55 64 39 65 40 66 48 67
REMARK SMILES IDX 41 68 42 69 46 70 49 71 43 72 44 73 47 74 45 75 71 76 72 77
REMARK SMILES IDX 80 78 73 79 74 80 78 81 81 82 75 83 76 84 79 85 77 86 56 87
REMARK SMILES IDX 57 88 65 89 58 90 59 91 63 92 66 93 60 94 61 95 64 96 62 97
REMARK H PARENT 14 22 14 23 12 25 86 50 54 61
REMARK Flexibility Score: inf
ROOT
ATOM      1  C   UNL A   1      41.901  20.692  26.279  1.00  0.00     0.188 C 
ENDROOT
BRANCH   1   2
ATOM      2  O   UNL A   1      40.916  21.617  25.873  1.00  0.00    -0.376 OA
BRANCH   2   3
ATOM      3  C   UNL A   1      39.579  21.336  26.223  1.00  0.00     0.202 C 
BRANCH   3   4
ATOM      4  C   UNL A   1      38.509  22.328  25.782  1.00  0.00     0.261 C 
BRANCH   4   5
ATOM      5  O   UNL A   1      37.362  21.844  25.044  1.00  0.00    -0.463 OA
BRANCH   5   6
ATOM      6  C   UNL A   1      36.252  21.189  25.432  1.00  0.00     0.308 C 
ATOM      7  O   UNL A   1      36.005  20.084  24.953  1.00  0.00    -0.252 OA
BRANCH   6   8
ATOM      8  C   UNL A   1      35.303  21.817  26.411  1.00  0.00     0.156 C 
BRANCH   8   9
ATOM      9  C   UNL A   1      33.994  22.274  25.803  1.00  0.00     0.148 C 
ATOM     10  C   UNL A   1      33.488  23.577  26.437  1.00  0.00     0.152 C 
ATOM     11  O   UNL A   1      33.041  21.211  25.980  1.00  0.00    -0.374 OA
ATOM     12  N   UNL A   1      32.189  23.945  25.905  1.00  0.00    -0.333 N 
ATOM     13  C   UNL A   1      31.788  21.553  25.368  1.00  0.00     0.182 C 
ATOM     14  C   UNL A   1      31.214  22.843  25.967  1.00  0.00     0.148 C 
BRANCH  12  15
ATOM     15  C   UNL A   1      31.771  25.210  25.519  1.00  0.00     0.281 C 
ATOM     16  O   UNL A   1      31.274  25.972  26.356  1.00  0.00    -0.268 OA
BRANCH  15  17
ATOM     17  C   UNL A   1      31.833  25.679  24.033  1.00  0.00     0.275 C 
ATOM     18  C   UNL A   1      32.685  26.894  23.667  1.00  0.00     0.113 C 
ATOM     19  N   UNL A   1      32.229  24.563  23.134  1.00  0.00    -0.334 N 
ATOM     20  C   UNL A   1      33.550  26.442  22.494  1.00  0.00     0.175 C 
ATOM     21  C   UNL A   1      32.832  25.207  21.964  1.00  0.00     0.293 C 
ATOM     22  H   UNL A   1      31.412  24.017  22.861  1.00  0.00     0.347 HD
ATOM     23  H   UNL A   1      32.874  23.918  23.589  1.00  0.00     0.347 HD
BRANCH  20  24
ATOM     24  O   UNL A   1      33.661  27.466  21.521  1.00  0.00    -0.387 OA
ATOM     25  H   UNL A   1      32.792  27.876  21.383  1.00  0.00     0.211 HD
ENDBRANCH  20  24
ENDBRANCH  15  17
ENDBRANCH  12  15
ENDBRANCH   8   9
ENDBRANCH   6   8
ENDBRANCH   5   6
ENDBRANCH   4   5
ENDBRANCH   3   4
ENDBRANCH   2   3
ENDBRANCH   1   2
BRANCH   1  26
ATOM     26  C   UNL A   1      43.336  21.241  26.303  1.00  0.00     0.188 C 
BRANCH  26  27
ATOM     27  O   UNL A   1      44.279  20.720  25.380  1.00  0.00    -0.376 OA
BRANCH  27  28
ATOM     28  C   UNL A   1      44.458  21.358  24.119  1.00  0.00     0.202 C 
BRANCH  28  29
ATOM     29  C   UNL A   1      45.032  22.787  24.008  1.00  0.00     0.261 C 
BRANCH  29  30
ATOM     30  O   UNL A   1      44.175  23.858  24.451  1.00  0.00    -0.460 OA
BRANCH  30  31
ATOM     31  C   UNL A   1      44.794  24.941  24.986  1.00  0.00     0.338 C 
ATOM     32  O   UNL A   1      45.859  25.422  24.635  1.00  0.00    -0.246 OA
BRANCH  31  33
ATOM     33  C   UNL A   1      43.891  25.632  25.939  1.00  0.00     0.060 A 
ATOM     34  C   UNL A   1      44.022  27.024  26.069  1.00  0.00     0.016 A 
ATOM     35  C   UNL A   1      42.911  24.954  26.669  1.00  0.00     0.016 A 
ATOM     36  C   UNL A   1      43.208  27.733  26.954  1.00  0.00     0.010 A 
ATOM     37  C   UNL A   1      42.115  25.662  27.584  1.00  0.00     0.010 A 
ATOM     38  C   UNL A   1      42.286  27.048  27.759  1.00  0.00    -0.014 A 
BRANCH  38  39
ATOM     39  C   UNL A   1      41.708  27.754  28.934  1.00  0.00     0.031 A 
ATOM     40  C   UNL A   1      42.406  27.599  30.261  1.00  0.00     0.074 A 
ATOM     41  C   UNL A   1      40.645  28.573  28.833  1.00  0.00     0.049 A 
ATOM     42  N   UNL A   1      42.138  28.153  31.417  1.00  0.00    -0.248 NA
ATOM     43  C   UNL A   1      43.568  26.696  30.283  1.00  0.00     0.031 C 
ATOM     44  C   UNL A   1      39.893  28.840  27.610  1.00  0.00     0.029 A 
ATOM     45  N   UNL A   1      40.017  29.336  29.788  1.00  0.00    -0.354 N 
ATOM     46  C   UNL A   1      43.109  27.683  32.292  1.00  0.00     0.074 A 
ATOM     47  C   UNL A   1      43.941  26.760  31.551  1.00  0.00     0.031 C 
ATOM     48  C   UNL A   1      38.896  29.698  27.890  1.00  0.00     0.029 A 
ATOM     49  C   UNL A   1      38.930  30.031  29.315  1.00  0.00     0.049 A 
ATOM     50  H   UNL A   1      40.318  29.381  30.724  1.00  0.00     0.167 HD
ATOM     51  C   UNL A   1      43.309  28.004  33.593  1.00  0.00     0.037 A 
ATOM     52  C   UNL A   1      38.060  30.834  29.961  1.00  0.00     0.037 A 
ATOM     53  C   UNL A   1      42.476  28.902  34.346  1.00  0.00     0.049 A 
ATOM     54  C   UNL A   1      38.259  31.118  31.433  1.00  0.00     0.074 A 
ATOM     55  C   UNL A   1      42.592  29.280  35.672  1.00  0.00     0.029 A 
ATOM     56  N   UNL A   1      41.365  29.558  33.840  1.00  0.00    -0.354 N 
ATOM     57  N   UNL A   1      39.200  30.695  32.243  1.00  0.00    -0.248 NA
ATOM     58  C   UNL A   1      37.278  32.007  32.075  1.00  0.00     0.031 C 
ATOM     59  C   UNL A   1      41.522  30.126  35.982  1.00  0.00     0.029 A 
ATOM     60  C   UNL A   1      40.773  30.322  34.834  1.00  0.00     0.049 A 
ATOM     61  H   UNL A   1      41.043  29.491  32.912  1.00  0.00     0.167 HD
ATOM     62  C   UNL A   1      38.940  31.284  33.475  1.00  0.00     0.074 A 
ATOM     63  C   UNL A   1      37.770  32.117  33.300  1.00  0.00     0.031 C 
ATOM     64  C   UNL A   1      39.607  31.146  34.649  1.00  0.00     0.037 A 
BRANCH  51  65
ATOM     65  C   UNL A   1      44.475  27.364  34.288  1.00  0.00     0.064 A 
ATOM     66  C   UNL A   1      45.696  28.040  34.444  1.00  0.00     0.173 A 
ATOM     67  C   UNL A   1      44.363  26.078  34.834  1.00  0.00     0.173 A 
ATOM     68  F   UNL A   1      45.860  29.266  33.923  1.00  0.00    -0.203 F 
ATOM     69  C   UNL A   1      46.765  27.442  35.103  1.00  0.00     0.198 A 
ATOM     70  C   UNL A   1      45.424  25.495  35.519  1.00  0.00     0.198 A 
ATOM     71  F   UNL A   1      43.218  25.390  34.712  1.00  0.00    -0.203 F 
ATOM     72  F   UNL A   1      47.936  28.089  35.202  1.00  0.00    -0.200 F 
ATOM     73  C   UNL A   1      46.627  26.174  35.649  1.00  0.00     0.200 A 
ATOM     74  F   UNL A   1      45.285  24.275  36.054  1.00  0.00    -0.200 F 
ATOM     75  F   UNL A   1      47.654  25.604  36.292  1.00  0.00    -0.200 F 
ENDBRANCH  51  65
BRANCH  52  76
ATOM     76  C   UNL A   1      36.901  31.424  29.237  1.00  0.00     0.064 A 
ATOM     77  C   UNL A   1      36.853  32.789  28.918  1.00  0.00     0.173 A 
ATOM     78  C   UNL A   1      35.786  30.641  28.901  1.00  0.00     0.173 A 
ATOM     79  F   UNL A   1      37.879  33.589  29.247  1.00  0.00    -0.203 F 
ATOM     80  C   UNL A   1      35.727  33.352  28.321  1.00  0.00     0.198 A 
ATOM     81  C   UNL A   1      34.674  31.199  28.274  1.00  0.00     0.198 A 
ATOM     82  F   UNL A   1      35.774  29.331  29.189  1.00  0.00    -0.203 F 
ATOM     83  F   UNL A   1      35.683  34.672  28.089  1.00  0.00    -0.200 F 
ATOM     84  C   UNL A   1      34.639  32.556  27.995  1.00  0.00     0.200 A 
ATOM     85  F   UNL A   1      33.630  30.423  27.952  1.00  0.00    -0.200 F 
ATOM     86  F   UNL A   1      33.555  33.098  27.425  1.00  0.00    -0.200 F 
ENDBRANCH  52  76
BRANCH  64  87
ATOM     87  C   UNL A   1      39.103  31.935  35.826  1.00  0.00     0.064 A 
ATOM     88  C   UNL A   1      39.505  33.260  36.055  1.00  0.00     0.173 A 
ATOM     89  C   UNL A   1      38.192  31.364  36.729  1.00  0.00     0.173 A 
ATOM     90  F   UNL A   1      40.380  33.852  35.228  1.00  0.00    -0.203 F 
ATOM     91  C   UNL A   1      39.051  33.966  37.166  1.00  0.00     0.198 A 
ATOM     92  C   UNL A   1      37.712  32.085  37.819  1.00  0.00     0.198 A 
ATOM     93  F   UNL A   1      37.762  30.105  36.553  1.00  0.00    -0.203 F 
ATOM     94  F   UNL A   1      39.501  35.207  37.400  1.00  0.00    -0.200 F 
ATOM     95  C   UNL A   1      38.152  33.380  38.045  1.00  0.00     0.200 A 
ATOM     96  F   UNL A   1      36.830  31.524  38.657  1.00  0.00    -0.200 F 
ATOM     97  F   UNL A   1      37.718  34.061  39.115  1.00  0.00    -0.200 F 
ENDBRANCH  64  87
ENDBRANCH  38  39
ENDBRANCH  31  33
ENDBRANCH  30  31
ENDBRANCH  29  30
ENDBRANCH  28  29
ENDBRANCH  27  28
ENDBRANCH  26  27
ENDBRANCH   1  26
TORSDOF 21
ENDMDL
MODEL 3
REMARK VINA RESULT:     -10.3      1.284      2.396
REMARK SMILES O=C(C[C@@H]1CN(C(=O)[C@H]2C[C@H](O)C[NH2+]2)CCO1)OCCOCCOCCOC(=O)c1ccc(-c2c3nc(c(-c4c(F)c(F)c(F)c(F)c4F)c4ccc([nH]4)c(-c4c(F)c(F)c(F)c(F)c4F)c4nc(c(-c5c(F)c(F)c(F)c(F)c5F)c5ccc2[nH]5)C=C4)C=C3)cc1
REMARK SMILES IDX 22 1 21 2 20 3 19 4 18 5 2 6 1 7 3 8 4 9 5 10 17 11 6 12
REMARK SMILES IDX 16 13 15 14 7 15 8 16 9 17 10 18 14 19 11 20 13 21 12 24
REMARK SMILES IDX 23 26 24 27 25 28 26 29 27 30 28 31 29 32 30 33 31 34 92 35
REMARK SMILES IDX 32 36 91 37 33 38 34 39 35 40 85 41 36 42 90 43 84 44 86 45
REMARK SMILES IDX 37 46 89 47 83 48 82 49 38 51 70 52 50 53 69 54 51 55 54 56
REMARK SMILES IDX 68 57 87 58 52 59 53 60 67 62 88 63 55 64 39 65 40 66 48 67
REMARK SMILES IDX 41 68 42 69 46 70 49 71 43 72 44 73 47 74 45 75 71 76 72 77
REMARK SMILES IDX 80 78 73 79 74 80 78 81 81 82 75 83 76 84 79 85 77 86 56 87
REMARK SMILES IDX 57 88 65 89 58 90 59 91 63 92 66 93 60 94 61 95 64 96 62 97
REMARK H PARENT 14 22 14 23 12 25 86 50 54 61
REMARK Flexibility Score: inf
ROOT
ATOM      1  C   UNL A   1      33.339  29.451  25.660  1.00  0.00     0.188 C 
ENDROOT
BRANCH   1   2
ATOM      2  O   UNL A   1      33.025  28.082  25.794  1.00  0.00    -0.376 OA
BRANCH   2   3
ATOM      3  C   UNL A   1      33.911  27.152  25.211  1.00  0.00     0.202 C 
BRANCH   3   4
ATOM      4  C   UNL A   1      33.971  27.091  23.690  1.00  0.00     0.261 C 
BRANCH   4   5
ATOM      5  O   UNL A   1      32.824  26.589  22.961  1.00  0.00    -0.463 OA
BRANCH   5   6
ATOM      6  C   UNL A   1      32.706  25.658  21.998  1.00  0.00     0.308 C 
ATOM      7  O   UNL A   1      33.222  25.858  20.900  1.00  0.00    -0.252 OA
BRANCH   6   8
ATOM      8  C   UNL A   1      31.920  24.403  22.245  1.00  0.00     0.156 C 
BRANCH   8   9
ATOM      9  C   UNL A   1      32.040  23.860  23.653  1.00  0.00     0.148 C 
ATOM     10  C   UNL A   1      32.447  22.380  23.667  1.00  0.00     0.152 C 
ATOM     11  O   UNL A   1      30.770  24.051  24.299  1.00  0.00    -0.374 OA
ATOM     12  N   UNL A   1      32.465  21.858  25.021  1.00  0.00    -0.333 N 
ATOM     13  C   UNL A   1      30.830  23.614  25.666  1.00  0.00     0.182 C 
ATOM     14  C   UNL A   1      31.219  22.132  25.755  1.00  0.00     0.148 C 
BRANCH  12  15
ATOM     15  C   UNL A   1      33.429  21.037  25.588  1.00  0.00     0.281 C 
ATOM     16  O   UNL A   1      34.344  21.537  26.253  1.00  0.00    -0.268 OA
BRANCH  15  17
ATOM     17  C   UNL A   1      33.446  19.498  25.343  1.00  0.00     0.275 C 
ATOM     18  C   UNL A   1      32.453  18.886  24.355  1.00  0.00     0.113 C 
ATOM     19  N   UNL A   1      34.806  19.029  24.965  1.00  0.00    -0.334 N 
ATOM     20  C   UNL A   1      33.293  18.014  23.426  1.00  0.00     0.175 C 
ATOM     21  C   UNL A   1      34.589  17.799  24.198  1.00  0.00     0.293 C 
ATOM     22  H   UNL A   1      35.363  18.838  25.797  1.00  0.00     0.347 HD
ATOM     23  H   UNL A   1      35.314  19.730  24.426  1.00  0.00     0.347 HD
BRANCH  20  24
ATOM     24  O   UNL A   1      32.627  16.799  23.132  1.00  0.00    -0.387 OA
ATOM     25  H   UNL A   1      31.901  16.969  22.512  1.00  0.00     0.211 HD
ENDBRANCH  20  24
ENDBRANCH  15  17
ENDBRANCH  12  15
ENDBRANCH   8   9
ENDBRANCH   6   8
ENDBRANCH   5   6
ENDBRANCH   4   5
ENDBRANCH   3   4
ENDBRANCH   2   3
ENDBRANCH   1   2
BRANCH   1  26
ATOM     26  C   UNL A   1      33.129  30.292  26.928  1.00  0.00     0.188 C 
BRANCH  26  27
ATOM     27  O   UNL A   1      31.831  30.791  27.206  1.00  0.00    -0.376 OA
BRANCH  27  28
ATOM     28  C   UNL A   1      31.385  31.988  26.574  1.00  0.00     0.202 C 
BRANCH  28  29
ATOM     29  C   UNL A   1      31.941  33.372  26.974  1.00  0.00     0.261 C 
BRANCH  29  30
ATOM     30  O   UNL A   1      32.414  33.505  28.330  1.00  0.00    -0.460 OA
BRANCH  30  31
ATOM     31  C   UNL A   1      33.489  34.313  28.514  1.00  0.00     0.338 C 
ATOM     32  O   UNL A   1      33.480  35.526  28.640  1.00  0.00    -0.246 OA
BRANCH  31  33
ATOM     33  C   UNL A   1      34.704  33.501  28.774  1.00  0.00     0.060 A 
ATOM     34  C   UNL A   1      34.538  32.268  29.425  1.00  0.00     0.016 A 
ATOM     35  C   UNL A   1      35.977  33.906  28.365  1.00  0.00     0.016 A 
ATOM     36  C   UNL A   1      35.641  31.461  29.706  1.00  0.00     0.010 A 
ATOM     37  C   UNL A   1      37.091  33.110  28.679  1.00  0.00     0.010 A 
ATOM     38  C   UNL A   1      36.932  31.902  29.384  1.00  0.00    -0.014 A 
BRANCH  38  39
ATOM     39  C   UNL A   1      38.093  31.218  30.013  1.00  0.00     0.031 A 
ATOM     40  C   UNL A   1      38.413  31.551  31.448  1.00  0.00     0.074 A 
ATOM     41  C   UNL A   1      38.806  30.272  29.375  1.00  0.00     0.049 A 
ATOM     42  N   UNL A   1      39.332  31.054  32.238  1.00  0.00    -0.248 NA
ATOM     43  C   UNL A   1      37.577  32.588  32.077  1.00  0.00     0.031 C 
ATOM     44  C   UNL A   1      38.588  29.829  28.001  1.00  0.00     0.029 A 
ATOM     45  N   UNL A   1      39.863  29.509  29.812  1.00  0.00    -0.354 N 
ATOM     46  C   UNL A   1      39.167  31.700  33.457  1.00  0.00     0.074 A 
ATOM     47  C   UNL A   1      38.099  32.660  33.291  1.00  0.00     0.031 C 
ATOM     48  C   UNL A   1      39.493  28.879  27.701  1.00  0.00     0.029 A 
ATOM     49  C   UNL A   1      40.362  28.656  28.858  1.00  0.00     0.049 A 
ATOM     50  H   UNL A   1      40.228  29.569  30.724  1.00  0.00     0.167 HD
ATOM     51  C   UNL A   1      39.830  31.499  34.621  1.00  0.00     0.037 A 
ATOM     52  C   UNL A   1      41.405  27.802  28.911  1.00  0.00     0.037 A 
ATOM     53  C   UNL A   1      40.909  30.563  34.792  1.00  0.00     0.049 A 
ATOM     54  C   UNL A   1      42.180  27.651  30.201  1.00  0.00     0.074 A 
ATOM     55  C   UNL A   1      41.650  30.299  35.931  1.00  0.00     0.029 A 
ATOM     56  N   UNL A   1      41.408  29.743  33.792  1.00  0.00    -0.354 N 
ATOM     57  N   UNL A   1      41.995  28.241  31.357  1.00  0.00    -0.248 NA
ATOM     58  C   UNL A   1      43.301  26.698  30.193  1.00  0.00     0.031 C 
ATOM     59  C   UNL A   1      42.630  29.354  35.607  1.00  0.00     0.029 A 
ATOM     60  C   UNL A   1      42.461  28.987  34.282  1.00  0.00     0.049 A 
ATOM     61  H   UNL A   1      41.065  29.704  32.870  1.00  0.00     0.167 HD
ATOM     62  C   UNL A   1      42.955  27.715  32.215  1.00  0.00     0.074 A 
ATOM     63  C   UNL A   1      43.702  26.737  31.455  1.00  0.00     0.031 C 
ATOM     64  C   UNL A   1      43.199  28.017  33.515  1.00  0.00     0.037 A 
BRANCH  51  65
ATOM     65  C   UNL A   1      39.410  32.323  35.802  1.00  0.00     0.064 A 
ATOM     66  C   UNL A   1      39.964  33.591  36.045  1.00  0.00     0.173 A 
ATOM     67  C   UNL A   1      38.421  31.860  36.682  1.00  0.00     0.173 A 
ATOM     68  F   UNL A   1      40.928  34.070  35.244  1.00  0.00    -0.203 F 
ATOM     69  C   UNL A   1      39.557  34.353  37.136  1.00  0.00     0.198 A 
ATOM     70  C   UNL A   1      37.994  32.638  37.754  1.00  0.00     0.198 A 
ATOM     71  F   UNL A   1      37.860  30.656  36.494  1.00  0.00    -0.203 F 
ATOM     72  F   UNL A   1      40.131  35.541  37.373  1.00  0.00    -0.200 F 
ATOM     73  C   UNL A   1      38.566  33.881  37.984  1.00  0.00     0.200 A 
ATOM     74  F   UNL A   1      37.030  32.186  38.566  1.00  0.00    -0.200 F 
ATOM     75  F   UNL A   1      38.167  34.621  39.027  1.00  0.00    -0.200 F 
ENDBRANCH  51  65
BRANCH  52  76
ATOM     76  C   UNL A   1      41.804  27.026  27.705  1.00  0.00     0.064 A 
ATOM     77  C   UNL A   1      41.329  25.725  27.480  1.00  0.00     0.173 A 
ATOM     78  C   UNL A   1      42.720  27.551  26.781  1.00  0.00     0.173 A 
ATOM     79  F   UNL A   1      40.476  25.164  28.351  1.00  0.00    -0.203 F 
ATOM     80  C   UNL A   1      41.776  24.971  26.397  1.00  0.00     0.198 A 
ATOM     81  C   UNL A   1      43.141  26.807  25.680  1.00  0.00     0.198 A 
ATOM     82  F   UNL A   1      43.213  28.786  26.950  1.00  0.00    -0.203 F 
ATOM     83  F   UNL A   1      41.356  23.707  26.244  1.00  0.00    -0.200 F 
ATOM     84  C   UNL A   1      42.678  25.514  25.494  1.00  0.00     0.200 A 
ATOM     85  F   UNL A   1      44.005  27.340  24.806  1.00  0.00    -0.200 F 
ATOM     86  F   UNL A   1      43.112  24.787  24.456  1.00  0.00    -0.200 F 
ENDBRANCH  52  76
BRANCH  64  87
ATOM     87  C   UNL A   1      44.302  27.260  34.204  1.00  0.00     0.064 A 
ATOM     88  C   UNL A   1      44.072  26.024  34.827  1.00  0.00     0.173 A 
ATOM     89  C   UNL A   1      45.610  27.770  34.227  1.00  0.00     0.173 A 
ATOM     90  F   UNL A   1      42.839  25.495  34.842  1.00  0.00    -0.203 F 
ATOM     91  C   UNL A   1      45.098  25.350  35.485  1.00  0.00     0.198 A 
ATOM     92  C   UNL A   1      46.641  27.076  34.855  1.00  0.00     0.198 A 
ATOM     93  F   UNL A   1      45.890  28.941  33.636  1.00  0.00    -0.203 F 
ATOM     94  F   UNL A   1      44.839  24.204  36.130  1.00  0.00    -0.200 F 
ATOM     95  C   UNL A   1      46.382  25.874  35.495  1.00  0.00     0.200 A 
ATOM     96  F   UNL A   1      47.884  27.575  34.848  1.00  0.00    -0.200 F 
ATOM     97  F   UNL A   1      47.368  25.225  36.131  1.00  0.00    -0.200 F 
ENDBRANCH  64  87
ENDBRANCH  38  39
ENDBRANCH  31  33
ENDBRANCH  30  31
ENDBRANCH  29  30
ENDBRANCH  28  29
ENDBRANCH  27  28
ENDBRANCH  26  27
ENDBRANCH   1  26
TORSDOF 21
ENDMDL
