MODEL 1
REMARK VINA RESULT:     -10.5      0.000      0.000
REMARK SMILES C[N@H+](CC(=O)OCCOCCOCCOC(=O)c1ccc(-c2c3nc(c(-c4c(F)c(F)c(F)c(F)c4F)c4ccc([nH]4)c(-c4c(F)c(F)c(F)c(F)c4F)c4nc(c(-c5c(F)c(F)c(F)c(F)c5F)c5ccc2[nH]5)C=C4)C=C3)cc1)Cc1nc(-c2ccsc2)no1
REMARK SMILES IDX 10 1 9 2 8 3 7 4 6 5 4 6 5 7 3 8 2 9 1 10 81 12 82 13 83 14
REMARK SMILES IDX 91 15 84 16 90 17 85 18 86 19 89 20 87 21 88 22 11 23 12 24
REMARK SMILES IDX 13 25 14 26 15 27 16 28 17 29 18 30 19 31 80 32 20 33 79 34
REMARK SMILES IDX 21 35 22 36 23 37 73 38 24 39 78 40 72 41 74 42 25 43 77 44
REMARK SMILES IDX 71 45 70 46 26 48 58 49 38 50 57 51 39 52 42 53 56 54 75 55
REMARK SMILES IDX 40 56 41 57 55 59 76 60 43 61 27 62 28 63 36 64 29 65 30 66
REMARK SMILES IDX 34 67 37 68 31 69 32 70 35 71 33 72 59 73 60 74 68 75 61 76
REMARK SMILES IDX 62 77 66 78 69 79 63 80 64 81 67 82 65 83 44 84 45 85 53 86
REMARK SMILES IDX 46 87 47 88 51 89 54 90 48 91 49 92 52 93 50 94
REMARK H PARENT 2 11 74 47 42 58
REMARK Flexibility Score: inf
ROOT
ATOM      1  C   UNL A   1      40.766  20.989  27.136  1.00  0.00     0.188 C 
ENDROOT
BRANCH   1   2
ATOM      2  O   UNL A   1      39.857  21.415  26.111  1.00  0.00    -0.376 OA
BRANCH   2   3
ATOM      3  C   UNL A   1      38.922  22.483  26.305  1.00  0.00     0.202 C 
BRANCH   3   4
ATOM      4  C   UNL A   1      37.761  22.799  25.346  1.00  0.00     0.261 C 
BRANCH   4   5
ATOM      5  O   UNL A   1      36.492  22.385  25.811  1.00  0.00    -0.459 OA
BRANCH   5   6
ATOM      6  C   UNL A   1      36.043  21.164  25.435  1.00  0.00     0.361 C 
ATOM      7  O   UNL A   1      36.746  20.243  25.038  1.00  0.00    -0.245 OA
BRANCH   6   8
ATOM      8  C   UNL A   1      34.529  21.064  25.645  1.00  0.00     0.386 C 
BRANCH   8   9
ATOM      9  N   UNL A   1      33.814  20.771  24.369  1.00  0.00    -0.320 N 
ATOM     10  C   UNL A   1      33.214  19.448  24.354  1.00  0.00     0.333 C 
ATOM     11  H   UNL A   1      34.542  20.782  23.654  1.00  0.00     0.348 HD
BRANCH   9  12
ATOM     12  C   UNL A   1      32.838  21.816  23.981  1.00  0.00     0.364 C 
BRANCH  12  13
ATOM     13  C   UNL A   1      33.424  23.133  23.500  1.00  0.00     0.282 A 
ATOM     14  N   UNL A   1      33.560  24.268  24.158  1.00  0.00    -0.186 NA
ATOM     15  O   UNL A   1      33.559  23.316  22.151  1.00  0.00    -0.333 OA
ATOM     16  C   UNL A   1      33.720  25.216  23.181  1.00  0.00     0.203 A 
ATOM     17  N   UNL A   1      33.751  24.699  21.945  1.00  0.00    -0.057 NA
BRANCH  16  18
ATOM     18  C   UNL A   1      33.614  26.664  23.518  1.00  0.00     0.033 A 
ATOM     19  C   UNL A   1      33.391  27.676  22.531  1.00  0.00     0.024 A 
ATOM     20  C   UNL A   1      33.623  27.240  24.778  1.00  0.00     0.077 A 
ATOM     21  C   UNL A   1      33.211  28.931  23.078  1.00  0.00     0.065 A 
ATOM     22  S   UNL A   1      33.319  28.921  24.778  1.00  0.00    -0.152 S 
ENDBRANCH  16  18
ENDBRANCH  12  13
ENDBRANCH   9  12
ENDBRANCH   8   9
ENDBRANCH   6   8
ENDBRANCH   5   6
ENDBRANCH   4   5
ENDBRANCH   3   4
ENDBRANCH   2   3
ENDBRANCH   1   2
BRANCH   1  23
ATOM     23  C   UNL A   1      42.313  21.021  26.888  1.00  0.00     0.188 C 
BRANCH  23  24
ATOM     24  O   UNL A   1      42.673  21.114  25.493  1.00  0.00    -0.376 OA
BRANCH  24  25
ATOM     25  C   UNL A   1      44.006  21.511  25.093  1.00  0.00     0.202 C 
BRANCH  25  26
ATOM     26  C   UNL A   1      44.342  22.978  24.776  1.00  0.00     0.261 C 
BRANCH  26  27
ATOM     27  O   UNL A   1      44.172  23.832  25.891  1.00  0.00    -0.460 OA
BRANCH  27  28
ATOM     28  C   UNL A   1      44.476  25.119  25.610  1.00  0.00     0.338 C 
ATOM     29  O   UNL A   1      45.244  25.537  24.773  1.00  0.00    -0.246 OA
BRANCH  28  30
ATOM     30  C   UNL A   1      43.445  25.911  26.296  1.00  0.00     0.060 A 
ATOM     31  C   UNL A   1      43.666  27.288  26.398  1.00  0.00     0.016 A 
ATOM     32  C   UNL A   1      42.242  25.326  26.721  1.00  0.00     0.016 A 
ATOM     33  C   UNL A   1      42.731  28.072  27.050  1.00  0.00     0.010 A 
ATOM     34  C   UNL A   1      41.306  26.109  27.382  1.00  0.00     0.010 A 
ATOM     35  C   UNL A   1      41.611  27.456  27.628  1.00  0.00    -0.014 A 
BRANCH  35  36
ATOM     36  C   UNL A   1      41.074  28.098  28.840  1.00  0.00     0.031 A 
ATOM     37  C   UNL A   1      41.874  27.907  30.101  1.00  0.00     0.074 A 
ATOM     38  C   UNL A   1      40.018  28.918  28.784  1.00  0.00     0.049 A 
ATOM     39  N   UNL A   1      41.704  28.427  31.286  1.00  0.00    -0.248 NA
ATOM     40  C   UNL A   1      43.046  27.015  30.007  1.00  0.00     0.031 C 
ATOM     41  C   UNL A   1      39.233  29.216  27.588  1.00  0.00     0.029 A 
ATOM     42  N   UNL A   1      39.443  29.671  29.770  1.00  0.00    -0.354 N 
ATOM     43  C   UNL A   1      42.747  27.934  32.060  1.00  0.00     0.074 A 
ATOM     44  C   UNL A   1      43.521  27.041  31.237  1.00  0.00     0.031 C 
ATOM     45  C   UNL A   1      38.275  30.101  27.912  1.00  0.00     0.029 A 
ATOM     46  C   UNL A   1      38.369  30.405  29.338  1.00  0.00     0.049 A 
ATOM     47  H   UNL A   1      39.770  29.686  30.698  1.00  0.00     0.167 HD
ATOM     48  C   UNL A   1      43.045  28.217  33.347  1.00  0.00     0.037 A 
ATOM     49  C   UNL A   1      37.559  31.219  30.040  1.00  0.00     0.037 A 
ATOM     50  C   UNL A   1      42.255  29.095  34.158  1.00  0.00     0.049 A 
ATOM     51  C   UNL A   1      37.852  31.437  31.504  1.00  0.00     0.074 A 
ATOM     52  C   UNL A   1      42.431  29.439  35.484  1.00  0.00     0.029 A 
ATOM     53  N   UNL A   1      41.123  29.762  33.711  1.00  0.00    -0.354 N 
ATOM     54  N   UNL A   1      38.839  30.973  32.236  1.00  0.00    -0.248 NA
ATOM     55  C   UNL A   1      36.921  32.303  32.238  1.00  0.00     0.031 C 
ATOM     56  C   UNL A   1      41.368  30.267  35.856  1.00  0.00     0.029 A 
ATOM     57  C   UNL A   1      40.570  30.496  34.744  1.00  0.00     0.049 A 
ATOM     58  H   UNL A   1      40.766  29.718  32.794  1.00  0.00     0.167 HD
ATOM     59  C   UNL A   1      38.663  31.510  33.506  1.00  0.00     0.074 A 
ATOM     60  C   UNL A   1      37.488  32.356  33.433  1.00  0.00     0.031 C 
ATOM     61  C   UNL A   1      39.397  31.326  34.632  1.00  0.00     0.037 A 
BRANCH  48  62
ATOM     62  C   UNL A   1      44.233  27.524  33.945  1.00  0.00     0.064 A 
ATOM     63  C   UNL A   1      44.130  26.264  34.557  1.00  0.00     0.173 A 
ATOM     64  C   UNL A   1      45.491  28.144  33.927  1.00  0.00     0.173 A 
ATOM     65  F   UNL A   1      42.943  25.644  34.634  1.00  0.00    -0.203 F 
ATOM     66  C   UNL A   1      45.239  25.663  35.149  1.00  0.00     0.198 A 
ATOM     67  C   UNL A   1      46.603  27.525  34.490  1.00  0.00     0.198 A 
ATOM     68  F   UNL A   1      45.640  29.354  33.370  1.00  0.00    -0.203 F 
ATOM     69  F   UNL A   1      45.105  24.489  35.781  1.00  0.00    -0.200 F 
ATOM     70  C   UNL A   1      46.475  26.289  35.108  1.00  0.00     0.200 A 
ATOM     71  F   UNL A   1      47.798  28.129  34.444  1.00  0.00    -0.200 F 
ATOM     72  F   UNL A   1      47.542  25.709  35.674  1.00  0.00    -0.200 F 
ENDBRANCH  48  62
BRANCH  49  73
ATOM     73  C   UNL A   1      36.397  31.867  29.380  1.00  0.00     0.064 A 
ATOM     74  C   UNL A   1      35.298  31.118  28.933  1.00  0.00     0.173 A 
ATOM     75  C   UNL A   1      36.378  33.251  29.149  1.00  0.00     0.173 A 
ATOM     76  F   UNL A   1      35.278  29.789  29.107  1.00  0.00    -0.203 F 
ATOM     77  C   UNL A   1      34.241  31.725  28.256  1.00  0.00     0.198 A 
ATOM     78  C   UNL A   1      35.305  33.860  28.503  1.00  0.00     0.198 A 
ATOM     79  F   UNL A   1      37.404  34.014  29.551  1.00  0.00    -0.203 F 
ATOM     80  F   UNL A   1      33.234  30.978  27.786  1.00  0.00    -0.200 F 
ATOM     81  C   UNL A   1      34.243  33.096  28.047  1.00  0.00     0.200 A 
ATOM     82  F   UNL A   1      35.307  35.187  28.312  1.00  0.00    -0.200 F 
ATOM     83  F   UNL A   1      33.228  33.677  27.392  1.00  0.00    -0.200 F 
ENDBRANCH  49  73
BRANCH  61  84
ATOM     84  C   UNL A   1      38.967  32.079  35.858  1.00  0.00     0.064 A 
ATOM     85  C   UNL A   1      38.181  31.480  36.854  1.00  0.00     0.173 A 
ATOM     86  C   UNL A   1      39.370  33.409  36.049  1.00  0.00     0.173 A 
ATOM     87  F   UNL A   1      37.764  30.212  36.716  1.00  0.00    -0.203 F 
ATOM     88  C   UNL A   1      37.773  32.203  37.972  1.00  0.00     0.198 A 
ATOM     89  C   UNL A   1      38.996  34.114  37.188  1.00  0.00     0.198 A 
ATOM     90  F   UNL A   1      40.137  34.023  35.136  1.00  0.00    -0.203 F 
ATOM     91  F   UNL A   1      36.963  31.634  38.875  1.00  0.00    -0.200 F 
ATOM     92  C   UNL A   1      38.185  33.517  38.141  1.00  0.00     0.200 A 
ATOM     93  F   UNL A   1      39.414  35.376  37.361  1.00  0.00    -0.200 F 
ATOM     94  F   UNL A   1      37.794  34.209  39.219  1.00  0.00    -0.200 F 
ENDBRANCH  61  84
ENDBRANCH  35  36
ENDBRANCH  28  30
ENDBRANCH  27  28
ENDBRANCH  26  27
ENDBRANCH  25  26
ENDBRANCH  24  25
ENDBRANCH  23  24
ENDBRANCH   1  23
TORSDOF 21
ENDMDL
MODEL 2
REMARK VINA RESULT:     -10.4      1.615      3.160
REMARK SMILES C[N@H+](CC(=O)OCCOCCOCCOC(=O)c1ccc(-c2c3nc(c(-c4c(F)c(F)c(F)c(F)c4F)c4ccc([nH]4)c(-c4c(F)c(F)c(F)c(F)c4F)c4nc(c(-c5c(F)c(F)c(F)c(F)c5F)c5ccc2[nH]5)C=C4)C=C3)cc1)Cc1nc(-c2ccsc2)no1
REMARK SMILES IDX 10 1 9 2 8 3 7 4 6 5 4 6 5 7 3 8 2 9 1 10 81 12 82 13 83 14
REMARK SMILES IDX 91 15 84 16 90 17 85 18 86 19 89 20 87 21 88 22 11 23 12 24
REMARK SMILES IDX 13 25 14 26 15 27 16 28 17 29 18 30 19 31 80 32 20 33 79 34
REMARK SMILES IDX 21 35 22 36 23 37 73 38 24 39 78 40 72 41 74 42 25 43 77 44
REMARK SMILES IDX 71 45 70 46 26 48 58 49 38 50 57 51 39 52 42 53 56 54 75 55
REMARK SMILES IDX 40 56 41 57 55 59 76 60 43 61 27 62 28 63 36 64 29 65 30 66
REMARK SMILES IDX 34 67 37 68 31 69 32 70 35 71 33 72 59 73 60 74 68 75 61 76
REMARK SMILES IDX 62 77 66 78 69 79 63 80 64 81 67 82 65 83 44 84 45 85 53 86
REMARK SMILES IDX 46 87 47 88 51 89 54 90 48 91 49 92 52 93 50 94
REMARK H PARENT 2 11 74 47 42 58
REMARK Flexibility Score: inf
ROOT
ATOM      1  C   UNL A   1      40.829  20.946  27.166  1.00  0.00     0.188 C 
ENDROOT
BRANCH   1   2
ATOM      2  O   UNL A   1      39.893  21.061  26.085  1.00  0.00    -0.376 OA
BRANCH   2   3
ATOM      3  C   UNL A   1      38.855  22.048  26.066  1.00  0.00     0.202 C 
BRANCH   3   4
ATOM      4  C   UNL A   1      37.479  21.842  25.408  1.00  0.00     0.261 C 
BRANCH   4   5
ATOM      5  O   UNL A   1      37.052  22.921  24.600  1.00  0.00    -0.459 OA
BRANCH   5   6
ATOM      6  C   UNL A   1      35.928  23.583  24.964  1.00  0.00     0.361 C 
ATOM      7  O   UNL A   1      35.506  23.684  26.108  1.00  0.00    -0.245 OA
BRANCH   6   8
ATOM      8  C   UNL A   1      35.290  24.259  23.746  1.00  0.00     0.386 C 
BRANCH   8   9
ATOM      9  N   UNL A   1      33.802  24.161  23.778  1.00  0.00    -0.320 N 
ATOM     10  C   UNL A   1      33.151  25.347  23.250  1.00  0.00     0.333 C 
ATOM     11  H   UNL A   1      33.566  24.101  24.770  1.00  0.00     0.348 HD
BRANCH   9  12
ATOM     12  C   UNL A   1      33.275  22.926  23.153  1.00  0.00     0.364 C 
BRANCH  12  13
ATOM     13  C   UNL A   1      33.084  21.736  24.078  1.00  0.00     0.282 A 
ATOM     14  N   UNL A   1      33.714  20.578  24.079  1.00  0.00    -0.186 NA
ATOM     15  O   UNL A   1      31.934  21.681  24.818  1.00  0.00    -0.333 OA
ATOM     16  C   UNL A   1      32.895  19.740  24.790  1.00  0.00     0.203 A 
ATOM     17  N   UNL A   1      31.812  20.355  25.284  1.00  0.00    -0.057 NA
BRANCH  16  18
ATOM     18  C   UNL A   1      33.125  18.268  24.762  1.00  0.00     0.033 A 
ATOM     19  C   UNL A   1      34.085  17.649  23.899  1.00  0.00     0.024 A 
ATOM     20  C   UNL A   1      32.549  17.307  25.577  1.00  0.00     0.077 A 
ATOM     21  C   UNL A   1      34.213  16.292  24.120  1.00  0.00     0.065 A 
ATOM     22  S   UNL A   1      33.178  15.734  25.353  1.00  0.00    -0.152 S 
ENDBRANCH  16  18
ENDBRANCH  12  13
ENDBRANCH   9  12
ENDBRANCH   8   9
ENDBRANCH   6   8
ENDBRANCH   5   6
ENDBRANCH   4   5
ENDBRANCH   3   4
ENDBRANCH   2   3
ENDBRANCH   1   2
BRANCH   1  23
ATOM     23  C   UNL A   1      42.365  21.124  26.908  1.00  0.00     0.188 C 
BRANCH  23  24
ATOM     24  O   UNL A   1      42.722  21.106  25.510  1.00  0.00    -0.376 OA
BRANCH  24  25
ATOM     25  C   UNL A   1      44.032  21.537  25.070  1.00  0.00     0.202 C 
BRANCH  25  26
ATOM     26  C   UNL A   1      44.323  23.012  24.751  1.00  0.00     0.261 C 
BRANCH  26  27
ATOM     27  O   UNL A   1      44.171  23.856  25.876  1.00  0.00    -0.460 OA
BRANCH  27  28
ATOM     28  C   UNL A   1      44.464  25.147  25.600  1.00  0.00     0.338 C 
ATOM     29  O   UNL A   1      45.229  25.575  24.764  1.00  0.00    -0.246 OA
BRANCH  28  30
ATOM     30  C   UNL A   1      43.427  25.927  26.290  1.00  0.00     0.060 A 
ATOM     31  C   UNL A   1      43.621  27.310  26.371  1.00  0.00     0.016 A 
ATOM     32  C   UNL A   1      42.242  25.325  26.738  1.00  0.00     0.016 A 
ATOM     33  C   UNL A   1      42.680  28.084  27.025  1.00  0.00     0.010 A 
ATOM     34  C   UNL A   1      41.299  26.097  27.402  1.00  0.00     0.010 A 
ATOM     35  C   UNL A   1      41.580  27.453  27.626  1.00  0.00    -0.014 A 
BRANCH  35  36
ATOM     36  C   UNL A   1      41.047  28.101  28.836  1.00  0.00     0.031 A 
ATOM     37  C   UNL A   1      41.847  27.910  30.098  1.00  0.00     0.074 A 
ATOM     38  C   UNL A   1      39.994  28.925  28.779  1.00  0.00     0.049 A 
ATOM     39  N   UNL A   1      41.680  28.434  31.282  1.00  0.00    -0.248 NA
ATOM     40  C   UNL A   1      43.015  27.012  30.005  1.00  0.00     0.031 C 
ATOM     41  C   UNL A   1      39.210  29.223  27.583  1.00  0.00     0.029 A 
ATOM     42  N   UNL A   1      39.423  29.683  29.764  1.00  0.00    -0.354 N 
ATOM     43  C   UNL A   1      42.721  27.938  32.057  1.00  0.00     0.074 A 
ATOM     44  C   UNL A   1      43.491  27.039  31.235  1.00  0.00     0.031 C 
ATOM     45  C   UNL A   1      38.255  30.113  27.906  1.00  0.00     0.029 A 
ATOM     46  C   UNL A   1      38.352  30.421  29.331  1.00  0.00     0.049 A 
ATOM     47  H   UNL A   1      39.751  29.699  30.692  1.00  0.00     0.167 HD
ATOM     48  C   UNL A   1      43.021  28.223  33.342  1.00  0.00     0.037 A 
ATOM     49  C   UNL A   1      37.546  31.239  30.032  1.00  0.00     0.037 A 
ATOM     50  C   UNL A   1      42.236  29.106  34.152  1.00  0.00     0.049 A 
ATOM     51  C   UNL A   1      37.841  31.460  31.494  1.00  0.00     0.074 A 
ATOM     52  C   UNL A   1      42.414  29.453  35.477  1.00  0.00     0.029 A 
ATOM     53  N   UNL A   1      41.106  29.777  33.704  1.00  0.00    -0.354 N 
ATOM     54  N   UNL A   1      38.826  30.994  32.227  1.00  0.00    -0.248 NA
ATOM     55  C   UNL A   1      36.913  32.332  32.227  1.00  0.00     0.031 C 
ATOM     56  C   UNL A   1      41.354  30.286  35.847  1.00  0.00     0.029 A 
ATOM     57  C   UNL A   1      40.557  30.516  34.735  1.00  0.00     0.049 A 
ATOM     58  H   UNL A   1      40.748  29.732  32.787  1.00  0.00     0.167 HD
ATOM     59  C   UNL A   1      38.653  31.535  33.496  1.00  0.00     0.074 A 
ATOM     60  C   UNL A   1      37.482  32.385  33.421  1.00  0.00     0.031 C 
ATOM     61  C   UNL A   1      39.388  31.350  34.622  1.00  0.00     0.037 A 
BRANCH  48  62
ATOM     62  C   UNL A   1      44.206  27.526  33.942  1.00  0.00     0.064 A 
ATOM     63  C   UNL A   1      44.090  26.291  34.599  1.00  0.00     0.173 A 
ATOM     64  C   UNL A   1      45.477  28.118  33.876  1.00  0.00     0.173 A 
ATOM     65  F   UNL A   1      42.893  25.700  34.722  1.00  0.00    -0.203 F 
ATOM     66  C   UNL A   1      45.199  25.688  35.191  1.00  0.00     0.198 A 
ATOM     67  C   UNL A   1      46.587  27.496  34.439  1.00  0.00     0.198 A 
ATOM     68  F   UNL A   1      45.639  29.305  33.274  1.00  0.00    -0.203 F 
ATOM     69  F   UNL A   1      45.054  24.540  35.867  1.00  0.00    -0.200 F 
ATOM     70  C   UNL A   1      46.446  26.286  35.103  1.00  0.00     0.200 A 
ATOM     71  F   UNL A   1      47.793  28.073  34.349  1.00  0.00    -0.200 F 
ATOM     72  F   UNL A   1      47.512  25.704  35.668  1.00  0.00    -0.200 F 
ENDBRANCH  48  62
BRANCH  49  73
ATOM     73  C   UNL A   1      36.386  31.890  29.370  1.00  0.00     0.064 A 
ATOM     74  C   UNL A   1      35.290  31.144  28.913  1.00  0.00     0.173 A 
ATOM     75  C   UNL A   1      36.367  33.276  29.149  1.00  0.00     0.173 A 
ATOM     76  F   UNL A   1      35.271  29.813  29.078  1.00  0.00    -0.203 F 
ATOM     77  C   UNL A   1      34.236  31.754  28.235  1.00  0.00     0.198 A 
ATOM     78  C   UNL A   1      35.295  33.889  28.502  1.00  0.00     0.198 A 
ATOM     79  F   UNL A   1      37.390  34.038  29.561  1.00  0.00    -0.203 F 
ATOM     80  F   UNL A   1      33.231  31.009  27.756  1.00  0.00    -0.200 F 
ATOM     81  C   UNL A   1      34.237  33.126  28.036  1.00  0.00     0.200 A 
ATOM     82  F   UNL A   1      35.296  35.217  28.320  1.00  0.00    -0.200 F 
ATOM     83  F   UNL A   1      33.224  33.710  27.381  1.00  0.00    -0.200 F 
ENDBRANCH  49  73
BRANCH  61  84
ATOM     84  C   UNL A   1      38.961  32.108  35.846  1.00  0.00     0.064 A 
ATOM     85  C   UNL A   1      39.313  33.451  36.044  1.00  0.00     0.173 A 
ATOM     86  C   UNL A   1      38.167  31.486  36.822  1.00  0.00     0.173 A 
ATOM     87  F   UNL A   1      40.077  34.089  35.144  1.00  0.00    -0.203 F 
ATOM     88  C   UNL A   1      38.927  34.129  37.197  1.00  0.00     0.198 A 
ATOM     89  C   UNL A   1      37.747  32.179  37.952  1.00  0.00     0.198 A 
ATOM     90  F   UNL A   1      37.787  30.209  36.673  1.00  0.00    -0.203 F 
ATOM     91  F   UNL A   1      39.336  35.389  37.399  1.00  0.00    -0.200 F 
ATOM     92  C   UNL A   1      38.141  33.495  38.147  1.00  0.00     0.200 A 
ATOM     93  F   UNL A   1      36.968  31.573  38.858  1.00  0.00    -0.200 F 
ATOM     94  F   UNL A   1      37.767  34.150  39.255  1.00  0.00    -0.200 F 
ENDBRANCH  61  84
ENDBRANCH  35  36
ENDBRANCH  28  30
ENDBRANCH  27  28
ENDBRANCH  26  27
ENDBRANCH  25  26
ENDBRANCH  24  25
ENDBRANCH  23  24
ENDBRANCH   1  23
TORSDOF 21
ENDMDL
MODEL 3
REMARK VINA RESULT:     -10.1      1.415      2.208
REMARK SMILES C[N@H+](CC(=O)OCCOCCOCCOC(=O)c1ccc(-c2c3nc(c(-c4c(F)c(F)c(F)c(F)c4F)c4ccc([nH]4)c(-c4c(F)c(F)c(F)c(F)c4F)c4nc(c(-c5c(F)c(F)c(F)c(F)c5F)c5ccc2[nH]5)C=C4)C=C3)cc1)Cc1nc(-c2ccsc2)no1
REMARK SMILES IDX 10 1 9 2 8 3 7 4 6 5 4 6 5 7 3 8 2 9 1 10 81 12 82 13 83 14
REMARK SMILES IDX 91 15 84 16 90 17 85 18 86 19 89 20 87 21 88 22 11 23 12 24
REMARK SMILES IDX 13 25 14 26 15 27 16 28 17 29 18 30 19 31 80 32 20 33 79 34
REMARK SMILES IDX 21 35 22 36 23 37 73 38 24 39 78 40 72 41 74 42 25 43 77 44
REMARK SMILES IDX 71 45 70 46 26 48 58 49 38 50 57 51 39 52 42 53 56 54 75 55
REMARK SMILES IDX 40 56 41 57 55 59 76 60 43 61 27 62 28 63 36 64 29 65 30 66
REMARK SMILES IDX 34 67 37 68 31 69 32 70 35 71 33 72 59 73 60 74 68 75 61 76
REMARK SMILES IDX 62 77 66 78 69 79 63 80 64 81 67 82 65 83 44 84 45 85 53 86
REMARK SMILES IDX 46 87 47 88 51 89 54 90 48 91 49 92 52 93 50 94
REMARK H PARENT 2 11 74 47 42 58
REMARK Flexibility Score: inf
ROOT
ATOM      1  C   UNL A   1      40.741  21.116  27.371  1.00  0.00     0.188 C 
ENDROOT
BRANCH   1   2
ATOM      2  O   UNL A   1      39.794  20.951  26.306  1.00  0.00    -0.376 OA
BRANCH   2   3
ATOM      3  C   UNL A   1      39.047  22.047  25.762  1.00  0.00     0.202 C 
BRANCH   3   4
ATOM      4  C   UNL A   1      37.626  22.429  26.210  1.00  0.00     0.261 C 
BRANCH   4   5
ATOM      5  O   UNL A   1      36.601  21.971  25.349  1.00  0.00    -0.459 OA
BRANCH   5   6
ATOM      6  C   UNL A   1      35.807  22.895  24.758  1.00  0.00     0.361 C 
ATOM      7  O   UNL A   1      36.062  24.088  24.658  1.00  0.00    -0.245 OA
BRANCH   6   8
ATOM      8  C   UNL A   1      34.565  22.226  24.160  1.00  0.00     0.386 C 
BRANCH   8   9
ATOM      9  N   UNL A   1      33.456  22.134  25.153  1.00  0.00    -0.320 N 
ATOM     10  C   UNL A   1      33.528  20.931  25.964  1.00  0.00     0.333 C 
ATOM     11  H   UNL A   1      32.607  22.071  24.591  1.00  0.00     0.348 HD
BRANCH   9  12
ATOM     12  C   UNL A   1      33.309  23.346  25.991  1.00  0.00     0.364 C 
BRANCH  12  13
ATOM     13  C   UNL A   1      32.020  24.131  25.812  1.00  0.00     0.282 A 
ATOM     14  N   UNL A   1      31.548  24.714  24.727  1.00  0.00    -0.186 NA
ATOM     15  O   UNL A   1      31.384  24.580  26.938  1.00  0.00    -0.333 OA
ATOM     16  C   UNL A   1      30.627  25.615  25.192  1.00  0.00     0.203 A 
ATOM     17  N   UNL A   1      30.466  25.567  26.521  1.00  0.00    -0.057 NA
BRANCH  16  18
ATOM     18  C   UNL A   1      30.089  26.670  24.286  1.00  0.00     0.033 A 
ATOM     19  C   UNL A   1      28.721  26.710  23.869  1.00  0.00     0.024 A 
ATOM     20  C   UNL A   1      30.757  27.777  23.790  1.00  0.00     0.077 A 
ATOM     21  C   UNL A   1      28.417  27.834  23.127  1.00  0.00     0.065 A 
ATOM     22  S   UNL A   1      29.766  28.851  22.906  1.00  0.00    -0.152 S 
ENDBRANCH  16  18
ENDBRANCH  12  13
ENDBRANCH   9  12
ENDBRANCH   8   9
ENDBRANCH   6   8
ENDBRANCH   5   6
ENDBRANCH   4   5
ENDBRANCH   3   4
ENDBRANCH   2   3
ENDBRANCH   1   2
BRANCH   1  23
ATOM     23  C   UNL A   1      42.277  21.167  27.066  1.00  0.00     0.188 C 
BRANCH  23  24
ATOM     24  O   UNL A   1      42.606  20.846  25.698  1.00  0.00    -0.376 OA
BRANCH  24  25
ATOM     25  C   UNL A   1      43.822  21.340  25.088  1.00  0.00     0.202 C 
BRANCH  25  26
ATOM     26  C   UNL A   1      43.977  22.820  24.700  1.00  0.00     0.261 C 
BRANCH  26  27
ATOM     27  O   UNL A   1      43.994  23.681  25.822  1.00  0.00    -0.460 OA
BRANCH  27  28
ATOM     28  C   UNL A   1      44.291  24.959  25.492  1.00  0.00     0.338 C 
ATOM     29  O   UNL A   1      45.043  25.348  24.626  1.00  0.00    -0.246 OA
BRANCH  28  30
ATOM     30  C   UNL A   1      43.273  25.773  26.170  1.00  0.00     0.060 A 
ATOM     31  C   UNL A   1      43.507  27.149  26.245  1.00  0.00     0.016 A 
ATOM     32  C   UNL A   1      42.068  25.208  26.614  1.00  0.00     0.016 A 
ATOM     33  C   UNL A   1      42.585  27.954  26.888  1.00  0.00     0.010 A 
ATOM     34  C   UNL A   1      41.144  26.011  27.267  1.00  0.00     0.010 A 
ATOM     35  C   UNL A   1      41.463  27.360  27.486  1.00  0.00    -0.014 A 
BRANCH  35  36
ATOM     36  C   UNL A   1      40.942  28.029  28.689  1.00  0.00     0.031 A 
ATOM     37  C   UNL A   1      41.740  27.842  29.951  1.00  0.00     0.074 A 
ATOM     38  C   UNL A   1      39.900  28.868  28.623  1.00  0.00     0.049 A 
ATOM     39  N   UNL A   1      41.583  28.383  31.129  1.00  0.00    -0.248 NA
ATOM     40  C   UNL A   1      42.895  26.926  29.868  1.00  0.00     0.031 C 
ATOM     41  C   UNL A   1      39.119  29.163  27.424  1.00  0.00     0.029 A 
ATOM     42  N   UNL A   1      39.342  29.647  29.599  1.00  0.00    -0.354 N 
ATOM     43  C   UNL A   1      42.618  27.881  31.908  1.00  0.00     0.074 A 
ATOM     44  C   UNL A   1      43.373  26.961  31.097  1.00  0.00     0.031 C 
ATOM     45  C   UNL A   1      38.178  30.071  27.738  1.00  0.00     0.029 A 
ATOM     46  C   UNL A   1      38.282  30.394  29.159  1.00  0.00     0.049 A 
ATOM     47  H   UNL A   1      39.671  29.669  30.527  1.00  0.00     0.167 HD
ATOM     48  C   UNL A   1      42.924  28.177  33.190  1.00  0.00     0.037 A 
ATOM     49  C   UNL A   1      37.489  31.233  29.851  1.00  0.00     0.037 A 
ATOM     50  C   UNL A   1      42.153  29.082  33.990  1.00  0.00     0.049 A 
ATOM     51  C   UNL A   1      37.789  31.467  31.310  1.00  0.00     0.074 A 
ATOM     52  C   UNL A   1      42.338  29.442  35.310  1.00  0.00     0.029 A 
ATOM     53  N   UNL A   1      41.032  29.763  33.535  1.00  0.00    -0.354 N 
ATOM     54  N   UNL A   1      38.768  30.995  32.047  1.00  0.00    -0.248 NA
ATOM     55  C   UNL A   1      36.875  32.361  32.033  1.00  0.00     0.031 C 
ATOM     56  C   UNL A   1      41.291  30.295  35.672  1.00  0.00     0.029 A 
ATOM     57  C   UNL A   1      40.496  30.523  34.558  1.00  0.00     0.049 A 
ATOM     58  H   UNL A   1      40.672  29.713  32.619  1.00  0.00     0.167 HD
ATOM     59  C   UNL A   1      38.605  31.554  33.309  1.00  0.00     0.074 A 
ATOM     60  C   UNL A   1      37.447  32.421  33.226  1.00  0.00     0.031 C 
ATOM     61  C   UNL A   1      39.339  31.373  34.437  1.00  0.00     0.037 A 
BRANCH  48  62
ATOM     62  C   UNL A   1      44.100  27.470  33.796  1.00  0.00     0.064 A 
ATOM     63  C   UNL A   1      43.973  26.228  34.437  1.00  0.00     0.173 A 
ATOM     64  C   UNL A   1      45.372  28.060  33.755  1.00  0.00     0.173 A 
ATOM     65  F   UNL A   1      42.773  25.638  34.537  1.00  0.00    -0.203 F 
ATOM     66  C   UNL A   1      45.072  25.615  35.036  1.00  0.00     0.198 A 
ATOM     67  C   UNL A   1      46.474  27.429  34.324  1.00  0.00     0.198 A 
ATOM     68  F   UNL A   1      45.545  29.254  33.169  1.00  0.00    -0.203 F 
ATOM     69  F   UNL A   1      44.916  24.460  35.696  1.00  0.00    -0.200 F 
ATOM     70  C   UNL A   1      46.322  26.211  34.971  1.00  0.00     0.200 A 
ATOM     71  F   UNL A   1      47.682  28.004  34.256  1.00  0.00    -0.200 F 
ATOM     72  F   UNL A   1      47.379  25.619  35.543  1.00  0.00    -0.200 F 
ENDBRANCH  48  62
BRANCH  49  73
ATOM     73  C   UNL A   1      36.337  31.893  29.183  1.00  0.00     0.064 A 
ATOM     74  C   UNL A   1      36.301  33.281  28.989  1.00  0.00     0.173 A 
ATOM     75  C   UNL A   1      35.227  31.147  28.756  1.00  0.00     0.173 A 
ATOM     76  F   UNL A   1      37.325  34.042  29.401  1.00  0.00    -0.203 F 
ATOM     77  C   UNL A   1      35.188  33.900  28.421  1.00  0.00     0.198 A 
ATOM     78  C   UNL A   1      34.131  31.763  28.157  1.00  0.00     0.198 A 
ATOM     79  F   UNL A   1      35.207  29.817  28.920  1.00  0.00    -0.203 F 
ATOM     80  F   UNL A   1      35.154  35.234  28.304  1.00  0.00    -0.200 F 
ATOM     81  C   UNL A   1      34.107  33.139  28.001  1.00  0.00     0.200 A 
ATOM     82  F   UNL A   1      33.093  31.023  27.743  1.00  0.00    -0.200 F 
ATOM     83  F   UNL A   1      33.036  33.736  27.458  1.00  0.00    -0.200 F 
ENDBRANCH  49  73
BRANCH  61  84
ATOM     84  C   UNL A   1      38.925  32.151  35.653  1.00  0.00     0.064 A 
ATOM     85  C   UNL A   1      39.270  33.501  35.818  1.00  0.00     0.173 A 
ATOM     86  C   UNL A   1      38.151  31.543  36.652  1.00  0.00     0.173 A 
ATOM     87  F   UNL A   1      40.015  34.126  34.894  1.00  0.00    -0.203 F 
ATOM     88  C   UNL A   1      38.897  34.198  36.964  1.00  0.00     0.198 A 
ATOM     89  C   UNL A   1      37.744  32.255  37.775  1.00  0.00     0.198 A 
ATOM     90  F   UNL A   1      37.779  30.260  36.535  1.00  0.00    -0.203 F 
ATOM     91  F   UNL A   1      39.298  35.465  37.134  1.00  0.00    -0.200 F 
ATOM     92  C   UNL A   1      38.130  33.577  37.938  1.00  0.00     0.200 A 
ATOM     93  F   UNL A   1      36.983  31.661  38.704  1.00  0.00    -0.200 F 
ATOM     94  F   UNL A   1      37.768  34.251  39.038  1.00  0.00    -0.200 F 
ENDBRANCH  61  84
ENDBRANCH  35  36
ENDBRANCH  28  30
ENDBRANCH  27  28
ENDBRANCH  26  27
ENDBRANCH  25  26
ENDBRANCH  24  25
ENDBRANCH  23  24
ENDBRANCH   1  23
TORSDOF 21
ENDMDL
