MODEL 1
REMARK VINA RESULT:     -11.7      0.000      0.000
REMARK SMILES COc1ccc(NC(=O)[C@@H]2[C@@H](C(=O)OCCOCCOCCOC(=O)c3ccc(-c4c5nc(c(-c6c(F)c(F)c(F)c(F)c6F)c6ccc([nH]6)c(-c6c(F)c(F)c(F)c(F)c6F)c6nc(c(-c7c(F)c(F)c(F)c(F)c7F)c7ccc4[nH]7)C=C6)C=C5)cc3)[C@@H]3CC[C@H]2C3=C(C)C)cc1
REMARK SMILES IDX 18 1 17 2 16 3 15 4 14 5 12 6 13 7 11 8 10 9 92 10 89 11
REMARK SMILES IDX 91 12 93 13 90 14 94 15 95 16 96 17 8 18 7 19 9 21 6 22 3 23
REMARK SMILES IDX 4 24 98 25 5 26 97 27 2 28 1 29 19 30 20 31 21 32 22 33
REMARK SMILES IDX 23 34 24 35 25 36 26 37 27 38 88 39 28 40 87 41 29 42 30 43
REMARK SMILES IDX 31 44 81 45 32 46 86 47 80 48 82 49 33 50 85 51 79 52 78 53
REMARK SMILES IDX 34 55 66 56 46 57 65 58 47 59 50 60 64 61 83 62 48 63 49 64
REMARK SMILES IDX 63 66 84 67 51 68 35 69 36 70 44 71 37 72 38 73 42 74 45 75
REMARK SMILES IDX 39 76 40 77 43 78 41 79 67 80 68 81 76 82 69 83 70 84 74 85
REMARK SMILES IDX 77 86 71 87 72 88 75 89 73 90 52 91 53 92 61 93 54 94 55 95
REMARK SMILES IDX 59 96 62 97 56 98 57 99 60 100 58 101
REMARK H PARENT 7 20 82 54 50 65
REMARK Flexibility Score: inf
ROOT
ATOM      1  C   UNL A   1      39.668  22.218  26.746  1.00  0.00     0.188 C 
ENDROOT
BRANCH   1   2
ATOM      2  O   UNL A   1      39.674  23.624  26.999  1.00  0.00    -0.376 OA
BRANCH   2   3
ATOM      3  C   UNL A   1      38.526  24.350  26.547  1.00  0.00     0.202 C 
BRANCH   3   4
ATOM      4  C   UNL A   1      37.555  23.508  25.716  1.00  0.00     0.261 C 
BRANCH   4   5
ATOM      5  O   UNL A   1      36.202  23.715  26.160  1.00  0.00    -0.463 OA
BRANCH   5   6
ATOM      6  C   UNL A   1      35.362  24.206  25.213  1.00  0.00     0.310 C 
ATOM      7  O   UNL A   1      35.518  24.030  24.010  1.00  0.00    -0.252 OA
BRANCH   6   8
ATOM      8  C   UNL A   1      34.157  24.924  25.796  1.00  0.00     0.119 C 
ATOM      9  C   UNL A   1      32.801  24.250  25.371  1.00  0.00     0.101 C 
ATOM     10  C   UNL A   1      31.991  25.473  24.999  1.00  0.00     0.029 C 
ATOM     11  C   UNL A   1      33.986  26.427  25.367  1.00  0.00     0.030 C 
ATOM     12  C   UNL A   1      31.763  26.407  26.210  1.00  0.00     0.009 C 
ATOM     13  C   UNL A   1      32.983  26.308  24.261  1.00  0.00    -0.064 C 
ATOM     14  C   UNL A   1      33.104  27.108  26.409  1.00  0.00     0.009 C 
ATOM     15  C   UNL A   1      32.763  26.894  23.073  1.00  0.00    -0.077 C 
ATOM     16  C   UNL A   1      33.439  28.154  22.646  1.00  0.00     0.039 C 
ATOM     17  C   UNL A   1      31.703  26.407  22.118  1.00  0.00     0.039 C 
BRANCH   9  18
ATOM     18  C   UNL A   1      32.206  23.323  26.444  1.00  0.00     0.228 C 
ATOM     19  N   UNL A   1      32.453  21.976  26.587  1.00  0.00    -0.326 N 
ATOM     20  H   UNL A   1      32.244  21.611  27.477  1.00  0.00     0.169 HD
ATOM     21  O   UNL A   1      31.446  23.807  27.295  1.00  0.00    -0.274 OA
BRANCH  19  22
ATOM     22  C   UNL A   1      32.955  21.039  25.668  1.00  0.00     0.041 A 
ATOM     23  C   UNL A   1      34.057  18.804  24.390  1.00  0.00     0.119 A 
ATOM     24  C   UNL A   1      32.695  19.088  24.269  1.00  0.00     0.048 A 
ATOM     25  C   UNL A   1      34.892  19.738  24.999  1.00  0.00     0.048 A 
ATOM     26  C   UNL A   1      32.143  20.220  24.890  1.00  0.00     0.030 A 
ATOM     27  C   UNL A   1      34.344  20.869  25.615  1.00  0.00     0.030 A 
BRANCH  23  28
ATOM     28  O   UNL A   1      34.460  17.592  23.897  1.00  0.00    -0.497 OA
ATOM     29  C   UNL A   1      33.452  16.582  23.835  1.00  0.00     0.278 C 
ENDBRANCH  23  28
ENDBRANCH  19  22
ENDBRANCH   9  18
ENDBRANCH   6   8
ENDBRANCH   5   6
ENDBRANCH   4   5
ENDBRANCH   3   4
ENDBRANCH   2   3
ENDBRANCH   1   2
BRANCH   1  30
ATOM     30  C   UNL A   1      40.779  21.462  27.477  1.00  0.00     0.188 C 
BRANCH  30  31
ATOM     31  O   UNL A   1      41.672  20.815  26.563  1.00  0.00    -0.376 OA
BRANCH  31  32
ATOM     32  C   UNL A   1      42.179  19.570  27.055  1.00  0.00     0.202 C 
BRANCH  32  33
ATOM     33  C   UNL A   1      42.713  18.601  25.986  1.00  0.00     0.261 C 
BRANCH  33  34
ATOM     34  O   UNL A   1      43.079  19.278  24.774  1.00  0.00    -0.460 OA
BRANCH  34  35
ATOM     35  C   UNL A   1      44.410  19.400  24.565  1.00  0.00     0.338 C 
ATOM     36  O   UNL A   1      45.184  18.556  24.151  1.00  0.00    -0.246 OA
BRANCH  35  37
ATOM     37  C   UNL A   1      44.798  20.808  24.743  1.00  0.00     0.060 A 
ATOM     38  C   UNL A   1      45.367  21.170  25.966  1.00  0.00     0.016 A 
ATOM     39  C   UNL A   1      44.531  21.770  23.776  1.00  0.00     0.016 A 
ATOM     40  C   UNL A   1      45.637  22.509  26.256  1.00  0.00     0.010 A 
ATOM     41  C   UNL A   1      44.807  23.112  24.061  1.00  0.00     0.010 A 
ATOM     42  C   UNL A   1      45.330  23.496  25.312  1.00  0.00    -0.014 A 
BRANCH  42  43
ATOM     43  C   UNL A   1      45.404  24.940  25.660  1.00  0.00     0.031 A 
ATOM     44  C   UNL A   1      46.727  25.643  25.534  1.00  0.00     0.074 A 
ATOM     45  C   UNL A   1      44.332  25.620  26.104  1.00  0.00     0.049 A 
ATOM     46  N   UNL A   1      47.104  26.805  26.002  1.00  0.00    -0.248 NA
ATOM     47  C   UNL A   1      47.771  24.930  24.780  1.00  0.00     0.031 C 
ATOM     48  C   UNL A   1      42.973  25.096  26.198  1.00  0.00     0.029 A 
ATOM     49  N   UNL A   1      44.233  26.904  26.588  1.00  0.00    -0.354 N 
ATOM     50  C   UNL A   1      48.439  26.938  25.649  1.00  0.00     0.074 A 
ATOM     51  C   UNL A   1      48.805  25.747  24.913  1.00  0.00     0.031 C 
ATOM     52  C   UNL A   1      42.178  26.039  26.734  1.00  0.00     0.029 A 
ATOM     53  C   UNL A   1      42.985  27.210  27.075  1.00  0.00     0.049 A 
ATOM     54  H   UNL A   1      44.983  27.542  26.585  1.00  0.00     0.167 HD
ATOM     55  C   UNL A   1      49.286  27.959  25.925  1.00  0.00     0.037 A 
ATOM     56  C   UNL A   1      42.559  28.286  27.765  1.00  0.00     0.037 A 
ATOM     57  C   UNL A   1      48.913  29.159  26.623  1.00  0.00     0.049 A 
ATOM     58  C   UNL A   1      43.530  29.388  28.105  1.00  0.00     0.074 A 
ATOM     59  C   UNL A   1      49.699  30.253  26.941  1.00  0.00     0.029 A 
ATOM     60  N   UNL A   1      47.641  29.426  27.105  1.00  0.00    -0.354 N 
ATOM     61  N   UNL A   1      44.804  29.492  27.812  1.00  0.00    -0.248 NA
ATOM     62  C   UNL A   1      43.007  30.518  28.889  1.00  0.00     0.031 C 
ATOM     63  C   UNL A   1      48.910  31.168  27.646  1.00  0.00     0.029 A 
ATOM     64  C   UNL A   1      47.625  30.661  27.732  1.00  0.00     0.049 A 
ATOM     65  H   UNL A   1      46.866  28.827  27.016  1.00  0.00     0.167 HD
ATOM     66  C   UNL A   1      45.227  30.697  28.358  1.00  0.00     0.074 A 
ATOM     67  C   UNL A   1      44.072  31.299  28.988  1.00  0.00     0.031 C 
ATOM     68  C   UNL A   1      46.463  31.252  28.345  1.00  0.00     0.037 A 
BRANCH  55  69
ATOM     69  C   UNL A   1      50.717  27.799  25.511  1.00  0.00     0.064 A 
ATOM     70  C   UNL A   1      51.147  28.074  24.206  1.00  0.00     0.173 A 
ATOM     71  C   UNL A   1      51.678  27.398  26.452  1.00  0.00     0.173 A 
ATOM     72  F   UNL A   1      50.263  28.444  23.267  1.00  0.00    -0.203 F 
ATOM     73  C   UNL A   1      52.487  27.936  23.852  1.00  0.00     0.198 A 
ATOM     74  C   UNL A   1      53.020  27.283  26.100  1.00  0.00     0.198 A 
ATOM     75  F   UNL A   1      51.315  27.124  27.713  1.00  0.00    -0.203 F 
ATOM     76  F   UNL A   1      52.872  28.166  22.589  1.00  0.00    -0.200 F 
ATOM     77  C   UNL A   1      53.422  27.547  24.800  1.00  0.00     0.200 A 
ATOM     78  F   UNL A   1      53.922  26.915  27.020  1.00  0.00    -0.200 F 
ATOM     79  F   UNL A   1      54.712  27.419  24.459  1.00  0.00    -0.200 F 
ENDBRANCH  55  69
BRANCH  56  80
ATOM     80  C   UNL A   1      41.152  28.352  28.242  1.00  0.00     0.064 A 
ATOM     81  C   UNL A   1      40.142  28.905  27.442  1.00  0.00     0.173 A 
ATOM     82  C   UNL A   1      40.796  27.895  29.520  1.00  0.00     0.173 A 
ATOM     83  F   UNL A   1      40.439  29.388  26.227  1.00  0.00    -0.203 F 
ATOM     84  C   UNL A   1      38.833  29.009  27.909  1.00  0.00     0.198 A 
ATOM     85  C   UNL A   1      39.482  27.974  29.974  1.00  0.00     0.198 A 
ATOM     86  F   UNL A   1      41.728  27.367  30.328  1.00  0.00    -0.203 F 
ATOM     87  F   UNL A   1      37.896  29.587  27.143  1.00  0.00    -0.200 F 
ATOM     88  C   UNL A   1      38.502  28.537  29.171  1.00  0.00     0.200 A 
ATOM     89  F   UNL A   1      39.167  27.511  31.190  1.00  0.00    -0.200 F 
ATOM     90  F   UNL A   1      37.243  28.639  29.618  1.00  0.00    -0.200 F 
ENDBRANCH  56  80
BRANCH  68  91
ATOM     91  C   UNL A   1      46.628  32.591  29.000  1.00  0.00     0.064 A 
ATOM     92  C   UNL A   1      46.414  33.783  28.293  1.00  0.00     0.173 A 
ATOM     93  C   UNL A   1      46.953  32.681  30.360  1.00  0.00     0.173 A 
ATOM     94  F   UNL A   1      46.114  33.748  26.986  1.00  0.00    -0.203 F 
ATOM     95  C   UNL A   1      46.538  35.019  28.922  1.00  0.00     0.198 A 
ATOM     96  C   UNL A   1      47.054  33.918  30.993  1.00  0.00     0.198 A 
ATOM     97  F   UNL A   1      47.160  31.569  31.081  1.00  0.00    -0.203 F 
ATOM     98  F   UNL A   1      46.364  36.147  28.221  1.00  0.00    -0.200 F 
ATOM     99  C   UNL A   1      46.851  35.086  30.272  1.00  0.00     0.200 A 
ATOM    100  F   UNL A   1      47.345  33.980  32.299  1.00  0.00    -0.200 F 
ATOM    101  F   UNL A   1      46.963  36.275  30.878  1.00  0.00    -0.200 F 
ENDBRANCH  68  91
ENDBRANCH  42  43
ENDBRANCH  35  37
ENDBRANCH  34  35
ENDBRANCH  33  34
ENDBRANCH  32  33
ENDBRANCH  31  32
ENDBRANCH  30  31
ENDBRANCH   1  30
TORSDOF 20
ENDMDL
MODEL 2
REMARK VINA RESULT:     -11.4      5.185      7.403
REMARK SMILES COc1ccc(NC(=O)[C@@H]2[C@@H](C(=O)OCCOCCOCCOC(=O)c3ccc(-c4c5nc(c(-c6c(F)c(F)c(F)c(F)c6F)c6ccc([nH]6)c(-c6c(F)c(F)c(F)c(F)c6F)c6nc(c(-c7c(F)c(F)c(F)c(F)c7F)c7ccc4[nH]7)C=C6)C=C5)cc3)[C@@H]3CC[C@H]2C3=C(C)C)cc1
REMARK SMILES IDX 18 1 17 2 16 3 15 4 14 5 12 6 13 7 11 8 10 9 92 10 89 11
REMARK SMILES IDX 91 12 93 13 90 14 94 15 95 16 96 17 8 18 7 19 9 21 6 22 3 23
REMARK SMILES IDX 4 24 98 25 5 26 97 27 2 28 1 29 19 30 20 31 21 32 22 33
REMARK SMILES IDX 23 34 24 35 25 36 26 37 27 38 88 39 28 40 87 41 29 42 30 43
REMARK SMILES IDX 31 44 81 45 32 46 86 47 80 48 82 49 33 50 85 51 79 52 78 53
REMARK SMILES IDX 34 55 66 56 46 57 65 58 47 59 50 60 64 61 83 62 48 63 49 64
REMARK SMILES IDX 63 66 84 67 51 68 35 69 36 70 44 71 37 72 38 73 42 74 45 75
REMARK SMILES IDX 39 76 40 77 43 78 41 79 67 80 68 81 76 82 69 83 70 84 74 85
REMARK SMILES IDX 77 86 71 87 72 88 75 89 73 90 52 91 53 92 61 93 54 94 55 95
REMARK SMILES IDX 59 96 62 97 56 98 57 99 60 100 58 101
REMARK H PARENT 7 20 82 54 50 65
REMARK Flexibility Score: inf
ROOT
ATOM      1  C   UNL A   1      38.576  21.614  25.788  1.00  0.00     0.188 C 
ENDROOT
BRANCH   1   2
ATOM      2  O   UNL A   1      38.500  23.007  26.093  1.00  0.00    -0.376 OA
BRANCH   2   3
ATOM      3  C   UNL A   1      37.356  23.702  25.584  1.00  0.00     0.202 C 
BRANCH   3   4
ATOM      4  C   UNL A   1      36.066  23.404  26.351  1.00  0.00     0.261 C 
BRANCH   4   5
ATOM      5  O   UNL A   1      34.996  24.244  25.882  1.00  0.00    -0.463 OA
BRANCH   5   6
ATOM      6  C   UNL A   1      33.750  23.804  26.193  1.00  0.00     0.310 C 
ATOM      7  O   UNL A   1      33.501  23.104  27.168  1.00  0.00    -0.252 OA
BRANCH   6   8
ATOM      8  C   UNL A   1      32.676  24.339  25.261  1.00  0.00     0.119 C 
ATOM      9  C   UNL A   1      33.280  25.199  24.091  1.00  0.00     0.101 C 
ATOM     10  C   UNL A   1      32.332  26.379  24.101  1.00  0.00     0.029 C 
ATOM     11  C   UNL A   1      31.611  25.288  25.921  1.00  0.00     0.030 C 
ATOM     12  C   UNL A   1      30.883  25.962  23.761  1.00  0.00     0.009 C 
ATOM     13  C   UNL A   1      32.150  26.637  25.559  1.00  0.00    -0.064 C 
ATOM     14  C   UNL A   1      30.373  25.284  25.029  1.00  0.00     0.009 C 
ATOM     15  C   UNL A   1      32.245  27.841  26.145  1.00  0.00    -0.077 C 
ATOM     16  C   UNL A   1      31.500  28.208  27.385  1.00  0.00     0.039 C 
ATOM     17  C   UNL A   1      33.008  28.983  25.523  1.00  0.00     0.039 C 
BRANCH   9  18
ATOM     18  C   UNL A   1      33.418  24.432  22.765  1.00  0.00     0.228 C 
ATOM     19  N   UNL A   1      33.278  23.074  22.590  1.00  0.00    -0.326 N 
ATOM     20  H   UNL A   1      33.098  22.794  21.663  1.00  0.00     0.169 HD
ATOM     21  O   UNL A   1      33.654  25.070  21.729  1.00  0.00    -0.274 OA
BRANCH  19  22
ATOM     22  C   UNL A   1      33.349  22.022  23.519  1.00  0.00     0.041 A 
ATOM     23  C   UNL A   1      33.374  19.548  24.830  1.00  0.00     0.119 A 
ATOM     24  C   UNL A   1      34.559  20.264  24.647  1.00  0.00     0.048 A 
ATOM     25  C   UNL A   1      32.161  20.156  24.518  1.00  0.00     0.048 A 
ATOM     26  C   UNL A   1      34.547  21.515  24.009  1.00  0.00     0.030 A 
ATOM     27  C   UNL A   1      32.147  21.406  23.886  1.00  0.00     0.030 A 
BRANCH  23  28
ATOM     28  O   UNL A   1      33.516  18.270  25.300  1.00  0.00    -0.497 OA
ATOM     29  C   UNL A   1      34.159  17.352  24.417  1.00  0.00     0.278 C 
ENDBRANCH  23  28
ENDBRANCH  19  22
ENDBRANCH   9  18
ENDBRANCH   6   8
ENDBRANCH   5   6
ENDBRANCH   4   5
ENDBRANCH   3   4
ENDBRANCH   2   3
ENDBRANCH   1   2
BRANCH   1  30
ATOM     30  C   UNL A   1      39.996  21.049  25.861  1.00  0.00     0.188 C 
BRANCH  30  31
ATOM     31  O   UNL A   1      40.327  20.611  27.183  1.00  0.00    -0.376 OA
BRANCH  31  32
ATOM     32  C   UNL A   1      41.731  20.419  27.380  1.00  0.00     0.202 C 
BRANCH  32  33
ATOM     33  C   UNL A   1      42.632  20.854  26.211  1.00  0.00     0.261 C 
BRANCH  33  34
ATOM     34  O   UNL A   1      43.326  22.079  26.490  1.00  0.00    -0.460 OA
BRANCH  34  35
ATOM     35  C   UNL A   1      43.024  23.110  25.667  1.00  0.00     0.338 C 
ATOM     36  O   UNL A   1      43.025  23.123  24.449  1.00  0.00    -0.246 OA
BRANCH  35  37
ATOM     37  C   UNL A   1      42.495  24.225  26.469  1.00  0.00     0.060 A 
ATOM     38  C   UNL A   1      43.105  25.472  26.319  1.00  0.00     0.016 A 
ATOM     39  C   UNL A   1      41.489  24.039  27.409  1.00  0.00     0.016 A 
ATOM     40  C   UNL A   1      42.746  26.542  27.141  1.00  0.00     0.010 A 
ATOM     41  C   UNL A   1      41.121  25.112  28.229  1.00  0.00     0.010 A 
ATOM     42  C   UNL A   1      41.768  26.361  28.125  1.00  0.00    -0.014 A 
BRANCH  42  43
ATOM     43  C   UNL A   1      41.508  27.404  29.152  1.00  0.00     0.031 A 
ATOM     44  C   UNL A   1      42.331  27.396  30.410  1.00  0.00     0.074 A 
ATOM     45  C   UNL A   1      40.545  28.331  28.995  1.00  0.00     0.049 A 
ATOM     46  N   UNL A   1      42.136  28.027  31.539  1.00  0.00    -0.248 NA
ATOM     47  C   UNL A   1      43.538  26.554  30.390  1.00  0.00     0.031 C 
ATOM     48  C   UNL A   1      39.728  28.513  27.799  1.00  0.00     0.029 A 
ATOM     49  N   UNL A   1      40.077  29.282  29.872  1.00  0.00    -0.354 N 
ATOM     50  C   UNL A   1      43.161  27.616  32.380  1.00  0.00     0.074 A 
ATOM     51  C   UNL A   1      43.986  26.695  31.628  1.00  0.00     0.031 C 
ATOM     52  C   UNL A   1      38.839  29.496  28.025  1.00  0.00     0.029 A 
ATOM     53  C   UNL A   1      38.986  29.970  29.400  1.00  0.00     0.049 A 
ATOM     54  H   UNL A   1      40.485  29.453  30.752  1.00  0.00     0.167 HD
ATOM     55  C   UNL A   1      43.386  27.969  33.669  1.00  0.00     0.037 A 
ATOM     56  C   UNL A   1      38.167  30.840  30.026  1.00  0.00     0.037 A 
ATOM     57  C   UNL A   1      42.589  28.913  34.405  1.00  0.00     0.049 A 
ATOM     58  C   UNL A   1      38.406  31.180  31.475  1.00  0.00     0.074 A 
ATOM     59  C   UNL A   1      42.745  29.342  35.712  1.00  0.00     0.029 A 
ATOM     60  N   UNL A   1      41.489  29.583  33.892  1.00  0.00    -0.354 N 
ATOM     61  N   UNL A   1      39.346  30.756  32.284  1.00  0.00    -0.248 NA
ATOM     62  C   UNL A   1      37.456  32.111  32.105  1.00  0.00     0.031 C 
ATOM     63  C   UNL A   1      41.717  30.246  36.001  1.00  0.00     0.029 A 
ATOM     64  C   UNL A   1      40.947  30.409  34.862  1.00  0.00     0.049 A 
ATOM     65  H   UNL A   1      41.144  29.484  32.976  1.00  0.00     0.167 HD
ATOM     66  C   UNL A   1      39.112  31.375  33.505  1.00  0.00     0.074 A 
ATOM     67  C   UNL A   1      37.950  32.219  33.330  1.00  0.00     0.031 C 
ATOM     68  C   UNL A   1      39.795  31.251  34.669  1.00  0.00     0.037 A 
BRANCH  55  69
ATOM     69  C   UNL A   1      44.516  27.291  34.383  1.00  0.00     0.064 A 
ATOM     70  C   UNL A   1      44.350  26.063  35.036  1.00  0.00     0.173 A 
ATOM     71  C   UNL A   1      45.795  27.869  34.378  1.00  0.00     0.173 A 
ATOM     72  F   UNL A   1      43.142  25.480  35.083  1.00  0.00    -0.203 F 
ATOM     73  C   UNL A   1      45.421  25.446  35.677  1.00  0.00     0.198 A 
ATOM     74  C   UNL A   1      46.868  27.238  34.998  1.00  0.00     0.198 A 
ATOM     75  F   UNL A   1      46.003  29.043  33.764  1.00  0.00    -0.203 F 
ATOM     76  F   UNL A   1      45.234  24.290  36.330  1.00  0.00    -0.200 F 
ATOM     77  C   UNL A   1      46.680  26.030  35.652  1.00  0.00     0.200 A 
ATOM     78  F   UNL A   1      48.084  27.800  34.965  1.00  0.00    -0.200 F 
ATOM     79  F   UNL A   1      47.710  25.431  36.264  1.00  0.00    -0.200 F 
ENDBRANCH  55  69
BRANCH  56  80
ATOM     80  C   UNL A   1      36.999  31.410  29.304  1.00  0.00     0.064 A 
ATOM     81  C   UNL A   1      36.981  32.752  28.901  1.00  0.00     0.173 A 
ATOM     82  C   UNL A   1      35.863  30.632  29.032  1.00  0.00     0.173 A 
ATOM     83  F   UNL A   1      38.028  33.546  29.170  1.00  0.00    -0.203 F 
ATOM     84  C   UNL A   1      35.867  33.297  28.266  1.00  0.00     0.198 A 
ATOM     85  C   UNL A   1      34.762  31.170  28.372  1.00  0.00     0.198 A 
ATOM     86  F   UNL A   1      35.827  29.344  29.406  1.00  0.00    -0.203 F 
ATOM     87  F   UNL A   1      35.856  34.597  27.936  1.00  0.00    -0.200 F 
ATOM     88  C   UNL A   1      34.761  32.505  27.995  1.00  0.00     0.200 A 
ATOM     89  F   UNL A   1      33.699  30.399  28.107  1.00  0.00    -0.200 F 
ATOM     90  F   UNL A   1      33.690  33.030  27.385  1.00  0.00    -0.200 F 
ENDBRANCH  56  80
BRANCH  68  91
ATOM     91  C   UNL A   1      39.328  32.069  35.835  1.00  0.00     0.064 A 
ATOM     92  C   UNL A   1      38.369  31.581  36.735  1.00  0.00     0.173 A 
ATOM     93  C   UNL A   1      39.881  33.333  36.085  1.00  0.00     0.173 A 
ATOM     94  F   UNL A   1      37.801  30.383  36.531  1.00  0.00    -0.203 F 
ATOM     95  C   UNL A   1      37.968  32.337  37.833  1.00  0.00     0.198 A 
ATOM     96  C   UNL A   1      39.495  34.078  37.197  1.00  0.00     0.198 A 
ATOM     97  F   UNL A   1      40.807  33.840  35.257  1.00  0.00    -0.203 F 
ATOM     98  F   UNL A   1      37.025  31.868  38.661  1.00  0.00    -0.200 F 
ATOM     99  C   UNL A   1      38.536  33.582  38.067  1.00  0.00     0.200 A 
ATOM    100  F   UNL A   1      40.054  35.274  37.427  1.00  0.00    -0.200 F 
ATOM    101  F   UNL A   1      38.155  34.305  39.128  1.00  0.00    -0.200 F 
ENDBRANCH  68  91
ENDBRANCH  42  43
ENDBRANCH  35  37
ENDBRANCH  34  35
ENDBRANCH  33  34
ENDBRANCH  32  33
ENDBRANCH  31  32
ENDBRANCH  30  31
ENDBRANCH   1  30
TORSDOF 20
ENDMDL
MODEL 3
REMARK VINA RESULT:     -11.3      4.877      9.288
REMARK SMILES COc1ccc(NC(=O)[C@@H]2[C@@H](C(=O)OCCOCCOCCOC(=O)c3ccc(-c4c5nc(c(-c6c(F)c(F)c(F)c(F)c6F)c6ccc([nH]6)c(-c6c(F)c(F)c(F)c(F)c6F)c6nc(c(-c7c(F)c(F)c(F)c(F)c7F)c7ccc4[nH]7)C=C6)C=C5)cc3)[C@@H]3CC[C@H]2C3=C(C)C)cc1
REMARK SMILES IDX 18 1 17 2 16 3 15 4 14 5 12 6 13 7 11 8 10 9 92 10 89 11
REMARK SMILES IDX 91 12 93 13 90 14 94 15 95 16 96 17 8 18 7 19 9 21 6 22 3 23
REMARK SMILES IDX 4 24 98 25 5 26 97 27 2 28 1 29 19 30 20 31 21 32 22 33
REMARK SMILES IDX 23 34 24 35 25 36 26 37 27 38 88 39 28 40 87 41 29 42 30 43
REMARK SMILES IDX 31 44 81 45 32 46 86 47 80 48 82 49 33 50 85 51 79 52 78 53
REMARK SMILES IDX 34 55 66 56 46 57 65 58 47 59 50 60 64 61 83 62 48 63 49 64
REMARK SMILES IDX 63 66 84 67 51 68 35 69 36 70 44 71 37 72 38 73 42 74 45 75
REMARK SMILES IDX 39 76 40 77 43 78 41 79 67 80 68 81 76 82 69 83 70 84 74 85
REMARK SMILES IDX 77 86 71 87 72 88 75 89 73 90 52 91 53 92 61 93 54 94 55 95
REMARK SMILES IDX 59 96 62 97 56 98 57 99 60 100 58 101
REMARK H PARENT 7 20 82 54 50 65
REMARK Flexibility Score: inf
ROOT
ATOM      1  C   UNL A   1      40.440  22.036  27.190  1.00  0.00     0.188 C 
ENDROOT
BRANCH   1   2
ATOM      2  O   UNL A   1      39.522  22.228  26.113  1.00  0.00    -0.376 OA
BRANCH   2   3
ATOM      3  C   UNL A   1      38.548  23.261  26.292  1.00  0.00     0.202 C 
BRANCH   3   4
ATOM      4  C   UNL A   1      37.270  23.049  25.476  1.00  0.00     0.261 C 
BRANCH   4   5
ATOM      5  O   UNL A   1      36.184  23.809  26.035  1.00  0.00    -0.463 OA
BRANCH   5   6
ATOM      6  C   UNL A   1      35.216  24.154  25.148  1.00  0.00     0.310 C 
ATOM      7  O   UNL A   1      35.194  23.771  23.984  1.00  0.00    -0.252 OA
BRANCH   6   8
ATOM      8  C   UNL A   1      34.112  24.996  25.764  1.00  0.00     0.119 C 
ATOM      9  C   UNL A   1      32.681  24.497  25.343  1.00  0.00     0.101 C 
ATOM     10  C   UNL A   1      32.017  25.816  25.012  1.00  0.00     0.029 C 
ATOM     11  C   UNL A   1      34.115  26.518  25.373  1.00  0.00     0.030 C 
ATOM     12  C   UNL A   1      31.915  26.740  26.247  1.00  0.00     0.009 C 
ATOM     13  C   UNL A   1      33.093  26.546  24.279  1.00  0.00    -0.064 C 
ATOM     14  C   UNL A   1      33.332  27.273  26.443  1.00  0.00     0.009 C 
ATOM     15  C   UNL A   1      32.930  27.183  23.109  1.00  0.00    -0.077 C 
ATOM     16  C   UNL A   1      33.746  28.364  22.701  1.00  0.00     0.039 C 
ATOM     17  C   UNL A   1      31.809  26.849  22.157  1.00  0.00     0.039 C 
BRANCH   9  18
ATOM     18  C   UNL A   1      31.992  23.621  26.403  1.00  0.00     0.228 C 
ATOM     19  N   UNL A   1      32.078  22.251  26.510  1.00  0.00    -0.326 N 
ATOM     20  H   UNL A   1      31.838  21.891  27.395  1.00  0.00     0.169 HD
ATOM     21  O   UNL A   1      31.305  24.171  27.277  1.00  0.00    -0.274 OA
BRANCH  19  22
ATOM     22  C   UNL A   1      32.454  21.284  25.563  1.00  0.00     0.041 A 
ATOM     23  C   UNL A   1      32.629  19.065  23.863  1.00  0.00     0.119 A 
ATOM     24  C   UNL A   1      32.354  20.333  23.346  1.00  0.00     0.048 A 
ATOM     25  C   UNL A   1      32.992  18.945  25.203  1.00  0.00     0.048 A 
ATOM     26  C   UNL A   1      32.287  21.451  24.192  1.00  0.00     0.030 A 
ATOM     27  C   UNL A   1      32.931  20.060  26.047  1.00  0.00     0.030 A 
BRANCH  23  28
ATOM     28  O   UNL A   1      32.498  18.022  22.987  1.00  0.00    -0.497 OA
ATOM     29  C   UNL A   1      33.567  17.075  22.987  1.00  0.00     0.278 C 
ENDBRANCH  23  28
ENDBRANCH  19  22
ENDBRANCH   9  18
ENDBRANCH   6   8
ENDBRANCH   5   6
ENDBRANCH   4   5
ENDBRANCH   3   4
ENDBRANCH   2   3
ENDBRANCH   1   2
BRANCH   1  30
ATOM     30  C   UNL A   1      41.746  21.361  26.767  1.00  0.00     0.188 C 
BRANCH  30  31
ATOM     31  O   UNL A   1      42.190  21.819  25.485  1.00  0.00    -0.376 OA
BRANCH  31  32
ATOM     32  C   UNL A   1      43.615  21.839  25.356  1.00  0.00     0.202 C 
BRANCH  32  33
ATOM     33  C   UNL A   1      44.190  22.982  24.503  1.00  0.00     0.261 C 
BRANCH  33  34
ATOM     34  O   UNL A   1      43.473  24.212  24.690  1.00  0.00    -0.460 OA
BRANCH  34  35
ATOM     35  C   UNL A   1      44.209  25.235  25.182  1.00  0.00     0.338 C 
ATOM     36  O   UNL A   1      45.277  25.655  24.775  1.00  0.00    -0.246 OA
BRANCH  35  37
ATOM     37  C   UNL A   1      43.431  25.930  26.220  1.00  0.00     0.060 A 
ATOM     38  C   UNL A   1      43.817  27.230  26.553  1.00  0.00     0.016 A 
ATOM     39  C   UNL A   1      42.406  25.298  26.915  1.00  0.00     0.016 A 
ATOM     40  C   UNL A   1      43.212  27.901  27.618  1.00  0.00     0.010 A 
ATOM     41  C   UNL A   1      41.793  25.970  27.978  1.00  0.00     0.010 A 
ATOM     42  C   UNL A   1      42.211  27.261  28.359  1.00  0.00    -0.014 A 
BRANCH  42  43
ATOM     43  C   UNL A   1      41.693  27.853  29.621  1.00  0.00     0.031 A 
ATOM     44  C   UNL A   1      40.427  28.662  29.568  1.00  0.00     0.074 A 
ATOM     45  C   UNL A   1      42.337  27.705  30.792  1.00  0.00     0.049 A 
ATOM     46  N   UNL A   1      39.916  29.472  30.459  1.00  0.00    -0.248 NA
ATOM     47  C   UNL A   1      39.631  28.543  28.336  1.00  0.00     0.031 C 
ATOM     48  C   UNL A   1      43.524  26.883  31.011  1.00  0.00     0.029 A 
ATOM     49  N   UNL A   1      42.088  28.272  32.020  1.00  0.00    -0.354 N 
ATOM     50  C   UNL A   1      38.773  30.001  29.875  1.00  0.00     0.074 A 
ATOM     51  C   UNL A   1      38.654  29.408  28.561  1.00  0.00     0.031 C 
ATOM     52  C   UNL A   1      43.919  27.020  32.289  1.00  0.00     0.029 A 
ATOM     53  C   UNL A   1      43.047  27.984  32.960  1.00  0.00     0.049 A 
ATOM     54  H   UNL A   1      41.299  28.830  32.207  1.00  0.00     0.167 HD
ATOM     55  C   UNL A   1      37.907  30.908  30.388  1.00  0.00     0.037 A 
ATOM     56  C   UNL A   1      43.232  28.484  34.199  1.00  0.00     0.037 A 
ATOM     57  C   UNL A   1      38.004  31.468  31.709  1.00  0.00     0.049 A 
ATOM     58  C   UNL A   1      42.286  29.530  34.731  1.00  0.00     0.074 A 
ATOM     59  C   UNL A   1      37.168  32.387  32.320  1.00  0.00     0.029 A 
ATOM     60  N   UNL A   1      38.994  31.154  32.627  1.00  0.00    -0.354 N 
ATOM     61  N   UNL A   1      41.233  30.064  34.161  1.00  0.00    -0.248 NA
ATOM     62  C   UNL A   1      42.564  30.056  36.077  1.00  0.00     0.031 C 
ATOM     63  C   UNL A   1      37.674  32.655  33.597  1.00  0.00     0.029 A 
ATOM     64  C   UNL A   1      38.800  31.874  33.794  1.00  0.00     0.049 A 
ATOM     65  H   UNL A   1      39.727  30.516  32.471  1.00  0.00     0.167 HD
ATOM     66  C   UNL A   1      40.718  30.971  35.077  1.00  0.00     0.074 A 
ATOM     67  C   UNL A   1      41.563  30.906  36.250  1.00  0.00     0.031 C 
ATOM     68  C   UNL A   1      39.644  31.789  34.957  1.00  0.00     0.037 A 
BRANCH  55  69
ATOM     69  C   UNL A   1      36.803  31.389  29.497  1.00  0.00     0.064 A 
ATOM     70  C   UNL A   1      35.728  30.566  29.138  1.00  0.00     0.173 A 
ATOM     71  C   UNL A   1      36.809  32.711  29.025  1.00  0.00     0.173 A 
ATOM     72  F   UNL A   1      35.687  29.290  29.550  1.00  0.00    -0.203 F 
ATOM     73  C   UNL A   1      34.705  31.044  28.323  1.00  0.00     0.198 A 
ATOM     74  C   UNL A   1      35.774  33.192  28.230  1.00  0.00     0.198 A 
ATOM     75  F   UNL A   1      37.817  33.537  29.343  1.00  0.00    -0.203 F 
ATOM     76  F   UNL A   1      33.704  30.229  27.959  1.00  0.00    -0.200 F 
ATOM     77  C   UNL A   1      34.725  32.357  27.875  1.00  0.00     0.200 A 
ATOM     78  F   UNL A   1      35.792  34.463  27.806  1.00  0.00    -0.200 F 
ATOM     79  F   UNL A   1      33.737  32.816  27.095  1.00  0.00    -0.200 F 
ENDBRANCH  55  69
BRANCH  56  80
ATOM     80  C   UNL A   1      44.402  28.049  35.007  1.00  0.00     0.064 A 
ATOM     81  C   UNL A   1      44.316  26.945  35.868  1.00  0.00     0.173 A 
ATOM     82  C   UNL A   1      45.617  28.748  34.961  1.00  0.00     0.173 A 
ATOM     83  F   UNL A   1      43.165  26.266  35.974  1.00  0.00    -0.203 F 
ATOM     84  C   UNL A   1      45.399  26.567  36.660  1.00  0.00     0.198 A 
ATOM     85  C   UNL A   1      46.707  28.352  35.733  1.00  0.00     0.198 A 
ATOM     86  F   UNL A   1      45.746  29.817  34.162  1.00  0.00    -0.203 F 
ATOM     87  F   UNL A   1      45.275  25.538  37.512  1.00  0.00    -0.200 F 
ATOM     88  C   UNL A   1      46.595  27.266  36.587  1.00  0.00     0.200 A 
ATOM     89  F   UNL A   1      47.861  29.026  35.654  1.00  0.00    -0.200 F 
ATOM     90  F   UNL A   1      47.635  26.901  37.350  1.00  0.00    -0.200 F 
ENDBRANCH  56  80
BRANCH  68  91
ATOM     91  C   UNL A   1      39.300  32.657  36.131  1.00  0.00     0.064 A 
ATOM     92  C   UNL A   1      38.415  32.222  37.129  1.00  0.00     0.173 A 
ATOM     93  C   UNL A   1      39.900  33.914  36.286  1.00  0.00     0.173 A 
ATOM     94  F   UNL A   1      37.806  31.031  37.018  1.00  0.00    -0.203 F 
ATOM     95  C   UNL A   1      38.129  33.024  38.230  1.00  0.00     0.198 A 
ATOM     96  C   UNL A   1      39.630  34.705  37.400  1.00  0.00     0.198 A 
ATOM     97  F   UNL A   1      40.759  34.371  35.362  1.00  0.00    -0.203 F 
ATOM     98  F   UNL A   1      37.254  32.605  39.154  1.00  0.00    -0.200 F 
ATOM     99  C   UNL A   1      38.742  34.261  38.369  1.00  0.00     0.200 A 
ATOM    100  F   UNL A   1      40.232  35.894  37.538  1.00  0.00    -0.200 F 
ATOM    101  F   UNL A   1      38.472  35.029  39.433  1.00  0.00    -0.200 F 
ENDBRANCH  68  91
ENDBRANCH  42  43
ENDBRANCH  35  37
ENDBRANCH  34  35
ENDBRANCH  33  34
ENDBRANCH  32  33
ENDBRANCH  31  32
ENDBRANCH  30  31
ENDBRANCH   1  30
TORSDOF 20
ENDMDL
