MODEL 1
REMARK VINA RESULT:     -11.1      0.000      0.000
REMARK SMILES COc1cc(/C=N/[NH+]=C2\NC(=O)[C@@H](CC(=O)OCCOCCOCCOC(=O)c3ccc(-c4c5nc(c(-c6c(F)c(F)c(F)c(F)c6F)c6ccc([nH]6)c(-c6c(F)c(F)c(F)c(F)c6F)c6nc(c(-c7c(F)c(F)c(F)c(F)c7F)c7ccc4[nH]7)C=C6)C=C5)cc3)S2)cc(I)c1OC
REMARK SMILES IDX 21 1 20 2 19 3 18 4 17 5 15 6 16 7 14 8 13 9 8 10 9 11 10 13
REMARK SMILES IDX 92 14 11 15 12 17 7 18 6 19 5 20 3 21 4 22 96 23 94 24 93 25
REMARK SMILES IDX 95 26 2 27 1 28 97 29 98 30 22 31 23 32 24 33 25 34 26 35
REMARK SMILES IDX 27 36 28 37 29 38 30 39 91 40 31 41 90 42 32 43 33 44 34 45
REMARK SMILES IDX 84 46 35 47 89 48 83 49 85 50 36 51 88 52 82 53 81 54 37 56
REMARK SMILES IDX 69 57 49 58 68 59 50 60 53 61 67 62 86 63 51 64 52 65 66 67
REMARK SMILES IDX 87 68 54 69 38 70 39 71 47 72 40 73 41 74 45 75 48 76 42 77
REMARK SMILES IDX 43 78 46 79 44 80 70 81 71 82 79 83 72 84 73 85 77 86 80 87
REMARK SMILES IDX 74 88 75 89 78 90 76 91 55 92 56 93 64 94 57 95 58 96 62 97
REMARK SMILES IDX 65 98 59 99 60 100 63 101 61 102
REMARK H PARENT 8 12 10 16 85 55 53 66
REMARK Flexibility Score: inf
ROOT
ATOM      1  C   UNL A   1      36.213  22.323  24.145  1.00  0.00     0.188 C 
ENDROOT
BRANCH   1   2
ATOM      2  O   UNL A   1      34.870  22.377  24.611  1.00  0.00    -0.376 OA
BRANCH   2   3
ATOM      3  C   UNL A   1      34.394  23.575  25.230  1.00  0.00     0.202 C 
BRANCH   3   4
ATOM      4  C   UNL A   1      33.118  24.235  24.686  1.00  0.00     0.261 C 
BRANCH   4   5
ATOM      5  O   UNL A   1      33.380  25.521  24.107  1.00  0.00    -0.463 OA
BRANCH   5   6
ATOM      6  C   UNL A   1      32.342  26.390  24.011  1.00  0.00     0.307 C 
ATOM      7  O   UNL A   1      31.829  26.765  22.965  1.00  0.00    -0.252 OA
BRANCH   6   8
ATOM      8  C   UNL A   1      31.764  26.726  25.363  1.00  0.00     0.150 C 
BRANCH   8   9
ATOM      9  C   UNL A   1      32.722  27.454  26.287  1.00  0.00     0.184 C 
ATOM     10  N   UNL A   1      34.434  30.763  26.939  1.00  0.00    -0.142 N 
ATOM     11  C   UNL A   1      33.637  29.769  26.754  1.00  0.00     0.337 C 
ATOM     12  H   UNL A   1      35.264  30.893  26.427  1.00  0.00     0.343 HD
ATOM     13  N   UNL A   1      32.568  29.464  27.528  1.00  0.00    -0.202 N 
ATOM     14  S   UNL A   1      33.835  28.628  25.467  1.00  0.00    -0.020 SA
ATOM     15  C   UNL A   1      31.987  28.249  27.345  1.00  0.00     0.322 C 
ATOM     16  H   UNL A   1      32.225  30.099  28.197  1.00  0.00     0.316 HD
ATOM     17  O   UNL A   1      31.060  27.825  28.025  1.00  0.00    -0.246 OA
BRANCH  10  18
ATOM     18  N   UNL A   1      34.007  31.632  27.934  1.00  0.00    -0.093 NA
ATOM     19  C   UNL A   1      34.942  32.365  28.444  1.00  0.00     0.166 C 
BRANCH  19  20
ATOM     20  C   UNL A   1      34.566  33.378  29.440  1.00  0.00     0.002 A 
ATOM     21  C   UNL A   1      33.337  35.384  29.950  1.00  0.00     0.162 A 
ATOM     22  C   UNL A   1      33.772  34.440  29.025  1.00  0.00     0.060 A 
ATOM     23  C   UNL A   1      33.715  35.304  31.312  1.00  0.00     0.174 A 
ATOM     24  C   UNL A   1      34.524  34.220  31.715  1.00  0.00     0.060 A 
ATOM     25  C   UNL A   1      34.955  33.265  30.770  1.00  0.00     0.028 A 
ATOM     26  I   UNL A   1      35.117  33.746  33.684  1.00  0.00    -0.040 I 
BRANCH  21  27
ATOM     27  O   UNL A   1      32.586  36.463  29.540  1.00  0.00    -0.493 OA
ATOM     28  C   UNL A   1      33.278  37.346  28.657  1.00  0.00     0.278 C 
ENDBRANCH  21  27
BRANCH  23  29
ATOM     29  O   UNL A   1      33.128  36.283  32.065  1.00  0.00    -0.492 OA
ATOM     30  C   UNL A   1      33.837  37.443  32.449  1.00  0.00     0.278 C 
ENDBRANCH  23  29
ENDBRANCH  19  20
ENDBRANCH  10  18
ENDBRANCH   8   9
ENDBRANCH   6   8
ENDBRANCH   5   6
ENDBRANCH   4   5
ENDBRANCH   3   4
ENDBRANCH   2   3
ENDBRANCH   1   2
BRANCH   1  31
ATOM     31  C   UNL A   1      37.309  21.809  25.091  1.00  0.00     0.188 C 
BRANCH  31  32
ATOM     32  O   UNL A   1      37.308  20.413  25.277  1.00  0.00    -0.376 OA
BRANCH  32  33
ATOM     33  C   UNL A   1      38.497  19.682  24.995  1.00  0.00     0.202 C 
BRANCH  33  34
ATOM     34  C   UNL A   1      39.686  19.580  25.980  1.00  0.00     0.261 C 
BRANCH  34  35
ATOM     35  O   UNL A   1      40.999  19.406  25.431  1.00  0.00    -0.460 OA
BRANCH  35  36
ATOM     36  C   UNL A   1      42.041  19.572  26.283  1.00  0.00     0.338 C 
ATOM     37  O   UNL A   1      42.917  18.769  26.534  1.00  0.00    -0.246 OA
BRANCH  36  38
ATOM     38  C   UNL A   1      42.086  21.002  26.672  1.00  0.00     0.060 A 
ATOM     39  C   UNL A   1      41.898  21.966  25.673  1.00  0.00     0.016 A 
ATOM     40  C   UNL A   1      42.307  21.391  27.996  1.00  0.00     0.016 A 
ATOM     41  C   UNL A   1      41.971  23.322  25.987  1.00  0.00     0.010 A 
ATOM     42  C   UNL A   1      42.400  22.754  28.305  1.00  0.00     0.010 A 
ATOM     43  C   UNL A   1      42.269  23.724  27.294  1.00  0.00    -0.014 A 
BRANCH  43  44
ATOM     44  C   UNL A   1      42.628  25.143  27.546  1.00  0.00     0.031 A 
ATOM     45  C   UNL A   1      43.944  25.659  27.030  1.00  0.00     0.074 A 
ATOM     46  C   UNL A   1      41.778  25.981  28.168  1.00  0.00     0.049 A 
ATOM     47  N   UNL A   1      44.452  26.863  27.093  1.00  0.00    -0.248 NA
ATOM     48  C   UNL A   1      44.805  24.677  26.353  1.00  0.00     0.031 C 
ATOM     49  C   UNL A   1      40.465  25.614  28.691  1.00  0.00     0.029 A 
ATOM     50  N   UNL A   1      41.899  27.317  28.461  1.00  0.00    -0.354 N 
ATOM     51  C   UNL A   1      45.691  26.783  26.471  1.00  0.00     0.074 A 
ATOM     52  C   UNL A   1      45.875  25.404  26.072  1.00  0.00     0.031 C 
ATOM     53  C   UNL A   1      39.901  26.701  29.248  1.00  0.00     0.029 A 
ATOM     54  C   UNL A   1      40.824  27.831  29.141  1.00  0.00     0.049 A 
ATOM     55  H   UNL A   1      42.684  27.855  28.207  1.00  0.00     0.167 HD
ATOM     56  C   UNL A   1      46.590  27.771  26.243  1.00  0.00     0.037 A 
ATOM     57  C   UNL A   1      40.615  29.068  29.632  1.00  0.00     0.037 A 
ATOM     58  C   UNL A   1      46.407  29.142  26.641  1.00  0.00     0.049 A 
ATOM     59  C   UNL A   1      41.650  30.141  29.408  1.00  0.00     0.074 A 
ATOM     60  C   UNL A   1      47.245  30.221  26.428  1.00  0.00     0.029 A 
ATOM     61  N   UNL A   1      45.314  29.620  27.352  1.00  0.00    -0.354 N 
ATOM     62  N   UNL A   1      42.800  30.069  28.779  1.00  0.00    -0.248 NA
ATOM     63  C   UNL A   1      41.349  31.475  29.948  1.00  0.00     0.031 C 
ATOM     64  C   UNL A   1      46.694  31.337  27.069  1.00  0.00     0.029 A 
ATOM     65  C   UNL A   1      45.473  30.972  27.613  1.00  0.00     0.049 A 
ATOM     66  H   UNL A   1      44.539  29.078  27.629  1.00  0.00     0.167 HD
ATOM     67  C   UNL A   1      43.341  31.349  28.818  1.00  0.00     0.074 A 
ATOM     68  C   UNL A   1      42.386  32.181  29.521  1.00  0.00     0.031 C 
ATOM     69  C   UNL A   1      44.518  31.795  28.312  1.00  0.00     0.037 A 
BRANCH  56  70
ATOM     70  C   UNL A   1      47.876  27.391  25.563  1.00  0.00     0.064 A 
ATOM     71  C   UNL A   1      48.029  27.451  24.169  1.00  0.00     0.173 A 
ATOM     72  C   UNL A   1      48.980  26.978  26.324  1.00  0.00     0.173 A 
ATOM     73  F   UNL A   1      47.001  27.826  23.392  1.00  0.00    -0.203 F 
ATOM     74  C   UNL A   1      49.225  27.077  23.562  1.00  0.00     0.198 A 
ATOM     75  C   UNL A   1      50.187  26.641  25.716  1.00  0.00     0.198 A 
ATOM     76  F   UNL A   1      48.892  26.906  27.661  1.00  0.00    -0.203 F 
ATOM     77  F   UNL A   1      49.327  27.084  22.225  1.00  0.00    -0.200 F 
ATOM     78  C   UNL A   1      50.305  26.680  24.336  1.00  0.00     0.200 A 
ATOM     79  F   UNL A   1      51.233  26.272  26.468  1.00  0.00    -0.200 F 
ATOM     80  F   UNL A   1      51.457  26.325  23.751  1.00  0.00    -0.200 F 
ENDBRANCH  56  70
BRANCH  57  81
ATOM     81  C   UNL A   1      39.368  29.360  30.390  1.00  0.00     0.064 A 
ATOM     82  C   UNL A   1      38.128  29.463  29.744  1.00  0.00     0.173 A 
ATOM     83  C   UNL A   1      39.397  29.552  31.780  1.00  0.00     0.173 A 
ATOM     84  F   UNL A   1      38.053  29.316  28.413  1.00  0.00    -0.203 F 
ATOM     85  C   UNL A   1      36.968  29.762  30.456  1.00  0.00     0.198 A 
ATOM     86  C   UNL A   1      38.232  29.818  32.496  1.00  0.00     0.198 A 
ATOM     87  F   UNL A   1      40.558  29.469  32.445  1.00  0.00    -0.203 F 
ATOM     88  F   UNL A   1      35.804  29.903  29.808  1.00  0.00    -0.200 F 
ATOM     89  C   UNL A   1      37.020  29.931  31.832  1.00  0.00     0.200 A 
ATOM     90  F   UNL A   1      38.284  29.969  33.825  1.00  0.00    -0.200 F 
ATOM     91  F   UNL A   1      35.903  30.211  32.518  1.00  0.00    -0.200 F 
ENDBRANCH  57  81
BRANCH  69  92
ATOM     92  C   UNL A   1      44.822  33.263  28.452  1.00  0.00     0.064 A 
ATOM     93  C   UNL A   1      45.523  33.779  29.553  1.00  0.00     0.173 A 
ATOM     94  C   UNL A   1      44.421  34.165  27.454  1.00  0.00     0.173 A 
ATOM     95  F   UNL A   1      45.922  32.964  30.541  1.00  0.00    -0.203 F 
ATOM     96  C   UNL A   1      45.772  35.144  29.669  1.00  0.00     0.198 A 
ATOM     97  C   UNL A   1      44.707  35.525  27.554  1.00  0.00     0.198 A 
ATOM     98  F   UNL A   1      43.759  33.729  26.372  1.00  0.00    -0.203 F 
ATOM     99  F   UNL A   1      46.385  35.621  30.762  1.00  0.00    -0.200 F 
ATOM    100  C   UNL A   1      45.369  36.015  28.668  1.00  0.00     0.200 A 
ATOM    101  F   UNL A   1      44.333  36.360  26.575  1.00  0.00    -0.200 F 
ATOM    102  F   UNL A   1      45.612  37.328  28.781  1.00  0.00    -0.200 F 
ENDBRANCH  69  92
ENDBRANCH  43  44
ENDBRANCH  36  38
ENDBRANCH  35  36
ENDBRANCH  34  35
ENDBRANCH  33  34
ENDBRANCH  32  33
ENDBRANCH  31  32
ENDBRANCH   1  31
TORSDOF 22
ENDMDL
MODEL 2
REMARK VINA RESULT:     -10.3      1.207      2.109
REMARK SMILES COc1cc(/C=N/[NH+]=C2\NC(=O)[C@@H](CC(=O)OCCOCCOCCOC(=O)c3ccc(-c4c5nc(c(-c6c(F)c(F)c(F)c(F)c6F)c6ccc([nH]6)c(-c6c(F)c(F)c(F)c(F)c6F)c6nc(c(-c7c(F)c(F)c(F)c(F)c7F)c7ccc4[nH]7)C=C6)C=C5)cc3)S2)cc(I)c1OC
REMARK SMILES IDX 21 1 20 2 19 3 18 4 17 5 15 6 16 7 14 8 13 9 8 10 9 11 10 13
REMARK SMILES IDX 92 14 11 15 12 17 7 18 6 19 5 20 3 21 4 22 96 23 94 24 93 25
REMARK SMILES IDX 95 26 2 27 1 28 97 29 98 30 22 31 23 32 24 33 25 34 26 35
REMARK SMILES IDX 27 36 28 37 29 38 30 39 91 40 31 41 90 42 32 43 33 44 34 45
REMARK SMILES IDX 84 46 35 47 89 48 83 49 85 50 36 51 88 52 82 53 81 54 37 56
REMARK SMILES IDX 69 57 49 58 68 59 50 60 53 61 67 62 86 63 51 64 52 65 66 67
REMARK SMILES IDX 87 68 54 69 38 70 39 71 47 72 40 73 41 74 45 75 48 76 42 77
REMARK SMILES IDX 43 78 46 79 44 80 70 81 71 82 79 83 72 84 73 85 77 86 80 87
REMARK SMILES IDX 74 88 75 89 78 90 76 91 55 92 56 93 64 94 57 95 58 96 62 97
REMARK SMILES IDX 65 98 59 99 60 100 63 101 61 102
REMARK H PARENT 8 12 10 16 85 55 53 66
REMARK Flexibility Score: inf
ROOT
ATOM      1  C   UNL A   1      36.103  22.408  24.198  1.00  0.00     0.188 C 
ENDROOT
BRANCH   1   2
ATOM      2  O   UNL A   1      34.969  22.708  25.003  1.00  0.00    -0.376 OA
BRANCH   2   3
ATOM      3  C   UNL A   1      34.802  24.036  25.506  1.00  0.00     0.202 C 
BRANCH   3   4
ATOM      4  C   UNL A   1      33.528  24.813  25.142  1.00  0.00     0.261 C 
BRANCH   4   5
ATOM      5  O   UNL A   1      33.789  25.870  24.207  1.00  0.00    -0.463 OA
BRANCH   5   6
ATOM      6  C   UNL A   1      32.796  26.766  23.980  1.00  0.00     0.307 C 
ATOM      7  O   UNL A   1      32.205  26.912  22.918  1.00  0.00    -0.252 OA
BRANCH   6   8
ATOM      8  C   UNL A   1      32.371  27.467  25.246  1.00  0.00     0.150 C 
BRANCH   8   9
ATOM      9  C   UNL A   1      33.025  28.817  25.461  1.00  0.00     0.184 C 
ATOM     10  N   UNL A   1      32.806  32.058  27.399  1.00  0.00    -0.142 N 
ATOM     11  C   UNL A   1      32.909  30.850  26.969  1.00  0.00     0.337 C 
ATOM     12  H   UNL A   1      32.200  32.724  27.001  1.00  0.00     0.343 HD
ATOM     13  N   UNL A   1      33.829  29.945  27.382  1.00  0.00    -0.202 N 
ATOM     14  S   UNL A   1      31.876  30.191  25.746  1.00  0.00    -0.020 SA
ATOM     15  C   UNL A   1      33.961  28.806  26.652  1.00  0.00     0.322 C 
ATOM     16  H   UNL A   1      34.381  30.107  28.180  1.00  0.00     0.316 HD
ATOM     17  O   UNL A   1      34.800  27.943  26.877  1.00  0.00    -0.246 OA
BRANCH  10  18
ATOM     18  N   UNL A   1      33.634  32.331  28.479  1.00  0.00    -0.093 NA
ATOM     19  C   UNL A   1      33.898  33.586  28.650  1.00  0.00     0.166 C 
BRANCH  19  20
ATOM     20  C   UNL A   1      34.694  33.974  29.823  1.00  0.00     0.002 A 
ATOM     21  C   UNL A   1      34.734  34.841  32.069  1.00  0.00     0.162 A 
ATOM     22  C   UNL A   1      34.028  34.523  30.913  1.00  0.00     0.060 A 
ATOM     23  C   UNL A   1      36.134  34.648  32.149  1.00  0.00     0.174 A 
ATOM     24  C   UNL A   1      36.794  34.094  31.031  1.00  0.00     0.060 A 
ATOM     25  C   UNL A   1      36.068  33.768  29.866  1.00  0.00     0.028 A 
ATOM     26  I   UNL A   1      38.829  33.547  30.904  1.00  0.00    -0.040 I 
BRANCH  21  27
ATOM     27  O   UNL A   1      34.090  35.424  33.137  1.00  0.00    -0.493 OA
ATOM     28  C   UNL A   1      33.819  36.815  32.959  1.00  0.00     0.278 C 
ENDBRANCH  21  27
BRANCH  23  29
ATOM     29  O   UNL A   1      36.624  34.957  33.387  1.00  0.00    -0.492 OA
ATOM     30  C   UNL A   1      36.712  33.986  34.410  1.00  0.00     0.278 C 
ENDBRANCH  23  29
ENDBRANCH  19  20
ENDBRANCH  10  18
ENDBRANCH   8   9
ENDBRANCH   6   8
ENDBRANCH   5   6
ENDBRANCH   4   5
ENDBRANCH   3   4
ENDBRANCH   2   3
ENDBRANCH   1   2
BRANCH   1  31
ATOM     31  C   UNL A   1      37.390  21.917  24.879  1.00  0.00     0.188 C 
BRANCH  31  32
ATOM     32  O   UNL A   1      37.358  20.568  25.278  1.00  0.00    -0.376 OA
BRANCH  32  33
ATOM     33  C   UNL A   1      38.484  19.742  24.999  1.00  0.00     0.202 C 
BRANCH  33  34
ATOM     34  C   UNL A   1      39.690  19.598  25.958  1.00  0.00     0.261 C 
BRANCH  34  35
ATOM     35  O   UNL A   1      40.956  19.232  25.393  1.00  0.00    -0.460 OA
BRANCH  35  36
ATOM     36  C   UNL A   1      42.043  19.381  26.190  1.00  0.00     0.338 C 
ATOM     37  O   UNL A   1      42.923  18.568  26.388  1.00  0.00    -0.246 OA
BRANCH  36  38
ATOM     38  C   UNL A   1      42.123  20.808  26.587  1.00  0.00     0.060 A 
ATOM     39  C   UNL A   1      42.151  21.776  25.574  1.00  0.00     0.016 A 
ATOM     40  C   UNL A   1      42.166  21.189  27.930  1.00  0.00     0.016 A 
ATOM     41  C   UNL A   1      42.263  23.126  25.900  1.00  0.00     0.010 A 
ATOM     42  C   UNL A   1      42.300  22.546  28.255  1.00  0.00     0.010 A 
ATOM     43  C   UNL A   1      42.387  23.516  27.239  1.00  0.00    -0.014 A 
BRANCH  43  44
ATOM     44  C   UNL A   1      42.795  24.910  27.548  1.00  0.00     0.031 A 
ATOM     45  C   UNL A   1      44.201  25.339  27.228  1.00  0.00     0.074 A 
ATOM     46  C   UNL A   1      41.920  25.802  28.047  1.00  0.00     0.049 A 
ATOM     47  N   UNL A   1      44.771  26.509  27.370  1.00  0.00    -0.248 NA
ATOM     48  C   UNL A   1      45.087  24.302  26.675  1.00  0.00     0.031 C 
ATOM     49  C   UNL A   1      40.525  25.522  28.375  1.00  0.00     0.029 A 
ATOM     50  N   UNL A   1      42.083  27.129  28.361  1.00  0.00    -0.354 N 
ATOM     51  C   UNL A   1      46.078  26.348  26.930  1.00  0.00     0.074 A 
ATOM     52  C   UNL A   1      46.230  24.959  26.554  1.00  0.00     0.031 C 
ATOM     53  C   UNL A   1      39.957  26.644  28.851  1.00  0.00     0.029 A 
ATOM     54  C   UNL A   1      40.956  27.713  28.884  1.00  0.00     0.049 A 
ATOM     55  H   UNL A   1      42.928  27.615  28.226  1.00  0.00     0.167 HD
ATOM     56  C   UNL A   1      47.061  27.275  26.839  1.00  0.00     0.037 A 
ATOM     57  C   UNL A   1      40.758  28.963  29.347  1.00  0.00     0.037 A 
ATOM     58  C   UNL A   1      46.911  28.657  27.215  1.00  0.00     0.049 A 
ATOM     59  C   UNL A   1      41.881  29.967  29.279  1.00  0.00     0.074 A 
ATOM     60  C   UNL A   1      47.837  29.680  27.129  1.00  0.00     0.029 A 
ATOM     61  N   UNL A   1      45.760  29.206  27.764  1.00  0.00    -0.354 N 
ATOM     62  N   UNL A   1      43.101  29.820  28.821  1.00  0.00    -0.248 NA
ATOM     63  C   UNL A   1      41.591  31.319  29.778  1.00  0.00     0.031 C 
ATOM     64  C   UNL A   1      47.273  30.831  27.691  1.00  0.00     0.029 A 
ATOM     65  C   UNL A   1      45.966  30.546  28.053  1.00  0.00     0.049 A 
ATOM     66  H   UNL A   1      44.921  28.716  27.925  1.00  0.00     0.167 HD
ATOM     67  C   UNL A   1      43.711  31.063  28.944  1.00  0.00     0.074 A 
ATOM     68  C   UNL A   1      42.721  31.956  29.508  1.00  0.00     0.031 C 
ATOM     69  C   UNL A   1      44.975  31.431  28.614  1.00  0.00     0.037 A 
BRANCH  56  70
ATOM     70  C   UNL A   1      48.405  26.813  26.347  1.00  0.00     0.064 A 
ATOM     71  C   UNL A   1      49.332  26.183  27.193  1.00  0.00     0.173 A 
ATOM     72  C   UNL A   1      48.762  26.988  25.001  1.00  0.00     0.173 A 
ATOM     73  F   UNL A   1      49.049  26.003  28.492  1.00  0.00    -0.203 F 
ATOM     74  C   UNL A   1      50.577  25.780  26.718  1.00  0.00     0.198 A 
ATOM     75  C   UNL A   1      49.993  26.549  24.522  1.00  0.00     0.198 A 
ATOM     76  F   UNL A   1      47.913  27.580  24.148  1.00  0.00    -0.203 F 
ATOM     77  F   UNL A   1      51.470  25.237  27.558  1.00  0.00    -0.200 F 
ATOM     78  C   UNL A   1      50.904  25.957  25.381  1.00  0.00     0.200 A 
ATOM     79  F   UNL A   1      50.300  26.708  23.226  1.00  0.00    -0.200 F 
ATOM     80  F   UNL A   1      52.100  25.563  24.924  1.00  0.00    -0.200 F 
ENDBRANCH  56  70
BRANCH  57  81
ATOM     81  C   UNL A   1      39.437  29.336  29.921  1.00  0.00     0.064 A 
ATOM     82  C   UNL A   1      38.407  29.838  29.114  1.00  0.00     0.173 A 
ATOM     83  C   UNL A   1      39.184  29.205  31.295  1.00  0.00     0.173 A 
ATOM     84  F   UNL A   1      38.608  30.009  27.799  1.00  0.00    -0.203 F 
ATOM     85  C   UNL A   1      37.180  30.210  29.662  1.00  0.00     0.198 A 
ATOM     86  C   UNL A   1      37.947  29.547  31.836  1.00  0.00     0.198 A 
ATOM     87  F   UNL A   1      40.138  28.734  32.111  1.00  0.00    -0.203 F 
ATOM     88  F   UNL A   1      36.229  30.733  28.876  1.00  0.00    -0.200 F 
ATOM     89  C   UNL A   1      36.949  30.056  31.021  1.00  0.00     0.200 A 
ATOM     90  F   UNL A   1      37.724  29.385  33.147  1.00  0.00    -0.200 F 
ATOM     91  F   UNL A   1      35.766  30.407  31.545  1.00  0.00    -0.200 F 
ENDBRANCH  57  81
BRANCH  69  92
ATOM     92  C   UNL A   1      45.348  32.877  28.804  1.00  0.00     0.064 A 
ATOM     93  C   UNL A   1      45.166  33.834  27.793  1.00  0.00     0.173 A 
ATOM     94  C   UNL A   1      45.877  33.315  30.028  1.00  0.00     0.173 A 
ATOM     95  F   UNL A   1      44.672  33.471  26.600  1.00  0.00    -0.203 F 
ATOM     96  C   UNL A   1      45.539  35.162  27.987  1.00  0.00     0.198 A 
ATOM     97  C   UNL A   1      46.213  34.651  30.232  1.00  0.00     0.198 A 
ATOM     98  F   UNL A   1      46.062  32.448  31.035  1.00  0.00    -0.203 F 
ATOM     99  F   UNL A   1      45.417  36.043  26.984  1.00  0.00    -0.200 F 
ATOM    100  C   UNL A   1      46.057  35.571  29.206  1.00  0.00     0.200 A 
ATOM    101  F   UNL A   1      46.694  35.047  31.419  1.00  0.00    -0.200 F 
ATOM    102  F   UNL A   1      46.414  36.849  29.391  1.00  0.00    -0.200 F 
ENDBRANCH  69  92
ENDBRANCH  43  44
ENDBRANCH  36  38
ENDBRANCH  35  36
ENDBRANCH  34  35
ENDBRANCH  33  34
ENDBRANCH  32  33
ENDBRANCH  31  32
ENDBRANCH   1  31
TORSDOF 22
ENDMDL
MODEL 3
REMARK VINA RESULT:      -9.9      1.515      7.068
REMARK SMILES COc1cc(/C=N/[NH+]=C2\NC(=O)[C@@H](CC(=O)OCCOCCOCCOC(=O)c3ccc(-c4c5nc(c(-c6c(F)c(F)c(F)c(F)c6F)c6ccc([nH]6)c(-c6c(F)c(F)c(F)c(F)c6F)c6nc(c(-c7c(F)c(F)c(F)c(F)c7F)c7ccc4[nH]7)C=C6)C=C5)cc3)S2)cc(I)c1OC
REMARK SMILES IDX 21 1 20 2 19 3 18 4 17 5 15 6 16 7 14 8 13 9 8 10 9 11 10 13
REMARK SMILES IDX 92 14 11 15 12 17 7 18 6 19 5 20 3 21 4 22 96 23 94 24 93 25
REMARK SMILES IDX 95 26 2 27 1 28 97 29 98 30 22 31 23 32 24 33 25 34 26 35
REMARK SMILES IDX 27 36 28 37 29 38 30 39 91 40 31 41 90 42 32 43 33 44 34 45
REMARK SMILES IDX 84 46 35 47 89 48 83 49 85 50 36 51 88 52 82 53 81 54 37 56
REMARK SMILES IDX 69 57 49 58 68 59 50 60 53 61 67 62 86 63 51 64 52 65 66 67
REMARK SMILES IDX 87 68 54 69 38 70 39 71 47 72 40 73 41 74 45 75 48 76 42 77
REMARK SMILES IDX 43 78 46 79 44 80 70 81 71 82 79 83 72 84 73 85 77 86 80 87
REMARK SMILES IDX 74 88 75 89 78 90 76 91 55 92 56 93 64 94 57 95 58 96 62 97
REMARK SMILES IDX 65 98 59 99 60 100 63 101 61 102
REMARK H PARENT 8 12 10 16 85 55 53 66
REMARK Flexibility Score: inf
ROOT
ATOM      1  C   UNL A   1      36.990  22.771  24.269  1.00  0.00     0.188 C 
ENDROOT
BRANCH   1   2
ATOM      2  O   UNL A   1      35.638  23.151  24.036  1.00  0.00    -0.376 OA
BRANCH   2   3
ATOM      3  C   UNL A   1      35.085  24.246  24.770  1.00  0.00     0.202 C 
BRANCH   3   4
ATOM      4  C   UNL A   1      33.637  24.673  24.488  1.00  0.00     0.261 C 
BRANCH   4   5
ATOM      5  O   UNL A   1      33.535  25.496  23.317  1.00  0.00    -0.463 OA
BRANCH   5   6
ATOM      6  C   UNL A   1      32.546  26.424  23.286  1.00  0.00     0.307 C 
ATOM      7  O   UNL A   1      31.864  26.699  22.308  1.00  0.00    -0.252 OA
BRANCH   6   8
ATOM      8  C   UNL A   1      32.257  26.981  24.658  1.00  0.00     0.150 C 
BRANCH   8   9
ATOM      9  C   UNL A   1      32.903  28.325  24.935  1.00  0.00     0.184 C 
ATOM     10  N   UNL A   1      32.544  31.563  26.855  1.00  0.00    -0.142 N 
ATOM     11  C   UNL A   1      32.674  30.355  26.432  1.00  0.00     0.337 C 
ATOM     12  H   UNL A   1      31.982  32.236  26.407  1.00  0.00     0.343 HD
ATOM     13  N   UNL A   1      33.545  29.440  26.922  1.00  0.00    -0.202 N 
ATOM     14  S   UNL A   1      31.746  29.709  25.121  1.00  0.00    -0.020 SA
ATOM     15  C   UNL A   1      33.729  28.301  26.203  1.00  0.00     0.322 C 
ATOM     16  H   UNL A   1      34.026  29.595  27.767  1.00  0.00     0.316 HD
ATOM     17  O   UNL A   1      34.537  27.430  26.499  1.00  0.00    -0.246 OA
BRANCH  10  18
ATOM     18  N   UNL A   1      33.276  31.826  28.005  1.00  0.00    -0.093 NA
ATOM     19  C   UNL A   1      33.721  33.037  28.095  1.00  0.00     0.166 C 
BRANCH  19  20
ATOM     20  C   UNL A   1      34.430  33.428  29.321  1.00  0.00     0.002 A 
ATOM     21  C   UNL A   1      36.430  33.299  30.654  1.00  0.00     0.162 A 
ATOM     22  C   UNL A   1      35.697  32.902  29.540  1.00  0.00     0.060 A 
ATOM     23  C   UNL A   1      35.895  34.210  31.597  1.00  0.00     0.174 A 
ATOM     24  C   UNL A   1      34.606  34.730  31.360  1.00  0.00     0.060 A 
ATOM     25  C   UNL A   1      33.872  34.327  30.224  1.00  0.00     0.028 A 
ATOM     26  I   UNL A   1      33.611  36.211  32.489  1.00  0.00    -0.040 I 
BRANCH  21  27
ATOM     27  O   UNL A   1      37.669  32.750  30.901  1.00  0.00    -0.493 OA
ATOM     28  C   UNL A   1      38.705  33.260  30.062  1.00  0.00     0.278 C 
ENDBRANCH  21  27
BRANCH  23  29
ATOM     29  O   UNL A   1      36.796  34.521  32.576  1.00  0.00    -0.492 OA
ATOM     30  C   UNL A   1      36.570  34.172  33.926  1.00  0.00     0.278 C 
ENDBRANCH  23  29
ENDBRANCH  19  20
ENDBRANCH  10  18
ENDBRANCH   8   9
ENDBRANCH   6   8
ENDBRANCH   5   6
ENDBRANCH   4   5
ENDBRANCH   3   4
ENDBRANCH   2   3
ENDBRANCH   1   2
BRANCH   1  31
ATOM     31  C   UNL A   1      37.288  21.690  25.320  1.00  0.00     0.188 C 
BRANCH  31  32
ATOM     32  O   UNL A   1      37.170  20.370  24.845  1.00  0.00    -0.376 OA
BRANCH  32  33
ATOM     33  C   UNL A   1      38.274  19.484  24.996  1.00  0.00     0.202 C 
BRANCH  33  34
ATOM     34  C   UNL A   1      39.608  19.896  25.665  1.00  0.00     0.261 C 
BRANCH  34  35
ATOM     35  O   UNL A   1      40.476  18.852  26.127  1.00  0.00    -0.460 OA
BRANCH  35  36
ATOM     36  C   UNL A   1      41.808  19.097  26.063  1.00  0.00     0.338 C 
ATOM     37  O   UNL A   1      42.666  18.371  25.603  1.00  0.00    -0.246 OA
BRANCH  36  38
ATOM     38  C   UNL A   1      42.024  20.522  26.415  1.00  0.00     0.060 A 
ATOM     39  C   UNL A   1      42.027  21.467  25.379  1.00  0.00     0.016 A 
ATOM     40  C   UNL A   1      42.219  20.924  27.738  1.00  0.00     0.016 A 
ATOM     41  C   UNL A   1      42.263  22.811  25.660  1.00  0.00     0.010 A 
ATOM     42  C   UNL A   1      42.477  22.273  28.015  1.00  0.00     0.010 A 
ATOM     43  C   UNL A   1      42.538  23.216  26.972  1.00  0.00    -0.014 A 
BRANCH  43  44
ATOM     44  C   UNL A   1      43.070  24.582  27.206  1.00  0.00     0.031 A 
ATOM     45  C   UNL A   1      42.148  25.630  27.769  1.00  0.00     0.074 A 
ATOM     46  C   UNL A   1      44.363  24.878  26.984  1.00  0.00     0.049 A 
ATOM     47  N   UNL A   1      42.396  26.874  28.093  1.00  0.00    -0.248 NA
ATOM     48  C   UNL A   1      40.754  25.217  27.991  1.00  0.00     0.031 C 
ATOM     49  C   UNL A   1      45.364  23.948  26.468  1.00  0.00     0.029 A 
ATOM     50  N   UNL A   1      45.053  26.050  27.170  1.00  0.00    -0.354 N 
ATOM     51  C   UNL A   1      41.191  27.391  28.552  1.00  0.00     0.074 A 
ATOM     52  C   UNL A   1      40.205  26.340  28.427  1.00  0.00     0.031 C 
ATOM     53  C   UNL A   1      46.543  24.589  26.371  1.00  0.00     0.029 A 
ATOM     54  C   UNL A   1      46.372  25.978  26.797  1.00  0.00     0.049 A 
ATOM     55  H   UNL A   1      44.641  26.866  27.535  1.00  0.00     0.167 HD
ATOM     56  C   UNL A   1      40.932  28.627  29.042  1.00  0.00     0.037 A 
ATOM     57  C   UNL A   1      47.328  26.928  26.787  1.00  0.00     0.037 A 
ATOM     58  C   UNL A   1      41.913  29.673  29.165  1.00  0.00     0.049 A 
ATOM     59  C   UNL A   1      47.005  28.311  27.294  1.00  0.00     0.074 A 
ATOM     60  C   UNL A   1      41.756  30.947  29.679  1.00  0.00     0.029 A 
ATOM     61  N   UNL A   1      43.235  29.570  28.752  1.00  0.00    -0.354 N 
ATOM     62  N   UNL A   1      45.875  28.781  27.768  1.00  0.00    -0.248 NA
ATOM     63  C   UNL A   1      48.099  29.294  27.280  1.00  0.00     0.031 C 
ATOM     64  C   UNL A   1      42.962  31.639  29.513  1.00  0.00     0.029 A 
ATOM     65  C   UNL A   1      43.894  30.770  28.970  1.00  0.00     0.049 A 
ATOM     66  H   UNL A   1      43.644  28.763  28.363  1.00  0.00     0.167 HD
ATOM     67  C   UNL A   1      46.131  30.096  28.139  1.00  0.00     0.074 A 
ATOM     68  C   UNL A   1      47.526  30.345  27.847  1.00  0.00     0.031 C 
ATOM     69  C   UNL A   1      45.286  31.011  28.678  1.00  0.00     0.037 A 
BRANCH  56  70
ATOM     70  C   UNL A   1      39.515  28.928  29.446  1.00  0.00     0.064 A 
ATOM     71  C   UNL A   1      38.562  29.398  28.529  1.00  0.00     0.173 A 
ATOM     72  C   UNL A   1      39.102  28.724  30.772  1.00  0.00     0.173 A 
ATOM     73  F   UNL A   1      38.907  29.625  27.252  1.00  0.00    -0.203 F 
ATOM     74  C   UNL A   1      37.261  29.687  28.932  1.00  0.00     0.198 A 
ATOM     75  C   UNL A   1      37.790  28.977  31.162  1.00  0.00     0.198 A 
ATOM     76  F   UNL A   1      39.970  28.272  31.689  1.00  0.00    -0.203 F 
ATOM     77  F   UNL A   1      36.385  30.193  28.052  1.00  0.00    -0.200 F 
ATOM     78  C   UNL A   1      36.874  29.469  30.246  1.00  0.00     0.200 A 
ATOM     79  F   UNL A   1      37.415  28.752  32.429  1.00  0.00    -0.200 F 
ATOM     80  F   UNL A   1      35.620  29.742  30.631  1.00  0.00    -0.200 F 
ENDBRANCH  56  70
BRANCH  57  81
ATOM     81  C   UNL A   1      48.687  26.603  26.277  1.00  0.00     0.064 A 
ATOM     82  C   UNL A   1      49.040  26.836  24.941  1.00  0.00     0.173 A 
ATOM     83  C   UNL A   1      49.658  26.041  27.120  1.00  0.00     0.173 A 
ATOM     84  F   UNL A   1      48.139  27.345  24.089  1.00  0.00    -0.203 F 
ATOM     85  C   UNL A   1      50.308  26.505  24.463  1.00  0.00     0.198 A 
ATOM     86  C   UNL A   1      50.935  25.741  26.650  1.00  0.00     0.198 A 
ATOM     87  F   UNL A   1      49.369  25.793  28.406  1.00  0.00    -0.203 F 
ATOM     88  F   UNL A   1      50.603  26.693  23.170  1.00  0.00    -0.200 F 
ATOM     89  C   UNL A   1      51.255  25.966  25.320  1.00  0.00     0.200 A 
ATOM     90  F   UNL A   1      51.851  25.231  27.483  1.00  0.00    -0.200 F 
ATOM     91  F   UNL A   1      52.476  25.655  24.862  1.00  0.00    -0.200 F 
ENDBRANCH  57  81
BRANCH  69  92
ATOM     92  C   UNL A   1      45.858  32.356  29.039  1.00  0.00     0.064 A 
ATOM     93  C   UNL A   1      46.504  32.588  30.263  1.00  0.00     0.173 A 
ATOM     94  C   UNL A   1      45.778  33.424  28.132  1.00  0.00     0.173 A 
ATOM     95  F   UNL A   1      46.603  31.606  31.172  1.00  0.00    -0.203 F 
ATOM     96  C   UNL A   1      47.006  33.848  30.582  1.00  0.00     0.198 A 
ATOM     97  C   UNL A   1      46.316  34.672  28.438  1.00  0.00     0.198 A 
ATOM     98  F   UNL A   1      45.184  33.258  26.941  1.00  0.00    -0.203 F 
ATOM     99  F   UNL A   1      47.559  34.062  31.785  1.00  0.00    -0.200 F 
ATOM    100  C   UNL A   1      46.917  34.886  29.668  1.00  0.00     0.200 A 
ATOM    101  F   UNL A   1      46.246  35.668  27.543  1.00  0.00    -0.200 F 
ATOM    102  F   UNL A   1      47.403  36.097  29.975  1.00  0.00    -0.200 F 
ENDBRANCH  69  92
ENDBRANCH  43  44
ENDBRANCH  36  38
ENDBRANCH  35  36
ENDBRANCH  34  35
ENDBRANCH  33  34
ENDBRANCH  32  33
ENDBRANCH  31  32
ENDBRANCH   1  31
TORSDOF 22
ENDMDL
