MODEL 1
REMARK VINA RESULT:     -12.1      0.000      0.000
REMARK SMILES COc1ccccc1[C@@H]1C[N@@H+](Cc2cn3cc(C)ccc3n2)C[C@H]1C(=O)OCCOCCOCCOC(=O)c1ccc(-c2c3nc(c(-c4c(F)c(F)c(F)c(F)c4F)c4ccc([nH]4)c(-c4c(F)c(F)c(F)c(F)c4F)c4nc(c(-c5c(F)c(F)c(F)c(F)c5F)c5ccc2[nH]5)C=C4)C=C3)cc1
REMARK SMILES IDX 31 1 30 2 29 3 28 4 27 5 25 6 26 7 24 8 9 9 10 10 11 11
REMARK SMILES IDX 23 12 8 14 3 15 4 16 5 17 7 18 6 19 2 20 1 21 12 22 13 23
REMARK SMILES IDX 14 24 22 25 15 26 21 27 16 28 20 29 17 30 19 31 18 32 32 33
REMARK SMILES IDX 33 34 34 35 35 36 36 37 37 38 38 39 39 40 40 41 101 42 41 43
REMARK SMILES IDX 100 44 42 45 43 46 44 47 94 48 45 49 99 50 93 51 95 52 46 53
REMARK SMILES IDX 98 54 92 55 91 56 47 58 79 59 59 60 78 61 60 62 63 63 77 64
REMARK SMILES IDX 96 65 61 66 62 67 76 69 97 70 64 71 48 72 49 73 57 74 50 75
REMARK SMILES IDX 51 76 55 77 58 78 52 79 53 80 56 81 54 82 80 83 81 84 89 85
REMARK SMILES IDX 82 86 83 87 87 88 90 89 84 90 85 91 88 92 86 93 65 94 66 95
REMARK SMILES IDX 74 96 67 97 68 98 72 99 75 100 69 101 70 102 73 103 71 104
REMARK H PARENT 11 13 95 57 63 68
REMARK Flexibility Score: inf
ROOT
ATOM      1  C   UNL A   1      39.906  21.276  25.884  1.00  0.00     0.188 C 
ENDROOT
BRANCH   1   2
ATOM      2  O   UNL A   1      38.743  22.067  25.963  1.00  0.00    -0.376 OA
BRANCH   2   3
ATOM      3  C   UNL A   1      37.565  21.546  25.352  1.00  0.00     0.202 C 
BRANCH   3   4
ATOM      4  C   UNL A   1      36.914  22.267  24.155  1.00  0.00     0.261 C 
BRANCH   4   5
ATOM      5  O   UNL A   1      35.466  22.204  24.124  1.00  0.00    -0.463 OA
BRANCH   5   6
ATOM      6  C   UNL A   1      34.859  23.263  23.549  1.00  0.00     0.315 C 
ATOM      7  O   UNL A   1      34.736  23.366  22.326  1.00  0.00    -0.252 OA
BRANCH   6   8
ATOM      8  C   UNL A   1      34.258  24.350  24.441  1.00  0.00     0.167 C 
ATOM      9  C   UNL A   1      32.861  25.010  24.410  1.00  0.00     0.098 C 
ATOM     10  C   UNL A   1      32.513  25.190  25.896  1.00  0.00     0.272 C 
ATOM     11  N   UNL A   1      33.157  24.095  26.607  1.00  0.00    -0.329 N 
ATOM     12  C   UNL A   1      34.380  23.785  25.865  1.00  0.00     0.278 C 
ATOM     13  H   UNL A   1      33.383  24.385  27.558  1.00  0.00     0.348 HD
BRANCH   9  14
ATOM     14  C   UNL A   1      32.526  26.346  23.719  1.00  0.00     0.004 A 
ATOM     15  C   UNL A   1      33.217  27.574  23.763  1.00  0.00     0.122 A 
ATOM     16  C   UNL A   1      32.715  28.703  23.076  1.00  0.00     0.047 A 
ATOM     17  C   UNL A   1      31.485  28.672  22.424  1.00  0.00     0.004 A 
ATOM     18  C   UNL A   1      31.255  26.373  23.083  1.00  0.00     0.008 A 
ATOM     19  C   UNL A   1      30.737  27.508  22.459  1.00  0.00     0.001 A 
BRANCH  15  20
ATOM     20  O   UNL A   1      34.173  27.917  24.683  1.00  0.00    -0.496 OA
ATOM     21  C   UNL A   1      33.769  28.704  25.787  1.00  0.00     0.278 C 
ENDBRANCH  15  20
ENDBRANCH   9  14
BRANCH  11  22
ATOM     22  C   UNL A   1      32.294  22.935  26.876  1.00  0.00     0.321 C 
BRANCH  22  23
ATOM     23  C   UNL A   1      32.500  21.740  25.992  1.00  0.00     0.114 A 
ATOM     24  C   UNL A   1      33.302  20.636  26.222  1.00  0.00     0.122 A 
ATOM     25  N   UNL A   1      31.894  21.637  24.755  1.00  0.00    -0.228 NA
ATOM     26  N   UNL A   1      33.181  19.841  25.113  1.00  0.00    -0.306 N 
ATOM     27  C   UNL A   1      32.324  20.502  24.241  1.00  0.00     0.137 A 
ATOM     28  C   UNL A   1      33.766  18.606  24.839  1.00  0.00     0.096 A 
ATOM     29  C   UNL A   1      32.069  19.870  22.991  1.00  0.00     0.048 A 
ATOM     30  C   UNL A   1      33.523  18.000  23.659  1.00  0.00    -0.034 A 
ATOM     31  C   UNL A   1      32.653  18.688  22.702  1.00  0.00     0.009 A 
ATOM     32  C   UNL A   1      34.025  16.632  23.315  1.00  0.00     0.046 C 
ENDBRANCH  22  23
ENDBRANCH  11  22
ENDBRANCH   6   8
ENDBRANCH   5   6
ENDBRANCH   4   5
ENDBRANCH   3   4
ENDBRANCH   2   3
ENDBRANCH   1   2
BRANCH   1  33
ATOM     33  C   UNL A   1      40.866  21.304  27.073  1.00  0.00     0.188 C 
BRANCH  33  34
ATOM     34  O   UNL A   1      41.956  20.424  27.229  1.00  0.00    -0.376 OA
BRANCH  34  35
ATOM     35  C   UNL A   1      42.345  19.340  26.411  1.00  0.00     0.202 C 
BRANCH  35  36
ATOM     36  C   UNL A   1      43.588  19.234  25.544  1.00  0.00     0.261 C 
BRANCH  36  37
ATOM     37  O   UNL A   1      43.766  20.351  24.730  1.00  0.00    -0.460 OA
BRANCH  37  38
ATOM     38  C   UNL A   1      44.913  20.994  25.008  1.00  0.00     0.338 C 
ATOM     39  O   UNL A   1      45.928  20.548  25.505  1.00  0.00    -0.246 OA
BRANCH  38  40
ATOM     40  C   UNL A   1      44.709  22.380  24.582  1.00  0.00     0.060 A 
ATOM     41  C   UNL A   1      45.846  23.178  24.634  1.00  0.00     0.016 A 
ATOM     42  C   UNL A   1      43.403  22.884  24.585  1.00  0.00     0.016 A 
ATOM     43  C   UNL A   1      45.687  24.420  25.160  1.00  0.00     0.010 A 
ATOM     44  C   UNL A   1      43.240  24.112  25.136  1.00  0.00     0.010 A 
ATOM     45  C   UNL A   1      44.397  24.760  25.557  1.00  0.00    -0.014 A 
BRANCH  45  46
ATOM     46  C   UNL A   1      44.274  25.758  26.576  1.00  0.00     0.031 A 
ATOM     47  C   UNL A   1      45.308  26.783  26.461  1.00  0.00     0.074 A 
ATOM     48  C   UNL A   1      43.244  25.715  27.435  1.00  0.00     0.049 A 
ATOM     49  N   UNL A   1      46.296  26.981  27.262  1.00  0.00    -0.248 NA
ATOM     50  C   UNL A   1      45.384  27.510  25.186  1.00  0.00     0.031 C 
ATOM     51  C   UNL A   1      42.071  24.833  27.435  1.00  0.00     0.029 A 
ATOM     52  N   UNL A   1      42.977  26.584  28.438  1.00  0.00    -0.354 N 
ATOM     53  C   UNL A   1      47.008  28.015  26.681  1.00  0.00     0.074 A 
ATOM     54  C   UNL A   1      46.557  28.124  25.319  1.00  0.00     0.031 C 
ATOM     55  C   UNL A   1      41.117  25.370  28.228  1.00  0.00     0.029 A 
ATOM     56  C   UNL A   1      41.656  26.560  28.859  1.00  0.00     0.049 A 
ATOM     57  H   UNL A   1      43.657  27.178  28.831  1.00  0.00     0.167 HD
ATOM     58  C   UNL A   1      47.682  28.910  27.447  1.00  0.00     0.037 A 
ATOM     59  C   UNL A   1      41.072  27.578  29.536  1.00  0.00     0.037 A 
ATOM     60  C   UNL A   1      47.885  28.423  28.785  1.00  0.00     0.049 A 
ATOM     61  C   UNL A   1      42.179  28.378  30.147  1.00  0.00     0.074 A 
ATOM     62  C   UNL A   1      48.531  27.321  29.314  1.00  0.00     0.029 A 
ATOM     63  N   UNL A   1      47.037  28.870  29.771  1.00  0.00    -0.354 N 
ATOM     64  N   UNL A   1      42.956  27.918  31.094  1.00  0.00    -0.248 NA
ATOM     65  C   UNL A   1      42.748  29.468  29.361  1.00  0.00     0.031 C 
ATOM     66  C   UNL A   1      47.712  26.889  30.398  1.00  0.00     0.029 A 
ATOM     67  C   UNL A   1      46.641  27.777  30.504  1.00  0.00     0.049 A 
ATOM     68  H   UNL A   1      46.763  29.803  29.924  1.00  0.00     0.167 HD
ATOM     69  C   UNL A   1      44.233  28.362  30.764  1.00  0.00     0.074 A 
ATOM     70  C   UNL A   1      44.031  29.371  29.728  1.00  0.00     0.031 C 
ATOM     71  C   UNL A   1      45.346  27.660  31.135  1.00  0.00     0.037 A 
BRANCH  58  72
ATOM     72  C   UNL A   1      47.801  30.352  27.068  1.00  0.00     0.064 A 
ATOM     73  C   UNL A   1      49.069  30.944  27.027  1.00  0.00     0.173 A 
ATOM     74  C   UNL A   1      46.698  31.235  26.997  1.00  0.00     0.173 A 
ATOM     75  F   UNL A   1      50.174  30.190  27.127  1.00  0.00    -0.203 F 
ATOM     76  C   UNL A   1      49.223  32.330  26.962  1.00  0.00     0.198 A 
ATOM     77  C   UNL A   1      46.854  32.608  26.862  1.00  0.00     0.198 A 
ATOM     78  F   UNL A   1      45.436  30.820  27.169  1.00  0.00    -0.203 F 
ATOM     79  F   UNL A   1      50.448  32.865  27.042  1.00  0.00    -0.200 F 
ATOM     80  C   UNL A   1      48.116  33.159  26.876  1.00  0.00     0.200 A 
ATOM     81  F   UNL A   1      45.768  33.393  26.801  1.00  0.00    -0.200 F 
ATOM     82  F   UNL A   1      48.263  34.490  26.863  1.00  0.00    -0.200 F 
ENDBRANCH  58  72
BRANCH  59  83
ATOM     83  C   UNL A   1      39.691  28.081  29.339  1.00  0.00     0.064 A 
ATOM     84  C   UNL A   1      38.785  28.156  30.407  1.00  0.00     0.173 A 
ATOM     85  C   UNL A   1      39.290  28.711  28.140  1.00  0.00     0.173 A 
ATOM     86  F   UNL A   1      39.109  27.633  31.599  1.00  0.00    -0.203 F 
ATOM     87  C   UNL A   1      37.558  28.816  30.283  1.00  0.00     0.198 A 
ATOM     88  C   UNL A   1      38.060  29.357  28.013  1.00  0.00     0.198 A 
ATOM     89  F   UNL A   1      40.116  28.793  27.089  1.00  0.00    -0.203 F 
ATOM     90  F   UNL A   1      36.739  28.909  31.341  1.00  0.00    -0.200 F 
ATOM     91  C   UNL A   1      37.197  29.417  29.088  1.00  0.00     0.200 A 
ATOM     92  F   UNL A   1      37.745  29.963  26.860  1.00  0.00    -0.200 F 
ATOM     93  F   UNL A   1      36.041  30.086  28.983  1.00  0.00    -0.200 F 
ENDBRANCH  59  83
BRANCH  71  94
ATOM     94  C   UNL A   1      45.159  26.505  32.080  1.00  0.00     0.064 A 
ATOM     95  C   UNL A   1      45.120  26.649  33.479  1.00  0.00     0.173 A 
ATOM     96  C   UNL A   1      44.846  25.245  31.557  1.00  0.00     0.173 A 
ATOM     97  F   UNL A   1      45.285  27.848  34.047  1.00  0.00    -0.203 F 
ATOM     98  C   UNL A   1      44.838  25.571  34.315  1.00  0.00     0.198 A 
ATOM     99  C   UNL A   1      44.527  24.176  32.393  1.00  0.00     0.198 A 
ATOM    100  F   UNL A   1      44.797  25.062  30.229  1.00  0.00    -0.203 F 
ATOM    101  F   UNL A   1      44.821  25.739  35.645  1.00  0.00    -0.200 F 
ATOM    102  C   UNL A   1      44.536  24.336  33.770  1.00  0.00     0.200 A 
ATOM    103  F   UNL A   1      44.179  22.996  31.861  1.00  0.00    -0.200 F 
ATOM    104  F   UNL A   1      44.222  23.308  34.570  1.00  0.00    -0.200 F 
ENDBRANCH  71  94
ENDBRANCH  45  46
ENDBRANCH  38  40
ENDBRANCH  37  38
ENDBRANCH  36  37
ENDBRANCH  35  36
ENDBRANCH  34  35
ENDBRANCH  33  34
ENDBRANCH   1  33
TORSDOF 21
ENDMDL
MODEL 2
REMARK VINA RESULT:     -12.1      4.693      9.465
REMARK SMILES COc1ccccc1[C@@H]1C[N@@H+](Cc2cn3cc(C)ccc3n2)C[C@H]1C(=O)OCCOCCOCCOC(=O)c1ccc(-c2c3nc(c(-c4c(F)c(F)c(F)c(F)c4F)c4ccc([nH]4)c(-c4c(F)c(F)c(F)c(F)c4F)c4nc(c(-c5c(F)c(F)c(F)c(F)c5F)c5ccc2[nH]5)C=C4)C=C3)cc1
REMARK SMILES IDX 31 1 30 2 29 3 28 4 27 5 25 6 26 7 24 8 9 9 10 10 11 11
REMARK SMILES IDX 23 12 8 14 3 15 4 16 5 17 7 18 6 19 2 20 1 21 12 22 13 23
REMARK SMILES IDX 14 24 22 25 15 26 21 27 16 28 20 29 17 30 19 31 18 32 32 33
REMARK SMILES IDX 33 34 34 35 35 36 36 37 37 38 38 39 39 40 40 41 101 42 41 43
REMARK SMILES IDX 100 44 42 45 43 46 44 47 94 48 45 49 99 50 93 51 95 52 46 53
REMARK SMILES IDX 98 54 92 55 91 56 47 58 79 59 59 60 78 61 60 62 63 63 77 64
REMARK SMILES IDX 96 65 61 66 62 67 76 69 97 70 64 71 48 72 49 73 57 74 50 75
REMARK SMILES IDX 51 76 55 77 58 78 52 79 53 80 56 81 54 82 80 83 81 84 89 85
REMARK SMILES IDX 82 86 83 87 87 88 90 89 84 90 85 91 88 92 86 93 65 94 66 95
REMARK SMILES IDX 74 96 67 97 68 98 72 99 75 100 69 101 70 102 73 103 71 104
REMARK H PARENT 11 13 95 57 63 68
REMARK Flexibility Score: inf
ROOT
ATOM      1  C   UNL A   1      34.892  30.082  27.840  1.00  0.00     0.188 C 
ENDROOT
BRANCH   1   2
ATOM      2  O   UNL A   1      34.621  29.305  26.698  1.00  0.00    -0.376 OA
BRANCH   2   3
ATOM      3  C   UNL A   1      33.656  28.265  26.838  1.00  0.00     0.202 C 
BRANCH   3   4
ATOM      4  C   UNL A   1      33.623  27.082  25.850  1.00  0.00     0.261 C 
BRANCH   4   5
ATOM      5  O   UNL A   1      32.658  26.049  26.173  1.00  0.00    -0.463 OA
BRANCH   5   6
ATOM      6  C   UNL A   1      31.380  26.470  26.269  1.00  0.00     0.315 C 
ATOM      7  O   UNL A   1      30.858  26.741  27.353  1.00  0.00    -0.252 OA
BRANCH   6   8
ATOM      8  C   UNL A   1      30.564  26.668  24.991  1.00  0.00     0.167 C 
ATOM      9  C   UNL A   1      30.768  27.650  23.817  1.00  0.00     0.098 C 
ATOM     10  C   UNL A   1      30.381  26.823  22.581  1.00  0.00     0.272 C 
ATOM     11  N   UNL A   1      30.726  25.442  22.885  1.00  0.00    -0.329 N 
ATOM     12  C   UNL A   1      30.551  25.281  24.329  1.00  0.00     0.278 C 
ATOM     13  H   UNL A   1      30.104  24.810  22.380  1.00  0.00     0.348 HD
BRANCH   9  14
ATOM     14  C   UNL A   1      30.062  29.013  23.667  1.00  0.00     0.004 A 
ATOM     15  C   UNL A   1      30.362  30.247  24.278  1.00  0.00     0.122 A 
ATOM     16  C   UNL A   1      29.558  31.383  24.029  1.00  0.00     0.047 A 
ATOM     17  C   UNL A   1      28.399  31.301  23.261  1.00  0.00     0.004 A 
ATOM     18  C   UNL A   1      28.847  28.964  22.931  1.00  0.00     0.008 A 
ATOM     19  C   UNL A   1      28.025  30.075  22.739  1.00  0.00     0.001 A 
BRANCH  15  20
ATOM     20  O   UNL A   1      31.164  30.418  25.375  1.00  0.00    -0.496 OA
ATOM     21  C   UNL A   1      31.074  31.646  26.071  1.00  0.00     0.278 C 
ENDBRANCH  15  20
ENDBRANCH   9  14
BRANCH  11  22
ATOM     22  C   UNL A   1      32.032  25.000  22.374  1.00  0.00     0.321 C 
BRANCH  22  23
ATOM     23  C   UNL A   1      32.552  23.704  22.924  1.00  0.00     0.114 A 
ATOM     24  C   UNL A   1      31.950  22.459  22.886  1.00  0.00     0.122 A 
ATOM     25  N   UNL A   1      33.752  23.632  23.605  1.00  0.00    -0.228 NA
ATOM     26  N   UNL A   1      32.797  21.608  23.548  1.00  0.00    -0.306 N 
ATOM     27  C   UNL A   1      33.873  22.374  23.980  1.00  0.00     0.137 A 
ATOM     28  C   UNL A   1      32.674  20.240  23.781  1.00  0.00     0.096 A 
ATOM     29  C   UNL A   1      34.880  21.700  24.726  1.00  0.00     0.048 A 
ATOM     30  C   UNL A   1      33.629  19.595  24.483  1.00  0.00    -0.034 A 
ATOM     31  C   UNL A   1      34.759  20.381  24.985  1.00  0.00     0.009 A 
ATOM     32  C   UNL A   1      33.634  18.113  24.700  1.00  0.00     0.046 C 
ENDBRANCH  22  23
ENDBRANCH  11  22
ENDBRANCH   6   8
ENDBRANCH   5   6
ENDBRANCH   4   5
ENDBRANCH   3   4
ENDBRANCH   2   3
ENDBRANCH   1   2
BRANCH   1  33
ATOM     33  C   UNL A   1      34.835  31.602  27.696  1.00  0.00     0.188 C 
BRANCH  33  34
ATOM     34  O   UNL A   1      33.890  32.423  28.345  1.00  0.00    -0.376 OA
BRANCH  34  35
ATOM     35  C   UNL A   1      33.623  33.795  28.147  1.00  0.00     0.202 C 
BRANCH  35  36
ATOM     36  C   UNL A   1      33.906  34.940  29.104  1.00  0.00     0.261 C 
BRANCH  36  37
ATOM     37  O   UNL A   1      34.625  34.531  30.225  1.00  0.00    -0.460 OA
BRANCH  37  38
ATOM     38  C   UNL A   1      33.908  34.663  31.355  1.00  0.00     0.338 C 
ATOM     39  O   UNL A   1      32.781  35.097  31.488  1.00  0.00    -0.246 OA
BRANCH  38  40
ATOM     40  C   UNL A   1      34.764  34.167  32.433  1.00  0.00     0.060 A 
ATOM     41  C   UNL A   1      35.776  35.037  32.821  1.00  0.00     0.016 A 
ATOM     42  C   UNL A   1      34.791  32.788  32.670  1.00  0.00     0.016 A 
ATOM     43  C   UNL A   1      37.003  34.489  33.013  1.00  0.00     0.010 A 
ATOM     44  C   UNL A   1      36.019  32.235  32.833  1.00  0.00     0.010 A 
ATOM     45  C   UNL A   1      37.098  33.113  32.828  1.00  0.00    -0.014 A 
BRANCH  45  46
ATOM     46  C   UNL A   1      38.383  32.593  32.471  1.00  0.00     0.031 A 
ATOM     47  C   UNL A   1      39.279  32.518  33.622  1.00  0.00     0.074 A 
ATOM     48  C   UNL A   1      38.611  32.170  31.217  1.00  0.00     0.049 A 
ATOM     49  N   UNL A   1      40.324  33.238  33.840  1.00  0.00    -0.248 NA
ATOM     50  C   UNL A   1      38.820  31.722  34.770  1.00  0.00     0.031 C 
ATOM     51  C   UNL A   1      37.668  32.022  30.103  1.00  0.00     0.029 A 
ATOM     52  N   UNL A   1      39.757  31.642  30.727  1.00  0.00    -0.354 N 
ATOM     53  C   UNL A   1      40.775  32.824  35.081  1.00  0.00     0.074 A 
ATOM     54  C   UNL A   1      39.698  32.095  35.698  1.00  0.00     0.031 C 
ATOM     55  C   UNL A   1      38.221  31.222  29.163  1.00  0.00     0.029 A 
ATOM     56  C   UNL A   1      39.577  30.900  29.569  1.00  0.00     0.049 A 
ATOM     57  H   UNL A   1      40.635  31.772  31.152  1.00  0.00     0.167 HD
ATOM     58  C   UNL A   1      42.099  32.835  35.376  1.00  0.00     0.037 A 
ATOM     59  C   UNL A   1      40.464  29.974  29.133  1.00  0.00     0.037 A 
ATOM     60  C   UNL A   1      42.844  33.662  34.466  1.00  0.00     0.049 A 
ATOM     61  C   UNL A   1      41.774  30.296  29.781  1.00  0.00     0.074 A 
ATOM     62  C   UNL A   1      42.797  35.004  34.135  1.00  0.00     0.029 A 
ATOM     63  N   UNL A   1      43.520  33.045  33.438  1.00  0.00    -0.354 N 
ATOM     64  N   UNL A   1      42.457  31.380  29.514  1.00  0.00    -0.248 NA
ATOM     65  C   UNL A   1      42.060  29.695  31.080  1.00  0.00     0.031 C 
ATOM     66  C   UNL A   1      43.030  35.053  32.730  1.00  0.00     0.029 A 
ATOM     67  C   UNL A   1      43.255  33.749  32.288  1.00  0.00     0.049 A 
ATOM     68  H   UNL A   1      44.089  32.246  33.513  1.00  0.00     0.167 HD
ATOM     69  C   UNL A   1      42.938  31.819  30.743  1.00  0.00     0.074 A 
ATOM     70  C   UNL A   1      42.721  30.704  31.660  1.00  0.00     0.031 C 
ATOM     71  C   UNL A   1      43.181  33.144  30.978  1.00  0.00     0.037 A 
BRANCH  58  72
ATOM     72  C   UNL A   1      42.728  31.795  36.248  1.00  0.00     0.064 A 
ATOM     73  C   UNL A   1      43.490  32.199  37.351  1.00  0.00     0.173 A 
ATOM     74  C   UNL A   1      42.823  30.429  35.892  1.00  0.00     0.173 A 
ATOM     75  F   UNL A   1      43.494  33.483  37.740  1.00  0.00    -0.203 F 
ATOM     76  C   UNL A   1      44.325  31.307  38.025  1.00  0.00     0.198 A 
ATOM     77  C   UNL A   1      43.601  29.528  36.608  1.00  0.00     0.198 A 
ATOM     78  F   UNL A   1      42.264  29.939  34.778  1.00  0.00    -0.203 F 
ATOM     79  F   UNL A   1      45.126  31.756  38.999  1.00  0.00    -0.200 F 
ATOM     80  C   UNL A   1      44.377  29.973  37.655  1.00  0.00     0.200 A 
ATOM     81  F   UNL A   1      43.650  28.246  36.219  1.00  0.00    -0.200 F 
ATOM     82  F   UNL A   1      45.213  29.128  38.270  1.00  0.00    -0.200 F 
ENDBRANCH  58  72
BRANCH  59  83
ATOM     83  C   UNL A   1      40.132  28.659  28.534  1.00  0.00     0.064 A 
ATOM     84  C   UNL A   1      40.609  28.297  27.265  1.00  0.00     0.173 A 
ATOM     85  C   UNL A   1      39.521  27.630  29.284  1.00  0.00     0.173 A 
ATOM     86  F   UNL A   1      41.253  29.198  26.509  1.00  0.00    -0.203 F 
ATOM     87  C   UNL A   1      40.480  26.992  26.778  1.00  0.00     0.198 A 
ATOM     88  C   UNL A   1      39.379  26.333  28.791  1.00  0.00     0.198 A 
ATOM     89  F   UNL A   1      39.122  27.833  30.547  1.00  0.00    -0.203 F 
ATOM     90  F   UNL A   1      40.991  26.671  25.580  1.00  0.00    -0.200 F 
ATOM     91  C   UNL A   1      39.867  26.011  27.541  1.00  0.00     0.200 A 
ATOM     92  F   UNL A   1      38.816  25.389  29.559  1.00  0.00    -0.200 F 
ATOM     93  F   UNL A   1      39.782  24.751  27.092  1.00  0.00    -0.200 F 
ENDBRANCH  59  83
BRANCH  71  94
ATOM     94  C   UNL A   1      43.106  34.084  29.805  1.00  0.00     0.064 A 
ATOM     95  C   UNL A   1      44.183  34.317  28.931  1.00  0.00     0.173 A 
ATOM     96  C   UNL A   1      41.869  34.638  29.458  1.00  0.00     0.173 A 
ATOM     97  F   UNL A   1      45.364  33.722  29.128  1.00  0.00    -0.203 F 
ATOM     98  C   UNL A   1      44.042  35.111  27.796  1.00  0.00     0.198 A 
ATOM     99  C   UNL A   1      41.719  35.402  28.301  1.00  0.00     0.198 A 
ATOM    100  F   UNL A   1      40.787  34.393  30.213  1.00  0.00    -0.203 F 
ATOM    101  F   UNL A   1      45.092  35.324  26.990  1.00  0.00    -0.200 F 
ATOM    102  C   UNL A   1      42.807  35.649  27.479  1.00  0.00     0.200 A 
ATOM    103  F   UNL A   1      40.510  35.874  27.967  1.00  0.00    -0.200 F 
ATOM    104  F   UNL A   1      42.658  36.379  26.365  1.00  0.00    -0.200 F 
ENDBRANCH  71  94
ENDBRANCH  45  46
ENDBRANCH  38  40
ENDBRANCH  37  38
ENDBRANCH  36  37
ENDBRANCH  35  36
ENDBRANCH  34  35
ENDBRANCH  33  34
ENDBRANCH   1  33
TORSDOF 21
ENDMDL
MODEL 3
REMARK VINA RESULT:     -12.0      3.440      8.630
REMARK SMILES COc1ccccc1[C@@H]1C[N@@H+](Cc2cn3cc(C)ccc3n2)C[C@H]1C(=O)OCCOCCOCCOC(=O)c1ccc(-c2c3nc(c(-c4c(F)c(F)c(F)c(F)c4F)c4ccc([nH]4)c(-c4c(F)c(F)c(F)c(F)c4F)c4nc(c(-c5c(F)c(F)c(F)c(F)c5F)c5ccc2[nH]5)C=C4)C=C3)cc1
REMARK SMILES IDX 31 1 30 2 29 3 28 4 27 5 25 6 26 7 24 8 9 9 10 10 11 11
REMARK SMILES IDX 23 12 8 14 3 15 4 16 5 17 7 18 6 19 2 20 1 21 12 22 13 23
REMARK SMILES IDX 14 24 22 25 15 26 21 27 16 28 20 29 17 30 19 31 18 32 32 33
REMARK SMILES IDX 33 34 34 35 35 36 36 37 37 38 38 39 39 40 40 41 101 42 41 43
REMARK SMILES IDX 100 44 42 45 43 46 44 47 94 48 45 49 99 50 93 51 95 52 46 53
REMARK SMILES IDX 98 54 92 55 91 56 47 58 79 59 59 60 78 61 60 62 63 63 77 64
REMARK SMILES IDX 96 65 61 66 62 67 76 69 97 70 64 71 48 72 49 73 57 74 50 75
REMARK SMILES IDX 51 76 55 77 58 78 52 79 53 80 56 81 54 82 80 83 81 84 89 85
REMARK SMILES IDX 82 86 83 87 87 88 90 89 84 90 85 91 88 92 86 93 65 94 66 95
REMARK SMILES IDX 74 96 67 97 68 98 72 99 75 100 69 101 70 102 73 103 71 104
REMARK H PARENT 11 13 95 57 63 68
REMARK Flexibility Score: inf
ROOT
ATOM      1  C   UNL A   1      33.920  33.066  28.167  1.00  0.00     0.188 C 
ENDROOT
BRANCH   1   2
ATOM      2  O   UNL A   1      35.039  32.237  27.958  1.00  0.00    -0.376 OA
BRANCH   2   3
ATOM      3  C   UNL A   1      34.781  30.882  27.595  1.00  0.00     0.202 C 
BRANCH   3   4
ATOM      4  C   UNL A   1      33.368  30.438  27.166  1.00  0.00     0.261 C 
BRANCH   4   5
ATOM      5  O   UNL A   1      33.302  29.801  25.865  1.00  0.00    -0.463 OA
BRANCH   5   6
ATOM      6  C   UNL A   1      32.969  28.494  25.885  1.00  0.00     0.315 C 
ATOM      7  O   UNL A   1      33.674  27.644  26.435  1.00  0.00    -0.252 OA
BRANCH   6   8
ATOM      8  C   UNL A   1      31.649  28.053  25.250  1.00  0.00     0.167 C 
ATOM      9  C   UNL A   1      31.040  28.391  23.872  1.00  0.00     0.098 C 
ATOM     10  C   UNL A   1      30.377  27.075  23.436  1.00  0.00     0.272 C 
ATOM     11  N   UNL A   1      31.173  26.002  24.013  1.00  0.00    -0.329 N 
ATOM     12  C   UNL A   1      31.709  26.518  25.274  1.00  0.00     0.278 C 
ATOM     13  H   UNL A   1      30.583  25.187  24.186  1.00  0.00     0.348 HD
BRANCH   9  14
ATOM     14  C   UNL A   1      30.009  29.507  23.606  1.00  0.00     0.004 A 
ATOM     15  C   UNL A   1      29.913  30.791  24.179  1.00  0.00     0.122 A 
ATOM     16  C   UNL A   1      28.858  31.659  23.818  1.00  0.00     0.047 A 
ATOM     17  C   UNL A   1      27.833  31.246  22.970  1.00  0.00     0.004 A 
ATOM     18  C   UNL A   1      28.919  29.111  22.784  1.00  0.00     0.008 A 
ATOM     19  C   UNL A   1      27.847  29.952  22.479  1.00  0.00     0.001 A 
BRANCH  15  20
ATOM     20  O   UNL A   1      30.544  31.200  25.324  1.00  0.00    -0.496 OA
ATOM     21  C   UNL A   1      30.636  32.591  25.563  1.00  0.00     0.278 C 
ENDBRANCH  15  20
ENDBRANCH   9  14
BRANCH  11  22
ATOM     22  C   UNL A   1      32.179  25.420  23.113  1.00  0.00     0.321 C 
BRANCH  22  23
ATOM     23  C   UNL A   1      32.658  24.041  23.462  1.00  0.00     0.114 A 
ATOM     24  C   UNL A   1      31.952  22.853  23.405  1.00  0.00     0.122 A 
ATOM     25  N   UNL A   1      33.932  23.814  23.945  1.00  0.00    -0.228 NA
ATOM     26  N   UNL A   1      32.808  21.881  23.854  1.00  0.00    -0.306 N 
ATOM     27  C   UNL A   1      33.996  22.520  24.185  1.00  0.00     0.137 A 
ATOM     28  C   UNL A   1      32.602  20.509  23.981  1.00  0.00     0.096 A 
ATOM     29  C   UNL A   1      35.038  21.703  24.709  1.00  0.00     0.048 A 
ATOM     30  C   UNL A   1      33.588  19.729  24.471  1.00  0.00    -0.034 A 
ATOM     31  C   UNL A   1      34.841  20.377  24.865  1.00  0.00     0.009 A 
ATOM     32  C   UNL A   1      33.496  18.237  24.553  1.00  0.00     0.046 C 
ENDBRANCH  22  23
ENDBRANCH  11  22
ENDBRANCH   6   8
ENDBRANCH   5   6
ENDBRANCH   4   5
ENDBRANCH   3   4
ENDBRANCH   2   3
ENDBRANCH   1   2
BRANCH   1  33
ATOM     33  C   UNL A   1      34.081  34.251  29.118  1.00  0.00     0.188 C 
BRANCH  33  34
ATOM     34  O   UNL A   1      33.550  34.296  30.422  1.00  0.00    -0.376 OA
BRANCH  34  35
ATOM     35  C   UNL A   1      34.233  34.375  31.657  1.00  0.00     0.202 C 
BRANCH  35  36
ATOM     36  C   UNL A   1      34.685  33.224  32.538  1.00  0.00     0.261 C 
BRANCH  36  37
ATOM     37  O   UNL A   1      34.890  32.049  31.817  1.00  0.00    -0.460 OA
BRANCH  37  38
ATOM     38  C   UNL A   1      36.069  31.478  32.116  1.00  0.00     0.338 C 
ATOM     39  O   UNL A   1      36.584  31.334  33.207  1.00  0.00    -0.246 OA
BRANCH  38  40
ATOM     40  C   UNL A   1      36.639  31.041  30.840  1.00  0.00     0.060 A 
ATOM     41  C   UNL A   1      36.569  29.673  30.609  1.00  0.00     0.016 A 
ATOM     42  C   UNL A   1      37.545  31.893  30.198  1.00  0.00     0.016 A 
ATOM     43  C   UNL A   1      37.688  29.086  30.110  1.00  0.00     0.010 A 
ATOM     44  C   UNL A   1      38.675  31.313  29.725  1.00  0.00     0.010 A 
ATOM     45  C   UNL A   1      38.765  29.931  29.859  1.00  0.00    -0.014 A 
BRANCH  45  46
ATOM     46  C   UNL A   1      40.069  29.342  29.880  1.00  0.00     0.031 A 
ATOM     47  C   UNL A   1      40.608  29.261  31.235  1.00  0.00     0.074 A 
ATOM     48  C   UNL A   1      40.611  28.872  28.745  1.00  0.00     0.049 A 
ATOM     49  N   UNL A   1      41.589  29.938  31.722  1.00  0.00    -0.248 NA
ATOM     50  C   UNL A   1      39.810  28.522  32.224  1.00  0.00     0.031 C 
ATOM     51  C   UNL A   1      40.006  28.734  27.416  1.00  0.00     0.029 A 
ATOM     52  N   UNL A   1      41.818  28.277  28.600  1.00  0.00    -0.354 N 
ATOM     53  C   UNL A   1      41.658  29.542  33.045  1.00  0.00     0.074 A 
ATOM     54  C   UNL A   1      40.416  28.882  33.353  1.00  0.00     0.031 C 
ATOM     55  C   UNL A   1      40.754  27.881  26.679  1.00  0.00     0.029 A 
ATOM     56  C   UNL A   1      41.926  27.510  27.449  1.00  0.00     0.049 A 
ATOM     57  H   UNL A   1      42.551  28.379  29.249  1.00  0.00     0.167 HD
ATOM     58  C   UNL A   1      42.848  29.501  33.696  1.00  0.00     0.037 A 
ATOM     59  C   UNL A   1      42.849  26.531  27.292  1.00  0.00     0.037 A 
ATOM     60  C   UNL A   1      43.858  30.265  33.014  1.00  0.00     0.049 A 
ATOM     61  C   UNL A   1      43.945  26.812  28.271  1.00  0.00     0.074 A 
ATOM     62  C   UNL A   1      43.974  31.597  32.661  1.00  0.00     0.029 A 
ATOM     63  N   UNL A   1      44.757  29.587  32.224  1.00  0.00    -0.354 N 
ATOM     64  N   UNL A   1      44.731  27.855  28.186  1.00  0.00    -0.248 NA
ATOM     65  C   UNL A   1      43.829  26.238  29.609  1.00  0.00     0.031 C 
ATOM     66  C   UNL A   1      44.587  31.593  31.374  1.00  0.00     0.029 A 
ATOM     67  C   UNL A   1      44.857  30.267  31.034  1.00  0.00     0.049 A 
ATOM     68  H   UNL A   1      45.241  28.765  32.466  1.00  0.00     0.167 HD
ATOM     69  C   UNL A   1      44.876  28.308  29.493  1.00  0.00     0.074 A 
ATOM     70  C   UNL A   1      44.357  27.232  30.332  1.00  0.00     0.031 C 
ATOM     71  C   UNL A   1      45.115  29.627  29.764  1.00  0.00     0.037 A 
BRANCH  58  72
ATOM     72  C   UNL A   1      43.157  28.460  34.725  1.00  0.00     0.064 A 
ATOM     73  C   UNL A   1      43.601  28.862  35.990  1.00  0.00     0.173 A 
ATOM     74  C   UNL A   1      43.280  27.082  34.430  1.00  0.00     0.173 A 
ATOM     75  F   UNL A   1      43.560  30.156  36.345  1.00  0.00    -0.203 F 
ATOM     76  C   UNL A   1      44.170  27.954  36.884  1.00  0.00     0.198 A 
ATOM     77  C   UNL A   1      43.782  26.169  35.349  1.00  0.00     0.198 A 
ATOM     78  F   UNL A   1      43.029  26.585  33.212  1.00  0.00    -0.203 F 
ATOM     79  F   UNL A   1      44.689  28.396  38.036  1.00  0.00    -0.200 F 
ATOM     80  C   UNL A   1      44.256  26.609  36.564  1.00  0.00     0.200 A 
ATOM     81  F   UNL A   1      43.874  24.875  35.008  1.00  0.00    -0.200 F 
ATOM     82  F   UNL A   1      44.845  25.746  37.401  1.00  0.00    -0.200 F 
ENDBRANCH  58  72
BRANCH  59  83
ATOM     83  C   UNL A   1      42.626  25.215  26.646  1.00  0.00     0.064 A 
ATOM     84  C   UNL A   1      43.385  24.812  25.537  1.00  0.00     0.173 A 
ATOM     85  C   UNL A   1      41.814  24.222  27.235  1.00  0.00     0.173 A 
ATOM     86  F   UNL A   1      44.227  25.676  24.950  1.00  0.00    -0.203 F 
ATOM     87  C   UNL A   1      43.332  23.501  25.049  1.00  0.00     0.198 A 
ATOM     88  C   UNL A   1      41.750  22.920  26.739  1.00  0.00     0.198 A 
ATOM     89  F   UNL A   1      41.126  24.464  28.360  1.00  0.00    -0.203 F 
ATOM     90  F   UNL A   1      44.109  23.140  24.017  1.00  0.00    -0.200 F 
ATOM     91  C   UNL A   1      42.517  22.556  25.651  1.00  0.00     0.200 A 
ATOM     92  F   UNL A   1      40.983  22.011  27.357  1.00  0.00    -0.200 F 
ATOM     93  F   UNL A   1      42.499  21.291  25.210  1.00  0.00    -0.200 F 
ENDBRANCH  59  83
BRANCH  71  94
ATOM     94  C   UNL A   1      45.416  30.534  28.601  1.00  0.00     0.064 A 
ATOM     95  C   UNL A   1      44.420  31.190  27.856  1.00  0.00     0.173 A 
ATOM     96  C   UNL A   1      46.746  30.879  28.336  1.00  0.00     0.173 A 
ATOM     97  F   UNL A   1      43.125  31.007  28.134  1.00  0.00    -0.203 F 
ATOM     98  C   UNL A   1      44.742  32.104  26.855  1.00  0.00     0.198 A 
ATOM     99  C   UNL A   1      47.066  31.822  27.360  1.00  0.00     0.198 A 
ATOM    100  F   UNL A   1      47.738  30.340  29.062  1.00  0.00    -0.203 F 
ATOM    101  F   UNL A   1      43.768  32.703  26.154  1.00  0.00    -0.200 F 
ATOM    102  C   UNL A   1      46.066  32.424  26.612  1.00  0.00     0.200 A 
ATOM    103  F   UNL A   1      48.345  32.171  27.166  1.00  0.00    -0.200 F 
ATOM    104  F   UNL A   1      46.377  33.334  25.680  1.00  0.00    -0.200 F 
ENDBRANCH  71  94
ENDBRANCH  45  46
ENDBRANCH  38  40
ENDBRANCH  37  38
ENDBRANCH  36  37
ENDBRANCH  35  36
ENDBRANCH  34  35
ENDBRANCH  33  34
ENDBRANCH   1  33
TORSDOF 21
ENDMDL
