MODEL 1
REMARK VINA RESULT:     -10.1      0.000      0.000
REMARK SMILES O=C(CN(CC(F)(F)F)C(=O)[C@H]1C[C@H]2CC[C@@H]1[NH2+]2)OCCOCCOCCOC(=O)c1ccc(-c2c3nc(c(-c4c(F)c(F)c(F)c(F)c4F)c4ccc([nH]4)c(-c4c(F)c(F)c(F)c(F)c4F)c4nc(c(-c5c(F)c(F)c(F)c(F)c5F)c5ccc2[nH]5)C=C4)C=C3)cc1
REMARK SMILES IDX 23 1 22 2 21 3 20 4 19 5 2 6 1 7 3 8 4 9 5 10 6 11 7 12 8 13
REMARK SMILES IDX 9 14 10 15 11 16 12 17 13 18 17 19 14 20 16 21 18 22 15 23
REMARK SMILES IDX 24 26 25 27 26 28 27 29 28 30 29 31 30 32 31 33 32 34 93 35
REMARK SMILES IDX 33 36 92 37 34 38 35 39 36 40 86 41 37 42 91 43 85 44 87 45
REMARK SMILES IDX 38 46 90 47 84 48 83 49 39 51 71 52 51 53 70 54 52 55 55 56
REMARK SMILES IDX 69 57 88 58 53 59 54 60 68 62 89 63 56 64 40 65 41 66 49 67
REMARK SMILES IDX 42 68 43 69 47 70 50 71 44 72 45 73 48 74 46 75 72 76 73 77
REMARK SMILES IDX 81 78 74 79 75 80 79 81 82 82 76 83 77 84 80 85 78 86 57 87
REMARK SMILES IDX 58 88 66 89 59 90 60 91 64 92 67 93 61 94 62 95 65 96 63 97
REMARK H PARENT 18 24 18 25 87 50 55 61
REMARK Flexibility Score: inf
ROOT
ATOM      1  C   UNL A   1      31.738  29.048  25.102  1.00  0.00     0.188 C 
ENDROOT
BRANCH   1   2
ATOM      2  O   UNL A   1      32.227  28.953  23.770  1.00  0.00    -0.376 OA
BRANCH   2   3
ATOM      3  C   UNL A   1      31.297  28.779  22.713  1.00  0.00     0.202 C 
BRANCH   3   4
ATOM      4  C   UNL A   1      30.723  27.368  22.597  1.00  0.00     0.261 C 
BRANCH   4   5
ATOM      5  O   UNL A   1      31.502  26.512  21.750  1.00  0.00    -0.462 OA
BRANCH   5   6
ATOM      6  C   UNL A   1      32.579  25.768  22.084  1.00  0.00     0.325 C 
ATOM      7  O   UNL A   1      33.674  26.094  21.615  1.00  0.00    -0.250 OA
BRANCH   6   8
ATOM      8  C   UNL A   1      32.450  24.418  22.815  1.00  0.00     0.242 C 
BRANCH   8   9
ATOM      9  N   UNL A   1      32.873  24.280  24.211  1.00  0.00    -0.322 N 
BRANCH   9  10
ATOM     10  C   UNL A   1      32.579  25.412  25.117  1.00  0.00     0.235 C 
BRANCH  10  11
ATOM     11  C   UNL A   1      31.301  25.305  25.958  1.00  0.00     0.406 C 
ATOM     12  F   UNL A   1      30.223  24.994  25.209  1.00  0.00    -0.169 F 
ATOM     13  F   UNL A   1      31.432  24.349  26.905  1.00  0.00    -0.169 F 
ATOM     14  F   UNL A   1      31.031  26.472  26.586  1.00  0.00    -0.169 F 
ENDBRANCH  10  11
ENDBRANCH   9  10
BRANCH   9  15
ATOM     15  C   UNL A   1      33.368  23.033  24.517  1.00  0.00     0.232 C 
ATOM     16  O   UNL A   1      32.935  22.062  23.877  1.00  0.00    -0.274 OA
BRANCH  15  17
ATOM     17  C   UNL A   1      34.439  22.733  25.554  1.00  0.00     0.142 C 
ATOM     18  C   UNL A   1      35.128  21.393  25.826  1.00  0.00     0.084 C 
ATOM     19  C   UNL A   1      35.653  23.632  25.225  1.00  0.00     0.195 C 
ATOM     20  C   UNL A   1      36.622  21.736  25.745  1.00  0.00     0.183 C 
ATOM     21  C   UNL A   1      36.318  23.211  23.901  1.00  0.00     0.072 C 
ATOM     22  N   UNL A   1      36.619  23.125  26.218  1.00  0.00    -0.341 N 
ATOM     23  C   UNL A   1      37.028  21.909  24.281  1.00  0.00     0.071 C 
ATOM     24  H   UNL A   1      37.534  23.569  26.139  1.00  0.00     0.346 HD
ATOM     25  H   UNL A   1      36.395  23.279  27.201  1.00  0.00     0.346 HD
ENDBRANCH  15  17
ENDBRANCH   9  15
ENDBRANCH   8   9
ENDBRANCH   6   8
ENDBRANCH   5   6
ENDBRANCH   4   5
ENDBRANCH   3   4
ENDBRANCH   2   3
ENDBRANCH   1   2
BRANCH   1  26
ATOM     26  C   UNL A   1      32.654  29.453  26.261  1.00  0.00     0.188 C 
BRANCH  26  27
ATOM     27  O   UNL A   1      32.353  30.602  27.033  1.00  0.00    -0.376 OA
BRANCH  27  28
ATOM     28  C   UNL A   1      31.485  31.594  26.508  1.00  0.00     0.202 C 
BRANCH  28  29
ATOM     29  C   UNL A   1      31.758  33.044  26.914  1.00  0.00     0.261 C 
BRANCH  29  30
ATOM     30  O   UNL A   1      33.112  33.262  27.355  1.00  0.00    -0.460 OA
BRANCH  30  31
ATOM     31  C   UNL A   1      33.274  34.149  28.368  1.00  0.00     0.338 C 
ATOM     32  O   UNL A   1      32.539  35.071  28.667  1.00  0.00    -0.246 OA
BRANCH  31  33
ATOM     33  C   UNL A   1      34.450  33.774  29.184  1.00  0.00     0.060 A 
ATOM     34  C   UNL A   1      35.709  34.269  28.815  1.00  0.00     0.016 A 
ATOM     35  C   UNL A   1      34.330  32.878  30.246  1.00  0.00     0.016 A 
ATOM     36  C   UNL A   1      36.857  33.847  29.496  1.00  0.00     0.010 A 
ATOM     37  C   UNL A   1      35.482  32.443  30.913  1.00  0.00     0.010 A 
ATOM     38  C   UNL A   1      36.754  32.905  30.529  1.00  0.00    -0.014 A 
BRANCH  38  39
ATOM     39  C   UNL A   1      37.968  32.312  31.151  1.00  0.00     0.031 A 
ATOM     40  C   UNL A   1      38.684  31.190  30.447  1.00  0.00     0.074 A 
ATOM     41  C   UNL A   1      38.403  32.728  32.354  1.00  0.00     0.049 A 
ATOM     42  N   UNL A   1      39.658  30.427  30.875  1.00  0.00    -0.248 NA
ATOM     43  C   UNL A   1      38.241  30.887  29.077  1.00  0.00     0.031 C 
ATOM     44  C   UNL A   1      37.828  33.827  33.127  1.00  0.00     0.029 A 
ATOM     45  N   UNL A   1      39.417  32.249  33.151  1.00  0.00    -0.354 N 
ATOM     46  C   UNL A   1      39.931  29.543  29.840  1.00  0.00     0.074 A 
ATOM     47  C   UNL A   1      39.017  29.859  28.763  1.00  0.00     0.031 C 
ATOM     48  C   UNL A   1      38.473  33.915  34.303  1.00  0.00     0.029 A 
ATOM     49  C   UNL A   1      39.474  32.851  34.385  1.00  0.00     0.049 A 
ATOM     50  H   UNL A   1      40.039  31.542  32.867  1.00  0.00     0.167 HD
ATOM     51  C   UNL A   1      40.858  28.556  29.796  1.00  0.00     0.037 A 
ATOM     52  C   UNL A   1      40.213  32.547  35.472  1.00  0.00     0.037 A 
ATOM     53  C   UNL A   1      41.779  28.249  30.858  1.00  0.00     0.049 A 
ATOM     54  C   UNL A   1      41.178  31.388  35.421  1.00  0.00     0.074 A 
ATOM     55  C   UNL A   1      42.795  27.307  30.871  1.00  0.00     0.029 A 
ATOM     56  N   UNL A   1      41.791  28.866  32.098  1.00  0.00    -0.354 N 
ATOM     57  N   UNL A   1      41.463  30.586  34.424  1.00  0.00    -0.248 NA
ATOM     58  C   UNL A   1      41.921  31.084  36.656  1.00  0.00     0.031 C 
ATOM     59  C   UNL A   1      43.379  27.311  32.141  1.00  0.00     0.029 A 
ATOM     60  C   UNL A   1      42.764  28.292  32.900  1.00  0.00     0.049 A 
ATOM     61  H   UNL A   1      41.196  29.603  32.368  1.00  0.00     0.167 HD
ATOM     62  C   UNL A   1      42.424  29.704  34.902  1.00  0.00     0.074 A 
ATOM     63  C   UNL A   1      42.692  30.078  36.273  1.00  0.00     0.031 C 
ATOM     64  C   UNL A   1      43.027  28.672  34.263  1.00  0.00     0.037 A 
BRANCH  51  65
ATOM     65  C   UNL A   1      40.917  27.700  28.566  1.00  0.00     0.064 A 
ATOM     66  C   UNL A   1      40.086  26.584  28.403  1.00  0.00     0.173 A 
ATOM     67  C   UNL A   1      41.749  28.066  27.495  1.00  0.00     0.173 A 
ATOM     68  F   UNL A   1      39.279  26.192  29.400  1.00  0.00    -0.203 F 
ATOM     69  C   UNL A   1      40.089  25.859  27.214  1.00  0.00     0.198 A 
ATOM     70  C   UNL A   1      41.732  27.353  26.300  1.00  0.00     0.198 A 
ATOM     71  F   UNL A   1      42.557  29.131  27.601  1.00  0.00    -0.203 F 
ATOM     72  F   UNL A   1      39.300  24.784  27.084  1.00  0.00    -0.200 F 
ATOM     73  C   UNL A   1      40.904  26.250  26.160  1.00  0.00     0.200 A 
ATOM     74  F   UNL A   1      42.509  27.742  25.279  1.00  0.00    -0.200 F 
ATOM     75  F   UNL A   1      40.889  25.565  25.009  1.00  0.00    -0.200 F 
ENDBRANCH  51  65
BRANCH  52  76
ATOM     76  C   UNL A   1      40.031  33.309  36.737  1.00  0.00     0.064 A 
ATOM     77  C   UNL A   1      40.874  34.380  37.068  1.00  0.00     0.173 A 
ATOM     78  C   UNL A   1      39.050  32.941  37.670  1.00  0.00     0.173 A 
ATOM     79  F   UNL A   1      41.850  34.748  36.225  1.00  0.00    -0.203 F 
ATOM     80  C   UNL A   1      40.759  35.034  38.293  1.00  0.00     0.198 A 
ATOM     81  C   UNL A   1      38.913  33.618  38.880  1.00  0.00     0.198 A 
ATOM     82  F   UNL A   1      38.223  31.917  37.408  1.00  0.00    -0.203 F 
ATOM     83  F   UNL A   1      41.619  36.010  38.612  1.00  0.00    -0.200 F 
ATOM     84  C   UNL A   1      39.776  34.656  39.195  1.00  0.00     0.200 A 
ATOM     85  F   UNL A   1      37.956  33.256  39.744  1.00  0.00    -0.200 F 
ATOM     86  F   UNL A   1      39.670  35.281  40.376  1.00  0.00    -0.200 F 
ENDBRANCH  52  76
BRANCH  64  87
ATOM     87  C   UNL A   1      44.051  27.880  35.026  1.00  0.00     0.064 A 
ATOM     88  C   UNL A   1      43.708  26.705  35.710  1.00  0.00     0.173 A 
ATOM     89  C   UNL A   1      45.400  28.269  35.027  1.00  0.00     0.173 A 
ATOM     90  F   UNL A   1      42.431  26.297  35.753  1.00  0.00    -0.203 F 
ATOM     91  C   UNL A   1      44.673  25.958  36.381  1.00  0.00     0.198 A 
ATOM     92  C   UNL A   1      46.367  27.504  35.674  1.00  0.00     0.198 A 
ATOM     93  F   UNL A   1      45.783  29.381  34.381  1.00  0.00    -0.203 F 
ATOM     94  F   UNL A   1      44.315  24.860  37.060  1.00  0.00    -0.200 F 
ATOM     95  C   UNL A   1      46.003  26.353  36.355  1.00  0.00     0.200 A 
ATOM     96  F   UNL A   1      47.653  27.881  35.636  1.00  0.00    -0.200 F 
ATOM     97  F   UNL A   1      46.932  25.627  36.990  1.00  0.00    -0.200 F 
ENDBRANCH  64  87
ENDBRANCH  38  39
ENDBRANCH  31  33
ENDBRANCH  30  31
ENDBRANCH  29  30
ENDBRANCH  28  29
ENDBRANCH  27  28
ENDBRANCH  26  27
ENDBRANCH   1  26
TORSDOF 22
ENDMDL
MODEL 2
REMARK VINA RESULT:     -10.1      1.017      2.058
REMARK SMILES O=C(CN(CC(F)(F)F)C(=O)[C@H]1C[C@H]2CC[C@@H]1[NH2+]2)OCCOCCOCCOC(=O)c1ccc(-c2c3nc(c(-c4c(F)c(F)c(F)c(F)c4F)c4ccc([nH]4)c(-c4c(F)c(F)c(F)c(F)c4F)c4nc(c(-c5c(F)c(F)c(F)c(F)c5F)c5ccc2[nH]5)C=C4)C=C3)cc1
REMARK SMILES IDX 23 1 22 2 21 3 20 4 19 5 2 6 1 7 3 8 4 9 5 10 6 11 7 12 8 13
REMARK SMILES IDX 9 14 10 15 11 16 12 17 13 18 17 19 14 20 16 21 18 22 15 23
REMARK SMILES IDX 24 26 25 27 26 28 27 29 28 30 29 31 30 32 31 33 32 34 93 35
REMARK SMILES IDX 33 36 92 37 34 38 35 39 36 40 86 41 37 42 91 43 85 44 87 45
REMARK SMILES IDX 38 46 90 47 84 48 83 49 39 51 71 52 51 53 70 54 52 55 55 56
REMARK SMILES IDX 69 57 88 58 53 59 54 60 68 62 89 63 56 64 40 65 41 66 49 67
REMARK SMILES IDX 42 68 43 69 47 70 50 71 44 72 45 73 48 74 46 75 72 76 73 77
REMARK SMILES IDX 81 78 74 79 75 80 79 81 82 82 76 83 77 84 80 85 78 86 57 87
REMARK SMILES IDX 58 88 66 89 59 90 60 91 64 92 67 93 61 94 62 95 65 96 63 97
REMARK H PARENT 18 24 18 25 87 50 55 61
REMARK Flexibility Score: inf
ROOT
ATOM      1  C   UNL A   1      31.463  28.946  25.272  1.00  0.00     0.188 C 
ENDROOT
BRANCH   1   2
ATOM      2  O   UNL A   1      31.937  28.951  23.932  1.00  0.00    -0.376 OA
BRANCH   2   3
ATOM      3  C   UNL A   1      31.024  28.665  22.884  1.00  0.00     0.202 C 
BRANCH   3   4
ATOM      4  C   UNL A   1      30.765  27.177  22.657  1.00  0.00     0.261 C 
BRANCH   4   5
ATOM      5  O   UNL A   1      31.530  26.632  21.573  1.00  0.00    -0.462 OA
BRANCH   5   6
ATOM      6  C   UNL A   1      32.760  26.074  21.622  1.00  0.00     0.325 C 
ATOM      7  O   UNL A   1      33.723  26.770  21.284  1.00  0.00    -0.250 OA
BRANCH   6   8
ATOM      8  C   UNL A   1      32.970  24.564  21.844  1.00  0.00     0.242 C 
BRANCH   8   9
ATOM      9  N   UNL A   1      33.187  24.030  23.191  1.00  0.00    -0.322 N 
BRANCH   9  10
ATOM     10  C   UNL A   1      34.196  24.714  24.031  1.00  0.00     0.235 C 
BRANCH  10  11
ATOM     11  C   UNL A   1      33.663  25.674  25.101  1.00  0.00     0.406 C 
ATOM     12  F   UNL A   1      34.030  25.304  26.345  1.00  0.00    -0.169 F 
ATOM     13  F   UNL A   1      34.128  26.926  24.892  1.00  0.00    -0.169 F 
ATOM     14  F   UNL A   1      32.312  25.728  25.080  1.00  0.00    -0.169 F 
ENDBRANCH  10  11
ENDBRANCH   9  10
BRANCH   9  15
ATOM     15  C   UNL A   1      32.302  23.035  23.540  1.00  0.00     0.232 C 
ATOM     16  O   UNL A   1      31.091  23.250  23.372  1.00  0.00    -0.274 OA
BRANCH  15  17
ATOM     17  C   UNL A   1      32.675  21.666  24.084  1.00  0.00     0.142 C 
ATOM     18  C   UNL A   1      34.066  21.165  24.483  1.00  0.00     0.084 C 
ATOM     19  C   UNL A   1      31.897  21.474  25.406  1.00  0.00     0.195 C 
ATOM     20  C   UNL A   1      33.863  20.645  25.912  1.00  0.00     0.183 C 
ATOM     21  C   UNL A   1      32.406  22.436  26.497  1.00  0.00     0.072 C 
ATOM     22  N   UNL A   1      32.469  20.190  25.852  1.00  0.00    -0.341 N 
ATOM     23  C   UNL A   1      33.760  21.827  26.876  1.00  0.00     0.071 C 
ATOM     24  H   UNL A   1      32.112  19.895  26.761  1.00  0.00     0.346 HD
ATOM     25  H   UNL A   1      32.274  19.372  25.274  1.00  0.00     0.346 HD
ENDBRANCH  15  17
ENDBRANCH   9  15
ENDBRANCH   8   9
ENDBRANCH   6   8
ENDBRANCH   5   6
ENDBRANCH   4   5
ENDBRANCH   3   4
ENDBRANCH   2   3
ENDBRANCH   1   2
BRANCH   1  26
ATOM     26  C   UNL A   1      32.350  29.401  26.435  1.00  0.00     0.188 C 
BRANCH  26  27
ATOM     27  O   UNL A   1      32.020  30.573  27.161  1.00  0.00    -0.376 OA
BRANCH  27  28
ATOM     28  C   UNL A   1      31.294  31.613  26.525  1.00  0.00     0.202 C 
BRANCH  28  29
ATOM     29  C   UNL A   1      31.737  33.049  26.814  1.00  0.00     0.261 C 
BRANCH  29  30
ATOM     30  O   UNL A   1      33.079  33.133  27.333  1.00  0.00    -0.460 OA
BRANCH  30  31
ATOM     31  C   UNL A   1      33.283  34.045  28.315  1.00  0.00     0.338 C 
ATOM     32  O   UNL A   1      32.589  35.007  28.585  1.00  0.00    -0.246 OA
BRANCH  31  33
ATOM     33  C   UNL A   1      34.446  33.649  29.138  1.00  0.00     0.060 A 
ATOM     34  C   UNL A   1      35.677  34.280  28.912  1.00  0.00     0.016 A 
ATOM     35  C   UNL A   1      34.349  32.608  30.062  1.00  0.00     0.016 A 
ATOM     36  C   UNL A   1      36.822  33.853  29.594  1.00  0.00     0.010 A 
ATOM     37  C   UNL A   1      35.500  32.170  30.729  1.00  0.00     0.010 A 
ATOM     38  C   UNL A   1      36.748  32.772  30.483  1.00  0.00    -0.014 A 
BRANCH  38  39
ATOM     39  C   UNL A   1      37.975  32.189  31.088  1.00  0.00     0.031 A 
ATOM     40  C   UNL A   1      38.725  31.116  30.346  1.00  0.00     0.074 A 
ATOM     41  C   UNL A   1      38.393  32.571  32.309  1.00  0.00     0.049 A 
ATOM     42  N   UNL A   1      39.718  30.365  30.749  1.00  0.00    -0.248 NA
ATOM     43  C   UNL A   1      38.296  30.854  28.963  1.00  0.00     0.031 C 
ATOM     44  C   UNL A   1      37.785  33.623  33.120  1.00  0.00     0.029 A 
ATOM     45  N   UNL A   1      39.417  32.089  33.092  1.00  0.00    -0.354 N 
ATOM     46  C   UNL A   1      40.019  29.529  29.682  1.00  0.00     0.074 A 
ATOM     47  C   UNL A   1      39.102  29.860  28.613  1.00  0.00     0.031 C 
ATOM     48  C   UNL A   1      38.423  33.683  34.303  1.00  0.00     0.029 A 
ATOM     49  C   UNL A   1      39.452  32.645  34.349  1.00  0.00     0.049 A 
ATOM     50  H   UNL A   1      40.060  31.412  32.784  1.00  0.00     0.167 HD
ATOM     51  C   UNL A   1      40.973  28.570  29.604  1.00  0.00     0.037 A 
ATOM     52  C   UNL A   1      40.195  32.320  35.426  1.00  0.00     0.037 A 
ATOM     53  C   UNL A   1      41.899  28.249  30.658  1.00  0.00     0.049 A 
ATOM     54  C   UNL A   1      41.193  31.190  35.336  1.00  0.00     0.074 A 
ATOM     55  C   UNL A   1      42.940  27.335  30.640  1.00  0.00     0.029 A 
ATOM     56  N   UNL A   1      41.888  28.816  31.921  1.00  0.00    -0.354 N 
ATOM     57  N   UNL A   1      41.503  30.436  34.310  1.00  0.00    -0.248 NA
ATOM     58  C   UNL A   1      41.938  30.860  36.562  1.00  0.00     0.031 C 
ATOM     59  C   UNL A   1      43.519  27.306  31.912  1.00  0.00     0.029 A 
ATOM     60  C   UNL A   1      42.874  28.239  32.706  1.00  0.00     0.049 A 
ATOM     61  H   UNL A   1      41.272  29.526  32.217  1.00  0.00     0.167 HD
ATOM     62  C   UNL A   1      42.487  29.563  34.759  1.00  0.00     0.074 A 
ATOM     63  C   UNL A   1      42.739  29.891  36.145  1.00  0.00     0.031 C 
ATOM     64  C   UNL A   1      43.121  28.573  34.084  1.00  0.00     0.037 A 
BRANCH  51  65
ATOM     65  C   UNL A   1      41.062  27.764  28.342  1.00  0.00     0.064 A 
ATOM     66  C   UNL A   1      41.890  28.147  27.279  1.00  0.00     0.173 A 
ATOM     67  C   UNL A   1      40.382  26.540  28.243  1.00  0.00     0.173 A 
ATOM     68  F   UNL A   1      42.553  29.311  27.325  1.00  0.00    -0.203 F 
ATOM     69  C   UNL A   1      42.030  27.336  26.156  1.00  0.00     0.198 A 
ATOM     70  C   UNL A   1      40.543  25.720  27.129  1.00  0.00     0.198 A 
ATOM     71  F   UNL A   1      39.584  26.127  29.239  1.00  0.00    -0.203 F 
ATOM     72  F   UNL A   1      42.812  27.728  25.141  1.00  0.00    -0.200 F 
ATOM     73  C   UNL A   1      41.366  26.119  26.087  1.00  0.00     0.200 A 
ATOM     74  F   UNL A   1      39.912  24.539  27.072  1.00  0.00    -0.200 F 
ATOM     75  F   UNL A   1      41.519  25.329  25.016  1.00  0.00    -0.200 F 
ENDBRANCH  51  65
BRANCH  52  76
ATOM     76  C   UNL A   1      39.987  33.027  36.719  1.00  0.00     0.064 A 
ATOM     77  C   UNL A   1      40.820  34.085  37.111  1.00  0.00     0.173 A 
ATOM     78  C   UNL A   1      38.989  32.618  37.617  1.00  0.00     0.173 A 
ATOM     79  F   UNL A   1      41.811  34.490  36.304  1.00  0.00    -0.203 F 
ATOM     80  C   UNL A   1      40.681  34.686  38.360  1.00  0.00     0.198 A 
ATOM     81  C   UNL A   1      38.828  33.243  38.851  1.00  0.00     0.198 A 
ATOM     82  F   UNL A   1      38.171  31.604  37.296  1.00  0.00    -0.203 F 
ATOM     83  F   UNL A   1      41.532  35.649  38.737  1.00  0.00    -0.200 F 
ATOM     84  C   UNL A   1      39.682  34.268  39.227  1.00  0.00     0.200 A 
ATOM     85  F   UNL A   1      37.856  32.842  39.681  1.00  0.00    -0.200 F 
ATOM     86  F   UNL A   1      39.551  34.842  40.431  1.00  0.00    -0.200 F 
ENDBRANCH  52  76
BRANCH  64  87
ATOM     87  C   UNL A   1      44.163  27.781  34.821  1.00  0.00     0.064 A 
ATOM     88  C   UNL A   1      45.478  28.250  34.960  1.00  0.00     0.173 A 
ATOM     89  C   UNL A   1      43.831  26.567  35.443  1.00  0.00     0.173 A 
ATOM     90  F   UNL A   1      45.851  29.396  34.372  1.00  0.00    -0.203 F 
ATOM     91  C   UNL A   1      46.424  27.526  35.679  1.00  0.00     0.198 A 
ATOM     92  C   UNL A   1      44.772  25.860  36.186  1.00  0.00     0.198 A 
ATOM     93  F   UNL A   1      42.585  26.077  35.348  1.00  0.00    -0.203 F 
ATOM     94  F   UNL A   1      47.685  27.974  35.766  1.00  0.00    -0.200 F 
ATOM     95  C   UNL A   1      46.069  26.336  36.299  1.00  0.00     0.200 A 
ATOM     96  F   UNL A   1      44.423  24.719  36.796  1.00  0.00    -0.200 F 
ATOM     97  F   UNL A   1      46.978  25.647  37.001  1.00  0.00    -0.200 F 
ENDBRANCH  64  87
ENDBRANCH  38  39
ENDBRANCH  31  33
ENDBRANCH  30  31
ENDBRANCH  29  30
ENDBRANCH  28  29
ENDBRANCH  27  28
ENDBRANCH  26  27
ENDBRANCH   1  26
TORSDOF 22
ENDMDL
MODEL 3
REMARK VINA RESULT:      -9.3      1.801      2.991
REMARK SMILES O=C(CN(CC(F)(F)F)C(=O)[C@H]1C[C@H]2CC[C@@H]1[NH2+]2)OCCOCCOCCOC(=O)c1ccc(-c2c3nc(c(-c4c(F)c(F)c(F)c(F)c4F)c4ccc([nH]4)c(-c4c(F)c(F)c(F)c(F)c4F)c4nc(c(-c5c(F)c(F)c(F)c(F)c5F)c5ccc2[nH]5)C=C4)C=C3)cc1
REMARK SMILES IDX 23 1 22 2 21 3 20 4 19 5 2 6 1 7 3 8 4 9 5 10 6 11 7 12 8 13
REMARK SMILES IDX 9 14 10 15 11 16 12 17 13 18 17 19 14 20 16 21 18 22 15 23
REMARK SMILES IDX 24 26 25 27 26 28 27 29 28 30 29 31 30 32 31 33 32 34 93 35
REMARK SMILES IDX 33 36 92 37 34 38 35 39 36 40 86 41 37 42 91 43 85 44 87 45
REMARK SMILES IDX 38 46 90 47 84 48 83 49 39 51 71 52 51 53 70 54 52 55 55 56
REMARK SMILES IDX 69 57 88 58 53 59 54 60 68 62 89 63 56 64 40 65 41 66 49 67
REMARK SMILES IDX 42 68 43 69 47 70 50 71 44 72 45 73 48 74 46 75 72 76 73 77
REMARK SMILES IDX 81 78 74 79 75 80 79 81 82 82 76 83 77 84 80 85 78 86 57 87
REMARK SMILES IDX 58 88 66 89 59 90 60 91 64 92 67 93 61 94 62 95 65 96 63 97
REMARK H PARENT 18 24 18 25 87 50 55 61
REMARK Flexibility Score: inf
ROOT
ATOM      1  C   UNL A   1      31.437  29.397  25.218  1.00  0.00     0.188 C 
ENDROOT
BRANCH   1   2
ATOM      2  O   UNL A   1      31.547  28.091  25.768  1.00  0.00    -0.376 OA
BRANCH   2   3
ATOM      3  C   UNL A   1      31.037  26.994  25.026  1.00  0.00     0.202 C 
BRANCH   3   4
ATOM      4  C   UNL A   1      32.078  25.939  24.655  1.00  0.00     0.261 C 
BRANCH   4   5
ATOM      5  O   UNL A   1      31.530  24.616  24.564  1.00  0.00    -0.462 OA
BRANCH   5   6
ATOM      6  C   UNL A   1      32.182  23.465  24.288  1.00  0.00     0.325 C 
ATOM      7  O   UNL A   1      31.743  22.759  23.374  1.00  0.00    -0.250 OA
BRANCH   6   8
ATOM      8  C   UNL A   1      33.278  22.899  25.210  1.00  0.00     0.242 C 
BRANCH   8   9
ATOM      9  N   UNL A   1      33.934  21.627  24.897  1.00  0.00    -0.322 N 
BRANCH   9  10
ATOM     10  C   UNL A   1      35.222  21.696  24.171  1.00  0.00     0.235 C 
BRANCH  10  11
ATOM     11  C   UNL A   1      36.486  21.391  24.983  1.00  0.00     0.406 C 
ATOM     12  F   UNL A   1      36.543  20.100  25.371  1.00  0.00    -0.169 F 
ATOM     13  F   UNL A   1      37.595  21.647  24.253  1.00  0.00    -0.169 F 
ATOM     14  F   UNL A   1      36.544  22.149  26.101  1.00  0.00    -0.169 F 
ENDBRANCH  10  11
ENDBRANCH   9  10
BRANCH   9  15
ATOM     15  C   UNL A   1      33.316  20.533  25.460  1.00  0.00     0.232 C 
ATOM     16  O   UNL A   1      33.387  20.395  26.691  1.00  0.00    -0.274 OA
BRANCH  15  17
ATOM     17  C   UNL A   1      32.510  19.486  24.709  1.00  0.00     0.142 C 
ATOM     18  C   UNL A   1      32.523  19.196  23.206  1.00  0.00     0.084 C 
ATOM     19  C   UNL A   1      32.910  18.107  25.284  1.00  0.00     0.195 C 
ATOM     20  C   UNL A   1      32.796  17.687  23.135  1.00  0.00     0.183 C 
ATOM     21  C   UNL A   1      34.366  17.755  24.923  1.00  0.00     0.072 C 
ATOM     22  N   UNL A   1      32.157  17.225  24.373  1.00  0.00    -0.341 N 
ATOM     23  C   UNL A   1      34.271  17.421  23.432  1.00  0.00     0.071 C 
ATOM     24  H   UNL A   1      32.323  16.236  24.555  1.00  0.00     0.346 HD
ATOM     25  H   UNL A   1      31.138  17.279  24.415  1.00  0.00     0.346 HD
ENDBRANCH  15  17
ENDBRANCH   9  15
ENDBRANCH   8   9
ENDBRANCH   6   8
ENDBRANCH   5   6
ENDBRANCH   4   5
ENDBRANCH   3   4
ENDBRANCH   2   3
ENDBRANCH   1   2
BRANCH   1  26
ATOM     26  C   UNL A   1      31.683  30.645  26.071  1.00  0.00     0.188 C 
BRANCH  26  27
ATOM     27  O   UNL A   1      32.800  30.699  26.942  1.00  0.00    -0.376 OA
BRANCH  27  28
ATOM     28  C   UNL A   1      33.362  31.955  27.286  1.00  0.00     0.202 C 
BRANCH  28  29
ATOM     29  C   UNL A   1      32.391  33.118  27.502  1.00  0.00     0.261 C 
BRANCH  29  30
ATOM     30  O   UNL A   1      33.054  34.353  27.836  1.00  0.00    -0.460 OA
BRANCH  30  31
ATOM     31  C   UNL A   1      33.280  34.571  29.155  1.00  0.00     0.338 C 
ATOM     32  O   UNL A   1      32.573  35.181  29.935  1.00  0.00    -0.246 OA
BRANCH  31  33
ATOM     33  C   UNL A   1      34.494  33.844  29.586  1.00  0.00     0.060 A 
ATOM     34  C   UNL A   1      34.369  32.841  30.558  1.00  0.00     0.016 A 
ATOM     35  C   UNL A   1      35.753  34.202  29.103  1.00  0.00     0.016 A 
ATOM     36  C   UNL A   1      35.509  32.210  31.068  1.00  0.00     0.010 A 
ATOM     37  C   UNL A   1      36.894  33.583  29.630  1.00  0.00     0.010 A 
ATOM     38  C   UNL A   1      36.783  32.600  30.631  1.00  0.00    -0.014 A 
BRANCH  38  39
ATOM     39  C   UNL A   1      38.013  32.071  31.279  1.00  0.00     0.031 A 
ATOM     40  C   UNL A   1      38.767  30.947  30.620  1.00  0.00     0.074 A 
ATOM     41  C   UNL A   1      38.429  32.547  32.467  1.00  0.00     0.049 A 
ATOM     42  N   UNL A   1      39.763  30.233  31.080  1.00  0.00    -0.248 NA
ATOM     43  C   UNL A   1      38.339  30.578  29.262  1.00  0.00     0.031 C 
ATOM     44  C   UNL A   1      37.817  33.656  33.195  1.00  0.00     0.029 A 
ATOM     45  N   UNL A   1      39.455  32.131  33.284  1.00  0.00    -0.354 N 
ATOM     46  C   UNL A   1      40.067  29.319  30.080  1.00  0.00     0.074 A 
ATOM     47  C   UNL A   1      39.149  29.564  28.989  1.00  0.00     0.031 C 
ATOM     48  C   UNL A   1      38.454  33.809  34.369  1.00  0.00     0.029 A 
ATOM     49  C   UNL A   1      39.488  32.781  34.494  1.00  0.00     0.049 A 
ATOM     50  H   UNL A   1      40.101  31.434  33.028  1.00  0.00     0.167 HD
ATOM     51  C   UNL A   1      41.026  28.361  30.076  1.00  0.00     0.037 A 
ATOM     52  C   UNL A   1      40.232  32.543  35.593  1.00  0.00     0.037 A 
ATOM     53  C   UNL A   1      41.953  28.125  31.151  1.00  0.00     0.049 A 
ATOM     54  C   UNL A   1      41.234  31.414  35.589  1.00  0.00     0.074 A 
ATOM     55  C   UNL A   1      42.997  27.217  31.202  1.00  0.00     0.029 A 
ATOM     56  N   UNL A   1      41.940  28.788  32.367  1.00  0.00    -0.354 N 
ATOM     57  N   UNL A   1      41.548  30.584  34.624  1.00  0.00    -0.248 NA
ATOM     58  C   UNL A   1      41.982  31.182  36.837  1.00  0.00     0.031 C 
ATOM     59  C   UNL A   1      43.577  27.288  32.473  1.00  0.00     0.029 A 
ATOM     60  C   UNL A   1      42.928  28.277  33.193  1.00  0.00     0.049 A 
ATOM     61  H   UNL A   1      41.320  29.515  32.607  1.00  0.00     0.167 HD
ATOM     62  C   UNL A   1      42.535  29.753  35.139  1.00  0.00     0.074 A 
ATOM     63  C   UNL A   1      42.786  30.187  36.495  1.00  0.00     0.031 C 
ATOM     64  C   UNL A   1      43.174  28.716  34.541  1.00  0.00     0.037 A 
BRANCH  51  65
ATOM     65  C   UNL A   1      41.117  27.461  28.879  1.00  0.00     0.064 A 
ATOM     66  C   UNL A   1      42.133  27.604  27.925  1.00  0.00     0.173 A 
ATOM     67  C   UNL A   1      40.232  26.379  28.746  1.00  0.00     0.173 A 
ATOM     68  F   UNL A   1      42.997  28.626  28.006  1.00  0.00    -0.203 F 
ATOM     69  C   UNL A   1      42.256  26.699  26.873  1.00  0.00     0.198 A 
ATOM     70  C   UNL A   1      40.373  25.463  27.707  1.00  0.00     0.198 A 
ATOM     71  F   UNL A   1      39.249  26.196  29.639  1.00  0.00    -0.203 F 
ATOM     72  F   UNL A   1      43.223  26.863  25.960  1.00  0.00    -0.200 F 
ATOM     73  C   UNL A   1      41.384  25.624  26.771  1.00  0.00     0.200 A 
ATOM     74  F   UNL A   1      39.538  24.419  27.619  1.00  0.00    -0.200 F 
ATOM     75  F   UNL A   1      41.518  24.742  25.772  1.00  0.00    -0.200 F 
ENDBRANCH  51  65
BRANCH  52  76
ATOM     76  C   UNL A   1      40.021  33.346  36.828  1.00  0.00     0.064 A 
ATOM     77  C   UNL A   1      40.844  34.440  37.133  1.00  0.00     0.173 A 
ATOM     78  C   UNL A   1      39.031  32.998  37.759  1.00  0.00     0.173 A 
ATOM     79  F   UNL A   1      41.828  34.792  36.292  1.00  0.00    -0.203 F 
ATOM     80  C   UNL A   1      40.703  35.135  38.332  1.00  0.00     0.198 A 
ATOM     81  C   UNL A   1      38.868  33.715  38.942  1.00  0.00     0.198 A 
ATOM     82  F   UNL A   1      38.222  31.954  37.522  1.00  0.00    -0.203 F 
ATOM     83  F   UNL A   1      41.545  36.134  38.629  1.00  0.00    -0.200 F 
ATOM     84  C   UNL A   1      39.711  34.775  39.233  1.00  0.00     0.200 A 
ATOM     85  F   UNL A   1      37.903  33.370  39.805  1.00  0.00    -0.200 F 
ATOM     86  F   UNL A   1      39.579  35.440  40.389  1.00  0.00    -0.200 F 
ENDBRANCH  52  76
BRANCH  64  87
ATOM     87  C   UNL A   1      44.219  27.988  35.336  1.00  0.00     0.064 A 
ATOM     88  C   UNL A   1      45.552  28.422  35.367  1.00  0.00     0.173 A 
ATOM     89  C   UNL A   1      43.874  26.876  36.121  1.00  0.00     0.173 A 
ATOM     90  F   UNL A   1      45.938  29.470  34.622  1.00  0.00    -0.203 F 
ATOM     91  C   UNL A   1      46.504  27.762  36.138  1.00  0.00     0.198 A 
ATOM     92  C   UNL A   1      44.822  26.236  36.915  1.00  0.00     0.198 A 
ATOM     93  F   UNL A   1      42.610  26.424  36.135  1.00  0.00    -0.203 F 
ATOM     94  F   UNL A   1      47.780  28.171  36.121  1.00  0.00    -0.200 F 
ATOM     95  C   UNL A   1      46.136  26.675  36.919  1.00  0.00     0.200 A 
ATOM     96  F   UNL A   1      44.462  25.195  37.680  1.00  0.00    -0.200 F 
ATOM     97  F   UNL A   1      47.051  26.048  37.671  1.00  0.00    -0.200 F 
ENDBRANCH  64  87
ENDBRANCH  38  39
ENDBRANCH  31  33
ENDBRANCH  30  31
ENDBRANCH  29  30
ENDBRANCH  28  29
ENDBRANCH  27  28
ENDBRANCH  26  27
ENDBRANCH   1  26
TORSDOF 22
ENDMDL
