MODEL 1
REMARK VINA RESULT:     -10.5      0.000      0.000
REMARK SMILES [NH3+][C@@H]1C=C[C@H](C(=O)NC[C@H](O)C(=O)OCCOCCOCCOC(=O)c2ccc(-c3c4nc(c(-c5c(F)c(F)c(F)c(F)c5F)c5ccc([nH]5)c(-c5c(F)c(F)c(F)c(F)c5F)c5nc(c(-c6c(F)c(F)c(F)c(F)c6F)c6ccc3[nH]6)C=C5)C=C4)cc2)C1
REMARK SMILES IDX 18 1 17 2 16 3 15 4 14 5 12 6 13 7 10 8 9 9 8 10 6 11 7 12
REMARK SMILES IDX 5 14 2 15 3 16 89 17 4 18 1 19 11 23 19 25 20 26 21 27 22 28
REMARK SMILES IDX 23 29 24 30 25 31 26 32 27 33 88 34 28 35 87 36 29 37 30 38
REMARK SMILES IDX 31 39 81 40 32 41 86 42 80 43 82 44 33 45 85 46 79 47 78 48
REMARK SMILES IDX 34 50 66 51 46 52 65 53 47 54 50 55 64 56 83 57 48 58 49 59
REMARK SMILES IDX 63 61 84 62 51 63 35 64 36 65 44 66 37 67 38 68 42 69 45 70
REMARK SMILES IDX 39 71 40 72 43 73 41 74 67 75 68 76 76 77 69 78 70 79 74 80
REMARK SMILES IDX 77 81 71 82 72 83 75 84 73 85 52 86 53 87 61 88 54 89 55 90
REMARK SMILES IDX 59 91 62 92 56 93 57 94 60 95 58 96
REMARK H PARENT 8 13 1 20 1 21 1 22 11 24 82 49 50 60
REMARK Flexibility Score: inf
ROOT
ATOM      1  C   UNL A   1      40.715  21.718  27.283  1.00  0.00     0.188 C 
ENDROOT
BRANCH   1   2
ATOM      2  O   UNL A   1      39.660  21.048  26.606  1.00  0.00    -0.376 OA
BRANCH   2   3
ATOM      3  C   UNL A   1      38.669  21.817  25.924  1.00  0.00     0.202 C 
BRANCH   3   4
ATOM      4  C   UNL A   1      37.758  21.106  24.914  1.00  0.00     0.261 C 
BRANCH   4   5
ATOM      5  O   UNL A   1      36.469  21.731  24.784  1.00  0.00    -0.461 OA
BRANCH   5   6
ATOM      6  C   UNL A   1      35.387  20.981  25.143  1.00  0.00     0.336 C 
ATOM      7  O   UNL A   1      35.191  19.819  24.813  1.00  0.00    -0.249 OA
BRANCH   6   8
ATOM      8  C   UNL A   1      34.498  21.761  26.124  1.00  0.00     0.243 C 
BRANCH   8   9
ATOM      9  C   UNL A   1      33.455  22.563  25.331  1.00  0.00     0.159 C 
BRANCH   9  10
ATOM     10  N   UNL A   1      33.768  22.594  23.908  1.00  0.00    -0.352 N 
ATOM     11  C   UNL A   1      33.403  23.516  22.964  1.00  0.00     0.227 C 
ATOM     12  O   UNL A   1      33.616  23.236  21.785  1.00  0.00    -0.274 OA
ATOM     13  H   UNL A   1      34.320  21.849  23.579  1.00  0.00     0.163 HD
BRANCH  11  14
ATOM     14  C   UNL A   1      32.745  24.821  23.426  1.00  0.00     0.107 C 
ATOM     15  C   UNL A   1      31.911  26.224  21.573  1.00  0.00     0.205 C 
ATOM     16  C   UNL A   1      33.182  26.752  22.145  1.00  0.00     0.033 C 
ATOM     17  C   UNL A   1      31.487  25.183  22.621  1.00  0.00     0.087 C 
ATOM     18  C   UNL A   1      33.639  25.997  23.152  1.00  0.00    -0.012 C 
BRANCH  15  19
ATOM     19  N   UNL A   1      32.176  25.653  20.267  1.00  0.00    -0.352 N 
ATOM     20  H   UNL A   1      32.435  26.395  19.618  1.00  0.00     0.345 HD
ATOM     21  H   UNL A   1      31.338  25.180  19.926  1.00  0.00     0.345 HD
ATOM     22  H   UNL A   1      32.939  24.980  20.340  1.00  0.00     0.345 HD
ENDBRANCH  15  19
ENDBRANCH  11  14
ENDBRANCH   9  10
ENDBRANCH   8   9
BRANCH   8  23
ATOM     23  O   UNL A   1      35.202  22.645  26.994  1.00  0.00    -0.380 OA
ATOM     24  H   UNL A   1      34.590  23.001  27.658  1.00  0.00     0.211 HD
ENDBRANCH   8  23
ENDBRANCH   6   8
ENDBRANCH   5   6
ENDBRANCH   4   5
ENDBRANCH   3   4
ENDBRANCH   2   3
ENDBRANCH   1   2
BRANCH   1  25
ATOM     25  C   UNL A   1      42.162  21.224  27.096  1.00  0.00     0.188 C 
BRANCH  25  26
ATOM     26  O   UNL A   1      42.553  21.031  25.750  1.00  0.00    -0.376 OA
BRANCH  26  27
ATOM     27  C   UNL A   1      43.918  21.341  25.456  1.00  0.00     0.202 C 
BRANCH  27  28
ATOM     28  C   UNL A   1      44.192  22.399  24.366  1.00  0.00     0.261 C 
BRANCH  28  29
ATOM     29  O   UNL A   1      43.549  23.673  24.557  1.00  0.00    -0.460 OA
BRANCH  29  30
ATOM     30  C   UNL A   1      44.320  24.681  25.024  1.00  0.00     0.338 C 
ATOM     31  O   UNL A   1      45.420  25.009  24.624  1.00  0.00    -0.246 OA
BRANCH  30  32
ATOM     32  C   UNL A   1      43.499  25.488  25.956  1.00  0.00     0.060 A 
ATOM     33  C   UNL A   1      43.832  26.836  26.142  1.00  0.00     0.016 A 
ATOM     34  C   UNL A   1      42.418  24.928  26.643  1.00  0.00     0.016 A 
ATOM     35  C   UNL A   1      43.110  27.620  27.042  1.00  0.00     0.010 A 
ATOM     36  C   UNL A   1      41.709  25.710  27.565  1.00  0.00     0.010 A 
ATOM     37  C   UNL A   1      42.077  27.049  27.796  1.00  0.00    -0.014 A 
BRANCH  37  38
ATOM     38  C   UNL A   1      41.551  27.787  28.972  1.00  0.00     0.031 A 
ATOM     39  C   UNL A   1      42.279  27.647  30.282  1.00  0.00     0.074 A 
ATOM     40  C   UNL A   1      40.489  28.607  28.879  1.00  0.00     0.049 A 
ATOM     41  N   UNL A   1      42.034  28.207  31.440  1.00  0.00    -0.248 NA
ATOM     42  C   UNL A   1      43.446  26.751  30.283  1.00  0.00     0.031 C 
ATOM     43  C   UNL A   1      39.717  28.860  27.666  1.00  0.00     0.029 A 
ATOM     44  N   UNL A   1      39.879  29.381  29.837  1.00  0.00    -0.354 N 
ATOM     45  C   UNL A   1      43.013  27.732  32.303  1.00  0.00     0.074 A 
ATOM     46  C   UNL A   1      43.833  26.810  31.547  1.00  0.00     0.031 C 
ATOM     47  C   UNL A   1      38.730  29.727  27.952  1.00  0.00     0.029 A 
ATOM     48  C   UNL A   1      38.788  30.073  29.372  1.00  0.00     0.049 A 
ATOM     49  H   UNL A   1      40.195  29.435  30.768  1.00  0.00     0.167 HD
ATOM     50  C   UNL A   1      43.220  28.042  33.605  1.00  0.00     0.037 A 
ATOM     51  C   UNL A   1      37.931  30.883  30.024  1.00  0.00     0.037 A 
ATOM     52  C   UNL A   1      42.401  28.952  34.362  1.00  0.00     0.049 A 
ATOM     53  C   UNL A   1      38.147  31.170  31.490  1.00  0.00     0.074 A 
ATOM     54  C   UNL A   1      42.536  29.339  35.683  1.00  0.00     0.029 A 
ATOM     55  N   UNL A   1      41.287  29.611  33.864  1.00  0.00    -0.354 N 
ATOM     56  N   UNL A   1      39.093  30.741  32.291  1.00  0.00    -0.248 NA
ATOM     57  C   UNL A   1      37.178  32.067  32.138  1.00  0.00     0.031 C 
ATOM     58  C   UNL A   1      41.472  30.192  36.001  1.00  0.00     0.029 A 
ATOM     59  C   UNL A   1      40.710  30.384  34.859  1.00  0.00     0.049 A 
ATOM     60  H   UNL A   1      40.955  29.540  32.940  1.00  0.00     0.167 HD
ATOM     61  C   UNL A   1      38.854  31.340  33.523  1.00  0.00     0.074 A 
ATOM     62  C   UNL A   1      37.681  32.173  33.359  1.00  0.00     0.031 C 
ATOM     63  C   UNL A   1      39.545  31.214  34.684  1.00  0.00     0.037 A 
BRANCH  50  64
ATOM     64  C   UNL A   1      44.363  27.360  34.297  1.00  0.00     0.064 A 
ATOM     65  C   UNL A   1      44.209  26.119  34.932  1.00  0.00     0.173 A 
ATOM     66  C   UNL A   1      45.633  27.957  34.322  1.00  0.00     0.173 A 
ATOM     67  F   UNL A   1      43.011  25.516  34.954  1.00  0.00    -0.203 F 
ATOM     68  C   UNL A   1      45.276  25.516  35.595  1.00  0.00     0.198 A 
ATOM     69  C   UNL A   1      46.705  27.336  34.958  1.00  0.00     0.198 A 
ATOM     70  F   UNL A   1      45.836  29.143  33.730  1.00  0.00    -0.203 F 
ATOM     71  F   UNL A   1      45.090  24.358  36.244  1.00  0.00    -0.200 F 
ATOM     72  C   UNL A   1      46.523  26.122  35.602  1.00  0.00     0.200 A 
ATOM     73  F   UNL A   1      47.912  27.918  34.955  1.00  0.00    -0.200 F 
ATOM     74  F   UNL A   1      47.548  25.539  36.239  1.00  0.00    -0.200 F 
ENDBRANCH  50  64
BRANCH  51  75
ATOM     75  C   UNL A   1      36.784  31.490  29.298  1.00  0.00     0.064 A 
ATOM     76  C   UNL A   1      36.753  32.859  29.000  1.00  0.00     0.173 A 
ATOM     77  C   UNL A   1      35.678  30.715  28.917  1.00  0.00     0.173 A 
ATOM     78  F   UNL A   1      37.771  33.648  29.374  1.00  0.00    -0.203 F 
ATOM     79  C   UNL A   1      35.655  33.434  28.363  1.00  0.00     0.198 A 
ATOM     80  C   UNL A   1      34.592  31.285  28.254  1.00  0.00     0.198 A 
ATOM     81  F   UNL A   1      35.652  29.402  29.188  1.00  0.00    -0.203 F 
ATOM     82  F   UNL A   1      35.629  34.754  28.137  1.00  0.00    -0.200 F 
ATOM     83  C   UNL A   1      34.579  32.645  27.985  1.00  0.00     0.200 A 
ATOM     84  F   UNL A   1      33.557  30.518  27.887  1.00  0.00    -0.200 F 
ATOM     85  F   UNL A   1      33.521  33.198  27.375  1.00  0.00    -0.200 F 
ENDBRANCH  51  75
BRANCH  63  86
ATOM     86  C   UNL A   1      39.079  32.030  35.857  1.00  0.00     0.064 A 
ATOM     87  C   UNL A   1      39.457  33.370  36.027  1.00  0.00     0.173 A 
ATOM     88  C   UNL A   1      38.223  31.465  36.817  1.00  0.00     0.173 A 
ATOM     89  F   UNL A   1      40.281  33.957  35.146  1.00  0.00    -0.203 F 
ATOM     90  C   UNL A   1      39.030  34.101  37.134  1.00  0.00     0.198 A 
ATOM     91  C   UNL A   1      37.770  32.209  37.903  1.00  0.00     0.198 A 
ATOM     92  F   UNL A   1      37.820  30.191  36.697  1.00  0.00    -0.203 F 
ATOM     93  F   UNL A   1      39.453  35.361  37.306  1.00  0.00    -0.200 F 
ATOM     94  C   UNL A   1      38.183  33.522  38.066  1.00  0.00     0.200 A 
ATOM     95  F   UNL A   1      36.938  31.652  38.794  1.00  0.00    -0.200 F 
ATOM     96  F   UNL A   1      37.771  34.228  39.130  1.00  0.00    -0.200 F 
ENDBRANCH  63  86
ENDBRANCH  37  38
ENDBRANCH  30  32
ENDBRANCH  29  30
ENDBRANCH  28  29
ENDBRANCH  27  28
ENDBRANCH  26  27
ENDBRANCH  25  26
ENDBRANCH   1  25
TORSDOF 22
ENDMDL
MODEL 2
REMARK VINA RESULT:     -10.0      1.179      2.116
REMARK SMILES [NH3+][C@@H]1C=C[C@H](C(=O)NC[C@H](O)C(=O)OCCOCCOCCOC(=O)c2ccc(-c3c4nc(c(-c5c(F)c(F)c(F)c(F)c5F)c5ccc([nH]5)c(-c5c(F)c(F)c(F)c(F)c5F)c5nc(c(-c6c(F)c(F)c(F)c(F)c6F)c6ccc3[nH]6)C=C5)C=C4)cc2)C1
REMARK SMILES IDX 18 1 17 2 16 3 15 4 14 5 12 6 13 7 10 8 9 9 8 10 6 11 7 12
REMARK SMILES IDX 5 14 2 15 3 16 89 17 4 18 1 19 11 23 19 25 20 26 21 27 22 28
REMARK SMILES IDX 23 29 24 30 25 31 26 32 27 33 88 34 28 35 87 36 29 37 30 38
REMARK SMILES IDX 31 39 81 40 32 41 86 42 80 43 82 44 33 45 85 46 79 47 78 48
REMARK SMILES IDX 34 50 66 51 46 52 65 53 47 54 50 55 64 56 83 57 48 58 49 59
REMARK SMILES IDX 63 61 84 62 51 63 35 64 36 65 44 66 37 67 38 68 42 69 45 70
REMARK SMILES IDX 39 71 40 72 43 73 41 74 67 75 68 76 76 77 69 78 70 79 74 80
REMARK SMILES IDX 77 81 71 82 72 83 75 84 73 85 52 86 53 87 61 88 54 89 55 90
REMARK SMILES IDX 59 91 62 92 56 93 57 94 60 95 58 96
REMARK H PARENT 8 13 1 20 1 21 1 22 11 24 82 49 50 60
REMARK Flexibility Score: inf
ROOT
ATOM      1  C   UNL A   1      40.264  22.062  26.974  1.00  0.00     0.188 C 
ENDROOT
BRANCH   1   2
ATOM      2  O   UNL A   1      39.181  21.533  26.219  1.00  0.00    -0.376 OA
BRANCH   2   3
ATOM      3  C   UNL A   1      38.104  22.393  25.847  1.00  0.00     0.202 C 
BRANCH   3   4
ATOM      4  C   UNL A   1      37.065  21.872  24.845  1.00  0.00     0.261 C 
BRANCH   4   5
ATOM      5  O   UNL A   1      35.757  22.437  25.048  1.00  0.00    -0.461 OA
BRANCH   5   6
ATOM      6  C   UNL A   1      35.020  22.691  23.928  1.00  0.00     0.336 C 
ATOM      7  O   UNL A   1      35.369  23.408  22.999  1.00  0.00    -0.249 OA
BRANCH   6   8
ATOM      8  C   UNL A   1      33.732  21.853  23.935  1.00  0.00     0.243 C 
BRANCH   8   9
ATOM      9  C   UNL A   1      32.635  22.621  24.686  1.00  0.00     0.159 C 
BRANCH   9  10
ATOM     10  N   UNL A   1      32.199  23.799  23.947  1.00  0.00    -0.352 N 
ATOM     11  C   UNL A   1      32.039  25.085  24.388  1.00  0.00     0.227 C 
ATOM     12  O   UNL A   1      31.471  25.877  23.637  1.00  0.00    -0.274 OA
ATOM     13  H   UNL A   1      31.992  23.650  22.996  1.00  0.00     0.163 HD
BRANCH  11  14
ATOM     14  C   UNL A   1      32.556  25.454  25.783  1.00  0.00     0.107 C 
ATOM     15  C   UNL A   1      32.440  27.870  26.280  1.00  0.00     0.205 C 
ATOM     16  C   UNL A   1      33.829  27.431  25.964  1.00  0.00     0.033 C 
ATOM     17  C   UNL A   1      31.710  26.532  26.478  1.00  0.00     0.087 C 
ATOM     18  C   UNL A   1      33.900  26.121  25.696  1.00  0.00    -0.012 C 
BRANCH  15  19
ATOM     19  N   UNL A   1      31.923  28.651  25.173  1.00  0.00    -0.352 N 
ATOM     20  H   UNL A   1      32.007  29.643  25.389  1.00  0.00     0.345 HD
ATOM     21  H   UNL A   1      30.941  28.418  25.022  1.00  0.00     0.345 HD
ATOM     22  H   UNL A   1      32.455  28.438  24.330  1.00  0.00     0.345 HD
ENDBRANCH  15  19
ENDBRANCH  11  14
ENDBRANCH   9  10
ENDBRANCH   8   9
BRANCH   8  23
ATOM     23  O   UNL A   1      33.868  20.554  24.508  1.00  0.00    -0.380 OA
ATOM     24  H   UNL A   1      33.028  20.291  24.917  1.00  0.00     0.211 HD
ENDBRANCH   8  23
ENDBRANCH   6   8
ENDBRANCH   5   6
ENDBRANCH   4   5
ENDBRANCH   3   4
ENDBRANCH   2   3
ENDBRANCH   1   2
BRANCH   1  25
ATOM     25  C   UNL A   1      41.621  21.335  26.952  1.00  0.00     0.188 C 
BRANCH  25  26
ATOM     26  O   UNL A   1      42.220  21.236  25.673  1.00  0.00    -0.376 OA
BRANCH  26  27
ATOM     27  C   UNL A   1      43.642  21.386  25.648  1.00  0.00     0.202 C 
BRANCH  27  28
ATOM     28  C   UNL A   1      44.235  22.402  24.649  1.00  0.00     0.261 C 
BRANCH  28  29
ATOM     29  O   UNL A   1      43.607  23.697  24.628  1.00  0.00    -0.460 OA
BRANCH  29  30
ATOM     30  C   UNL A   1      44.352  24.743  25.052  1.00  0.00     0.338 C 
ATOM     31  O   UNL A   1      45.430  25.100  24.618  1.00  0.00    -0.246 OA
BRANCH  30  32
ATOM     32  C   UNL A   1      43.525  25.542  25.986  1.00  0.00     0.060 A 
ATOM     33  C   UNL A   1      43.867  26.885  26.197  1.00  0.00     0.016 A 
ATOM     34  C   UNL A   1      42.431  24.982  26.649  1.00  0.00     0.016 A 
ATOM     35  C   UNL A   1      43.139  27.661  27.099  1.00  0.00     0.010 A 
ATOM     36  C   UNL A   1      41.716  25.755  27.573  1.00  0.00     0.010 A 
ATOM     37  C   UNL A   1      42.091  27.087  27.829  1.00  0.00    -0.014 A 
BRANCH  37  38
ATOM     38  C   UNL A   1      41.554  27.811  29.010  1.00  0.00     0.031 A 
ATOM     39  C   UNL A   1      42.283  27.672  30.320  1.00  0.00     0.074 A 
ATOM     40  C   UNL A   1      40.483  28.619  28.921  1.00  0.00     0.049 A 
ATOM     41  N   UNL A   1      42.029  28.222  31.481  1.00  0.00    -0.248 NA
ATOM     42  C   UNL A   1      43.460  26.790  30.317  1.00  0.00     0.031 C 
ATOM     43  C   UNL A   1      39.710  28.871  27.708  1.00  0.00     0.029 A 
ATOM     44  N   UNL A   1      39.863  29.380  29.882  1.00  0.00    -0.354 N 
ATOM     45  C   UNL A   1      43.013  27.753  32.342  1.00  0.00     0.074 A 
ATOM     46  C   UNL A   1      43.845  26.846  31.582  1.00  0.00     0.031 C 
ATOM     47  C   UNL A   1      38.712  29.724  27.998  1.00  0.00     0.029 A 
ATOM     48  C   UNL A   1      38.764  30.062  29.421  1.00  0.00     0.049 A 
ATOM     49  H   UNL A   1      40.178  29.433  30.814  1.00  0.00     0.167 HD
ATOM     50  C   UNL A   1      43.215  28.058  33.646  1.00  0.00     0.037 A 
ATOM     51  C   UNL A   1      37.897  30.858  30.076  1.00  0.00     0.037 A 
ATOM     52  C   UNL A   1      42.385  28.954  34.408  1.00  0.00     0.049 A 
ATOM     53  C   UNL A   1      38.108  31.138  31.544  1.00  0.00     0.074 A 
ATOM     54  C   UNL A   1      42.514  29.334  35.732  1.00  0.00     0.029 A 
ATOM     55  N   UNL A   1      41.264  29.602  33.912  1.00  0.00    -0.354 N 
ATOM     56  N   UNL A   1      39.058  30.716  32.343  1.00  0.00    -0.248 NA
ATOM     57  C   UNL A   1      37.128  32.020  32.197  1.00  0.00     0.031 C 
ATOM     58  C   UNL A   1      41.439  30.172  36.053  1.00  0.00     0.029 A 
ATOM     59  C   UNL A   1      40.676  30.362  34.911  1.00  0.00     0.049 A 
ATOM     60  H   UNL A   1      40.933  29.532  32.987  1.00  0.00     0.167 HD
ATOM     61  C   UNL A   1      38.811  31.304  33.579  1.00  0.00     0.074 A 
ATOM     62  C   UNL A   1      37.628  32.125  33.419  1.00  0.00     0.031 C 
ATOM     63  C   UNL A   1      39.502  31.179  34.740  1.00  0.00     0.037 A 
BRANCH  50  64
ATOM     64  C   UNL A   1      44.366  27.385  34.336  1.00  0.00     0.064 A 
ATOM     65  C   UNL A   1      44.228  26.134  34.954  1.00  0.00     0.173 A 
ATOM     66  C   UNL A   1      45.626  28.002  34.374  1.00  0.00     0.173 A 
ATOM     67  F   UNL A   1      43.039  25.512  34.962  1.00  0.00    -0.203 F 
ATOM     68  C   UNL A   1      45.301  25.539  35.614  1.00  0.00     0.198 A 
ATOM     69  C   UNL A   1      46.704  27.389  35.008  1.00  0.00     0.198 A 
ATOM     70  F   UNL A   1      45.813  29.198  33.798  1.00  0.00    -0.203 F 
ATOM     71  F   UNL A   1      45.130  24.370  36.249  1.00  0.00    -0.200 F 
ATOM     72  C   UNL A   1      46.538  26.164  35.635  1.00  0.00     0.200 A 
ATOM     73  F   UNL A   1      47.902  27.990  35.018  1.00  0.00    -0.200 F 
ATOM     74  F   UNL A   1      47.569  25.590  36.270  1.00  0.00    -0.200 F 
ENDBRANCH  50  64
BRANCH  51  75
ATOM     75  C   UNL A   1      36.743  31.456  29.353  1.00  0.00     0.064 A 
ATOM     76  C   UNL A   1      35.660  30.671  28.936  1.00  0.00     0.173 A 
ATOM     77  C   UNL A   1      36.718  32.822  29.036  1.00  0.00     0.173 A 
ATOM     78  F   UNL A   1      35.654  29.353  29.186  1.00  0.00    -0.203 F 
ATOM     79  C   UNL A   1      34.603  31.224  28.215  1.00  0.00     0.198 A 
ATOM     80  C   UNL A   1      35.648  33.381  28.340  1.00  0.00     0.198 A 
ATOM     81  F   UNL A   1      37.735  33.616  29.402  1.00  0.00    -0.203 F 
ATOM     82  F   UNL A   1      33.607  30.441  27.783  1.00  0.00    -0.200 F 
ATOM     83  C   UNL A   1      34.595  32.580  27.924  1.00  0.00     0.200 A 
ATOM     84  F   UNL A   1      35.642  34.693  28.064  1.00  0.00    -0.200 F 
ATOM     85  F   UNL A   1      33.581  33.112  27.228  1.00  0.00    -0.200 F 
ENDBRANCH  51  75
BRANCH  63  86
ATOM     86  C   UNL A   1      39.024  31.982  35.918  1.00  0.00     0.064 A 
ATOM     87  C   UNL A   1      38.190  31.432  36.903  1.00  0.00     0.173 A 
ATOM     88  C   UNL A   1      39.424  33.320  36.071  1.00  0.00     0.173 A 
ATOM     89  F   UNL A   1      37.770  30.162  36.800  1.00  0.00    -0.203 F 
ATOM     90  C   UNL A   1      37.743  32.201  37.975  1.00  0.00     0.198 A 
ATOM     91  C   UNL A   1      39.003  34.075  37.163  1.00  0.00     0.198 A 
ATOM     92  F   UNL A   1      40.230  33.893  35.166  1.00  0.00    -0.203 F 
ATOM     93  F   UNL A   1      36.899  31.671  38.871  1.00  0.00    -0.200 F 
ATOM     94  C   UNL A   1      38.153  33.519  38.107  1.00  0.00     0.200 A 
ATOM     95  F   UNL A   1      39.414  35.344  37.296  1.00  0.00    -0.200 F 
ATOM     96  F   UNL A   1      37.723  34.258  39.140  1.00  0.00    -0.200 F 
ENDBRANCH  63  86
ENDBRANCH  37  38
ENDBRANCH  30  32
ENDBRANCH  29  30
ENDBRANCH  28  29
ENDBRANCH  27  28
ENDBRANCH  26  27
ENDBRANCH  25  26
ENDBRANCH   1  25
TORSDOF 22
ENDMDL
MODEL 3
REMARK VINA RESULT:      -9.9      4.544      7.279
REMARK SMILES [NH3+][C@@H]1C=C[C@H](C(=O)NC[C@H](O)C(=O)OCCOCCOCCOC(=O)c2ccc(-c3c4nc(c(-c5c(F)c(F)c(F)c(F)c5F)c5ccc([nH]5)c(-c5c(F)c(F)c(F)c(F)c5F)c5nc(c(-c6c(F)c(F)c(F)c(F)c6F)c6ccc3[nH]6)C=C5)C=C4)cc2)C1
REMARK SMILES IDX 18 1 17 2 16 3 15 4 14 5 12 6 13 7 10 8 9 9 8 10 6 11 7 12
REMARK SMILES IDX 5 14 2 15 3 16 89 17 4 18 1 19 11 23 19 25 20 26 21 27 22 28
REMARK SMILES IDX 23 29 24 30 25 31 26 32 27 33 88 34 28 35 87 36 29 37 30 38
REMARK SMILES IDX 31 39 81 40 32 41 86 42 80 43 82 44 33 45 85 46 79 47 78 48
REMARK SMILES IDX 34 50 66 51 46 52 65 53 47 54 50 55 64 56 83 57 48 58 49 59
REMARK SMILES IDX 63 61 84 62 51 63 35 64 36 65 44 66 37 67 38 68 42 69 45 70
REMARK SMILES IDX 39 71 40 72 43 73 41 74 67 75 68 76 76 77 69 78 70 79 74 80
REMARK SMILES IDX 77 81 71 82 72 83 75 84 73 85 52 86 53 87 61 88 54 89 55 90
REMARK SMILES IDX 59 91 62 92 56 93 57 94 60 95 58 96
REMARK H PARENT 8 13 1 20 1 21 1 22 11 24 82 49 50 60
REMARK Flexibility Score: inf
ROOT
ATOM      1  C   UNL A   1      33.368  20.242  24.277  1.00  0.00     0.188 C 
ENDROOT
BRANCH   1   2
ATOM      2  O   UNL A   1      32.035  20.496  24.702  1.00  0.00    -0.376 OA
BRANCH   2   3
ATOM      3  C   UNL A   1      31.808  21.386  25.794  1.00  0.00     0.202 C 
BRANCH   3   4
ATOM      4  C   UNL A   1      32.140  22.873  25.606  1.00  0.00     0.261 C 
BRANCH   4   5
ATOM      5  O   UNL A   1      31.528  23.714  26.601  1.00  0.00    -0.461 OA
BRANCH   5   6
ATOM      6  C   UNL A   1      30.451  24.450  26.202  1.00  0.00     0.336 C 
ATOM      7  O   UNL A   1      29.448  24.656  26.871  1.00  0.00    -0.249 OA
BRANCH   6   8
ATOM      8  C   UNL A   1      30.720  25.091  24.831  1.00  0.00     0.243 C 
BRANCH   8   9
ATOM      9  C   UNL A   1      31.029  26.583  25.024  1.00  0.00     0.159 C 
BRANCH   9  10
ATOM     10  N   UNL A   1      31.012  26.958  26.432  1.00  0.00    -0.352 N 
ATOM     11  C   UNL A   1      31.577  28.046  27.043  1.00  0.00     0.227 C 
ATOM     12  O   UNL A   1      31.605  28.057  28.273  1.00  0.00    -0.274 OA
ATOM     13  H   UNL A   1      30.527  26.345  27.029  1.00  0.00     0.163 HD
BRANCH  11  14
ATOM     14  C   UNL A   1      32.149  29.166  26.167  1.00  0.00     0.107 C 
ATOM     15  C   UNL A   1      34.336  30.014  26.941  1.00  0.00     0.205 C 
ATOM     16  C   UNL A   1      33.224  30.948  27.276  1.00  0.00     0.033 C 
ATOM     17  C   UNL A   1      33.666  29.050  25.949  1.00  0.00     0.087 C 
ATOM     18  C   UNL A   1      32.035  30.496  26.858  1.00  0.00    -0.012 C 
BRANCH  15  19
ATOM     19  N   UNL A   1      34.797  29.367  28.153  1.00  0.00    -0.352 N 
ATOM     20  H   UNL A   1      34.099  28.693  28.465  1.00  0.00     0.345 HD
ATOM     21  H   UNL A   1      34.941  30.068  28.880  1.00  0.00     0.345 HD
ATOM     22  H   UNL A   1      35.676  28.885  27.967  1.00  0.00     0.345 HD
ENDBRANCH  15  19
ENDBRANCH  11  14
ENDBRANCH   9  10
ENDBRANCH   8   9
BRANCH   8  23
ATOM     23  O   UNL A   1      29.658  24.953  23.889  1.00  0.00    -0.380 OA
ATOM     24  H   UNL A   1      28.985  25.632  24.058  1.00  0.00     0.211 HD
ENDBRANCH   8  23
ENDBRANCH   6   8
ENDBRANCH   5   6
ENDBRANCH   4   5
ENDBRANCH   3   4
ENDBRANCH   2   3
ENDBRANCH   1   2
BRANCH   1  25
ATOM     25  C   UNL A   1      34.534  20.559  25.232  1.00  0.00     0.188 C 
BRANCH  25  26
ATOM     26  O   UNL A   1      35.735  19.864  24.953  1.00  0.00    -0.376 OA
BRANCH  26  27
ATOM     27  C   UNL A   1      36.928  20.651  25.006  1.00  0.00     0.202 C 
BRANCH  27  28
ATOM     28  C   UNL A   1      38.247  19.926  25.348  1.00  0.00     0.261 C 
BRANCH  28  29
ATOM     29  O   UNL A   1      39.420  20.759  25.405  1.00  0.00    -0.460 OA
BRANCH  29  30
ATOM     30  C   UNL A   1      40.213  20.621  26.492  1.00  0.00     0.338 C 
ATOM     31  O   UNL A   1      40.779  19.611  26.863  1.00  0.00    -0.246 OA
BRANCH  30  32
ATOM     32  C   UNL A   1      40.482  21.973  27.034  1.00  0.00     0.060 A 
ATOM     33  C   UNL A   1      39.746  23.053  26.527  1.00  0.00     0.016 A 
ATOM     34  C   UNL A   1      41.446  22.181  28.023  1.00  0.00     0.016 A 
ATOM     35  C   UNL A   1      39.997  24.347  26.981  1.00  0.00     0.010 A 
ATOM     36  C   UNL A   1      41.715  23.485  28.460  1.00  0.00     0.010 A 
ATOM     37  C   UNL A   1      41.017  24.577  27.913  1.00  0.00    -0.014 A 
BRANCH  37  38
ATOM     38  C   UNL A   1      41.496  25.967  28.129  1.00  0.00     0.031 A 
ATOM     39  C   UNL A   1      42.862  26.336  27.616  1.00  0.00     0.074 A 
ATOM     40  C   UNL A   1      40.724  26.900  28.715  1.00  0.00     0.049 A 
ATOM     41  N   UNL A   1      43.489  27.484  27.657  1.00  0.00    -0.248 NA
ATOM     42  C   UNL A   1      43.623  25.258  26.964  1.00  0.00     0.031 C 
ATOM     43  C   UNL A   1      39.372  26.685  29.223  1.00  0.00     0.029 A 
ATOM     44  N   UNL A   1      40.979  28.225  28.976  1.00  0.00    -0.354 N 
ATOM     45  C   UNL A   1      44.714  27.266  27.040  1.00  0.00     0.074 A 
ATOM     46  C   UNL A   1      44.758  25.869  26.666  1.00  0.00     0.031 C 
ATOM     47  C   UNL A   1      38.916  27.839  29.743  1.00  0.00     0.029 A 
ATOM     48  C   UNL A   1      39.951  28.866  29.623  1.00  0.00     0.049 A 
ATOM     49  H   UNL A   1      41.819  28.672  28.724  1.00  0.00     0.167 HD
ATOM     50  C   UNL A   1      45.710  28.150  26.795  1.00  0.00     0.037 A 
ATOM     51  C   UNL A   1      39.863  30.133  30.073  1.00  0.00     0.037 A 
ATOM     52  C   UNL A   1      45.674  29.538  27.172  1.00  0.00     0.049 A 
ATOM     53  C   UNL A   1      41.010  31.086  29.840  1.00  0.00     0.074 A 
ATOM     54  C   UNL A   1      46.629  30.516  26.960  1.00  0.00     0.029 A 
ATOM     55  N   UNL A   1      44.627  30.143  27.852  1.00  0.00    -0.354 N 
ATOM     56  N   UNL A   1      42.151  30.880  29.228  1.00  0.00    -0.248 NA
ATOM     57  C   UNL A   1      40.846  32.455  30.351  1.00  0.00     0.031 C 
ATOM     58  C   UNL A   1      46.184  31.701  27.557  1.00  0.00     0.029 A 
ATOM     59  C   UNL A   1      44.923  31.476  28.088  1.00  0.00     0.049 A 
ATOM     60  H   UNL A   1      43.796  29.692  28.126  1.00  0.00     0.167 HD
ATOM     61  C   UNL A   1      42.824  32.097  29.251  1.00  0.00     0.074 A 
ATOM     62  C   UNL A   1      41.956  33.039  29.926  1.00  0.00     0.031 C 
ATOM     63  C   UNL A   1      44.049  32.407  28.756  1.00  0.00     0.037 A 
BRANCH  50  64
ATOM     64  C   UNL A   1      46.939  27.624  26.111  1.00  0.00     0.064 A 
ATOM     65  C   UNL A   1      48.016  27.091  26.834  1.00  0.00     0.173 A 
ATOM     66  C   UNL A   1      47.036  27.652  24.712  1.00  0.00     0.173 A 
ATOM     67  F   UNL A   1      47.981  27.060  28.175  1.00  0.00    -0.203 F 
ATOM     68  C   UNL A   1      49.160  26.635  26.182  1.00  0.00     0.198 A 
ATOM     69  C   UNL A   1      48.168  27.166  24.062  1.00  0.00     0.198 A 
ATOM     70  F   UNL A   1      46.034  28.151  23.972  1.00  0.00    -0.203 F 
ATOM     71  F   UNL A   1      50.201  26.184  26.896  1.00  0.00    -0.200 F 
ATOM     72  C   UNL A   1      49.232  26.667  24.798  1.00  0.00     0.200 A 
ATOM     73  F   UNL A   1      48.232  27.188  22.724  1.00  0.00    -0.200 F 
ATOM     74  F   UNL A   1      50.333  26.227  24.173  1.00  0.00    -0.200 F 
ENDBRANCH  50  64
BRANCH  51  75
ATOM     75  C   UNL A   1      38.642  30.584  30.791  1.00  0.00     0.064 A 
ATOM     76  C   UNL A   1      37.522  31.058  30.095  1.00  0.00     0.173 A 
ATOM     77  C   UNL A   1      38.584  30.578  32.193  1.00  0.00     0.173 A 
ATOM     78  F   UNL A   1      37.542  31.115  28.755  1.00  0.00    -0.203 F 
ATOM     79  C   UNL A   1      36.397  31.526  30.772  1.00  0.00     0.198 A 
ATOM     80  C   UNL A   1      37.448  31.019  32.869  1.00  0.00     0.198 A 
ATOM     81  F   UNL A   1      39.632  30.144  32.907  1.00  0.00    -0.203 F 
ATOM     82  F   UNL A   1      35.362  32.024  30.083  1.00  0.00    -0.200 F 
ATOM     83  C   UNL A   1      36.358  31.500  32.158  1.00  0.00     0.200 A 
ATOM     84  F   UNL A   1      37.413  30.988  34.208  1.00  0.00    -0.200 F 
ATOM     85  F   UNL A   1      35.278  31.952  32.809  1.00  0.00    -0.200 F 
ENDBRANCH  51  75
BRANCH  63  86
ATOM     86  C   UNL A   1      44.505  33.834  28.884  1.00  0.00     0.064 A 
ATOM     87  C   UNL A   1      44.251  34.788  27.887  1.00  0.00     0.173 A 
ATOM     88  C   UNL A   1      45.192  34.256  30.034  1.00  0.00     0.173 A 
ATOM     89  F   UNL A   1      43.607  34.435  26.764  1.00  0.00    -0.203 F 
ATOM     90  C   UNL A   1      44.701  36.099  28.018  1.00  0.00     0.198 A 
ATOM     91  C   UNL A   1      45.610  35.577  30.177  1.00  0.00     0.198 A 
ATOM     92  F   UNL A   1      45.452  33.389  31.023  1.00  0.00    -0.203 F 
ATOM     93  F   UNL A   1      44.498  36.977  27.026  1.00  0.00    -0.200 F 
ATOM     94  C   UNL A   1      45.375  36.494  29.164  1.00  0.00     0.200 A 
ATOM     95  F   UNL A   1      46.247  35.960  31.292  1.00  0.00    -0.200 F 
ATOM     96  F   UNL A   1      45.806  37.757  29.289  1.00  0.00    -0.200 F 
ENDBRANCH  63  86
ENDBRANCH  37  38
ENDBRANCH  30  32
ENDBRANCH  29  30
ENDBRANCH  28  29
ENDBRANCH  27  28
ENDBRANCH  26  27
ENDBRANCH  25  26
ENDBRANCH   1  25
TORSDOF 22
ENDMDL
