MODEL 1
REMARK VINA RESULT:      -9.8      0.000      0.000
REMARK SMILES C[C@H](CC(=O)NC[C@@]1(C)CCCO1)CC(=O)OCCOCCOCCOC(=O)c1ccc(-c2c3nc(c(-c4c(F)c(F)c(F)c(F)c4F)c4ccc([nH]4)c(-c4c(F)c(F)c(F)c(F)c4F)c4nc(c(-c5c(F)c(F)c(F)c(F)c5F)c5ccc2[nH]5)C=C4)C=C3)cc1
REMARK SMILES IDX 20 1 19 2 18 3 17 4 15 5 16 6 14 7 2 8 1 9 3 10 4 11 5 12
REMARK SMILES IDX 6 13 7 15 8 16 9 17 10 18 13 19 11 20 12 21 21 22 22 23
REMARK SMILES IDX 23 24 24 25 25 26 26 27 27 28 28 29 29 30 30 31 91 32 31 33
REMARK SMILES IDX 90 34 32 35 33 36 34 37 84 38 35 39 89 40 83 41 85 42 36 43
REMARK SMILES IDX 88 44 82 45 81 46 37 48 69 49 49 50 68 51 50 52 53 53 67 54
REMARK SMILES IDX 86 55 51 56 52 57 66 59 87 60 54 61 38 62 39 63 47 64 40 65
REMARK SMILES IDX 41 66 45 67 48 68 42 69 43 70 46 71 44 72 70 73 71 74 79 75
REMARK SMILES IDX 72 76 73 77 77 78 80 79 74 80 75 81 78 82 76 83 55 84 56 85
REMARK SMILES IDX 64 86 57 87 58 88 62 89 65 90 59 91 60 92 63 93 61 94
REMARK H PARENT 6 14 85 47 53 58
REMARK Flexibility Score: inf
ROOT
ATOM      1  O   UNL A   1      39.515  22.689  26.493  1.00  0.00    -0.376 OA
ENDROOT
BRANCH   1   2
ATOM      2  C   UNL A   1      38.367  22.183  25.801  1.00  0.00     0.202 C 
BRANCH   2   3
ATOM      3  C   UNL A   1      37.180  23.149  25.654  1.00  0.00     0.261 C 
BRANCH   3   4
ATOM      4  O   UNL A   1      36.277  22.737  24.608  1.00  0.00    -0.463 OA
BRANCH   4   5
ATOM      5  C   UNL A   1      35.264  23.598  24.327  1.00  0.00     0.306 C 
ATOM      6  O   UNL A   1      34.817  23.813  23.207  1.00  0.00    -0.252 OA
BRANCH   5   7
ATOM      7  C   UNL A   1      34.639  24.166  25.586  1.00  0.00     0.126 C 
BRANCH   7   8
ATOM      8  C   UNL A   1      33.256  24.821  25.483  1.00  0.00     0.006 C 
ATOM      9  C   UNL A   1      33.316  26.269  26.005  1.00  0.00     0.009 C 
BRANCH   8  10
ATOM     10  C   UNL A   1      32.088  23.991  26.045  1.00  0.00     0.104 C 
BRANCH  10  11
ATOM     11  C   UNL A   1      32.376  22.674  26.738  1.00  0.00     0.220 C 
ATOM     12  O   UNL A   1      32.527  22.633  27.962  1.00  0.00    -0.275 OA
ATOM     13  N   UNL A   1      32.438  21.502  26.064  1.00  0.00    -0.353 N 
ATOM     14  H   UNL A   1      32.607  20.721  26.639  1.00  0.00     0.163 HD
BRANCH  13  15
ATOM     15  C   UNL A   1      32.303  21.173  24.651  1.00  0.00     0.151 C 
BRANCH  15  16
ATOM     16  C   UNL A   1      32.648  19.695  24.286  1.00  0.00     0.083 C 
ATOM     17  C   UNL A   1      32.211  19.302  22.867  1.00  0.00     0.044 C 
ATOM     18  C   UNL A   1      34.134  19.405  24.520  1.00  0.00     0.039 C 
ATOM     19  O   UNL A   1      31.958  18.782  25.171  1.00  0.00    -0.373 OA
ATOM     20  C   UNL A   1      34.150  17.935  24.863  1.00  0.00     0.031 C 
ATOM     21  C   UNL A   1      32.871  17.785  25.653  1.00  0.00     0.161 C 
ENDBRANCH  15  16
ENDBRANCH  13  15
ENDBRANCH  10  11
ENDBRANCH   8  10
ENDBRANCH   7   8
ENDBRANCH   5   7
ENDBRANCH   4   5
ENDBRANCH   3   4
ENDBRANCH   2   3
ENDBRANCH   1   2
BRANCH   1  22
ATOM     22  C   UNL A   1      40.386  21.726  27.070  1.00  0.00     0.188 C 
BRANCH  22  23
ATOM     23  C   UNL A   1      41.579  21.269  26.219  1.00  0.00     0.188 C 
BRANCH  23  24
ATOM     24  O   UNL A   1      41.571  19.898  25.838  1.00  0.00    -0.376 OA
BRANCH  24  25
ATOM     25  C   UNL A   1      42.538  19.060  26.483  1.00  0.00     0.202 C 
BRANCH  25  26
ATOM     26  C   UNL A   1      43.355  18.153  25.544  1.00  0.00     0.261 C 
BRANCH  26  27
ATOM     27  O   UNL A   1      44.719  18.586  25.359  1.00  0.00    -0.460 OA
BRANCH  27  28
ATOM     28  C   UNL A   1      44.978  19.370  24.287  1.00  0.00     0.338 C 
ATOM     29  O   UNL A   1      44.983  19.027  23.118  1.00  0.00    -0.246 OA
BRANCH  28  30
ATOM     30  C   UNL A   1      44.987  20.785  24.745  1.00  0.00     0.060 A 
ATOM     31  C   UNL A   1      44.532  21.773  23.859  1.00  0.00     0.016 A 
ATOM     32  C   UNL A   1      45.340  21.131  26.053  1.00  0.00     0.016 A 
ATOM     33  C   UNL A   1      44.449  23.106  24.273  1.00  0.00     0.010 A 
ATOM     34  C   UNL A   1      45.265  22.464  26.463  1.00  0.00     0.010 A 
ATOM     35  C   UNL A   1      44.840  23.463  25.571  1.00  0.00    -0.014 A 
BRANCH  35  36
ATOM     36  C   UNL A   1      44.959  24.890  25.961  1.00  0.00     0.031 A 
ATOM     37  C   UNL A   1      46.311  25.541  25.883  1.00  0.00     0.074 A 
ATOM     38  C   UNL A   1      43.902  25.595  26.401  1.00  0.00     0.049 A 
ATOM     39  N   UNL A   1      46.683  26.737  26.263  1.00  0.00    -0.248 NA
ATOM     40  C   UNL A   1      47.391  24.731  25.299  1.00  0.00     0.031 C 
ATOM     41  C   UNL A   1      42.531  25.102  26.490  1.00  0.00     0.029 A 
ATOM     42  N   UNL A   1      43.829  26.883  26.876  1.00  0.00    -0.354 N 
ATOM     43  C   UNL A   1      48.037  26.821  25.970  1.00  0.00     0.074 A 
ATOM     44  C   UNL A   1      48.428  25.548  25.401  1.00  0.00     0.031 C 
ATOM     45  C   UNL A   1      41.754  26.069  27.009  1.00  0.00     0.029 A 
ATOM     46  C   UNL A   1      42.579  27.235  27.324  1.00  0.00     0.049 A 
ATOM     47  H   UNL A   1      44.600  27.496  26.893  1.00  0.00     0.167 HD
ATOM     48  C   UNL A   1      48.878  27.865  26.152  1.00  0.00     0.037 A 
ATOM     49  C   UNL A   1      42.161  28.355  27.948  1.00  0.00     0.037 A 
ATOM     50  C   UNL A   1      48.498  29.130  26.719  1.00  0.00     0.049 A 
ATOM     51  C   UNL A   1      43.142  29.467  28.232  1.00  0.00     0.074 A 
ATOM     52  C   UNL A   1      49.277  30.257  26.908  1.00  0.00     0.029 A 
ATOM     53  N   UNL A   1      47.235  29.430  27.203  1.00  0.00    -0.354 N 
ATOM     54  N   UNL A   1      44.411  29.553  27.919  1.00  0.00    -0.248 NA
ATOM     55  C   UNL A   1      42.630  30.634  28.968  1.00  0.00     0.031 C 
ATOM     56  C   UNL A   1      48.501  31.221  27.559  1.00  0.00     0.029 A 
ATOM     57  C   UNL A   1      47.224  30.712  27.728  1.00  0.00     0.049 A 
ATOM     58  H   UNL A   1      46.460  28.823  27.177  1.00  0.00     0.167 HD
ATOM     59  C   UNL A   1      44.842  30.786  28.398  1.00  0.00     0.074 A 
ATOM     60  C   UNL A   1      43.696  31.421  29.012  1.00  0.00     0.031 C 
ATOM     61  C   UNL A   1      46.079  31.339  28.336  1.00  0.00     0.037 A 
BRANCH  48  62
ATOM     62  C   UNL A   1      50.311  27.672  25.757  1.00  0.00     0.064 A 
ATOM     63  C   UNL A   1      50.735  27.825  24.429  1.00  0.00     0.173 A 
ATOM     64  C   UNL A   1      51.276  27.371  26.728  1.00  0.00     0.173 A 
ATOM     65  F   UNL A   1      49.845  28.097  23.463  1.00  0.00    -0.203 F 
ATOM     66  C   UNL A   1      52.074  27.662  24.085  1.00  0.00     0.198 A 
ATOM     67  C   UNL A   1      52.618  27.236  26.385  1.00  0.00     0.198 A 
ATOM     68  F   UNL A   1      50.919  27.217  28.012  1.00  0.00    -0.203 F 
ATOM     69  F   UNL A   1      52.452  27.774  22.804  1.00  0.00    -0.200 F 
ATOM     70  C   UNL A   1      53.015  27.376  25.063  1.00  0.00     0.200 A 
ATOM     71  F   UNL A   1      53.527  26.968  27.332  1.00  0.00    -0.200 F 
ATOM     72  F   UNL A   1      54.304  27.228  24.731  1.00  0.00    -0.200 F 
ENDBRANCH  48  62
BRANCH  49  73
ATOM     73  C   UNL A   1      40.747  28.477  28.392  1.00  0.00     0.064 A 
ATOM     74  C   UNL A   1      39.766  29.019  27.548  1.00  0.00     0.173 A 
ATOM     75  C   UNL A   1      40.358  28.098  29.685  1.00  0.00     0.173 A 
ATOM     76  F   UNL A   1      40.098  29.429  26.316  1.00  0.00    -0.203 F 
ATOM     77  C   UNL A   1      38.455  29.191  27.988  1.00  0.00     0.198 A 
ATOM     78  C   UNL A   1      39.040  28.247  30.114  1.00  0.00     0.198 A 
ATOM     79  F   UNL A   1      41.259  27.587  30.536  1.00  0.00    -0.203 F 
ATOM     80  F   UNL A   1      37.550  29.761  27.180  1.00  0.00    -0.200 F 
ATOM     81  C   UNL A   1      38.091  28.801  29.267  1.00  0.00     0.200 A 
ATOM     82  F   UNL A   1      38.692  27.863  31.350  1.00  0.00    -0.200 F 
ATOM     83  F   UNL A   1      36.832  28.971  29.690  1.00  0.00    -0.200 F 
ENDBRANCH  49  73
BRANCH  61  84
ATOM     84  C   UNL A   1      46.265  32.706  28.928  1.00  0.00     0.064 A 
ATOM     85  C   UNL A   1      46.749  32.881  30.233  1.00  0.00     0.173 A 
ATOM     86  C   UNL A   1      46.019  33.855  28.161  1.00  0.00     0.173 A 
ATOM     87  F   UNL A   1      46.986  31.815  31.012  1.00  0.00    -0.203 F 
ATOM     88  C   UNL A   1      46.969  34.154  30.751  1.00  0.00     0.198 A 
ATOM     89  C   UNL A   1      46.266  35.126  28.672  1.00  0.00     0.198 A 
ATOM     90  F   UNL A   1      45.562  33.743  26.904  1.00  0.00    -0.203 F 
ATOM     91  F   UNL A   1      47.402  34.298  32.012  1.00  0.00    -0.200 F 
ATOM     92  C   UNL A   1      46.736  35.275  29.967  1.00  0.00     0.200 A 
ATOM     93  F   UNL A   1      46.055  36.207  27.908  1.00  0.00    -0.200 F 
ATOM     94  F   UNL A   1      46.963  36.499  30.463  1.00  0.00    -0.200 F 
ENDBRANCH  61  84
ENDBRANCH  35  36
ENDBRANCH  28  30
ENDBRANCH  27  28
ENDBRANCH  26  27
ENDBRANCH  25  26
ENDBRANCH  24  25
ENDBRANCH  23  24
ENDBRANCH  22  23
ENDBRANCH   1  22
TORSDOF 22
ENDMDL
MODEL 2
REMARK VINA RESULT:      -9.5      0.963      7.385
REMARK SMILES C[C@H](CC(=O)NC[C@@]1(C)CCCO1)CC(=O)OCCOCCOCCOC(=O)c1ccc(-c2c3nc(c(-c4c(F)c(F)c(F)c(F)c4F)c4ccc([nH]4)c(-c4c(F)c(F)c(F)c(F)c4F)c4nc(c(-c5c(F)c(F)c(F)c(F)c5F)c5ccc2[nH]5)C=C4)C=C3)cc1
REMARK SMILES IDX 20 1 19 2 18 3 17 4 15 5 16 6 14 7 2 8 1 9 3 10 4 11 5 12
REMARK SMILES IDX 6 13 7 15 8 16 9 17 10 18 13 19 11 20 12 21 21 22 22 23
REMARK SMILES IDX 23 24 24 25 25 26 26 27 27 28 28 29 29 30 30 31 91 32 31 33
REMARK SMILES IDX 90 34 32 35 33 36 34 37 84 38 35 39 89 40 83 41 85 42 36 43
REMARK SMILES IDX 88 44 82 45 81 46 37 48 69 49 49 50 68 51 50 52 53 53 67 54
REMARK SMILES IDX 86 55 51 56 52 57 66 59 87 60 54 61 38 62 39 63 47 64 40 65
REMARK SMILES IDX 41 66 45 67 48 68 42 69 43 70 46 71 44 72 70 73 71 74 79 75
REMARK SMILES IDX 72 76 73 77 77 78 80 79 74 80 75 81 78 82 76 83 55 84 56 85
REMARK SMILES IDX 64 86 57 87 58 88 62 89 65 90 59 91 60 92 63 93 61 94
REMARK H PARENT 6 14 85 47 53 58
REMARK Flexibility Score: inf
ROOT
ATOM      1  O   UNL A   1      39.418  23.116  26.501  1.00  0.00    -0.376 OA
ENDROOT
BRANCH   1   2
ATOM      2  C   UNL A   1      38.409  23.058  25.486  1.00  0.00     0.202 C 
BRANCH   2   3
ATOM      3  C   UNL A   1      37.053  22.469  25.906  1.00  0.00     0.261 C 
BRANCH   3   4
ATOM      4  O   UNL A   1      36.201  23.461  26.516  1.00  0.00    -0.463 OA
BRANCH   4   5
ATOM      5  C   UNL A   1      34.868  23.198  26.481  1.00  0.00     0.306 C 
ATOM      6  O   UNL A   1      34.246  22.618  27.362  1.00  0.00    -0.252 OA
BRANCH   5   7
ATOM      7  C   UNL A   1      34.195  23.836  25.282  1.00  0.00     0.126 C 
BRANCH   7   8
ATOM      8  C   UNL A   1      33.753  22.933  24.125  1.00  0.00     0.006 C 
ATOM      9  C   UNL A   1      34.250  23.508  22.785  1.00  0.00     0.009 C 
BRANCH   8  10
ATOM     10  C   UNL A   1      32.268  22.528  24.131  1.00  0.00     0.104 C 
BRANCH  10  11
ATOM     11  C   UNL A   1      31.706  21.779  25.323  1.00  0.00     0.220 C 
ATOM     12  O   UNL A   1      30.701  22.195  25.904  1.00  0.00    -0.275 OA
ATOM     13  N   UNL A   1      32.246  20.620  25.767  1.00  0.00    -0.353 N 
ATOM     14  H   UNL A   1      31.768  20.225  26.531  1.00  0.00     0.163 HD
BRANCH  13  15
ATOM     15  C   UNL A   1      33.400  19.844  25.332  1.00  0.00     0.151 C 
BRANCH  15  16
ATOM     16  C   UNL A   1      33.054  18.529  24.564  1.00  0.00     0.083 C 
ATOM     17  C   UNL A   1      32.355  18.777  23.220  1.00  0.00     0.044 C 
ATOM     18  C   UNL A   1      34.296  17.647  24.401  1.00  0.00     0.039 C 
ATOM     19  O   UNL A   1      32.136  17.720  25.336  1.00  0.00    -0.373 OA
ATOM     20  C   UNL A   1      33.727  16.249  24.378  1.00  0.00     0.031 C 
ATOM     21  C   UNL A   1      32.589  16.359  25.364  1.00  0.00     0.161 C 
ENDBRANCH  15  16
ENDBRANCH  13  15
ENDBRANCH  10  11
ENDBRANCH   8  10
ENDBRANCH   7   8
ENDBRANCH   5   7
ENDBRANCH   4   5
ENDBRANCH   3   4
ENDBRANCH   2   3
ENDBRANCH   1   2
BRANCH   1  22
ATOM     22  C   UNL A   1      40.007  21.880  26.885  1.00  0.00     0.188 C 
BRANCH  22  23
ATOM     23  C   UNL A   1      41.460  21.638  26.454  1.00  0.00     0.188 C 
BRANCH  23  24
ATOM     24  O   UNL A   1      41.682  20.467  25.679  1.00  0.00    -0.376 OA
BRANCH  24  25
ATOM     25  C   UNL A   1      42.411  19.415  26.325  1.00  0.00     0.202 C 
BRANCH  25  26
ATOM     26  C   UNL A   1      43.271  18.540  25.394  1.00  0.00     0.261 C 
BRANCH  26  27
ATOM     27  O   UNL A   1      44.602  19.055  25.179  1.00  0.00    -0.460 OA
BRANCH  27  28
ATOM     28  C   UNL A   1      44.767  19.937  24.166  1.00  0.00     0.338 C 
ATOM     29  O   UNL A   1      44.569  19.732  22.982  1.00  0.00    -0.246 OA
BRANCH  28  30
ATOM     30  C   UNL A   1      44.967  21.285  24.761  1.00  0.00     0.060 A 
ATOM     31  C   UNL A   1      44.592  22.406  24.006  1.00  0.00     0.016 A 
ATOM     32  C   UNL A   1      45.420  21.449  26.074  1.00  0.00     0.016 A 
ATOM     33  C   UNL A   1      44.689  23.689  24.554  1.00  0.00     0.010 A 
ATOM     34  C   UNL A   1      45.525  22.732  26.618  1.00  0.00     0.010 A 
ATOM     35  C   UNL A   1      45.180  23.861  25.856  1.00  0.00    -0.014 A 
BRANCH  35  36
ATOM     36  C   UNL A   1      45.488  25.215  26.378  1.00  0.00     0.031 A 
ATOM     37  C   UNL A   1      44.364  26.033  26.949  1.00  0.00     0.074 A 
ATOM     38  C   UNL A   1      46.731  25.729  26.328  1.00  0.00     0.049 A 
ATOM     39  N   UNL A   1      44.367  27.272  27.371  1.00  0.00    -0.248 NA
ATOM     40  C   UNL A   1      43.060  25.361  27.057  1.00  0.00     0.031 C 
ATOM     41  C   UNL A   1      47.916  25.033  25.838  1.00  0.00     0.029 A 
ATOM     42  N   UNL A   1      47.191  26.974  26.683  1.00  0.00    -0.354 N 
ATOM     43  C   UNL A   1      43.068  27.529  27.788  1.00  0.00     0.074 A 
ATOM     44  C   UNL A   1      42.299  26.326  27.550  1.00  0.00     0.031 C 
ATOM     45  C   UNL A   1      48.968  25.869  25.903  1.00  0.00     0.029 A 
ATOM     46  C   UNL A   1      48.522  27.169  26.403  1.00  0.00     0.049 A 
ATOM     47  H   UNL A   1      46.622  27.662  27.099  1.00  0.00     0.167 HD
ATOM     48  C   UNL A   1      42.563  28.663  28.328  1.00  0.00     0.037 A 
ATOM     49  C   UNL A   1      49.280  28.279  26.507  1.00  0.00     0.037 A 
ATOM     50  C   UNL A   1      43.319  29.862  28.565  1.00  0.00     0.049 A 
ATOM     51  C   UNL A   1      48.667  29.562  27.016  1.00  0.00     0.074 A 
ATOM     52  C   UNL A   1      42.897  31.046  29.140  1.00  0.00     0.029 A 
ATOM     53  N   UNL A   1      44.651  30.035  28.225  1.00  0.00    -0.354 N 
ATOM     54  N   UNL A   1      47.450  29.787  27.443  1.00  0.00    -0.248 NA
ATOM     55  C   UNL A   1      49.538  30.749  27.047  1.00  0.00     0.031 C 
ATOM     56  C   UNL A   1      43.957  31.956  29.098  1.00  0.00     0.029 A 
ATOM     57  C   UNL A   1      45.056  31.321  28.542  1.00  0.00     0.049 A 
ATOM     58  H   UNL A   1      45.225  29.345  27.819  1.00  0.00     0.167 HD
ATOM     59  C   UNL A   1      47.413  31.127  27.811  1.00  0.00     0.074 A 
ATOM     60  C   UNL A   1      48.735  31.664  27.571  1.00  0.00     0.031 C 
ATOM     61  C   UNL A   1      46.374  31.848  28.302  1.00  0.00     0.037 A 
BRANCH  48  62
ATOM     62  C   UNL A   1      41.105  28.670  28.675  1.00  0.00     0.064 A 
ATOM     63  C   UNL A   1      40.650  28.299  29.948  1.00  0.00     0.173 A 
ATOM     64  C   UNL A   1      40.157  29.092  27.732  1.00  0.00     0.173 A 
ATOM     65  F   UNL A   1      41.518  27.873  30.877  1.00  0.00    -0.203 F 
ATOM     66  C   UNL A   1      39.293  28.332  30.258  1.00  0.00     0.198 A 
ATOM     67  C   UNL A   1      38.804  29.150  28.054  1.00  0.00     0.198 A 
ATOM     68  F   UNL A   1      40.545  29.459  26.500  1.00  0.00    -0.203 F 
ATOM     69  F   UNL A   1      38.875  27.936  31.469  1.00  0.00    -0.200 F 
ATOM     70  C   UNL A   1      38.373  28.765  29.314  1.00  0.00     0.200 A 
ATOM     71  F   UNL A   1      37.919  29.577  27.144  1.00  0.00    -0.200 F 
ATOM     72  F   UNL A   1      37.069  28.804  29.618  1.00  0.00    -0.200 F 
ENDBRANCH  48  62
BRANCH  49  73
ATOM     73  C   UNL A   1      50.705  28.252  26.081  1.00  0.00     0.064 A 
ATOM     74  C   UNL A   1      51.056  28.259  24.724  1.00  0.00     0.173 A 
ATOM     75  C   UNL A   1      51.742  28.170  27.022  1.00  0.00     0.173 A 
ATOM     76  F   UNL A   1      50.098  28.300  23.786  1.00  0.00    -0.203 F 
ATOM     77  C   UNL A   1      52.388  28.170  24.325  1.00  0.00     0.198 A 
ATOM     78  C   UNL A   1      53.075  28.108  26.622  1.00  0.00     0.198 A 
ATOM     79  F   UNL A   1      51.459  28.147  28.333  1.00  0.00    -0.203 F 
ATOM     80  F   UNL A   1      52.692  28.124  23.020  1.00  0.00    -0.200 F 
ATOM     81  C   UNL A   1      53.397  28.099  25.273  1.00  0.00     0.200 A 
ATOM     82  F   UNL A   1      54.046  28.045  27.543  1.00  0.00    -0.200 F 
ATOM     83  F   UNL A   1      54.676  28.009  24.888  1.00  0.00    -0.200 F 
ENDBRANCH  49  73
BRANCH  61  84
ATOM     84  C   UNL A   1      46.618  33.292  28.633  1.00  0.00     0.064 A 
ATOM     85  C   UNL A   1      46.371  34.311  27.701  1.00  0.00     0.173 A 
ATOM     86  C   UNL A   1      47.041  33.667  29.917  1.00  0.00     0.173 A 
ATOM     87  F   UNL A   1      45.979  34.003  26.455  1.00  0.00    -0.203 F 
ATOM     88  C   UNL A   1      46.549  35.649  28.038  1.00  0.00     0.198 A 
ATOM     89  C   UNL A   1      47.192  35.008  30.260  1.00  0.00     0.198 A 
ATOM     90  F   UNL A   1      47.285  32.733  30.849  1.00  0.00    -0.203 F 
ATOM     91  F   UNL A   1      46.338  36.604  27.122  1.00  0.00    -0.200 F 
ATOM     92  C   UNL A   1      46.951  35.997  29.320  1.00  0.00     0.200 A 
ATOM     93  F   UNL A   1      47.565  35.343  31.503  1.00  0.00    -0.200 F 
ATOM     94  F   UNL A   1      47.107  37.288  29.647  1.00  0.00    -0.200 F 
ENDBRANCH  61  84
ENDBRANCH  35  36
ENDBRANCH  28  30
ENDBRANCH  27  28
ENDBRANCH  26  27
ENDBRANCH  25  26
ENDBRANCH  24  25
ENDBRANCH  23  24
ENDBRANCH  22  23
ENDBRANCH   1  22
TORSDOF 22
ENDMDL
MODEL 3
REMARK VINA RESULT:      -9.4      1.829      3.623
REMARK SMILES C[C@H](CC(=O)NC[C@@]1(C)CCCO1)CC(=O)OCCOCCOCCOC(=O)c1ccc(-c2c3nc(c(-c4c(F)c(F)c(F)c(F)c4F)c4ccc([nH]4)c(-c4c(F)c(F)c(F)c(F)c4F)c4nc(c(-c5c(F)c(F)c(F)c(F)c5F)c5ccc2[nH]5)C=C4)C=C3)cc1
REMARK SMILES IDX 20 1 19 2 18 3 17 4 15 5 16 6 14 7 2 8 1 9 3 10 4 11 5 12
REMARK SMILES IDX 6 13 7 15 8 16 9 17 10 18 13 19 11 20 12 21 21 22 22 23
REMARK SMILES IDX 23 24 24 25 25 26 26 27 27 28 28 29 29 30 30 31 91 32 31 33
REMARK SMILES IDX 90 34 32 35 33 36 34 37 84 38 35 39 89 40 83 41 85 42 36 43
REMARK SMILES IDX 88 44 82 45 81 46 37 48 69 49 49 50 68 51 50 52 53 53 67 54
REMARK SMILES IDX 86 55 51 56 52 57 66 59 87 60 54 61 38 62 39 63 47 64 40 65
REMARK SMILES IDX 41 66 45 67 48 68 42 69 43 70 46 71 44 72 70 73 71 74 79 75
REMARK SMILES IDX 72 76 73 77 77 78 80 79 74 80 75 81 78 82 76 83 55 84 56 85
REMARK SMILES IDX 64 86 57 87 58 88 62 89 65 90 59 91 60 92 63 93 61 94
REMARK H PARENT 6 14 85 47 53 58
REMARK Flexibility Score: inf
ROOT
ATOM      1  O   UNL A   1      35.952  23.794  25.168  1.00  0.00    -0.376 OA
ENDROOT
BRANCH   1   2
ATOM      2  C   UNL A   1      35.129  23.131  26.135  1.00  0.00     0.202 C 
BRANCH   2   3
ATOM      3  C   UNL A   1      34.644  21.720  25.763  1.00  0.00     0.261 C 
BRANCH   3   4
ATOM      4  O   UNL A   1      34.260  21.631  24.375  1.00  0.00    -0.463 OA
BRANCH   4   5
ATOM      5  C   UNL A   1      32.933  21.461  24.138  1.00  0.00     0.306 C 
ATOM      6  O   UNL A   1      32.169  20.823  24.853  1.00  0.00    -0.252 OA
BRANCH   5   7
ATOM      7  C   UNL A   1      32.459  22.279  22.953  1.00  0.00     0.126 C 
BRANCH   7   8
ATOM      8  C   UNL A   1      32.248  23.786  23.142  1.00  0.00     0.006 C 
ATOM      9  C   UNL A   1      30.760  24.082  23.410  1.00  0.00     0.009 C 
BRANCH   8  10
ATOM     10  C   UNL A   1      32.892  24.684  22.070  1.00  0.00     0.104 C 
BRANCH  10  11
ATOM     11  C   UNL A   1      32.301  26.052  21.792  1.00  0.00     0.220 C 
ATOM     12  O   UNL A   1      31.409  26.187  20.951  1.00  0.00    -0.275 OA
ATOM     13  N   UNL A   1      32.687  27.157  22.472  1.00  0.00    -0.353 N 
ATOM     14  H   UNL A   1      32.205  27.974  22.210  1.00  0.00     0.163 HD
BRANCH  13  15
ATOM     15  C   UNL A   1      33.680  27.370  23.517  1.00  0.00     0.151 C 
BRANCH  15  16
ATOM     16  C   UNL A   1      33.107  27.410  24.968  1.00  0.00     0.083 C 
ATOM     17  C   UNL A   1      33.754  28.490  25.847  1.00  0.00     0.044 C 
ATOM     18  C   UNL A   1      31.580  27.535  24.952  1.00  0.00     0.039 C 
ATOM     19  O   UNL A   1      33.359  26.156  25.645  1.00  0.00    -0.373 OA
ATOM     20  C   UNL A   1      31.161  26.831  26.220  1.00  0.00     0.031 C 
ATOM     21  C   UNL A   1      32.163  25.704  26.296  1.00  0.00     0.161 C 
ENDBRANCH  15  16
ENDBRANCH  13  15
ENDBRANCH  10  11
ENDBRANCH   8  10
ENDBRANCH   7   8
ENDBRANCH   5   7
ENDBRANCH   4   5
ENDBRANCH   3   4
ENDBRANCH   2   3
ENDBRANCH   1   2
BRANCH   1  22
ATOM     22  C   UNL A   1      37.231  23.222  24.922  1.00  0.00     0.188 C 
BRANCH  22  23
ATOM     23  C   UNL A   1      38.126  22.969  26.142  1.00  0.00     0.188 C 
BRANCH  23  24
ATOM     24  O   UNL A   1      39.203  22.063  25.934  1.00  0.00    -0.376 OA
BRANCH  24  25
ATOM     25  C   UNL A   1      38.848  20.772  25.423  1.00  0.00     0.202 C 
BRANCH  25  26
ATOM     26  C   UNL A   1      39.517  19.577  26.127  1.00  0.00     0.261 C 
BRANCH  26  27
ATOM     27  O   UNL A   1      40.726  19.125  25.481  1.00  0.00    -0.460 OA
BRANCH  27  28
ATOM     28  C   UNL A   1      41.863  19.145  26.215  1.00  0.00     0.338 C 
ATOM     29  O   UNL A   1      42.583  18.196  26.470  1.00  0.00    -0.246 OA
BRANCH  28  30
ATOM     30  C   UNL A   1      42.243  20.566  26.431  1.00  0.00     0.060 A 
ATOM     31  C   UNL A   1      42.269  21.055  27.745  1.00  0.00     0.016 A 
ATOM     32  C   UNL A   1      42.665  21.382  25.376  1.00  0.00     0.016 A 
ATOM     33  C   UNL A   1      42.696  22.361  28.003  1.00  0.00     0.010 A 
ATOM     34  C   UNL A   1      43.083  22.690  25.633  1.00  0.00     0.010 A 
ATOM     35  C   UNL A   1      43.081  23.195  26.945  1.00  0.00    -0.014 A 
BRANCH  35  36
ATOM     36  C   UNL A   1      43.334  24.640  27.170  1.00  0.00     0.031 A 
ATOM     37  C   UNL A   1      44.723  25.167  26.942  1.00  0.00     0.074 A 
ATOM     38  C   UNL A   1      42.365  25.472  27.593  1.00  0.00     0.049 A 
ATOM     39  N   UNL A   1      45.208  26.361  27.167  1.00  0.00    -0.248 NA
ATOM     40  C   UNL A   1      45.696  24.214  26.385  1.00  0.00     0.031 C 
ATOM     41  C   UNL A   1      40.971  25.104  27.816  1.00  0.00     0.029 A 
ATOM     42  N   UNL A   1      42.422  26.803  27.930  1.00  0.00    -0.354 N 
ATOM     43  C   UNL A   1      46.541  26.302  26.786  1.00  0.00     0.074 A 
ATOM     44  C   UNL A   1      46.796  24.951  26.335  1.00  0.00     0.031 C 
ATOM     45  C   UNL A   1      40.305  26.181  28.273  1.00  0.00     0.029 A 
ATOM     46  C   UNL A   1      41.236  27.301  28.410  1.00  0.00     0.049 A 
ATOM     47  H   UNL A   1      43.236  27.349  27.834  1.00  0.00     0.167 HD
ATOM     48  C   UNL A   1      47.469  27.288  26.803  1.00  0.00     0.037 A 
ATOM     49  C   UNL A   1      40.946  28.510  28.933  1.00  0.00     0.037 A 
ATOM     50  C   UNL A   1      47.226  28.631  27.251  1.00  0.00     0.049 A 
ATOM     51  C   UNL A   1      42.025  29.561  29.036  1.00  0.00     0.074 A 
ATOM     52  C   UNL A   1      48.098  29.704  27.270  1.00  0.00     0.029 A 
ATOM     53  N   UNL A   1      46.024  29.083  27.774  1.00  0.00    -0.354 N 
ATOM     54  N   UNL A   1      43.273  29.510  28.639  1.00  0.00    -0.248 NA
ATOM     55  C   UNL A   1      41.654  30.836  29.670  1.00  0.00     0.031 C 
ATOM     56  C   UNL A   1      47.443  30.791  27.857  1.00  0.00     0.029 A 
ATOM     57  C   UNL A   1      46.145  30.408  28.157  1.00  0.00     0.049 A 
ATOM     58  H   UNL A   1      45.206  28.541  27.861  1.00  0.00     0.167 HD
ATOM     59  C   UNL A   1      43.827  30.746  28.956  1.00  0.00     0.074 A 
ATOM     60  C   UNL A   1      42.776  31.533  29.564  1.00  0.00     0.031 C 
ATOM     61  C   UNL A   1      45.094  31.186  28.760  1.00  0.00     0.037 A 
BRANCH  48  62
ATOM     62  C   UNL A   1      48.854  26.938  26.346  1.00  0.00     0.064 A 
ATOM     63  C   UNL A   1      49.246  27.087  25.009  1.00  0.00     0.173 A 
ATOM     64  C   UNL A   1      49.808  26.487  27.269  1.00  0.00     0.173 A 
ATOM     65  F   UNL A   1      48.363  27.500  24.088  1.00  0.00    -0.203 F 
ATOM     66  C   UNL A   1      50.543  26.777  24.608  1.00  0.00     0.198 A 
ATOM     67  C   UNL A   1      51.111  26.204  26.870  1.00  0.00     0.198 A 
ATOM     68  F   UNL A   1      49.480  26.330  28.560  1.00  0.00    -0.203 F 
ATOM     69  F   UNL A   1      50.887  26.889  23.317  1.00  0.00    -0.200 F 
ATOM     70  C   UNL A   1      51.476  26.344  25.539  1.00  0.00     0.200 A 
ATOM     71  F   UNL A   1      52.012  25.794  27.772  1.00  0.00    -0.200 F 
ATOM     72  F   UNL A   1      52.725  26.054  25.152  1.00  0.00    -0.200 F 
ENDBRANCH  48  62
BRANCH  49  73
ATOM     73  C   UNL A   1      39.579  28.793  29.445  1.00  0.00     0.064 A 
ATOM     74  C   UNL A   1      38.600  29.365  28.620  1.00  0.00     0.173 A 
ATOM     75  C   UNL A   1      39.238  28.540  30.782  1.00  0.00     0.173 A 
ATOM     76  F   UNL A   1      38.890  29.659  27.344  1.00  0.00    -0.203 F 
ATOM     77  C   UNL A   1      37.339  29.688  29.117  1.00  0.00     0.198 A 
ATOM     78  C   UNL A   1      37.968  28.839  31.270  1.00  0.00     0.198 A 
ATOM     79  F   UNL A   1      40.141  28.006  31.616  1.00  0.00    -0.203 F 
ATOM     80  F   UNL A   1      36.440  30.284  28.322  1.00  0.00    -0.200 F 
ATOM     81  C   UNL A   1      37.022  29.420  30.440  1.00  0.00     0.200 A 
ATOM     82  F   UNL A   1      37.665  28.573  32.548  1.00  0.00    -0.200 F 
ATOM     83  F   UNL A   1      35.811  29.736  30.918  1.00  0.00    -0.200 F 
ENDBRANCH  49  73
BRANCH  61  84
ATOM     84  C   UNL A   1      45.423  32.588  29.189  1.00  0.00     0.064 A 
ATOM     85  C   UNL A   1      45.190  33.686  28.348  1.00  0.00     0.173 A 
ATOM     86  C   UNL A   1      45.912  32.842  30.479  1.00  0.00     0.173 A 
ATOM     87  F   UNL A   1      44.736  33.495  27.100  1.00  0.00    -0.203 F 
ATOM     88  C   UNL A   1      45.448  34.984  28.778  1.00  0.00     0.198 A 
ATOM     89  C   UNL A   1      46.143  34.143  30.916  1.00  0.00     0.198 A 
ATOM     90  F   UNL A   1      46.145  31.827  31.326  1.00  0.00    -0.203 F 
ATOM     91  F   UNL A   1      45.249  36.017  27.946  1.00  0.00    -0.200 F 
ATOM     92  C   UNL A   1      45.915  35.213  30.064  1.00  0.00     0.200 A 
ATOM     93  F   UNL A   1      46.580  34.363  32.164  1.00  0.00    -0.200 F 
ATOM     94  F   UNL A   1      46.148  36.465  30.481  1.00  0.00    -0.200 F 
ENDBRANCH  61  84
ENDBRANCH  35  36
ENDBRANCH  28  30
ENDBRANCH  27  28
ENDBRANCH  26  27
ENDBRANCH  25  26
ENDBRANCH  24  25
ENDBRANCH  23  24
ENDBRANCH  22  23
ENDBRANCH   1  22
TORSDOF 22
ENDMDL
