MODEL 1
REMARK VINA RESULT:     -12.9      0.000      0.000
REMARK SMILES C[C@@H](O)[C@@H](NC(=O)Nc1ccc(F)cc1F)C(=O)OCCOCCOCCOC(=O)c1ccc(-c2c3nc(c(-c4c(F)c(F)c(F)c(F)c4F)c4ccc([nH]4)c(-c4c(F)c(F)c(F)c(F)c4F)c4nc(c(-c5c(F)c(F)c(F)c(F)c5F)c5ccc2[nH]5)C=C4)C=C3)cc1
REMARK SMILES IDX 23 1 22 2 21 3 20 4 19 5 17 6 18 7 4 8 2 9 1 10 3 11 5 13
REMARK SMILES IDX 6 14 7 16 8 17 9 19 10 20 15 21 11 22 14 23 16 24 12 25
REMARK SMILES IDX 13 26 24 27 25 28 26 29 27 30 28 31 29 32 30 33 31 34 32 35
REMARK SMILES IDX 93 36 33 37 92 38 34 39 35 40 36 41 86 42 37 43 91 44 85 45
REMARK SMILES IDX 87 46 38 47 90 48 84 49 83 50 39 52 71 53 51 54 70 55 52 56
REMARK SMILES IDX 55 57 69 58 88 59 53 60 54 61 68 63 89 64 56 65 40 66 41 67
REMARK SMILES IDX 49 68 42 69 43 70 47 71 50 72 44 73 45 74 48 75 46 76 72 77
REMARK SMILES IDX 73 78 81 79 74 80 75 81 79 82 82 83 76 84 77 85 80 86 78 87
REMARK SMILES IDX 57 88 58 89 66 90 59 91 60 92 64 93 67 94 61 95 62 96 65 97
REMARK SMILES IDX 63 98
REMARK H PARENT 3 12 5 15 8 18 87 51 55 62
REMARK Flexibility Score: inf
ROOT
ATOM      1  C   UNL A   1      32.797  27.362  22.496  1.00  0.00     0.188 C 
ENDROOT
BRANCH   1   2
ATOM      2  O   UNL A   1      33.563  25.671  21.655  1.00  0.00    -0.376 OA
BRANCH   2   3
ATOM      3  C   UNL A   1      33.313  23.920  22.061  1.00  0.00     0.202 C 
BRANCH   3   4
ATOM      4  C   UNL A   1      31.932  23.229  23.107  1.00  0.00     0.261 C 
BRANCH   4   5
ATOM      5  O   UNL A   1      32.021  21.931  24.050  1.00  0.00    -0.462 OA
BRANCH   5   6
ATOM      6  C   UNL A   1      32.478  20.652  23.691  1.00  0.00     0.331 C 
ATOM      7  O   UNL A   1      32.180  20.190  22.590  1.00  0.00    -0.250 OA
BRANCH   6   8
ATOM      8  C   UNL A   1      33.343  19.716  24.821  1.00  0.00     0.222 C 
BRANCH   8   9
ATOM      9  C   UNL A   1      32.615  18.334  25.070  1.00  0.00     0.145 C 
ATOM     10  C   UNL A   1      33.300  17.062  24.567  1.00  0.00     0.041 C 
BRANCH   9  11
ATOM     11  O   UNL A   1      32.528  18.091  26.499  1.00  0.00    -0.391 OA
ATOM     12  H   UNL A   1      31.665  18.391  26.827  1.00  0.00     0.211 HD
ENDBRANCH   9  11
ENDBRANCH   8   9
BRANCH   8  13
ATOM     13  N   UNL A   1      34.849  19.692  24.831  1.00  0.00    -0.322 N 
ATOM     14  C   UNL A   1      35.885  20.483  25.231  1.00  0.00     0.320 C 
ATOM     15  H   UNL A   1      35.184  18.858  24.428  1.00  0.00     0.166 HD
ATOM     16  O   UNL A   1      37.018  20.041  25.000  1.00  0.00    -0.248 OA
ATOM     17  N   UNL A   1      35.814  21.677  25.897  1.00  0.00    -0.305 N 
ATOM     18  H   UNL A   1      36.646  21.941  26.352  1.00  0.00     0.171 HD
BRANCH  17  19
ATOM     19  C   UNL A   1      34.753  22.591  26.042  1.00  0.00     0.079 A 
ATOM     20  C   UNL A   1      33.335  22.393  27.013  1.00  0.00     0.032 A 
ATOM     21  C   UNL A   1      35.051  24.135  25.285  1.00  0.00     0.149 A 
ATOM     22  C   UNL A   1      32.174  23.711  27.251  1.00  0.00     0.041 A 
ATOM     23  C   UNL A   1      33.858  25.573  25.469  1.00  0.00     0.080 A 
ATOM     24  F   UNL A   1      36.366  24.167  25.558  1.00  0.00    -0.205 F 
ATOM     25  C   UNL A   1      32.406  25.285  26.490  1.00  0.00     0.126 A 
ATOM     26  F   UNL A   1      31.448  26.217  26.565  1.00  0.00    -0.207 F 
ENDBRANCH  17  19
ENDBRANCH   8  13
ENDBRANCH   6   8
ENDBRANCH   5   6
ENDBRANCH   4   5
ENDBRANCH   3   4
ENDBRANCH   2   3
ENDBRANCH   1   2
BRANCH   1  27
ATOM     27  C   UNL A   1      33.576  28.474  23.583  1.00  0.00     0.188 C 
BRANCH  27  28
ATOM     28  O   UNL A   1      32.870  29.451  24.364  1.00  0.00    -0.376 OA
BRANCH  28  29
ATOM     29  C   UNL A   1      32.459  29.199  25.730  1.00  0.00     0.202 C 
BRANCH  29  30
ATOM     30  C   UNL A   1      33.262  29.611  26.985  1.00  0.00     0.261 C 
BRANCH  30  31
ATOM     31  O   UNL A   1      34.108  30.744  26.857  1.00  0.00    -0.460 OA
BRANCH  31  32
ATOM     32  C   UNL A   1      34.612  31.207  28.024  1.00  0.00     0.338 C 
ATOM     33  O   UNL A   1      34.031  31.882  28.853  1.00  0.00    -0.246 OA
BRANCH  32  34
ATOM     34  C   UNL A   1      35.902  30.509  28.247  1.00  0.00     0.060 A 
ATOM     35  C   UNL A   1      36.059  29.805  29.448  1.00  0.00     0.016 A 
ATOM     36  C   UNL A   1      36.882  30.429  27.252  1.00  0.00     0.016 A 
ATOM     37  C   UNL A   1      37.199  29.039  29.670  1.00  0.00     0.010 A 
ATOM     38  C   UNL A   1      38.050  29.705  27.495  1.00  0.00     0.010 A 
ATOM     39  C   UNL A   1      38.229  29.044  28.723  1.00  0.00    -0.014 A 
BRANCH  39  40
ATOM     40  C   UNL A   1      39.582  28.608  29.140  1.00  0.00     0.031 A 
ATOM     41  C   UNL A   1      40.325  29.493  30.104  1.00  0.00     0.074 A 
ATOM     42  C   UNL A   1      40.119  27.446  28.733  1.00  0.00     0.049 A 
ATOM     43  N   UNL A   1      41.526  29.356  30.602  1.00  0.00    -0.248 NA
ATOM     44  C   UNL A   1      39.615  30.698  30.568  1.00  0.00     0.031 C 
ATOM     45  C   UNL A   1      39.475  26.475  27.854  1.00  0.00     0.029 A 
ATOM     46  N   UNL A   1      41.344  26.889  29.017  1.00  0.00    -0.354 N 
ATOM     47  C   UNL A   1      41.714  30.457  31.428  1.00  0.00     0.074 A 
ATOM     48  C   UNL A   1      40.525  31.273  31.336  1.00  0.00     0.031 C 
ATOM     49  C   UNL A   1      40.316  25.443  27.662  1.00  0.00     0.029 A 
ATOM     50  C   UNL A   1      41.569  25.697  28.377  1.00  0.00     0.049 A 
ATOM     51  H   UNL A   1      41.997  27.307  29.622  1.00  0.00     0.167 HD
ATOM     52  C   UNL A   1      42.779  30.751  32.207  1.00  0.00     0.037 A 
ATOM     53  C   UNL A   1      42.666  24.913  28.356  1.00  0.00     0.037 A 
ATOM     54  C   UNL A   1      43.955  29.932  32.306  1.00  0.00     0.049 A 
ATOM     55  C   UNL A   1      43.880  25.310  29.164  1.00  0.00     0.074 A 
ATOM     56  C   UNL A   1      45.080  30.141  33.085  1.00  0.00     0.029 A 
ATOM     57  N   UNL A   1      44.164  28.756  31.604  1.00  0.00    -0.354 N 
ATOM     58  N   UNL A   1      44.044  26.339  29.960  1.00  0.00    -0.248 NA
ATOM     59  C   UNL A   1      45.059  24.433  29.074  1.00  0.00     0.031 C 
ATOM     60  C   UNL A   1      46.000  29.133  32.797  1.00  0.00     0.029 A 
ATOM     61  C   UNL A   1      45.417  28.249  31.903  1.00  0.00     0.049 A 
ATOM     62  H   UNL A   1      43.519  28.343  30.985  1.00  0.00     0.167 HD
ATOM     63  C   UNL A   1      45.325  26.216  30.488  1.00  0.00     0.074 A 
ATOM     64  C   UNL A   1      45.893  25.008  29.931  1.00  0.00     0.031 C 
ATOM     65  C   UNL A   1      45.970  27.034  31.357  1.00  0.00     0.037 A 
BRANCH  52  66
ATOM     66  C   UNL A   1      42.736  32.020  33.007  1.00  0.00     0.064 A 
ATOM     67  C   UNL A   1      42.212  32.015  34.310  1.00  0.00     0.173 A 
ATOM     68  C   UNL A   1      43.132  33.250  32.464  1.00  0.00     0.173 A 
ATOM     69  F   UNL A   1      41.817  30.864  34.875  1.00  0.00    -0.203 F 
ATOM     70  C   UNL A   1      42.062  33.197  35.026  1.00  0.00     0.198 A 
ATOM     71  C   UNL A   1      43.013  34.428  33.197  1.00  0.00     0.198 A 
ATOM     72  F   UNL A   1      43.656  33.307  31.229  1.00  0.00    -0.203 F 
ATOM     73  F   UNL A   1      41.513  33.173  36.249  1.00  0.00    -0.200 F 
ATOM     74  C   UNL A   1      42.465  34.402  34.471  1.00  0.00     0.200 A 
ATOM     75  F   UNL A   1      43.429  35.588  32.671  1.00  0.00    -0.200 F 
ATOM     76  F   UNL A   1      42.326  35.540  35.165  1.00  0.00    -0.200 F 
ENDBRANCH  52  66
BRANCH  53  77
ATOM     77  C   UNL A   1      42.671  23.672  27.535  1.00  0.00     0.064 A 
ATOM     78  C   UNL A   1      43.077  23.688  26.191  1.00  0.00     0.173 A 
ATOM     79  C   UNL A   1      42.268  22.443  28.076  1.00  0.00     0.173 A 
ATOM     80  F   UNL A   1      43.479  24.835  25.625  1.00  0.00    -0.203 F 
ATOM     81  C   UNL A   1      43.053  22.531  25.416  1.00  0.00     0.198 A 
ATOM     82  C   UNL A   1      42.277  21.279  27.308  1.00  0.00     0.198 A 
ATOM     83  F   UNL A   1      41.899  22.367  29.364  1.00  0.00    -0.203 F 
ATOM     84  F   UNL A   1      43.408  22.585  24.125  1.00  0.00    -0.200 F 
ATOM     85  C   UNL A   1      42.659  21.326  25.976  1.00  0.00     0.200 A 
ATOM     86  F   UNL A   1      41.925  20.111  27.862  1.00  0.00    -0.200 F 
ATOM     87  F   UNL A   1      42.651  20.211  25.234  1.00  0.00    -0.200 F 
ENDBRANCH  53  77
BRANCH  65  88
ATOM     88  C   UNL A   1      47.354  26.653  31.805  1.00  0.00     0.064 A 
ATOM     89  C   UNL A   1      48.478  27.112  31.098  1.00  0.00     0.173 A 
ATOM     90  C   UNL A   1      47.568  25.744  32.851  1.00  0.00     0.173 A 
ATOM     91  F   UNL A   1      48.331  27.973  30.080  1.00  0.00    -0.203 F 
ATOM     92  C   UNL A   1      49.757  26.656  31.405  1.00  0.00     0.198 A 
ATOM     93  C   UNL A   1      48.853  25.317  33.179  1.00  0.00     0.198 A 
ATOM     94  F   UNL A   1      46.530  25.279  33.564  1.00  0.00    -0.203 F 
ATOM     95  F   UNL A   1      50.806  27.068  30.679  1.00  0.00    -0.200 F 
ATOM     96  C   UNL A   1      49.944  25.761  32.446  1.00  0.00     0.200 A 
ATOM     97  F   UNL A   1      49.035  24.470  34.201  1.00  0.00    -0.200 F 
ATOM     98  F   UNL A   1      51.175  25.324  32.743  1.00  0.00    -0.200 F 
ENDBRANCH  65  88
ENDBRANCH  39  40
ENDBRANCH  32  34
ENDBRANCH  31  32
ENDBRANCH  30  31
ENDBRANCH  29  30
ENDBRANCH  28  29
ENDBRANCH  27  28
ENDBRANCH   1  27
TORSDOF 21
ENDMDL
MODEL 2
REMARK VINA RESULT:     -12.1      3.317      8.872
REMARK SMILES C[C@@H](O)[C@@H](NC(=O)Nc1ccc(F)cc1F)C(=O)OCCOCCOCCOC(=O)c1ccc(-c2c3nc(c(-c4c(F)c(F)c(F)c(F)c4F)c4ccc([nH]4)c(-c4c(F)c(F)c(F)c(F)c4F)c4nc(c(-c5c(F)c(F)c(F)c(F)c5F)c5ccc2[nH]5)C=C4)C=C3)cc1
REMARK SMILES IDX 23 1 22 2 21 3 20 4 19 5 17 6 18 7 4 8 2 9 1 10 3 11 5 13
REMARK SMILES IDX 6 14 7 16 8 17 9 19 10 20 15 21 11 22 14 23 16 24 12 25
REMARK SMILES IDX 13 26 24 27 25 28 26 29 27 30 28 31 29 32 30 33 31 34 32 35
REMARK SMILES IDX 93 36 33 37 92 38 34 39 35 40 36 41 86 42 37 43 91 44 85 45
REMARK SMILES IDX 87 46 38 47 90 48 84 49 83 50 39 52 71 53 51 54 70 55 52 56
REMARK SMILES IDX 55 57 69 58 88 59 53 60 54 61 68 63 89 64 56 65 40 66 41 67
REMARK SMILES IDX 49 68 42 69 43 70 47 71 50 72 44 73 45 74 48 75 46 76 72 77
REMARK SMILES IDX 73 78 81 79 74 80 75 81 79 82 82 83 76 84 77 85 80 86 78 87
REMARK SMILES IDX 57 88 58 89 66 90 59 91 60 92 64 93 67 94 61 95 62 96 65 97
REMARK SMILES IDX 63 98
REMARK H PARENT 3 12 5 15 8 18 87 51 55 62
REMARK Flexibility Score: inf
ROOT
ATOM      1  C   UNL A   1      37.766  19.711  24.688  1.00  0.00     0.188 C 
ENDROOT
BRANCH   1   2
ATOM      2  O   UNL A   1      35.747  19.521  24.892  1.00  0.00    -0.376 OA
BRANCH   2   3
ATOM      3  C   UNL A   1      34.630  18.158  24.458  1.00  0.00     0.202 C 
BRANCH   3   4
ATOM      4  C   UNL A   1      32.782  18.289  24.240  1.00  0.00     0.261 C 
BRANCH   4   5
ATOM      5  O   UNL A   1      31.935  19.654  24.168  1.00  0.00    -0.462 OA
BRANCH   5   6
ATOM      6  C   UNL A   1      32.434  20.966  24.217  1.00  0.00     0.331 C 
ATOM      7  O   UNL A   1      32.786  21.518  23.175  1.00  0.00    -0.250 OA
BRANCH   6   8
ATOM      8  C   UNL A   1      32.645  21.733  25.722  1.00  0.00     0.222 C 
BRANCH   8   9
ATOM      9  C   UNL A   1      33.783  22.829  25.632  1.00  0.00     0.145 C 
ATOM     10  C   UNL A   1      34.278  23.457  26.936  1.00  0.00     0.041 C 
BRANCH   9  11
ATOM     11  O   UNL A   1      34.991  22.220  25.106  1.00  0.00    -0.391 OA
ATOM     12  H   UNL A   1      34.757  21.442  24.575  1.00  0.00     0.211 HD
ENDBRANCH   9  11
ENDBRANCH   8   9
BRANCH   8  13
ATOM     13  N   UNL A   1      31.471  22.058  26.609  1.00  0.00    -0.322 N 
ATOM     14  C   UNL A   1      30.499  23.008  26.717  1.00  0.00     0.320 C 
ATOM     15  H   UNL A   1      31.379  21.385  27.322  1.00  0.00     0.166 HD
ATOM     16  O   UNL A   1      29.722  22.875  27.672  1.00  0.00    -0.248 OA
ATOM     17  N   UNL A   1      30.258  24.055  25.869  1.00  0.00    -0.305 N 
ATOM     18  H   UNL A   1      29.356  24.444  25.944  1.00  0.00     0.171 HD
BRANCH  17  19
ATOM     19  C   UNL A   1      31.080  24.671  24.907  1.00  0.00     0.079 A 
ATOM     20  C   UNL A   1      31.090  24.375  23.203  1.00  0.00     0.032 A 
ATOM     21  C   UNL A   1      32.034  25.988  25.541  1.00  0.00     0.149 A 
ATOM     22  C   UNL A   1      32.046  25.366  22.087  1.00  0.00     0.041 A 
ATOM     23  C   UNL A   1      33.092  27.069  24.428  1.00  0.00     0.080 A 
ATOM     24  F   UNL A   1      31.101  26.427  26.402  1.00  0.00    -0.205 F 
ATOM     25  C   UNL A   1      33.050  26.694  22.671  1.00  0.00     0.126 A 
ATOM     26  F   UNL A   1      33.873  27.335  21.832  1.00  0.00    -0.207 F 
ENDBRANCH  17  19
ENDBRANCH   8  13
ENDBRANCH   6   8
ENDBRANCH   5   6
ENDBRANCH   4   5
ENDBRANCH   3   4
ENDBRANCH   2   3
ENDBRANCH   1   2
BRANCH   1  27
ATOM     27  C   UNL A   1      39.017  19.125  25.745  1.00  0.00     0.188 C 
BRANCH  27  28
ATOM     28  O   UNL A   1      40.419  19.328  25.509  1.00  0.00    -0.376 OA
BRANCH  28  29
ATOM     29  C   UNL A   1      41.263  20.052  26.437  1.00  0.00     0.202 C 
BRANCH  29  30
ATOM     30  C   UNL A   1      40.837  21.318  27.216  1.00  0.00     0.261 C 
BRANCH  30  31
ATOM     31  O   UNL A   1      40.848  22.543  26.496  1.00  0.00    -0.460 OA
BRANCH  31  32
ATOM     32  C   UNL A   1      39.637  23.134  26.371  1.00  0.00     0.338 C 
ATOM     33  O   UNL A   1      38.612  22.619  25.967  1.00  0.00    -0.246 OA
BRANCH  32  34
ATOM     34  C   UNL A   1      39.715  24.434  27.081  1.00  0.00     0.060 A 
ATOM     35  C   UNL A   1      40.305  25.509  26.402  1.00  0.00     0.016 A 
ATOM     36  C   UNL A   1      39.106  24.637  28.324  1.00  0.00     0.016 A 
ATOM     37  C   UNL A   1      40.310  26.780  26.968  1.00  0.00     0.010 A 
ATOM     38  C   UNL A   1      39.158  25.900  28.916  1.00  0.00     0.010 A 
ATOM     39  C   UNL A   1      39.798  26.964  28.257  1.00  0.00    -0.014 A 
BRANCH  39  40
ATOM     40  C   UNL A   1      40.192  28.175  29.013  1.00  0.00     0.031 A 
ATOM     41  C   UNL A   1      41.617  28.258  29.489  1.00  0.00     0.074 A 
ATOM     42  C   UNL A   1      39.345  29.196  29.227  1.00  0.00     0.049 A 
ATOM     43  N   UNL A   1      42.208  29.190  30.190  1.00  0.00    -0.248 NA
ATOM     44  C   UNL A   1      42.496  27.133  29.123  1.00  0.00     0.031 C 
ATOM     45  C   UNL A   1      37.963  29.264  28.763  1.00  0.00     0.029 A 
ATOM     46  N   UNL A   1      39.538  30.381  29.898  1.00  0.00    -0.354 N 
ATOM     47  C   UNL A   1      43.519  28.760  30.352  1.00  0.00     0.074 A 
ATOM     48  C   UNL A   1      43.630  27.468  29.715  1.00  0.00     0.031 C 
ATOM     49  C   UNL A   1      37.427  30.428  29.171  1.00  0.00     0.029 A 
ATOM     50  C   UNL A   1      38.418  31.171  29.953  1.00  0.00     0.049 A 
ATOM     51  H   UNL A   1      40.399  30.637  30.300  1.00  0.00     0.167 HD
ATOM     52  C   UNL A   1      44.542  29.395  30.966  1.00  0.00     0.037 A 
ATOM     53  C   UNL A   1      38.212  32.347  30.580  1.00  0.00     0.037 A 
ATOM     54  C   UNL A   1      44.431  30.685  31.590  1.00  0.00     0.049 A 
ATOM     55  C   UNL A   1      39.348  32.996  31.338  1.00  0.00     0.074 A 
ATOM     56  C   UNL A   1      45.421  31.417  32.222  1.00  0.00     0.029 A 
ATOM     57  N   UNL A   1      43.266  31.431  31.667  1.00  0.00    -0.354 N 
ATOM     58  N   UNL A   1      40.590  32.596  31.470  1.00  0.00    -0.248 NA
ATOM     59  C   UNL A   1      39.054  34.261  32.030  1.00  0.00     0.031 C 
ATOM     60  C   UNL A   1      44.838  32.571  32.747  1.00  0.00     0.029 A 
ATOM     61  C   UNL A   1      43.504  32.599  32.371  1.00  0.00     0.049 A 
ATOM     62  H   UNL A   1      42.399  31.170  31.279  1.00  0.00     0.167 HD
ATOM     63  C   UNL A   1      41.229  33.571  32.227  1.00  0.00     0.074 A 
ATOM     64  C   UNL A   1      40.243  34.589  32.518  1.00  0.00     0.031 C 
ATOM     65  C   UNL A   1      42.520  33.617  32.642  1.00  0.00     0.037 A 
BRANCH  52  66
ATOM     66  C   UNL A   1      45.872  28.704  31.012  1.00  0.00     0.064 A 
ATOM     67  C   UNL A   1      46.798  28.885  29.972  1.00  0.00     0.173 A 
ATOM     68  C   UNL A   1      46.203  27.802  32.034  1.00  0.00     0.173 A 
ATOM     69  F   UNL A   1      46.530  29.735  28.969  1.00  0.00    -0.203 F 
ATOM     70  C   UNL A   1      47.990  28.169  29.940  1.00  0.00     0.198 A 
ATOM     71  C   UNL A   1      47.413  27.114  32.018  1.00  0.00     0.198 A 
ATOM     72  F   UNL A   1      45.361  27.606  33.061  1.00  0.00    -0.203 F 
ATOM     73  F   UNL A   1      48.834  28.322  28.911  1.00  0.00    -0.200 F 
ATOM     74  C   UNL A   1      48.298  27.287  30.964  1.00  0.00     0.200 A 
ATOM     75  F   UNL A   1      47.722  26.283  33.022  1.00  0.00    -0.200 F 
ATOM     76  F   UNL A   1      49.450  26.602  30.936  1.00  0.00    -0.200 F 
ENDBRANCH  52  66
BRANCH  53  77
ATOM     77  C   UNL A   1      36.872  32.990  30.522  1.00  0.00     0.064 A 
ATOM     78  C   UNL A   1      36.453  33.701  29.387  1.00  0.00     0.173 A 
ATOM     79  C   UNL A   1      35.980  32.909  31.601  1.00  0.00     0.173 A 
ATOM     80  F   UNL A   1      37.263  33.805  28.322  1.00  0.00    -0.203 F 
ATOM     81  C   UNL A   1      35.209  34.327  29.344  1.00  0.00     0.198 A 
ATOM     82  C   UNL A   1      34.722  33.507  31.544  1.00  0.00     0.198 A 
ATOM     83  F   UNL A   1      36.319  32.216  32.699  1.00  0.00    -0.203 F 
ATOM     84  F   UNL A   1      34.854  35.033  28.262  1.00  0.00    -0.200 F 
ATOM     85  C   UNL A   1      34.342  34.225  30.420  1.00  0.00     0.200 A 
ATOM     86  F   UNL A   1      33.875  33.380  32.574  1.00  0.00    -0.200 F 
ATOM     87  F   UNL A   1      33.140  34.814  30.373  1.00  0.00    -0.200 F 
ENDBRANCH  53  77
BRANCH  65  88
ATOM     88  C   UNL A   1      42.976  34.815  33.429  1.00  0.00     0.064 A 
ATOM     89  C   UNL A   1      42.922  34.801  34.834  1.00  0.00     0.173 A 
ATOM     90  C   UNL A   1      43.352  36.011  32.803  1.00  0.00     0.173 A 
ATOM     91  F   UNL A   1      42.556  33.687  35.485  1.00  0.00    -0.203 F 
ATOM     92  C   UNL A   1      43.200  35.946  35.575  1.00  0.00     0.198 A 
ATOM     93  C   UNL A   1      43.664  37.145  33.550  1.00  0.00     0.198 A 
ATOM     94  F   UNL A   1      43.428  36.077  31.464  1.00  0.00    -0.203 F 
ATOM     95  F   UNL A   1      43.085  35.921  36.910  1.00  0.00    -0.200 F 
ATOM     96  C   UNL A   1      43.573  37.116  34.933  1.00  0.00     0.200 A 
ATOM     97  F   UNL A   1      44.048  38.268  32.929  1.00  0.00    -0.200 F 
ATOM     98  F   UNL A   1      43.843  38.217  35.647  1.00  0.00    -0.200 F 
ENDBRANCH  65  88
ENDBRANCH  39  40
ENDBRANCH  32  34
ENDBRANCH  31  32
ENDBRANCH  30  31
ENDBRANCH  29  30
ENDBRANCH  28  29
ENDBRANCH  27  28
ENDBRANCH   1  27
TORSDOF 21
ENDMDL
MODEL 3
REMARK VINA RESULT:     -12.1      3.233      8.787
REMARK SMILES C[C@@H](O)[C@@H](NC(=O)Nc1ccc(F)cc1F)C(=O)OCCOCCOCCOC(=O)c1ccc(-c2c3nc(c(-c4c(F)c(F)c(F)c(F)c4F)c4ccc([nH]4)c(-c4c(F)c(F)c(F)c(F)c4F)c4nc(c(-c5c(F)c(F)c(F)c(F)c5F)c5ccc2[nH]5)C=C4)C=C3)cc1
REMARK SMILES IDX 23 1 22 2 21 3 20 4 19 5 17 6 18 7 4 8 2 9 1 10 3 11 5 13
REMARK SMILES IDX 6 14 7 16 8 17 9 19 10 20 15 21 11 22 14 23 16 24 12 25
REMARK SMILES IDX 13 26 24 27 25 28 26 29 27 30 28 31 29 32 30 33 31 34 32 35
REMARK SMILES IDX 93 36 33 37 92 38 34 39 35 40 36 41 86 42 37 43 91 44 85 45
REMARK SMILES IDX 87 46 38 47 90 48 84 49 83 50 39 52 71 53 51 54 70 55 52 56
REMARK SMILES IDX 55 57 69 58 88 59 53 60 54 61 68 63 89 64 56 65 40 66 41 67
REMARK SMILES IDX 49 68 42 69 43 70 47 71 50 72 44 73 45 74 48 75 46 76 72 77
REMARK SMILES IDX 73 78 81 79 74 80 75 81 79 82 82 83 76 84 77 85 80 86 78 87
REMARK SMILES IDX 57 88 58 89 66 90 59 91 60 92 64 93 67 94 61 95 62 96 65 97
REMARK SMILES IDX 63 98
REMARK H PARENT 3 12 5 15 8 18 87 51 55 62
REMARK Flexibility Score: inf
ROOT
ATOM      1  C   UNL A   1      37.650  19.779  24.666  1.00  0.00     0.188 C 
ENDROOT
BRANCH   1   2
ATOM      2  O   UNL A   1      35.663  20.018  25.052  1.00  0.00    -0.376 OA
BRANCH   2   3
ATOM      3  C   UNL A   1      34.230  19.007  24.583  1.00  0.00     0.202 C 
BRANCH   3   4
ATOM      4  C   UNL A   1      32.621  19.649  23.892  1.00  0.00     0.261 C 
BRANCH   4   5
ATOM      5  O   UNL A   1      32.222  21.196  23.713  1.00  0.00    -0.462 OA
BRANCH   5   6
ATOM      6  C   UNL A   1      32.637  22.277  24.507  1.00  0.00     0.331 C 
ATOM      7  O   UNL A   1      32.171  22.409  25.639  1.00  0.00    -0.250 OA
BRANCH   6   8
ATOM      8  C   UNL A   1      33.692  23.446  23.859  1.00  0.00     0.222 C 
BRANCH   8   9
ATOM      9  C   UNL A   1      35.181  23.159  24.309  1.00  0.00     0.145 C 
ATOM     10  C   UNL A   1      36.248  23.040  23.219  1.00  0.00     0.041 C 
BRANCH   9  11
ATOM     11  O   UNL A   1      35.667  24.280  25.093  1.00  0.00    -0.391 OA
ATOM     12  H   UNL A   1      36.031  24.957  24.501  1.00  0.00     0.211 HD
ENDBRANCH   9  11
ENDBRANCH   8   9
BRANCH   8  13
ATOM     13  N   UNL A   1      33.504  23.985  22.465  1.00  0.00    -0.322 N 
ATOM     14  C   UNL A   1      33.244  25.175  21.852  1.00  0.00     0.320 C 
ATOM     15  H   UNL A   1      33.597  23.265  21.800  1.00  0.00     0.166 HD
ATOM     16  O   UNL A   1      33.146  25.134  20.618  1.00  0.00    -0.248 OA
ATOM     17  N   UNL A   1      33.129  26.408  22.437  1.00  0.00    -0.305 N 
ATOM     18  H   UNL A   1      33.236  27.166  21.818  1.00  0.00     0.171 HD
BRANCH  17  19
ATOM     19  C   UNL A   1      32.882  26.775  23.773  1.00  0.00     0.079 A 
ATOM     20  C   UNL A   1      33.852  27.809  24.765  1.00  0.00     0.032 A 
ATOM     21  C   UNL A   1      31.329  26.247  24.369  1.00  0.00     0.149 A 
ATOM     22  C   UNL A   1      33.316  28.338  26.369  1.00  0.00     0.041 A 
ATOM     23  C   UNL A   1      30.699  26.745  26.067  1.00  0.00     0.080 A 
ATOM     24  F   UNL A   1      30.674  26.420  23.209  1.00  0.00    -0.205 F 
ATOM     25  C   UNL A   1      31.768  27.817  27.036  1.00  0.00     0.126 A 
ATOM     26  F   UNL A   1      31.447  28.110  28.302  1.00  0.00    -0.207 F 
ENDBRANCH  17  19
ENDBRANCH   8  13
ENDBRANCH   6   8
ENDBRANCH   5   6
ENDBRANCH   4   5
ENDBRANCH   3   4
ENDBRANCH   2   3
ENDBRANCH   1   2
BRANCH   1  27
ATOM     27  C   UNL A   1      38.880  19.127  25.709  1.00  0.00     0.188 C 
BRANCH  27  28
ATOM     28  O   UNL A   1      40.287  19.321  25.499  1.00  0.00    -0.376 OA
BRANCH  28  29
ATOM     29  C   UNL A   1      41.142  19.927  26.498  1.00  0.00     0.202 C 
BRANCH  29  30
ATOM     30  C   UNL A   1      40.790  21.194  27.312  1.00  0.00     0.261 C 
BRANCH  30  31
ATOM     31  O   UNL A   1      40.916  22.439  26.640  1.00  0.00    -0.460 OA
BRANCH  31  32
ATOM     32  C   UNL A   1      39.744  23.071  26.400  1.00  0.00     0.338 C 
ATOM     33  O   UNL A   1      38.741  22.587  25.911  1.00  0.00    -0.246 OA
BRANCH  32  34
ATOM     34  C   UNL A   1      39.805  24.378  27.098  1.00  0.00     0.060 A 
ATOM     35  C   UNL A   1      40.347  25.464  26.396  1.00  0.00     0.016 A 
ATOM     36  C   UNL A   1      39.225  24.574  28.355  1.00  0.00     0.016 A 
ATOM     37  C   UNL A   1      40.333  26.738  26.952  1.00  0.00     0.010 A 
ATOM     38  C   UNL A   1      39.259  25.843  28.937  1.00  0.00     0.010 A 
ATOM     39  C   UNL A   1      39.851  26.918  28.253  1.00  0.00    -0.014 A 
BRANCH  39  40
ATOM     40  C   UNL A   1      40.233  28.145  28.990  1.00  0.00     0.031 A 
ATOM     41  C   UNL A   1      41.656  28.249  29.467  1.00  0.00     0.074 A 
ATOM     42  C   UNL A   1      39.376  29.162  29.185  1.00  0.00     0.049 A 
ATOM     43  N   UNL A   1      42.237  29.198  30.154  1.00  0.00    -0.248 NA
ATOM     44  C   UNL A   1      42.546  27.126  29.122  1.00  0.00     0.031 C 
ATOM     45  C   UNL A   1      37.995  29.209  28.717  1.00  0.00     0.029 A 
ATOM     46  N   UNL A   1      39.557  30.359  29.836  1.00  0.00    -0.354 N 
ATOM     47  C   UNL A   1      43.551  28.783  30.326  1.00  0.00     0.074 A 
ATOM     48  C   UNL A   1      43.676  27.482  29.710  1.00  0.00     0.031 C 
ATOM     49  C   UNL A   1      37.447  30.374  29.105  1.00  0.00     0.029 A 
ATOM     50  C   UNL A   1      38.429  31.140  29.877  1.00  0.00     0.049 A 
ATOM     51  H   UNL A   1      40.414  30.630  30.236  1.00  0.00     0.167 HD
ATOM     52  C   UNL A   1      44.567  29.438  30.931  1.00  0.00     0.037 A 
ATOM     53  C   UNL A   1      38.212  32.324  30.484  1.00  0.00     0.037 A 
ATOM     54  C   UNL A   1      44.443  30.736  31.533  1.00  0.00     0.049 A 
ATOM     55  C   UNL A   1      39.339  32.996  31.233  1.00  0.00     0.074 A 
ATOM     56  C   UNL A   1      45.425  31.488  32.155  1.00  0.00     0.029 A 
ATOM     57  N   UNL A   1      43.272  31.473  31.595  1.00  0.00    -0.354 N 
ATOM     58  N   UNL A   1      40.584  32.610  31.374  1.00  0.00    -0.248 NA
ATOM     59  C   UNL A   1      39.032  34.270  31.903  1.00  0.00     0.031 C 
ATOM     60  C   UNL A   1      44.830  32.645  32.659  1.00  0.00     0.029 A 
ATOM     61  C   UNL A   1      43.497  32.655  32.280  1.00  0.00     0.049 A 
ATOM     62  H   UNL A   1      42.407  31.198  31.211  1.00  0.00     0.167 HD
ATOM     63  C   UNL A   1      41.213  33.603  32.116  1.00  0.00     0.074 A 
ATOM     64  C   UNL A   1      40.217  34.616  32.388  1.00  0.00     0.031 C 
ATOM     65  C   UNL A   1      42.503  33.668  32.533  1.00  0.00     0.037 A 
BRANCH  52  66
ATOM     66  C   UNL A   1      45.904  28.759  30.991  1.00  0.00     0.064 A 
ATOM     67  C   UNL A   1      46.818  28.907  29.936  1.00  0.00     0.173 A 
ATOM     68  C   UNL A   1      46.251  27.901  32.044  1.00  0.00     0.173 A 
ATOM     69  F   UNL A   1      46.534  29.716  28.903  1.00  0.00    -0.203 F 
ATOM     70  C   UNL A   1      48.016  28.200  29.921  1.00  0.00     0.198 A 
ATOM     71  C   UNL A   1      47.467  27.222  32.043  1.00  0.00     0.198 A 
ATOM     72  F   UNL A   1      45.421  27.738  33.086  1.00  0.00    -0.203 F 
ATOM     73  F   UNL A   1      48.850  28.321  28.878  1.00  0.00    -0.200 F 
ATOM     74  C   UNL A   1      48.341  27.361  30.975  1.00  0.00     0.200 A 
ATOM     75  F   UNL A   1      47.793  26.433  33.076  1.00  0.00    -0.200 F 
ATOM     76  F   UNL A   1      49.498  26.686  30.962  1.00  0.00    -0.200 F 
ENDBRANCH  52  66
BRANCH  53  77
ATOM     77  C   UNL A   1      36.865  32.954  30.412  1.00  0.00     0.064 A 
ATOM     78  C   UNL A   1      36.423  33.598  29.246  1.00  0.00     0.173 A 
ATOM     79  C   UNL A   1      35.992  32.926  31.508  1.00  0.00     0.173 A 
ATOM     80  F   UNL A   1      37.215  33.649  28.165  1.00  0.00    -0.203 F 
ATOM     81  C   UNL A   1      35.174  34.212  29.190  1.00  0.00     0.198 A 
ATOM     82  C   UNL A   1      34.728  33.511  31.439  1.00  0.00     0.198 A 
ATOM     83  F   UNL A   1      36.353  32.297  32.637  1.00  0.00    -0.203 F 
ATOM     84  F   UNL A   1      34.795  34.855  28.076  1.00  0.00    -0.200 F 
ATOM     85  C   UNL A   1      34.325  34.163  30.284  1.00  0.00     0.200 A 
ATOM     86  F   UNL A   1      33.899  33.435  32.489  1.00  0.00    -0.200 F 
ATOM     87  F   UNL A   1      33.118  34.741  30.225  1.00  0.00    -0.200 F 
ENDBRANCH  53  77
BRANCH  65  88
ATOM     88  C   UNL A   1      42.946  34.882  33.301  1.00  0.00     0.064 A 
ATOM     89  C   UNL A   1      43.446  36.007  32.621  1.00  0.00     0.173 A 
ATOM     90  C   UNL A   1      42.991  34.895  34.702  1.00  0.00     0.173 A 
ATOM     91  F   UNL A   1      43.439  36.044  31.280  1.00  0.00    -0.203 F 
ATOM     92  C   UNL A   1      43.996  37.081  33.314  1.00  0.00     0.198 A 
ATOM     93  C   UNL A   1      43.510  35.987  35.394  1.00  0.00     0.198 A 
ATOM     94  F   UNL A   1      42.521  33.850  35.401  1.00  0.00    -0.203 F 
ATOM     95  F   UNL A   1      44.516  38.116  32.640  1.00  0.00    -0.200 F 
ATOM     96  C   UNL A   1      44.025  37.072  34.700  1.00  0.00     0.200 A 
ATOM     97  F   UNL A   1      43.516  35.987  36.734  1.00  0.00    -0.200 F 
ATOM     98  F   UNL A   1      44.553  38.107  35.367  1.00  0.00    -0.200 F 
ENDBRANCH  65  88
ENDBRANCH  39  40
ENDBRANCH  32  34
ENDBRANCH  31  32
ENDBRANCH  30  31
ENDBRANCH  29  30
ENDBRANCH  28  29
ENDBRANCH  27  28
ENDBRANCH   1  27
TORSDOF 21
ENDMDL
