MODEL 1
REMARK VINA RESULT:     -10.9      0.000      0.000
REMARK SMILES O=C(OCCOCCOCCOC(=O)c1cc(S(=O)(=O)Nc2cccc(Cl)c2)ccc1O)c1ccc(-c2c3nc(c(-c4c(F)c(F)c(F)c(F)c4F)c4ccc([nH]4)c(-c4c(F)c(F)c(F)c(F)c4F)c4nc(c(-c5c(F)c(F)c(F)c(F)c5F)c5ccc2[nH]5)C=C4)C=C3)cc1
REMARK SMILES IDX 8 1 7 2 6 3 5 4 4 5 3 6 2 7 1 8 33 9 34 10 95 11 35 12 94 13
REMARK SMILES IDX 36 14 37 15 38 16 88 17 39 18 93 19 87 20 89 21 40 22 92 23
REMARK SMILES IDX 86 24 85 25 41 27 73 28 53 29 72 30 54 31 57 32 71 33 90 34
REMARK SMILES IDX 55 35 56 36 70 38 91 39 58 40 42 41 43 42 51 43 44 44 45 45
REMARK SMILES IDX 49 46 52 47 46 48 47 49 50 50 48 51 74 52 75 53 83 54 76 55
REMARK SMILES IDX 77 56 81 57 84 58 78 59 79 60 82 61 80 62 59 63 60 64 68 65
REMARK SMILES IDX 61 66 62 67 66 68 69 69 63 70 64 71 67 72 65 73 9 74 10 75
REMARK SMILES IDX 11 76 12 77 13 78 14 79 15 80 16 81 31 82 17 83 30 84 29 85
REMARK SMILES IDX 32 86 18 88 19 89 20 90 21 91 22 93 23 94 28 95 24 96 26 97
REMARK SMILES IDX 25 98 27 99
REMARK H PARENT 89 26 57 37 32 87 21 92
REMARK Flexibility Score: inf
ROOT
ATOM      1  C   UNL A   1      36.828  23.400  25.006  1.00  0.00     0.188 C 
ENDROOT
BRANCH   1   2
ATOM      2  C   UNL A   1      36.913  22.163  24.125  1.00  0.00     0.188 C 
BRANCH   2   3
ATOM      3  O   UNL A   1      37.205  20.947  24.812  1.00  0.00    -0.376 OA
BRANCH   3   4
ATOM      4  C   UNL A   1      38.521  20.823  25.347  1.00  0.00     0.202 C 
BRANCH   4   5
ATOM      5  C   UNL A   1      39.040  19.419  25.747  1.00  0.00     0.261 C 
BRANCH   5   6
ATOM      6  O   UNL A   1      40.446  19.127  25.559  1.00  0.00    -0.460 OA
BRANCH   6   7
ATOM      7  C   UNL A   1      41.573  19.464  26.225  1.00  0.00     0.338 C 
ATOM      8  O   UNL A   1      42.275  18.561  26.676  1.00  0.00    -0.246 OA
BRANCH   7   9
ATOM      9  C   UNL A   1      41.996  20.870  26.489  1.00  0.00     0.060 A 
ATOM     10  C   UNL A   1      42.223  21.390  27.755  1.00  0.00     0.016 A 
ATOM     11  C   UNL A   1      42.254  21.703  25.386  1.00  0.00     0.016 A 
ATOM     12  C   UNL A   1      42.641  22.695  27.950  1.00  0.00     0.010 A 
ATOM     13  C   UNL A   1      42.706  23.018  25.567  1.00  0.00     0.010 A 
ATOM     14  C   UNL A   1      42.884  23.521  26.860  1.00  0.00    -0.014 A 
BRANCH  14  15
ATOM     15  C   UNL A   1      43.161  24.943  27.132  1.00  0.00     0.031 A 
ATOM     16  C   UNL A   1      44.506  25.476  26.756  1.00  0.00     0.074 A 
ATOM     17  C   UNL A   1      42.171  25.783  27.485  1.00  0.00     0.049 A 
ATOM     18  N   UNL A   1      44.984  26.680  26.903  1.00  0.00    -0.248 NA
ATOM     19  C   UNL A   1      45.410  24.546  26.057  1.00  0.00     0.031 C 
ATOM     20  C   UNL A   1      40.756  25.424  27.566  1.00  0.00     0.029 A 
ATOM     21  N   UNL A   1      42.184  27.121  27.788  1.00  0.00    -0.354 N 
ATOM     22  C   UNL A   1      46.235  26.657  26.305  1.00  0.00     0.074 A 
ATOM     23  C   UNL A   1      46.459  25.318  25.814  1.00  0.00     0.031 C 
ATOM     24  C   UNL A   1      40.047  26.514  27.897  1.00  0.00     0.029 A 
ATOM     25  C   UNL A   1      40.959  27.602  28.181  1.00  0.00     0.049 A 
ATOM     26  H   UNL A   1      42.992  27.681  27.729  1.00  0.00     0.167 HD
ATOM     27  C   UNL A   1      47.105  27.681  26.175  1.00  0.00     0.037 A 
ATOM     28  C   UNL A   1      40.626  28.764  28.772  1.00  0.00     0.037 A 
ATOM     29  C   UNL A   1      46.845  29.003  26.676  1.00  0.00     0.049 A 
ATOM     30  C   UNL A   1      41.721  29.775  28.924  1.00  0.00     0.074 A 
ATOM     31  C   UNL A   1      47.669  30.112  26.654  1.00  0.00     0.029 A 
ATOM     32  N   UNL A   1      45.667  29.385  27.305  1.00  0.00    -0.354 N 
ATOM     33  N   UNL A   1      42.934  29.742  28.429  1.00  0.00    -0.248 NA
ATOM     34  C   UNL A   1      41.414  30.983  29.695  1.00  0.00     0.031 C 
ATOM     35  C   UNL A   1      47.017  31.144  27.336  1.00  0.00     0.029 A 
ATOM     36  C   UNL A   1      45.761  30.700  27.723  1.00  0.00     0.049 A 
ATOM     37  H   UNL A   1      44.882  28.806  27.433  1.00  0.00     0.167 HD
ATOM     38  C   UNL A   1      43.510  30.955  28.757  1.00  0.00     0.074 A 
ATOM     39  C   UNL A   1      42.517  31.695  29.511  1.00  0.00     0.031 C 
ATOM     40  C   UNL A   1      44.742  31.422  28.442  1.00  0.00     0.037 A 
BRANCH  27  41
ATOM     41  C   UNL A   1      48.428  27.385  25.544  1.00  0.00     0.064 A 
ATOM     42  C   UNL A   1      49.566  27.071  26.301  1.00  0.00     0.173 A 
ATOM     43  C   UNL A   1      48.554  27.415  24.147  1.00  0.00     0.173 A 
ATOM     44  F   UNL A   1      49.507  27.064  27.640  1.00  0.00    -0.203 F 
ATOM     45  C   UNL A   1      50.786  26.808  25.679  1.00  0.00     0.198 A 
ATOM     46  C   UNL A   1      49.766  27.127  23.529  1.00  0.00     0.198 A 
ATOM     47  F   UNL A   1      47.496  27.725  23.382  1.00  0.00    -0.203 F 
ATOM     48  F   UNL A   1      51.873  26.552  26.421  1.00  0.00    -0.200 F 
ATOM     49  C   UNL A   1      50.882  26.827  24.294  1.00  0.00     0.200 A 
ATOM     50  F   UNL A   1      49.854  27.144  22.193  1.00  0.00    -0.200 F 
ATOM     51  F   UNL A   1      52.053  26.567  23.699  1.00  0.00    -0.200 F 
ENDBRANCH  27  41
BRANCH  28  52
ATOM     52  C   UNL A   1      39.274  28.995  29.359  1.00  0.00     0.064 A 
ATOM     53  C   UNL A   1      38.239  29.614  28.645  1.00  0.00     0.173 A 
ATOM     54  C   UNL A   1      39.021  28.687  30.705  1.00  0.00     0.173 A 
ATOM     55  F   UNL A   1      38.422  29.951  27.361  1.00  0.00    -0.203 F 
ATOM     56  C   UNL A   1      37.031  29.950  29.263  1.00  0.00     0.198 A 
ATOM     57  C   UNL A   1      37.804  28.987  31.313  1.00  0.00     0.198 A 
ATOM     58  F   UNL A   1      39.963  28.079  31.437  1.00  0.00    -0.203 F 
ATOM     59  F   UNL A   1      36.088  30.603  28.572  1.00  0.00    -0.200 F 
ATOM     60  C   UNL A   1      36.815  29.635  30.597  1.00  0.00     0.200 A 
ATOM     61  F   UNL A   1      37.594  28.646  32.592  1.00  0.00    -0.200 F 
ATOM     62  F   UNL A   1      35.659  29.961  31.192  1.00  0.00    -0.200 F 
ENDBRANCH  28  52
BRANCH  40  63
ATOM     63  C   UNL A   1      45.035  32.836  28.826  1.00  0.00     0.064 A 
ATOM     64  C   UNL A   1      44.688  33.915  28.004  1.00  0.00     0.173 A 
ATOM     65  C   UNL A   1      45.662  33.108  30.051  1.00  0.00     0.173 A 
ATOM     66  F   UNL A   1      44.112  33.698  26.810  1.00  0.00    -0.203 F 
ATOM     67  C   UNL A   1      44.986  35.219  28.382  1.00  0.00     0.198 A 
ATOM     68  C   UNL A   1      45.920  34.414  30.445  1.00  0.00     0.198 A 
ATOM     69  F   UNL A   1      46.014  32.105  30.870  1.00  0.00    -0.203 F 
ATOM     70  F   UNL A   1      44.705  36.234  27.554  1.00  0.00    -0.200 F 
ATOM     71  C   UNL A   1      45.590  35.469  29.606  1.00  0.00     0.200 A 
ATOM     72  F   UNL A   1      46.490  34.653  31.634  1.00  0.00    -0.200 F 
ATOM     73  F   UNL A   1      45.866  36.727  29.973  1.00  0.00    -0.200 F 
ENDBRANCH  40  63
ENDBRANCH  14  15
ENDBRANCH   7   9
ENDBRANCH   6   7
ENDBRANCH   5   6
ENDBRANCH   4   5
ENDBRANCH   3   4
ENDBRANCH   2   3
ENDBRANCH   1   2
BRANCH   1  74
ATOM     74  O   UNL A   1      35.486  23.645  25.360  1.00  0.00    -0.376 OA
BRANCH  74  75
ATOM     75  C   UNL A   1      35.039  23.169  26.622  1.00  0.00     0.202 C 
BRANCH  75  76
ATOM     76  C   UNL A   1      34.037  22.010  26.812  1.00  0.00     0.261 C 
BRANCH  76  77
ATOM     77  O   UNL A   1      32.632  22.283  26.927  1.00  0.00    -0.460 OA
BRANCH  77  78
ATOM     78  C   UNL A   1      31.873  22.108  25.827  1.00  0.00     0.342 C 
ATOM     79  O   UNL A   1      31.590  21.053  25.276  1.00  0.00    -0.246 OA
BRANCH  78  80
ATOM     80  C   UNL A   1      31.529  23.444  25.324  1.00  0.00     0.103 A 
ATOM     81  C   UNL A   1      32.053  23.965  24.126  1.00  0.00     0.041 A 
ATOM     82  C   UNL A   1      30.642  24.196  26.094  1.00  0.00     0.130 A 
ATOM     83  C   UNL A   1      31.632  25.234  23.684  1.00  0.00     0.088 A 
ATOM     84  C   UNL A   1      30.253  25.451  25.664  1.00  0.00     0.048 A 
ATOM     85  C   UNL A   1      30.679  25.926  24.426  1.00  0.00     0.026 A 
BRANCH  82  86
ATOM     86  O   UNL A   1      30.114  23.681  27.242  1.00  0.00    -0.507 OA
ATOM     87  H   UNL A   1      30.272  24.104  28.063  1.00  0.00     0.293 HD
ENDBRANCH  82  86
BRANCH  83  88
ATOM     88  S   UNL A   1      32.444  25.955  22.266  1.00  0.00     0.261 S 
ATOM     89  O   UNL A   1      33.509  25.044  21.901  1.00  0.00    -0.201 OA
ATOM     90  O   UNL A   1      31.405  26.290  21.316  1.00  0.00    -0.201 OA
BRANCH  88  91
ATOM     91  N   UNL A   1      33.190  27.430  22.661  1.00  0.00    -0.280 N 
ATOM     92  H   UNL A   1      33.580  27.965  21.933  1.00  0.00     0.180 HD
BRANCH  91  93
ATOM     93  C   UNL A   1      33.279  27.937  23.996  1.00  0.00     0.050 A 
ATOM     94  C   UNL A   1      34.009  27.331  25.021  1.00  0.00     0.027 A 
ATOM     95  C   UNL A   1      32.550  29.104  24.255  1.00  0.00     0.047 A 
ATOM     96  C   UNL A   1      33.855  27.782  26.335  1.00  0.00     0.004 A 
ATOM     97  C   UNL A   1      32.423  29.563  25.564  1.00  0.00     0.043 A 
ATOM     98  C   UNL A   1      33.051  28.890  26.609  1.00  0.00     0.020 A 
ATOM     99  Cl  UNL A   1      31.409  30.912  25.906  1.00  0.00    -0.084 Cl
ENDBRANCH  91  93
ENDBRANCH  88  91
ENDBRANCH  83  88
ENDBRANCH  78  80
ENDBRANCH  77  78
ENDBRANCH  76  77
ENDBRANCH  75  76
ENDBRANCH  74  75
ENDBRANCH   1  74
TORSDOF 21
ENDMDL
MODEL 2
REMARK VINA RESULT:     -10.7      1.237      7.141
REMARK SMILES O=C(OCCOCCOCCOC(=O)c1cc(S(=O)(=O)Nc2cccc(Cl)c2)ccc1O)c1ccc(-c2c3nc(c(-c4c(F)c(F)c(F)c(F)c4F)c4ccc([nH]4)c(-c4c(F)c(F)c(F)c(F)c4F)c4nc(c(-c5c(F)c(F)c(F)c(F)c5F)c5ccc2[nH]5)C=C4)C=C3)cc1
REMARK SMILES IDX 8 1 7 2 6 3 5 4 4 5 3 6 2 7 1 8 33 9 34 10 95 11 35 12 94 13
REMARK SMILES IDX 36 14 37 15 38 16 88 17 39 18 93 19 87 20 89 21 40 22 92 23
REMARK SMILES IDX 86 24 85 25 41 27 73 28 53 29 72 30 54 31 57 32 71 33 90 34
REMARK SMILES IDX 55 35 56 36 70 38 91 39 58 40 42 41 43 42 51 43 44 44 45 45
REMARK SMILES IDX 49 46 52 47 46 48 47 49 50 50 48 51 74 52 75 53 83 54 76 55
REMARK SMILES IDX 77 56 81 57 84 58 78 59 79 60 82 61 80 62 59 63 60 64 68 65
REMARK SMILES IDX 61 66 62 67 66 68 69 69 63 70 64 71 67 72 65 73 9 74 10 75
REMARK SMILES IDX 11 76 12 77 13 78 14 79 15 80 16 81 31 82 17 83 30 84 29 85
REMARK SMILES IDX 32 86 18 88 19 89 20 90 21 91 22 93 23 94 28 95 24 96 26 97
REMARK SMILES IDX 25 98 27 99
REMARK H PARENT 89 26 57 37 32 87 21 92
REMARK Flexibility Score: inf
ROOT
ATOM      1  C   UNL A   1      37.346  22.777  25.204  1.00  0.00     0.188 C 
ENDROOT
BRANCH   1   2
ATOM      2  C   UNL A   1      37.314  21.449  24.463  1.00  0.00     0.188 C 
BRANCH   2   3
ATOM      3  O   UNL A   1      37.896  20.350  25.162  1.00  0.00    -0.376 OA
BRANCH   3   4
ATOM      4  C   UNL A   1      39.295  20.438  25.426  1.00  0.00     0.202 C 
BRANCH   4   5
ATOM      5  C   UNL A   1      40.003  19.250  26.127  1.00  0.00     0.261 C 
BRANCH   5   6
ATOM      6  O   UNL A   1      41.290  18.823  25.620  1.00  0.00    -0.460 OA
BRANCH   6   7
ATOM      7  C   UNL A   1      42.540  19.337  25.676  1.00  0.00     0.338 C 
ATOM      8  O   UNL A   1      43.487  18.588  25.446  1.00  0.00    -0.246 OA
BRANCH   7   9
ATOM      9  C   UNL A   1      42.845  20.749  26.046  1.00  0.00     0.060 A 
ATOM     10  C   UNL A   1      43.265  21.717  25.145  1.00  0.00     0.016 A 
ATOM     11  C   UNL A   1      42.622  21.150  27.376  1.00  0.00     0.016 A 
ATOM     12  C   UNL A   1      43.511  23.023  25.530  1.00  0.00     0.010 A 
ATOM     13  C   UNL A   1      42.838  22.476  27.774  1.00  0.00     0.010 A 
ATOM     14  C   UNL A   1      43.302  23.415  26.846  1.00  0.00    -0.014 A 
BRANCH  14  15
ATOM     15  C   UNL A   1      43.740  24.768  27.231  1.00  0.00     0.031 A 
ATOM     16  C   UNL A   1      42.689  25.758  27.618  1.00  0.00     0.074 A 
ATOM     17  C   UNL A   1      45.040  25.035  27.454  1.00  0.00     0.049 A 
ATOM     18  N   UNL A   1      42.826  27.002  27.983  1.00  0.00    -0.248 NA
ATOM     19  C   UNL A   1      41.303  25.260  27.669  1.00  0.00     0.031 C 
ATOM     20  C   UNL A   1      46.117  24.047  27.415  1.00  0.00     0.029 A 
ATOM     21  N   UNL A   1      45.678  26.196  27.810  1.00  0.00    -0.354 N 
ATOM     22  C   UNL A   1      41.551  27.432  28.318  1.00  0.00     0.074 A 
ATOM     23  C   UNL A   1      40.646  26.329  28.092  1.00  0.00     0.031 C 
ATOM     24  C   UNL A   1      47.273  24.648  27.733  1.00  0.00     0.029 A 
ATOM     25  C   UNL A   1      47.045  26.072  27.863  1.00  0.00     0.049 A 
ATOM     26  H   UNL A   1      45.202  27.035  28.007  1.00  0.00     0.167 HD
ATOM     27  C   UNL A   1      41.186  28.644  28.786  1.00  0.00     0.037 A 
ATOM     28  C   UNL A   1      48.005  27.012  27.934  1.00  0.00     0.037 A 
ATOM     29  C   UNL A   1      42.117  29.719  29.000  1.00  0.00     0.049 A 
ATOM     30  C   UNL A   1      47.544  28.426  28.117  1.00  0.00     0.074 A 
ATOM     31  C   UNL A   1      41.864  31.010  29.420  1.00  0.00     0.029 A 
ATOM     32  N   UNL A   1      43.487  29.620  28.794  1.00  0.00    -0.354 N 
ATOM     33  N   UNL A   1      46.333  28.862  28.364  1.00  0.00    -0.248 NA
ATOM     34  C   UNL A   1      48.565  29.476  28.049  1.00  0.00     0.031 C 
ATOM     35  C   UNL A   1      43.072  31.713  29.396  1.00  0.00     0.029 A 
ATOM     36  C   UNL A   1      44.088  30.844  29.027  1.00  0.00     0.049 A 
ATOM     37  H   UNL A   1      43.960  28.800  28.524  1.00  0.00     0.167 HD
ATOM     38  C   UNL A   1      46.455  30.225  28.560  1.00  0.00     0.074 A 
ATOM     39  C   UNL A   1      47.858  30.545  28.386  1.00  0.00     0.031 C 
ATOM     40  C   UNL A   1      45.494  31.124  28.879  1.00  0.00     0.037 A 
BRANCH  27  41
ATOM     41  C   UNL A   1      39.727  28.885  29.013  1.00  0.00     0.064 A 
ATOM     42  C   UNL A   1      38.864  29.285  27.982  1.00  0.00     0.173 A 
ATOM     43  C   UNL A   1      39.185  28.707  30.294  1.00  0.00     0.173 A 
ATOM     44  F   UNL A   1      39.340  29.503  26.748  1.00  0.00    -0.203 F 
ATOM     45  C   UNL A   1      37.511  29.508  28.232  1.00  0.00     0.198 A 
ATOM     46  C   UNL A   1      37.829  28.906  30.534  1.00  0.00     0.198 A 
ATOM     47  F   UNL A   1      39.974  28.340  31.315  1.00  0.00    -0.203 F 
ATOM     48  F   UNL A   1      36.710  29.931  27.244  1.00  0.00    -0.200 F 
ATOM     49  C   UNL A   1      36.994  29.309  29.504  1.00  0.00     0.200 A 
ATOM     50  F   UNL A   1      37.334  28.711  31.763  1.00  0.00    -0.200 F 
ATOM     51  F   UNL A   1      35.692  29.518  29.740  1.00  0.00    -0.200 F 
ENDBRANCH  27  41
BRANCH  28  52
ATOM     52  C   UNL A   1      49.446  26.690  27.719  1.00  0.00     0.064 A 
ATOM     53  C   UNL A   1      49.979  26.434  26.449  1.00  0.00     0.173 A 
ATOM     54  C   UNL A   1      50.309  26.527  28.815  1.00  0.00     0.173 A 
ATOM     55  F   UNL A   1      49.204  26.554  25.363  1.00  0.00    -0.203 F 
ATOM     56  C   UNL A   1      51.296  25.994  26.290  1.00  0.00     0.198 A 
ATOM     57  C   UNL A   1      51.633  26.124  28.656  1.00  0.00     0.198 A 
ATOM     58  F   UNL A   1      49.865  26.773  30.054  1.00  0.00    -0.203 F 
ATOM     59  F   UNL A   1      51.755  25.693  25.069  1.00  0.00    -0.200 F 
ATOM     60  C   UNL A   1      52.122  25.840  27.394  1.00  0.00     0.200 A 
ATOM     61  F   UNL A   1      52.430  26.013  29.727  1.00  0.00    -0.200 F 
ATOM     62  F   UNL A   1      53.383  25.412  27.243  1.00  0.00    -0.200 F 
ENDBRANCH  28  52
BRANCH  40  63
ATOM     63  C   UNL A   1      45.954  32.518  29.160  1.00  0.00     0.064 A 
ATOM     64  C   UNL A   1      46.004  33.499  28.161  1.00  0.00     0.173 A 
ATOM     65  C   UNL A   1      46.336  32.875  30.462  1.00  0.00     0.173 A 
ATOM     66  F   UNL A   1      45.675  33.193  26.896  1.00  0.00    -0.203 F 
ATOM     67  C   UNL A   1      46.449  34.783  28.451  1.00  0.00     0.198 A 
ATOM     68  C   UNL A   1      46.740  34.170  30.756  1.00  0.00     0.198 A 
ATOM     69  F   UNL A   1      46.306  31.967  31.450  1.00  0.00    -0.203 F 
ATOM     70  F   UNL A   1      46.552  35.690  27.470  1.00  0.00    -0.200 F 
ATOM     71  C   UNL A   1      46.806  35.121  29.749  1.00  0.00     0.200 A 
ATOM     72  F   UNL A   1      47.070  34.498  32.013  1.00  0.00    -0.200 F 
ATOM     73  F   UNL A   1      47.224  36.363  30.027  1.00  0.00    -0.200 F 
ENDBRANCH  40  63
ENDBRANCH  14  15
ENDBRANCH   7   9
ENDBRANCH   6   7
ENDBRANCH   5   6
ENDBRANCH   4   5
ENDBRANCH   3   4
ENDBRANCH   2   3
ENDBRANCH   1   2
BRANCH   1  74
ATOM     74  O   UNL A   1      36.032  23.189  25.505  1.00  0.00    -0.376 OA
BRANCH  74  75
ATOM     75  C   UNL A   1      35.315  22.446  26.481  1.00  0.00     0.202 C 
BRANCH  75  76
ATOM     76  C   UNL A   1      33.975  21.724  26.217  1.00  0.00     0.261 C 
BRANCH  76  77
ATOM     77  O   UNL A   1      32.737  22.445  26.308  1.00  0.00    -0.460 OA
BRANCH  77  78
ATOM     78  C   UNL A   1      31.916  22.407  25.241  1.00  0.00     0.342 C 
ATOM     79  O   UNL A   1      31.722  21.467  24.482  1.00  0.00    -0.246 OA
BRANCH  78  80
ATOM     80  C   UNL A   1      31.365  23.758  25.074  1.00  0.00     0.103 A 
ATOM     81  C   UNL A   1      31.598  24.539  23.925  1.00  0.00     0.041 A 
ATOM     82  C   UNL A   1      30.583  24.252  26.118  1.00  0.00     0.130 A 
ATOM     83  C   UNL A   1      30.991  25.804  23.817  1.00  0.00     0.088 A 
ATOM     84  C   UNL A   1      30.010  25.506  26.012  1.00  0.00     0.048 A 
ATOM     85  C   UNL A   1      30.144  26.236  24.834  1.00  0.00     0.026 A 
BRANCH  82  86
ATOM     86  O   UNL A   1      30.336  23.485  27.218  1.00  0.00    -0.507 OA
ATOM     87  H   UNL A   1      29.682  23.748  27.837  1.00  0.00     0.293 HD
ENDBRANCH  82  86
BRANCH  83  88
ATOM     88  S   UNL A   1      31.445  26.853  22.445  1.00  0.00     0.261 S 
ATOM     89  O   UNL A   1      31.941  25.973  21.407  1.00  0.00    -0.201 OA
ATOM     90  O   UNL A   1      30.316  27.722  22.193  1.00  0.00    -0.201 OA
BRANCH  88  91
ATOM     91  N   UNL A   1      32.731  27.886  22.852  1.00  0.00    -0.280 N 
ATOM     92  H   UNL A   1      33.299  28.232  22.126  1.00  0.00     0.180 HD
BRANCH  91  93
ATOM     93  C   UNL A   1      33.031  28.281  24.194  1.00  0.00     0.050 A 
ATOM     94  C   UNL A   1      33.863  27.565  25.057  1.00  0.00     0.027 A 
ATOM     95  C   UNL A   1      32.409  29.454  24.638  1.00  0.00     0.047 A 
ATOM     96  C   UNL A   1      33.918  27.917  26.409  1.00  0.00     0.004 A 
ATOM     97  C   UNL A   1      32.490  29.813  25.982  1.00  0.00     0.043 A 
ATOM     98  C   UNL A   1      33.220  29.033  26.875  1.00  0.00     0.020 A 
ATOM     99  Cl  UNL A   1      31.606  31.173  26.561  1.00  0.00    -0.084 Cl
ENDBRANCH  91  93
ENDBRANCH  88  91
ENDBRANCH  83  88
ENDBRANCH  78  80
ENDBRANCH  77  78
ENDBRANCH  76  77
ENDBRANCH  75  76
ENDBRANCH  74  75
ENDBRANCH   1  74
TORSDOF 21
ENDMDL
MODEL 3
REMARK VINA RESULT:     -10.6      1.930      7.684
REMARK SMILES O=C(OCCOCCOCCOC(=O)c1cc(S(=O)(=O)Nc2cccc(Cl)c2)ccc1O)c1ccc(-c2c3nc(c(-c4c(F)c(F)c(F)c(F)c4F)c4ccc([nH]4)c(-c4c(F)c(F)c(F)c(F)c4F)c4nc(c(-c5c(F)c(F)c(F)c(F)c5F)c5ccc2[nH]5)C=C4)C=C3)cc1
REMARK SMILES IDX 8 1 7 2 6 3 5 4 4 5 3 6 2 7 1 8 33 9 34 10 95 11 35 12 94 13
REMARK SMILES IDX 36 14 37 15 38 16 88 17 39 18 93 19 87 20 89 21 40 22 92 23
REMARK SMILES IDX 86 24 85 25 41 27 73 28 53 29 72 30 54 31 57 32 71 33 90 34
REMARK SMILES IDX 55 35 56 36 70 38 91 39 58 40 42 41 43 42 51 43 44 44 45 45
REMARK SMILES IDX 49 46 52 47 46 48 47 49 50 50 48 51 74 52 75 53 83 54 76 55
REMARK SMILES IDX 77 56 81 57 84 58 78 59 79 60 82 61 80 62 59 63 60 64 68 65
REMARK SMILES IDX 61 66 62 67 66 68 69 69 63 70 64 71 67 72 65 73 9 74 10 75
REMARK SMILES IDX 11 76 12 77 13 78 14 79 15 80 16 81 31 82 17 83 30 84 29 85
REMARK SMILES IDX 32 86 18 88 19 89 20 90 21 91 22 93 23 94 28 95 24 96 26 97
REMARK SMILES IDX 25 98 27 99
REMARK H PARENT 89 26 57 37 32 87 21 92
REMARK Flexibility Score: inf
ROOT
ATOM      1  C   UNL A   1      40.063  21.470  26.526  1.00  0.00     0.188 C 
ENDROOT
BRANCH   1   2
ATOM      2  C   UNL A   1      39.619  20.207  25.806  1.00  0.00     0.188 C 
BRANCH   2   3
ATOM      3  O   UNL A   1      40.616  19.193  25.689  1.00  0.00    -0.376 OA
BRANCH   3   4
ATOM      4  C   UNL A   1      41.928  19.540  26.128  1.00  0.00     0.202 C 
BRANCH   4   5
ATOM      5  C   UNL A   1      43.131  18.693  25.644  1.00  0.00     0.261 C 
BRANCH   5   6
ATOM      6  O   UNL A   1      43.862  19.141  24.478  1.00  0.00    -0.460 OA
BRANCH   6   7
ATOM      7  C   UNL A   1      44.964  19.903  24.295  1.00  0.00     0.338 C 
ATOM      8  O   UNL A   1      45.932  19.399  23.727  1.00  0.00    -0.246 OA
BRANCH   7   9
ATOM      9  C   UNL A   1      45.097  21.307  24.780  1.00  0.00     0.060 A 
ATOM     10  C   UNL A   1      44.936  22.427  23.978  1.00  0.00     0.016 A 
ATOM     11  C   UNL A   1      45.325  21.516  26.152  1.00  0.00     0.016 A 
ATOM     12  C   UNL A   1      45.043  23.713  24.478  1.00  0.00     0.010 A 
ATOM     13  C   UNL A   1      45.405  22.812  26.680  1.00  0.00     0.010 A 
ATOM     14  C   UNL A   1      45.279  23.918  25.832  1.00  0.00    -0.014 A 
BRANCH  14  15
ATOM     15  C   UNL A   1      45.550  25.297  26.274  1.00  0.00     0.031 A 
ATOM     16  C   UNL A   1      44.409  26.089  26.827  1.00  0.00     0.074 A 
ATOM     17  C   UNL A   1      46.812  25.747  26.396  1.00  0.00     0.049 A 
ATOM     18  N   UNL A   1      44.397  27.316  27.268  1.00  0.00    -0.248 NA
ATOM     19  C   UNL A   1      43.124  25.382  26.967  1.00  0.00     0.031 C 
ATOM     20  C   UNL A   1      48.014  24.941  26.187  1.00  0.00     0.029 A 
ATOM     21  N   UNL A   1      47.304  26.970  26.777  1.00  0.00    -0.354 N 
ATOM     22  C   UNL A   1      43.113  27.523  27.749  1.00  0.00     0.074 A 
ATOM     23  C   UNL A   1      42.362  26.310  27.526  1.00  0.00     0.031 C 
ATOM     24  C   UNL A   1      49.095  25.693  26.442  1.00  0.00     0.029 A 
ATOM     25  C   UNL A   1      48.673  27.055  26.697  1.00  0.00     0.049 A 
ATOM     26  H   UNL A   1      46.733  27.713  27.079  1.00  0.00     0.167 HD
ATOM     27  C   UNL A   1      42.622  28.635  28.336  1.00  0.00     0.037 A 
ATOM     28  C   UNL A   1      49.486  28.125  26.749  1.00  0.00     0.037 A 
ATOM     29  C   UNL A   1      43.401  29.826  28.543  1.00  0.00     0.049 A 
ATOM     30  C   UNL A   1      48.843  29.439  27.077  1.00  0.00     0.074 A 
ATOM     31  C   UNL A   1      43.004  31.036  29.078  1.00  0.00     0.029 A 
ATOM     32  N   UNL A   1      44.743  29.951  28.207  1.00  0.00    -0.354 N 
ATOM     33  N   UNL A   1      47.612  29.667  27.464  1.00  0.00    -0.248 NA
ATOM     34  C   UNL A   1      49.685  30.635  26.994  1.00  0.00     0.031 C 
ATOM     35  C   UNL A   1      44.087  31.917  28.996  1.00  0.00     0.029 A 
ATOM     36  C   UNL A   1      45.177  31.237  28.474  1.00  0.00     0.049 A 
ATOM     37  H   UNL A   1      45.302  29.232  27.835  1.00  0.00     0.167 HD
ATOM     38  C   UNL A   1      47.550  31.019  27.749  1.00  0.00     0.074 A 
ATOM     39  C   UNL A   1      48.866  31.561  27.472  1.00  0.00     0.031 C 
ATOM     40  C   UNL A   1      46.504  31.739  28.219  1.00  0.00     0.037 A 
BRANCH  27  41
ATOM     41  C   UNL A   1      41.174  28.635  28.712  1.00  0.00     0.064 A 
ATOM     42  C   UNL A   1      40.167  29.020  27.815  1.00  0.00     0.173 A 
ATOM     43  C   UNL A   1      40.792  28.236  30.001  1.00  0.00     0.173 A 
ATOM     44  F   UNL A   1      40.483  29.443  26.583  1.00  0.00    -0.203 F 
ATOM     45  C   UNL A   1      38.828  29.015  28.202  1.00  0.00     0.198 A 
ATOM     46  C   UNL A   1      39.452  28.208  30.376  1.00  0.00     0.198 A 
ATOM     47  F   UNL A   1      41.721  27.874  30.898  1.00  0.00    -0.203 F 
ATOM     48  F   UNL A   1      37.883  29.427  27.346  1.00  0.00    -0.200 F 
ATOM     49  C   UNL A   1      38.472  28.600  29.478  1.00  0.00     0.200 A 
ATOM     50  F   UNL A   1      39.113  27.805  31.607  1.00  0.00    -0.200 F 
ATOM     51  F   UNL A   1      37.184  28.589  29.846  1.00  0.00    -0.200 F 
ENDBRANCH  27  41
BRANCH  28  52
ATOM     52  C   UNL A   1      50.930  28.042  26.381  1.00  0.00     0.064 A 
ATOM     53  C   UNL A   1      51.368  28.027  25.050  1.00  0.00     0.173 A 
ATOM     54  C   UNL A   1      51.907  27.869  27.374  1.00  0.00     0.173 A 
ATOM     55  F   UNL A   1      50.483  28.169  24.054  1.00  0.00    -0.203 F 
ATOM     56  C   UNL A   1      52.710  27.803  24.731  1.00  0.00     0.198 A 
ATOM     57  C   UNL A   1      53.252  27.682  27.059  1.00  0.00     0.198 A 
ATOM     58  F   UNL A   1      51.556  27.891  28.665  1.00  0.00    -0.203 F 
ATOM     59  F   UNL A   1      53.086  27.726  23.448  1.00  0.00    -0.200 F 
ATOM     60  C   UNL A   1      53.651  27.631  25.736  1.00  0.00     0.200 A 
ATOM     61  F   UNL A   1      54.156  27.553  28.039  1.00  0.00    -0.200 F 
ATOM     62  F   UNL A   1      54.937  27.411  25.430  1.00  0.00    -0.200 F 
ENDBRANCH  28  52
BRANCH  40  63
ATOM     63  C   UNL A   1      46.780  33.168  28.559  1.00  0.00     0.064 A 
ATOM     64  C   UNL A   1      47.271  33.550  29.814  1.00  0.00     0.173 A 
ATOM     65  C   UNL A   1      46.561  34.166  27.598  1.00  0.00     0.173 A 
ATOM     66  F   UNL A   1      47.468  32.631  30.772  1.00  0.00    -0.203 F 
ATOM     67  C   UNL A   1      47.507  34.889  30.105  1.00  0.00     0.198 A 
ATOM     68  C   UNL A   1      46.838  35.498  27.878  1.00  0.00     0.198 A 
ATOM     69  F   UNL A   1      46.090  33.846  26.383  1.00  0.00    -0.203 F 
ATOM     70  F   UNL A   1      47.914  35.243  31.331  1.00  0.00    -0.200 F 
ATOM     71  C   UNL A   1      47.301  35.860  29.135  1.00  0.00     0.200 A 
ATOM     72  F   UNL A   1      46.652  36.431  26.935  1.00  0.00    -0.200 F 
ATOM     73  F   UNL A   1      47.538  37.148  29.415  1.00  0.00    -0.200 F 
ENDBRANCH  40  63
ENDBRANCH  14  15
ENDBRANCH   7   9
ENDBRANCH   6   7
ENDBRANCH   5   6
ENDBRANCH   4   5
ENDBRANCH   3   4
ENDBRANCH   2   3
ENDBRANCH   1   2
BRANCH   1  74
ATOM     74  O   UNL A   1      39.112  22.492  26.330  1.00  0.00    -0.376 OA
BRANCH  74  75
ATOM     75  C   UNL A   1      37.903  22.150  25.667  1.00  0.00     0.202 C 
BRANCH  75  76
ATOM     76  C   UNL A   1      37.113  23.104  24.744  1.00  0.00     0.261 C 
BRANCH  76  77
ATOM     77  O   UNL A   1      36.224  24.080  25.309  1.00  0.00    -0.460 OA
BRANCH  77  78
ATOM     78  C   UNL A   1      34.995  23.663  25.674  1.00  0.00     0.342 C 
ATOM     79  O   UNL A   1      34.615  23.353  26.795  1.00  0.00    -0.246 OA
BRANCH  78  80
ATOM     80  C   UNL A   1      34.202  23.533  24.445  1.00  0.00     0.103 A 
ATOM     81  C   UNL A   1      34.059  24.582  23.517  1.00  0.00     0.041 A 
ATOM     82  C   UNL A   1      33.582  22.304  24.223  1.00  0.00     0.130 A 
ATOM     83  C   UNL A   1      33.325  24.362  22.336  1.00  0.00     0.088 A 
ATOM     84  C   UNL A   1      32.844  22.104  23.071  1.00  0.00     0.048 A 
ATOM     85  C   UNL A   1      32.791  23.099  22.098  1.00  0.00     0.026 A 
BRANCH  82  86
ATOM     86  O   UNL A   1      33.742  21.279  25.110  1.00  0.00    -0.507 OA
ATOM     87  H   UNL A   1      34.237  20.521  24.866  1.00  0.00     0.293 HD
ENDBRANCH  82  86
BRANCH  83  88
ATOM     88  S   UNL A   1      32.998  25.753  21.263  1.00  0.00     0.261 S 
ATOM     89  O   UNL A   1      33.935  26.789  21.645  1.00  0.00    -0.201 OA
ATOM     90  O   UNL A   1      32.980  25.240  19.910  1.00  0.00    -0.201 OA
BRANCH  88  91
ATOM     91  N   UNL A   1      31.446  26.389  21.529  1.00  0.00    -0.280 N 
ATOM     92  H   UNL A   1      30.717  26.107  20.930  1.00  0.00     0.180 HD
BRANCH  91  93
ATOM     93  C   UNL A   1      31.140  27.313  22.577  1.00  0.00     0.050 A 
ATOM     94  C   UNL A   1      30.703  28.623  22.370  1.00  0.00     0.027 A 
ATOM     95  C   UNL A   1      31.329  26.840  23.881  1.00  0.00     0.047 A 
ATOM     96  C   UNL A   1      30.642  29.508  23.451  1.00  0.00     0.004 A 
ATOM     97  C   UNL A   1      31.241  27.722  24.956  1.00  0.00     0.043 A 
ATOM     98  C   UNL A   1      30.925  29.061  24.743  1.00  0.00     0.020 A 
ATOM     99  Cl  UNL A   1      31.616  27.177  26.546  1.00  0.00    -0.084 Cl
ENDBRANCH  91  93
ENDBRANCH  88  91
ENDBRANCH  83  88
ENDBRANCH  78  80
ENDBRANCH  77  78
ENDBRANCH  76  77
ENDBRANCH  75  76
ENDBRANCH  74  75
ENDBRANCH   1  74
TORSDOF 21
ENDMDL
