MODEL 1
REMARK VINA RESULT:     -11.0      0.000      0.000
REMARK SMILES CC(=O)OCC1=C(C(=O)OCCOCCOCCOC(=O)c2ccc(-c3c4nc(c(-c5c(F)c(F)c(F)c(F)c5F)c5ccc([nH]5)c(-c5c(F)c(F)c(F)c(F)c5F)c5nc(c(-c6c(F)c(F)c(F)c(F)c6F)c6ccc3[nH]6)C=C5)C=C4)cc2)N2C(=O)[C@H](NC(=O)C3CCCCC3)[C@@H]2SC1
REMARK SMILES IDX 14 1 13 2 12 3 11 4 10 5 8 6 9 7 7 8 6 9 100 10 85 11 99 12
REMARK SMILES IDX 86 13 98 14 87 15 88 16 5 17 4 18 2 19 1 20 3 21 89 22 90 23
REMARK SMILES IDX 91 25 92 26 93 27 97 28 94 29 96 30 95 31 15 32 16 33 17 34
REMARK SMILES IDX 18 35 19 36 20 37 21 38 22 39 23 40 84 41 24 42 83 43 25 44
REMARK SMILES IDX 26 45 27 46 77 47 28 48 82 49 76 50 78 51 29 52 81 53 75 54
REMARK SMILES IDX 74 55 30 57 62 58 42 59 61 60 43 61 46 62 60 63 79 64 44 65
REMARK SMILES IDX 45 66 59 68 80 69 47 70 31 71 32 72 40 73 33 74 34 75 38 76
REMARK SMILES IDX 41 77 35 78 36 79 39 80 37 81 63 82 64 83 72 84 65 85 66 86
REMARK SMILES IDX 70 87 73 88 67 89 68 90 71 91 69 92 48 93 49 94 57 95 50 96
REMARK SMILES IDX 51 97 55 98 58 99 52 100 53 101 56 102 54 103
REMARK H PARENT 89 24 78 56 46 67
REMARK Flexibility Score: inf
ROOT
ATOM      1  C   UNL A   1      39.657  22.038  26.424  1.00  0.00     0.188 C 
ENDROOT
BRANCH   1   2
ATOM      2  O   UNL A   1      39.049  23.294  26.614  1.00  0.00    -0.376 OA
BRANCH   2   3
ATOM      3  C   UNL A   1      37.727  23.491  26.142  1.00  0.00     0.202 C 
BRANCH   3   4
ATOM      4  C   UNL A   1      37.022  22.528  25.166  1.00  0.00     0.261 C 
BRANCH   4   5
ATOM      5  O   UNL A   1      36.312  21.428  25.746  1.00  0.00    -0.459 OA
BRANCH   5   6
ATOM      6  C   UNL A   1      35.072  21.667  26.247  1.00  0.00     0.355 C 
ATOM      7  O   UNL A   1      34.789  21.863  27.416  1.00  0.00    -0.244 OA
BRANCH   6   8
ATOM      8  C   UNL A   1      34.082  21.727  25.116  1.00  0.00     0.134 C 
ATOM      9  C   UNL A   1      33.710  20.624  24.417  1.00  0.00     0.008 C 
ATOM     10  C   UNL A   1      32.643  20.639  23.336  1.00  0.00     0.108 C 
ATOM     11  N   UNL A   1      33.553  22.948  24.824  1.00  0.00    -0.289 N 
ATOM     12  S   UNL A   1      31.470  22.025  23.487  1.00  0.00    -0.129 SA
ATOM     13  C   UNL A   1      33.646  24.221  25.263  1.00  0.00     0.253 C 
ATOM     14  C   UNL A   1      32.786  23.247  23.632  1.00  0.00     0.181 C 
ATOM     15  O   UNL A   1      34.359  24.770  26.063  1.00  0.00    -0.272 OA
ATOM     16  C   UNL A   1      32.470  24.627  24.290  1.00  0.00     0.205 C 
BRANCH   9  17
ATOM     17  C   UNL A   1      34.316  19.246  24.625  1.00  0.00     0.267 C 
BRANCH  17  18
ATOM     18  O   UNL A   1      33.454  18.256  24.061  1.00  0.00    -0.461 OA
BRANCH  18  19
ATOM     19  C   UNL A   1      32.891  17.397  24.952  1.00  0.00     0.302 C 
ATOM     20  C   UNL A   1      33.261  15.990  24.594  1.00  0.00     0.139 C 
ATOM     21  O   UNL A   1      32.152  17.705  25.875  1.00  0.00    -0.253 OA
ENDBRANCH  18  19
ENDBRANCH  17  18
ENDBRANCH   9  17
BRANCH  16  22
ATOM     22  N   UNL A   1      31.145  24.777  24.942  1.00  0.00    -0.342 N 
ATOM     23  C   UNL A   1      30.312  25.858  24.984  1.00  0.00     0.223 C 
ATOM     24  H   UNL A   1      30.818  23.977  25.414  1.00  0.00     0.164 HD
ATOM     25  O   UNL A   1      29.219  25.732  25.536  1.00  0.00    -0.275 OA
BRANCH  23  26
ATOM     26  C   UNL A   1      30.784  27.181  24.396  1.00  0.00     0.078 C 
ATOM     27  C   UNL A   1      29.642  27.893  23.658  1.00  0.00     0.013 C 
ATOM     28  C   UNL A   1      31.334  28.070  25.519  1.00  0.00     0.013 C 
ATOM     29  C   UNL A   1      30.092  29.248  23.115  1.00  0.00     0.001 C 
ATOM     30  C   UNL A   1      31.759  29.440  25.000  1.00  0.00     0.001 C 
ATOM     31  C   UNL A   1      30.644  30.134  24.226  1.00  0.00     0.000 C 
ENDBRANCH  23  26
ENDBRANCH  16  22
ENDBRANCH   6   8
ENDBRANCH   5   6
ENDBRANCH   4   5
ENDBRANCH   3   4
ENDBRANCH   2   3
ENDBRANCH   1   2
BRANCH   1  32
ATOM     32  C   UNL A   1      41.202  22.071  26.513  1.00  0.00     0.188 C 
BRANCH  32  33
ATOM     33  O   UNL A   1      41.999  21.672  25.409  1.00  0.00    -0.376 OA
BRANCH  33  34
ATOM     34  C   UNL A   1      43.401  21.932  25.438  1.00  0.00     0.202 C 
BRANCH  34  35
ATOM     35  C   UNL A   1      44.014  23.014  24.527  1.00  0.00     0.261 C 
BRANCH  35  36
ATOM     36  O   UNL A   1      43.401  24.311  24.627  1.00  0.00    -0.460 OA
BRANCH  36  37
ATOM     37  C   UNL A   1      44.175  25.290  25.156  1.00  0.00     0.338 C 
ATOM     38  O   UNL A   1      45.241  25.704  24.734  1.00  0.00    -0.246 OA
BRANCH  37  39
ATOM     39  C   UNL A   1      43.409  26.000  26.203  1.00  0.00     0.060 A 
ATOM     40  C   UNL A   1      43.750  27.338  26.468  1.00  0.00     0.016 A 
ATOM     41  C   UNL A   1      42.368  25.385  26.898  1.00  0.00     0.016 A 
ATOM     42  C   UNL A   1      43.062  28.060  27.438  1.00  0.00     0.010 A 
ATOM     43  C   UNL A   1      41.705  26.096  27.903  1.00  0.00     0.010 A 
ATOM     44  C   UNL A   1      42.071  27.424  28.196  1.00  0.00    -0.014 A 
BRANCH  44  45
ATOM     45  C   UNL A   1      41.619  28.061  29.454  1.00  0.00     0.031 A 
ATOM     46  C   UNL A   1      40.365  28.890  29.403  1.00  0.00     0.074 A 
ATOM     47  C   UNL A   1      42.275  27.886  30.614  1.00  0.00     0.049 A 
ATOM     48  N   UNL A   1      39.770  29.564  30.352  1.00  0.00    -0.248 NA
ATOM     49  C   UNL A   1      39.689  28.962  28.097  1.00  0.00     0.031 C 
ATOM     50  C   UNL A   1      43.469  27.067  30.800  1.00  0.00     0.029 A 
ATOM     51  N   UNL A   1      42.021  28.406  31.859  1.00  0.00    -0.354 N 
ATOM     52  C   UNL A   1      38.656  30.142  29.757  1.00  0.00     0.074 A 
ATOM     53  C   UNL A   1      38.669  29.763  28.363  1.00  0.00     0.031 C 
ATOM     54  C   UNL A   1      43.860  27.158  32.084  1.00  0.00     0.029 A 
ATOM     55  C   UNL A   1      42.958  28.058  32.800  1.00  0.00     0.049 A 
ATOM     56  H   UNL A   1      41.242  28.974  32.058  1.00  0.00     0.167 HD
ATOM     57  C   UNL A   1      37.702  30.916  30.325  1.00  0.00     0.037 A 
ATOM     58  C   UNL A   1      43.072  28.440  34.088  1.00  0.00     0.037 A 
ATOM     59  C   UNL A   1      37.700  31.308  31.707  1.00  0.00     0.049 A 
ATOM     60  C   UNL A   1      42.038  29.368  34.680  1.00  0.00     0.074 A 
ATOM     61  C   UNL A   1      36.777  32.086  32.383  1.00  0.00     0.029 A 
ATOM     62  N   UNL A   1      38.681  30.960  32.624  1.00  0.00    -0.354 N 
ATOM     63  N   UNL A   1      40.967  29.883  34.122  1.00  0.00    -0.248 NA
ATOM     64  C   UNL A   1      42.228  29.763  36.083  1.00  0.00     0.031 C 
ATOM     65  C   UNL A   1      37.230  32.256  33.696  1.00  0.00     0.029 A 
ATOM     66  C   UNL A   1      38.401  31.531  33.855  1.00  0.00     0.049 A 
ATOM     67  H   UNL A   1      39.461  30.392  32.429  1.00  0.00     0.167 HD
ATOM     68  C   UNL A   1      40.343  30.634  35.112  1.00  0.00     0.074 A 
ATOM     69  C   UNL A   1      41.146  30.496  36.308  1.00  0.00     0.031 C 
ATOM     70  C   UNL A   1      39.206  31.372  35.039  1.00  0.00     0.037 A 
BRANCH  57  71
ATOM     71  C   UNL A   1      36.603  31.418  29.434  1.00  0.00     0.064 A 
ATOM     72  C   UNL A   1      36.543  32.756  29.017  1.00  0.00     0.173 A 
ATOM     73  C   UNL A   1      35.604  30.544  28.981  1.00  0.00     0.173 A 
ATOM     74  F   UNL A   1      37.463  33.637  29.439  1.00  0.00    -0.203 F 
ATOM     75  C   UNL A   1      35.508  33.207  28.202  1.00  0.00     0.198 A 
ATOM     76  C   UNL A   1      34.588  30.990  28.141  1.00  0.00     0.198 A 
ATOM     77  F   UNL A   1      35.613  29.255  29.353  1.00  0.00    -0.203 F 
ATOM     78  F   UNL A   1      35.441  34.501  27.860  1.00  0.00    -0.200 F 
ATOM     79  C   UNL A   1      34.536  32.323  27.758  1.00  0.00     0.200 A 
ATOM     80  F   UNL A   1      33.655  30.132  27.706  1.00  0.00    -0.200 F 
ATOM     81  F   UNL A   1      33.543  32.756  26.971  1.00  0.00    -0.200 F 
ENDBRANCH  57  71
BRANCH  58  82
ATOM     82  C   UNL A   1      44.207  27.950  34.915  1.00  0.00     0.064 A 
ATOM     83  C   UNL A   1      44.148  26.708  35.564  1.00  0.00     0.173 A 
ATOM     84  C   UNL A   1      45.359  28.727  35.102  1.00  0.00     0.173 A 
ATOM     85  F   UNL A   1      43.054  25.941  35.443  1.00  0.00    -0.203 F 
ATOM     86  C   UNL A   1      45.187  26.274  36.386  1.00  0.00     0.198 A 
ATOM     87  C   UNL A   1      46.410  28.279  35.899  1.00  0.00     0.198 A 
ATOM     88  F   UNL A   1      45.462  29.927  34.511  1.00  0.00    -0.203 F 
ATOM     89  F   UNL A   1      45.078  25.110  37.041  1.00  0.00    -0.200 F 
ATOM     90  C   UNL A   1      46.320  27.057  36.548  1.00  0.00     0.200 A 
ATOM     91  F   UNL A   1      47.505  29.038  36.050  1.00  0.00    -0.200 F 
ATOM     92  F   UNL A   1      47.315  26.643  37.344  1.00  0.00    -0.200 F 
ENDBRANCH  58  82
BRANCH  70  93
ATOM     93  C   UNL A   1      38.735  32.052  36.293  1.00  0.00     0.064 A 
ATOM     94  C   UNL A   1      39.032  33.396  36.564  1.00  0.00     0.173 A 
ATOM     95  C   UNL A   1      37.931  31.360  37.214  1.00  0.00     0.173 A 
ATOM     96  F   UNL A   1      39.805  34.100  35.722  1.00  0.00    -0.203 F 
ATOM     97  C   UNL A   1      38.564  34.014  37.722  1.00  0.00     0.198 A 
ATOM     98  C   UNL A   1      37.439  31.990  38.353  1.00  0.00     0.198 A 
ATOM     99  F   UNL A   1      37.607  30.076  36.998  1.00  0.00    -0.203 F 
ATOM    100  F   UNL A   1      38.901  35.284  37.983  1.00  0.00    -0.200 F 
ATOM    101  C   UNL A   1      37.762  33.314  38.610  1.00  0.00     0.200 A 
ATOM    102  F   UNL A   1      36.647  31.318  39.199  1.00  0.00    -0.200 F 
ATOM    103  F   UNL A   1      37.305  33.913  39.718  1.00  0.00    -0.200 F 
ENDBRANCH  70  93
ENDBRANCH  44  45
ENDBRANCH  37  39
ENDBRANCH  36  37
ENDBRANCH  35  36
ENDBRANCH  34  35
ENDBRANCH  33  34
ENDBRANCH  32  33
ENDBRANCH   1  32
TORSDOF 22
ENDMDL
MODEL 2
REMARK VINA RESULT:     -10.9      1.243      4.418
REMARK SMILES CC(=O)OCC1=C(C(=O)OCCOCCOCCOC(=O)c2ccc(-c3c4nc(c(-c5c(F)c(F)c(F)c(F)c5F)c5ccc([nH]5)c(-c5c(F)c(F)c(F)c(F)c5F)c5nc(c(-c6c(F)c(F)c(F)c(F)c6F)c6ccc3[nH]6)C=C5)C=C4)cc2)N2C(=O)[C@H](NC(=O)C3CCCCC3)[C@@H]2SC1
REMARK SMILES IDX 14 1 13 2 12 3 11 4 10 5 8 6 9 7 7 8 6 9 100 10 85 11 99 12
REMARK SMILES IDX 86 13 98 14 87 15 88 16 5 17 4 18 2 19 1 20 3 21 89 22 90 23
REMARK SMILES IDX 91 25 92 26 93 27 97 28 94 29 96 30 95 31 15 32 16 33 17 34
REMARK SMILES IDX 18 35 19 36 20 37 21 38 22 39 23 40 84 41 24 42 83 43 25 44
REMARK SMILES IDX 26 45 27 46 77 47 28 48 82 49 76 50 78 51 29 52 81 53 75 54
REMARK SMILES IDX 74 55 30 57 62 58 42 59 61 60 43 61 46 62 60 63 79 64 44 65
REMARK SMILES IDX 45 66 59 68 80 69 47 70 31 71 32 72 40 73 33 74 34 75 38 76
REMARK SMILES IDX 41 77 35 78 36 79 39 80 37 81 63 82 64 83 72 84 65 85 66 86
REMARK SMILES IDX 70 87 73 88 67 89 68 90 71 91 69 92 48 93 49 94 57 95 50 96
REMARK SMILES IDX 51 97 55 98 58 99 52 100 53 101 56 102 54 103
REMARK H PARENT 89 24 78 56 46 67
REMARK Flexibility Score: inf
ROOT
ATOM      1  C   UNL A   1      40.055  21.165  26.249  1.00  0.00     0.188 C 
ENDROOT
BRANCH   1   2
ATOM      2  O   UNL A   1      39.355  22.384  26.144  1.00  0.00    -0.376 OA
BRANCH   2   3
ATOM      3  C   UNL A   1      38.053  22.376  25.583  1.00  0.00     0.202 C 
BRANCH   3   4
ATOM      4  C   UNL A   1      36.910  23.285  26.076  1.00  0.00     0.261 C 
BRANCH   4   5
ATOM      5  O   UNL A   1      36.319  24.160  25.108  1.00  0.00    -0.459 OA
BRANCH   5   6
ATOM      6  C   UNL A   1      35.883  23.614  23.943  1.00  0.00     0.355 C 
ATOM      7  O   UNL A   1      36.580  23.215  23.025  1.00  0.00    -0.244 OA
BRANCH   6   8
ATOM      8  C   UNL A   1      34.383  23.503  23.976  1.00  0.00     0.134 C 
ATOM      9  C   UNL A   1      33.571  24.533  23.624  1.00  0.00     0.008 C 
ATOM     10  C   UNL A   1      32.058  24.420  23.555  1.00  0.00     0.108 C 
ATOM     11  N   UNL A   1      33.861  22.306  24.365  1.00  0.00    -0.289 N 
ATOM     12  S   UNL A   1      31.463  22.711  23.334  1.00  0.00    -0.129 SA
ATOM     13  C   UNL A   1      34.302  21.093  24.763  1.00  0.00     0.253 C 
ATOM     14  C   UNL A   1      32.469  22.085  24.692  1.00  0.00     0.181 C 
ATOM     15  O   UNL A   1      35.391  20.653  25.024  1.00  0.00    -0.272 OA
ATOM     16  C   UNL A   1      32.814  20.563  24.741  1.00  0.00     0.205 C 
BRANCH   9  17
ATOM     17  C   UNL A   1      34.074  25.921  23.262  1.00  0.00     0.267 C 
BRANCH  17  18
ATOM     18  O   UNL A   1      33.466  26.887  24.122  1.00  0.00    -0.461 OA
BRANCH  18  19
ATOM     19  C   UNL A   1      33.095  28.049  23.523  1.00  0.00     0.302 C 
ATOM     20  C   UNL A   1      34.021  28.343  22.382  1.00  0.00     0.139 C 
ATOM     21  O   UNL A   1      32.184  28.782  23.882  1.00  0.00    -0.253 OA
ENDBRANCH  18  19
ENDBRANCH  17  18
ENDBRANCH   9  17
BRANCH  16  22
ATOM     22  N   UNL A   1      32.458  19.752  23.550  1.00  0.00    -0.342 N 
ATOM     23  C   UNL A   1      32.554  18.404  23.354  1.00  0.00     0.223 C 
ATOM     24  H   UNL A   1      32.100  20.262  22.788  1.00  0.00     0.164 HD
ATOM     25  O   UNL A   1      32.135  17.937  22.296  1.00  0.00    -0.275 OA
BRANCH  23  26
ATOM     26  C   UNL A   1      33.215  17.544  24.424  1.00  0.00     0.078 C 
ATOM     27  C   UNL A   1      32.532  16.173  24.526  1.00  0.00     0.013 C 
ATOM     28  C   UNL A   1      34.704  17.379  24.094  1.00  0.00     0.013 C 
ATOM     29  C   UNL A   1      33.227  15.285  25.556  1.00  0.00     0.001 C 
ATOM     30  C   UNL A   1      35.408  16.467  25.094  1.00  0.00     0.001 C 
ATOM     31  C   UNL A   1      34.708  15.120  25.236  1.00  0.00     0.000 C 
ENDBRANCH  23  26
ENDBRANCH  16  22
ENDBRANCH   6   8
ENDBRANCH   5   6
ENDBRANCH   4   5
ENDBRANCH   3   4
ENDBRANCH   2   3
ENDBRANCH   1   2
BRANCH   1  32
ATOM     32  C   UNL A   1      41.573  21.337  26.501  1.00  0.00     0.188 C 
BRANCH  32  33
ATOM     33  O   UNL A   1      42.518  20.962  25.511  1.00  0.00    -0.376 OA
BRANCH  33  34
ATOM     34  C   UNL A   1      43.711  21.729  25.367  1.00  0.00     0.202 C 
BRANCH  34  35
ATOM     35  C   UNL A   1      43.793  22.857  24.319  1.00  0.00     0.261 C 
BRANCH  35  36
ATOM     36  O   UNL A   1      43.117  24.073  24.682  1.00  0.00    -0.460 OA
BRANCH  36  37
ATOM     37  C   UNL A   1      43.908  25.073  25.142  1.00  0.00     0.338 C 
ATOM     38  O   UNL A   1      44.957  25.471  24.663  1.00  0.00    -0.246 OA
BRANCH  37  39
ATOM     39  C   UNL A   1      43.180  25.825  26.187  1.00  0.00     0.060 A 
ATOM     40  C   UNL A   1      43.560  27.159  26.417  1.00  0.00     0.016 A 
ATOM     41  C   UNL A   1      42.137  25.251  26.913  1.00  0.00     0.016 A 
ATOM     42  C   UNL A   1      42.908  27.918  27.384  1.00  0.00     0.010 A 
ATOM     43  C   UNL A   1      41.511  26.000  27.915  1.00  0.00     0.010 A 
ATOM     44  C   UNL A   1      41.916  27.323  28.172  1.00  0.00    -0.014 A 
BRANCH  44  45
ATOM     45  C   UNL A   1      41.504  27.998  29.425  1.00  0.00     0.031 A 
ATOM     46  C   UNL A   1      40.268  28.855  29.380  1.00  0.00     0.074 A 
ATOM     47  C   UNL A   1      42.178  27.833  30.575  1.00  0.00     0.049 A 
ATOM     48  N   UNL A   1      39.708  29.563  30.325  1.00  0.00    -0.248 NA
ATOM     49  C   UNL A   1      39.568  28.915  28.086  1.00  0.00     0.031 C 
ATOM     50  C   UNL A   1      43.356  26.990  30.757  1.00  0.00     0.029 A 
ATOM     51  N   UNL A   1      41.961  28.386  31.813  1.00  0.00    -0.354 N 
ATOM     52  C   UNL A   1      38.596  30.154  29.739  1.00  0.00     0.074 A 
ATOM     53  C   UNL A   1      38.573  29.745  28.353  1.00  0.00     0.031 C 
ATOM     54  C   UNL A   1      43.775  27.100  32.030  1.00  0.00     0.029 A 
ATOM     55  C   UNL A   1      42.908  28.036  32.744  1.00  0.00     0.049 A 
ATOM     56  H   UNL A   1      41.199  28.975  32.015  1.00  0.00     0.167 HD
ATOM     57  C   UNL A   1      37.672  30.963  30.308  1.00  0.00     0.037 A 
ATOM     58  C   UNL A   1      43.056  28.443  34.021  1.00  0.00     0.037 A 
ATOM     59  C   UNL A   1      37.706  31.384  31.681  1.00  0.00     0.049 A 
ATOM     60  C   UNL A   1      42.056  29.408  34.612  1.00  0.00     0.074 A 
ATOM     61  C   UNL A   1      36.815  32.198  32.357  1.00  0.00     0.029 A 
ATOM     62  N   UNL A   1      38.697  31.034  32.586  1.00  0.00    -0.354 N 
ATOM     63  N   UNL A   1      40.987  29.936  34.064  1.00  0.00    -0.248 NA
ATOM     64  C   UNL A   1      42.282  29.829  36.002  1.00  0.00     0.031 C 
ATOM     65  C   UNL A   1      37.298  32.386  33.657  1.00  0.00     0.029 A 
ATOM     66  C   UNL A   1      38.455  31.637  33.809  1.00  0.00     0.049 A 
ATOM     67  H   UNL A   1      39.460  30.443  32.389  1.00  0.00     0.167 HD
ATOM     68  C   UNL A   1      40.399  30.723  35.048  1.00  0.00     0.074 A 
ATOM     69  C   UNL A   1      41.222  30.591  36.232  1.00  0.00     0.031 C 
ATOM     70  C   UNL A   1      39.279  31.485  34.981  1.00  0.00     0.037 A 
BRANCH  57  71
ATOM     71  C   UNL A   1      36.568  31.472  29.427  1.00  0.00     0.064 A 
ATOM     72  C   UNL A   1      36.514  32.809  29.007  1.00  0.00     0.173 A 
ATOM     73  C   UNL A   1      35.556  30.604  28.988  1.00  0.00     0.173 A 
ATOM     74  F   UNL A   1      37.446  33.683  29.416  1.00  0.00    -0.203 F 
ATOM     75  C   UNL A   1      35.474  33.265  28.202  1.00  0.00     0.198 A 
ATOM     76  C   UNL A   1      34.534  31.056  28.158  1.00  0.00     0.198 A 
ATOM     77  F   UNL A   1      35.559  29.317  29.364  1.00  0.00    -0.203 F 
ATOM     78  F   UNL A   1      35.414  34.559  27.856  1.00  0.00    -0.200 F 
ATOM     79  C   UNL A   1      34.490  32.388  27.772  1.00  0.00     0.200 A 
ATOM     80  F   UNL A   1      33.590  30.205  27.737  1.00  0.00    -0.200 F 
ATOM     81  F   UNL A   1      33.492  32.827  26.994  1.00  0.00    -0.200 F 
ENDBRANCH  57  71
BRANCH  58  82
ATOM     82  C   UNL A   1      44.196  27.944  34.836  1.00  0.00     0.064 A 
ATOM     83  C   UNL A   1      44.062  26.813  35.654  1.00  0.00     0.173 A 
ATOM     84  C   UNL A   1      45.431  28.607  34.841  1.00  0.00     0.173 A 
ATOM     85  F   UNL A   1      42.890  26.162  35.710  1.00  0.00    -0.203 F 
ATOM     86  C   UNL A   1      45.112  26.380  36.463  1.00  0.00     0.198 A 
ATOM     87  C   UNL A   1      46.490  28.156  35.626  1.00  0.00     0.198 A 
ATOM     88  F   UNL A   1      45.610  29.700  34.083  1.00  0.00    -0.203 F 
ATOM     89  F   UNL A   1      44.935  25.332  37.280  1.00  0.00    -0.200 F 
ATOM     90  C   UNL A   1      46.326  27.048  36.444  1.00  0.00     0.200 A 
ATOM     91  F   UNL A   1      47.663  28.802  35.602  1.00  0.00    -0.200 F 
ATOM     92  F   UNL A   1      47.333  26.635  37.227  1.00  0.00    -0.200 F 
ENDBRANCH  58  82
BRANCH  70  93
ATOM     93  C   UNL A   1      38.849  32.203  36.229  1.00  0.00     0.064 A 
ATOM     94  C   UNL A   1      38.048  31.585  37.200  1.00  0.00     0.173 A 
ATOM     95  C   UNL A   1      39.290  33.513  36.480  1.00  0.00     0.173 A 
ATOM     96  F   UNL A   1      37.591  30.338  37.005  1.00  0.00    -0.203 F 
ATOM     97  C   UNL A   1      37.681  32.260  38.362  1.00  0.00     0.198 A 
ATOM     98  C   UNL A   1      38.949  34.172  37.657  1.00  0.00     0.198 A 
ATOM     99  F   UNL A   1      40.068  34.147  35.590  1.00  0.00    -0.203 F 
ATOM    100  F   UNL A   1      36.874  31.667  39.253  1.00  0.00    -0.200 F 
ATOM    101  C   UNL A   1      38.138  33.549  38.593  1.00  0.00     0.200 A 
ATOM    102  F   UNL A   1      39.408  35.409  37.887  1.00  0.00    -0.200 F 
ATOM    103  F   UNL A   1      37.793  34.193  39.717  1.00  0.00    -0.200 F 
ENDBRANCH  70  93
ENDBRANCH  44  45
ENDBRANCH  37  39
ENDBRANCH  36  37
ENDBRANCH  35  36
ENDBRANCH  34  35
ENDBRANCH  33  34
ENDBRANCH  32  33
ENDBRANCH   1  32
TORSDOF 22
ENDMDL
MODEL 3
REMARK VINA RESULT:     -10.5      1.747      3.033
REMARK SMILES CC(=O)OCC1=C(C(=O)OCCOCCOCCOC(=O)c2ccc(-c3c4nc(c(-c5c(F)c(F)c(F)c(F)c5F)c5ccc([nH]5)c(-c5c(F)c(F)c(F)c(F)c5F)c5nc(c(-c6c(F)c(F)c(F)c(F)c6F)c6ccc3[nH]6)C=C5)C=C4)cc2)N2C(=O)[C@H](NC(=O)C3CCCCC3)[C@@H]2SC1
REMARK SMILES IDX 14 1 13 2 12 3 11 4 10 5 8 6 9 7 7 8 6 9 100 10 85 11 99 12
REMARK SMILES IDX 86 13 98 14 87 15 88 16 5 17 4 18 2 19 1 20 3 21 89 22 90 23
REMARK SMILES IDX 91 25 92 26 93 27 97 28 94 29 96 30 95 31 15 32 16 33 17 34
REMARK SMILES IDX 18 35 19 36 20 37 21 38 22 39 23 40 84 41 24 42 83 43 25 44
REMARK SMILES IDX 26 45 27 46 77 47 28 48 82 49 76 50 78 51 29 52 81 53 75 54
REMARK SMILES IDX 74 55 30 57 62 58 42 59 61 60 43 61 46 62 60 63 79 64 44 65
REMARK SMILES IDX 45 66 59 68 80 69 47 70 31 71 32 72 40 73 33 74 34 75 38 76
REMARK SMILES IDX 41 77 35 78 36 79 39 80 37 81 63 82 64 83 72 84 65 85 66 86
REMARK SMILES IDX 70 87 73 88 67 89 68 90 71 91 69 92 48 93 49 94 57 95 50 96
REMARK SMILES IDX 51 97 55 98 58 99 52 100 53 101 56 102 54 103
REMARK H PARENT 89 24 78 56 46 67
REMARK Flexibility Score: inf
ROOT
ATOM      1  C   UNL A   1      38.318  22.323  25.852  1.00  0.00     0.188 C 
ENDROOT
BRANCH   1   2
ATOM      2  O   UNL A   1      37.716  21.816  24.684  1.00  0.00    -0.376 OA
BRANCH   2   3
ATOM      3  C   UNL A   1      36.728  22.598  24.032  1.00  0.00     0.202 C 
BRANCH   3   4
ATOM      4  C   UNL A   1      35.572  23.297  24.775  1.00  0.00     0.261 C 
BRANCH   4   5
ATOM      5  O   UNL A   1      34.758  24.190  24.005  1.00  0.00    -0.459 OA
BRANCH   5   6
ATOM      6  C   UNL A   1      33.654  23.678  23.401  1.00  0.00     0.355 C 
ATOM      7  O   UNL A   1      33.637  22.873  22.486  1.00  0.00    -0.244 OA
BRANCH   6   8
ATOM      8  C   UNL A   1      32.423  24.207  24.085  1.00  0.00     0.134 C 
ATOM      9  C   UNL A   1      31.853  23.575  25.144  1.00  0.00     0.008 C 
ATOM     10  C   UNL A   1      30.669  24.135  25.913  1.00  0.00     0.108 C 
ATOM     11  N   UNL A   1      31.901  25.370  23.604  1.00  0.00    -0.289 N 
ATOM     12  S   UNL A   1      30.488  25.942  25.760  1.00  0.00    -0.129 SA
ATOM     13  C   UNL A   1      32.160  26.267  22.628  1.00  0.00     0.253 C 
ATOM     14  C   UNL A   1      30.601  25.897  23.963  1.00  0.00     0.181 C 
ATOM     15  O   UNL A   1      32.947  26.294  21.718  1.00  0.00    -0.272 OA
ATOM     16  C   UNL A   1      31.014  27.193  23.196  1.00  0.00     0.205 C 
BRANCH   9  17
ATOM     17  C   UNL A   1      32.324  22.235  25.683  1.00  0.00     0.267 C 
BRANCH  17  18
ATOM     18  O   UNL A   1      31.616  21.182  25.025  1.00  0.00    -0.461 OA
BRANCH  18  19
ATOM     19  C   UNL A   1      32.316  20.030  24.848  1.00  0.00     0.302 C 
ATOM     20  C   UNL A   1      32.435  19.735  23.384  1.00  0.00     0.139 C 
ATOM     21  O   UNL A   1      32.743  19.308  25.737  1.00  0.00    -0.253 OA
ENDBRANCH  18  19
ENDBRANCH  17  18
ENDBRANCH   9  17
BRANCH  16  22
ATOM     22  N   UNL A   1      31.485  28.339  24.013  1.00  0.00    -0.342 N 
ATOM     23  C   UNL A   1      30.893  29.548  24.242  1.00  0.00     0.223 C 
ATOM     24  H   UNL A   1      32.356  28.208  24.455  1.00  0.00     0.164 HD
ATOM     25  O   UNL A   1      31.444  30.331  25.015  1.00  0.00    -0.275 OA
BRANCH  23  26
ATOM     26  C   UNL A   1      29.609  29.897  23.501  1.00  0.00     0.078 C 
ATOM     27  C   UNL A   1      28.991  31.189  24.052  1.00  0.00     0.013 C 
ATOM     28  C   UNL A   1      29.910  30.040  22.004  1.00  0.00     0.013 C 
ATOM     29  C   UNL A   1      27.734  31.577  23.275  1.00  0.00     0.001 C 
ATOM     30  C   UNL A   1      28.672  30.460  21.215  1.00  0.00     0.001 C 
ATOM     31  C   UNL A   1      28.026  31.718  21.785  1.00  0.00     0.000 C 
ENDBRANCH  23  26
ENDBRANCH  16  22
ENDBRANCH   6   8
ENDBRANCH   5   6
ENDBRANCH   4   5
ENDBRANCH   3   4
ENDBRANCH   2   3
ENDBRANCH   1   2
BRANCH   1  32
ATOM     32  C   UNL A   1      39.607  21.572  26.266  1.00  0.00     0.188 C 
BRANCH  32  33
ATOM     33  O   UNL A   1      40.870  22.217  26.205  1.00  0.00    -0.376 OA
BRANCH  33  34
ATOM     34  C   UNL A   1      42.041  21.427  26.008  1.00  0.00     0.202 C 
BRANCH  34  35
ATOM     35  C   UNL A   1      43.311  22.052  25.397  1.00  0.00     0.261 C 
BRANCH  35  36
ATOM     36  O   UNL A   1      43.891  23.122  26.163  1.00  0.00    -0.460 OA
BRANCH  36  37
ATOM     37  C   UNL A   1      43.510  24.374  25.810  1.00  0.00     0.338 C 
ATOM     38  O   UNL A   1      43.092  24.746  24.726  1.00  0.00    -0.246 OA
BRANCH  37  39
ATOM     39  C   UNL A   1      43.413  25.211  27.025  1.00  0.00     0.060 A 
ATOM     40  C   UNL A   1      42.786  24.654  28.153  1.00  0.00     0.016 A 
ATOM     41  C   UNL A   1      43.939  26.502  27.073  1.00  0.00     0.016 A 
ATOM     42  C   UNL A   1      42.669  25.392  29.327  1.00  0.00     0.010 A 
ATOM     43  C   UNL A   1      43.782  27.259  28.239  1.00  0.00     0.010 A 
ATOM     44  C   UNL A   1      43.121  26.717  29.356  1.00  0.00    -0.014 A 
BRANCH  44  45
ATOM     45  C   UNL A   1      42.660  27.601  30.451  1.00  0.00     0.031 A 
ATOM     46  C   UNL A   1      41.382  28.367  30.235  1.00  0.00     0.074 A 
ATOM     47  C   UNL A   1      43.326  27.701  31.613  1.00  0.00     0.049 A 
ATOM     48  N   UNL A   1      40.775  29.217  31.021  1.00  0.00    -0.248 NA
ATOM     49  C   UNL A   1      40.697  28.136  28.953  1.00  0.00     0.031 C 
ATOM     50  C   UNL A   1      44.544  26.973  31.959  1.00  0.00     0.029 A 
ATOM     51  N   UNL A   1      43.066  28.474  32.717  1.00  0.00    -0.354 N 
ATOM     52  C   UNL A   1      39.642  29.622  30.328  1.00  0.00     0.074 A 
ATOM     53  C   UNL A   1      39.657  28.948  29.049  1.00  0.00     0.031 C 
ATOM     54  C   UNL A   1      44.940  27.352  33.188  1.00  0.00     0.029 A 
ATOM     55  C   UNL A   1      44.017  28.364  33.701  1.00  0.00     0.049 A 
ATOM     56  H   UNL A   1      42.273  29.051  32.797  1.00  0.00     0.167 HD
ATOM     57  C   UNL A   1      38.670  30.477  30.724  1.00  0.00     0.037 A 
ATOM     58  C   UNL A   1      44.129  29.021  34.873  1.00  0.00     0.037 A 
ATOM     59  C   UNL A   1      38.666  31.161  31.988  1.00  0.00     0.049 A 
ATOM     60  C   UNL A   1      43.073  30.029  35.260  1.00  0.00     0.074 A 
ATOM     61  C   UNL A   1      37.726  32.045  32.488  1.00  0.00     0.029 A 
ATOM     62  N   UNL A   1      39.662  31.048  32.947  1.00  0.00    -0.354 N 
ATOM     63  N   UNL A   1      41.986  30.383  34.616  1.00  0.00    -0.248 NA
ATOM     64  C   UNL A   1      43.261  30.726  36.541  1.00  0.00     0.031 C 
ATOM     65  C   UNL A   1      38.182  32.509  33.727  1.00  0.00     0.029 A 
ATOM     66  C   UNL A   1      39.374  31.866  34.026  1.00  0.00     0.049 A 
ATOM     67  H   UNL A   1      40.456  30.470  32.871  1.00  0.00     0.167 HD
ATOM     68  C   UNL A   1      41.347  31.316  35.426  1.00  0.00     0.074 A 
ATOM     69  C   UNL A   1      42.160  31.463  36.613  1.00  0.00     0.031 C 
ATOM     70  C   UNL A   1      40.190  31.991  35.207  1.00  0.00     0.037 A 
BRANCH  57  71
ATOM     71  C   UNL A   1      37.553  30.745  29.758  1.00  0.00     0.064 A 
ATOM     72  C   UNL A   1      36.568  29.785  29.484  1.00  0.00     0.173 A 
ATOM     73  C   UNL A   1      37.461  31.985  29.108  1.00  0.00     0.173 A 
ATOM     74  F   UNL A   1      36.623  28.576  30.064  1.00  0.00    -0.203 F 
ATOM     75  C   UNL A   1      35.547  30.045  28.573  1.00  0.00     0.198 A 
ATOM     76  C   UNL A   1      36.422  32.254  28.221  1.00  0.00     0.198 A 
ATOM     77  F   UNL A   1      38.380  32.936  29.332  1.00  0.00    -0.203 F 
ATOM     78  F   UNL A   1      34.647  29.094  28.287  1.00  0.00    -0.200 F 
ATOM     79  C   UNL A   1      35.470  31.282  27.949  1.00  0.00     0.200 A 
ATOM     80  F   UNL A   1      36.345  33.452  27.626  1.00  0.00    -0.200 F 
ATOM     81  F   UNL A   1      34.486  31.533  27.077  1.00  0.00    -0.200 F 
ENDBRANCH  57  71
BRANCH  58  82
ATOM     82  C   UNL A   1      45.282  28.752  35.773  1.00  0.00     0.064 A 
ATOM     83  C   UNL A   1      46.476  29.479  35.660  1.00  0.00     0.173 A 
ATOM     84  C   UNL A   1      45.227  27.740  36.742  1.00  0.00     0.173 A 
ATOM     85  F   UNL A   1      46.591  30.436  34.726  1.00  0.00    -0.203 F 
ATOM     86  C   UNL A   1      47.577  29.187  36.464  1.00  0.00     0.198 A 
ATOM     87  C   UNL A   1      46.317  27.470  37.567  1.00  0.00     0.198 A 
ATOM     88  F   UNL A   1      44.111  27.009  36.886  1.00  0.00    -0.203 F 
ATOM     89  F   UNL A   1      48.724  29.858  36.292  1.00  0.00    -0.200 F 
ATOM     90  C   UNL A   1      47.494  28.187  37.420  1.00  0.00     0.200 A 
ATOM     91  F   UNL A   1      46.232  26.505  38.492  1.00  0.00    -0.200 F 
ATOM     92  F   UNL A   1      48.555  27.903  38.189  1.00  0.00    -0.200 F 
ENDBRANCH  58  82
BRANCH  70  93
ATOM     93  C   UNL A   1      39.708  32.916  36.288  1.00  0.00     0.064 A 
ATOM     94  C   UNL A   1      38.768  32.510  37.246  1.00  0.00     0.173 A 
ATOM     95  C   UNL A   1      40.237  34.213  36.397  1.00  0.00     0.173 A 
ATOM     96  F   UNL A   1      38.224  31.284  37.182  1.00  0.00    -0.203 F 
ATOM     97  C   UNL A   1      38.353  33.375  38.256  1.00  0.00     0.198 A 
ATOM     98  C   UNL A   1      39.845  35.063  37.427  1.00  0.00     0.198 A 
ATOM     99  F   UNL A   1      41.148  34.648  35.515  1.00  0.00    -0.203 F 
ATOM    100  F   UNL A   1      37.417  32.982  39.130  1.00  0.00    -0.200 F 
ATOM    101  C   UNL A   1      38.898  34.648  38.350  1.00  0.00     0.200 A 
ATOM    102  F   UNL A   1      40.387  36.284  37.527  1.00  0.00    -0.200 F 
ATOM    103  F   UNL A   1      38.505  35.475  39.328  1.00  0.00    -0.200 F 
ENDBRANCH  70  93
ENDBRANCH  44  45
ENDBRANCH  37  39
ENDBRANCH  36  37
ENDBRANCH  35  36
ENDBRANCH  34  35
ENDBRANCH  33  34
ENDBRANCH  32  33
ENDBRANCH   1  32
TORSDOF 22
ENDMDL
