MODEL 1
REMARK VINA RESULT:     -11.2      0.000      0.000
REMARK SMILES C[NH+](C)CCc1nc(Nc2ccc(O)c(C(=O)OCCOCCOCCOC(=O)c3ccc(-c4c5nc(c(-c6c(F)c(F)c(F)c(F)c6F)c6ccc([nH]6)c(-c6c(F)c(F)c(F)c(F)c6F)c6nc(c(-c7c(F)c(F)c(F)c(F)c7F)c7ccc4[nH]7)C=C6)C=C5)cc3)c2)c2ccccc2n1
REMARK SMILES IDX 21 1 20 2 19 3 18 4 16 5 17 6 15 7 10 8 11 9 93 10 12 11
REMARK SMILES IDX 13 12 9 13 8 15 6 16 7 17 100 18 99 19 94 20 98 21 95 22
REMARK SMILES IDX 97 23 96 24 5 25 4 26 2 27 1 28 3 29 14 31 22 33 23 34 24 35
REMARK SMILES IDX 25 36 26 37 27 38 28 39 29 40 30 41 31 42 92 43 32 44 91 45
REMARK SMILES IDX 33 46 34 47 35 48 85 49 36 50 90 51 84 52 86 53 37 54 89 55
REMARK SMILES IDX 83 56 82 57 38 59 70 60 50 61 69 62 51 63 54 64 68 65 87 66
REMARK SMILES IDX 52 67 53 68 67 70 88 71 55 72 39 73 40 74 48 75 41 76 42 77
REMARK SMILES IDX 46 78 49 79 43 80 44 81 47 82 45 83 71 84 72 85 80 86 73 87
REMARK SMILES IDX 74 88 78 89 81 90 75 91 76 92 79 93 77 94 56 95 57 96 65 97
REMARK SMILES IDX 58 98 59 99 63 100 66 101 60 102 61 103 64 104 62 105
REMARK H PARENT 9 14 2 30 14 32 86 58 54 69
REMARK Flexibility Score: inf
ROOT
ATOM      1  O   UNL A   1      36.164  21.837  24.181  1.00  0.00    -0.376 OA
ENDROOT
BRANCH   1   2
ATOM      2  C   UNL A   1      35.346  21.190  25.144  1.00  0.00     0.202 C 
BRANCH   2   3
ATOM      3  C   UNL A   1      34.305  20.111  24.811  1.00  0.00     0.261 C 
BRANCH   3   4
ATOM      4  O   UNL A   1      32.942  20.513  24.934  1.00  0.00    -0.460 OA
BRANCH   4   5
ATOM      5  C   UNL A   1      32.476  21.333  23.956  1.00  0.00     0.342 C 
ATOM      6  O   UNL A   1      32.235  21.024  22.800  1.00  0.00    -0.246 OA
BRANCH   5   7
ATOM      7  C   UNL A   1      32.015  22.601  24.557  1.00  0.00     0.103 A 
ATOM      8  C   UNL A   1      32.110  25.030  24.458  1.00  0.00     0.041 A 
ATOM      9  C   UNL A   1      31.149  25.081  25.475  1.00  0.00     0.030 A 
ATOM     10  C   UNL A   1      32.546  23.782  24.011  1.00  0.00     0.045 A 
ATOM     11  C   UNL A   1      30.611  23.909  26.021  1.00  0.00     0.049 A 
ATOM     12  C   UNL A   1      31.049  22.668  25.563  1.00  0.00     0.130 A 
BRANCH   8  13
ATOM     13  N   UNL A   1      32.744  26.209  24.009  1.00  0.00    -0.340 N 
ATOM     14  H   UNL A   1      33.634  26.140  23.594  1.00  0.00     0.168 HD
BRANCH  13  15
ATOM     15  C   UNL A   1      32.147  27.490  24.136  1.00  0.00     0.142 A 
ATOM     16  C   UNL A   1      30.800  29.102  23.198  1.00  0.00     0.137 A 
ATOM     17  N   UNL A   1      31.314  27.870  23.154  1.00  0.00    -0.215 NA
ATOM     18  N   UNL A   1      31.002  29.969  24.200  1.00  0.00    -0.233 NA
ATOM     19  C   UNL A   1      31.803  29.578  25.196  1.00  0.00     0.076 A 
ATOM     20  C   UNL A   1      32.444  28.328  25.220  1.00  0.00     0.043 A 
ATOM     21  C   UNL A   1      32.025  30.459  26.245  1.00  0.00     0.029 A 
ATOM     22  C   UNL A   1      33.324  28.016  26.287  1.00  0.00     0.014 A 
ATOM     23  C   UNL A   1      32.879  30.146  27.306  1.00  0.00     0.002 A 
ATOM     24  C   UNL A   1      33.537  28.923  27.323  1.00  0.00     0.001 A 
BRANCH  16  25
ATOM     25  C   UNL A   1      30.004  29.545  22.007  1.00  0.00     0.138 C 
BRANCH  25  26
ATOM     26  C   UNL A   1      28.512  29.781  22.312  1.00  0.00     0.269 C 
BRANCH  26  27
ATOM     27  N   UNL A   1      27.906  31.121  22.182  1.00  0.00    -0.339 N 
ATOM     28  C   UNL A   1      28.338  32.050  23.221  1.00  0.00     0.332 C 
ATOM     29  C   UNL A   1      28.051  31.701  20.851  1.00  0.00     0.332 C 
ATOM     30  H   UNL A   1      26.907  30.965  22.323  1.00  0.00     0.347 HD
ENDBRANCH  26  27
ENDBRANCH  25  26
ENDBRANCH  16  25
ENDBRANCH  13  15
ENDBRANCH   8  13
BRANCH  12  31
ATOM     31  O   UNL A   1      30.538  21.527  26.108  1.00  0.00    -0.507 OA
ATOM     32  H   UNL A   1      31.033  21.048  26.743  1.00  0.00     0.293 HD
ENDBRANCH  12  31
ENDBRANCH   5   7
ENDBRANCH   4   5
ENDBRANCH   3   4
ENDBRANCH   2   3
ENDBRANCH   1   2
BRANCH   1  33
ATOM     33  C   UNL A   1      37.019  22.896  24.553  1.00  0.00     0.188 C 
BRANCH  33  34
ATOM     34  C   UNL A   1      37.768  22.855  25.902  1.00  0.00     0.188 C 
BRANCH  34  35
ATOM     35  O   UNL A   1      38.948  22.100  26.068  1.00  0.00    -0.376 OA
BRANCH  35  36
ATOM     36  C   UNL A   1      39.077  20.834  25.447  1.00  0.00     0.202 C 
BRANCH  36  37
ATOM     37  C   UNL A   1      39.842  19.662  26.079  1.00  0.00     0.261 C 
BRANCH  37  38
ATOM     38  O   UNL A   1      40.999  19.201  25.371  1.00  0.00    -0.460 OA
BRANCH  38  39
ATOM     39  C   UNL A   1      42.124  19.092  26.111  1.00  0.00     0.338 C 
ATOM     40  O   UNL A   1      42.713  18.063  26.434  1.00  0.00    -0.246 OA
BRANCH  39  41
ATOM     41  C   UNL A   1      42.676  20.430  26.361  1.00  0.00     0.060 A 
ATOM     42  C   UNL A   1      42.563  20.976  27.649  1.00  0.00     0.016 A 
ATOM     43  C   UNL A   1      43.252  21.162  25.324  1.00  0.00     0.016 A 
ATOM     44  C   UNL A   1      43.013  22.270  27.899  1.00  0.00     0.010 A 
ATOM     45  C   UNL A   1      43.683  22.468  25.572  1.00  0.00     0.010 A 
ATOM     46  C   UNL A   1      43.541  23.034  26.852  1.00  0.00    -0.014 A 
BRANCH  46  47
ATOM     47  C   UNL A   1      43.786  24.483  27.047  1.00  0.00     0.031 A 
ATOM     48  C   UNL A   1      45.182  25.006  26.865  1.00  0.00     0.074 A 
ATOM     49  C   UNL A   1      42.791  25.314  27.394  1.00  0.00     0.049 A 
ATOM     50  N   UNL A   1      45.653  26.209  27.069  1.00  0.00    -0.248 NA
ATOM     51  C   UNL A   1      46.183  24.034  26.399  1.00  0.00     0.031 C 
ATOM     52  C   UNL A   1      41.394  24.929  27.573  1.00  0.00     0.029 A 
ATOM     53  N   UNL A   1      42.815  26.656  27.684  1.00  0.00    -0.354 N 
ATOM     54  C   UNL A   1      47.008  26.135  26.775  1.00  0.00     0.074 A 
ATOM     55  C   UNL A   1      47.287  24.764  26.402  1.00  0.00     0.031 C 
ATOM     56  C   UNL A   1      40.698  26.005  27.979  1.00  0.00     0.029 A 
ATOM     57  C   UNL A   1      41.608  27.140  28.122  1.00  0.00     0.049 A 
ATOM     58  H   UNL A   1      43.619  27.215  27.588  1.00  0.00     0.167 HD
ATOM     59  C   UNL A   1      47.935  27.122  26.812  1.00  0.00     0.037 A 
ATOM     60  C   UNL A   1      41.288  28.350  28.623  1.00  0.00     0.037 A 
ATOM     61  C   UNL A   1      47.652  28.481  27.192  1.00  0.00     0.049 A 
ATOM     62  C   UNL A   1      42.346  29.420  28.715  1.00  0.00     0.074 A 
ATOM     63  C   UNL A   1      48.509  29.566  27.218  1.00  0.00     0.029 A 
ATOM     64  N   UNL A   1      46.419  28.936  27.637  1.00  0.00    -0.354 N 
ATOM     65  N   UNL A   1      43.614  29.361  28.388  1.00  0.00    -0.248 NA
ATOM     66  C   UNL A   1      41.925  30.726  29.243  1.00  0.00     0.031 C 
ATOM     67  C   UNL A   1      47.813  30.661  27.743  1.00  0.00     0.029 A 
ATOM     68  C   UNL A   1      46.502  30.276  27.976  1.00  0.00     0.049 A 
ATOM     69  H   UNL A   1      45.604  28.386  27.702  1.00  0.00     0.167 HD
ATOM     70  C   UNL A   1      44.138  30.623  28.645  1.00  0.00     0.074 A 
ATOM     71  C   UNL A   1      43.045  31.430  29.146  1.00  0.00     0.031 C 
ATOM     72  C   UNL A   1      45.407  31.071  28.476  1.00  0.00     0.037 A 
BRANCH  59  73
ATOM     73  C   UNL A   1      49.351  26.747  26.478  1.00  0.00     0.064 A 
ATOM     74  C   UNL A   1      50.244  26.272  27.450  1.00  0.00     0.173 A 
ATOM     75  C   UNL A   1      49.822  26.872  25.162  1.00  0.00     0.173 A 
ATOM     76  F   UNL A   1      49.850  26.146  28.726  1.00  0.00    -0.203 F 
ATOM     77  C   UNL A   1      51.566  25.978  27.126  1.00  0.00     0.198 A 
ATOM     78  C   UNL A   1      51.134  26.542  24.834  1.00  0.00     0.198 A 
ATOM     79  F   UNL A   1      49.009  27.316  24.192  1.00  0.00    -0.203 F 
ATOM     80  F   UNL A   1      52.419  25.591  28.085  1.00  0.00    -0.200 F 
ATOM     81  C   UNL A   1      52.009  26.109  25.818  1.00  0.00     0.200 A 
ATOM     82  F   UNL A   1      51.555  26.657  23.568  1.00  0.00    -0.200 F 
ATOM     83  F   UNL A   1      53.283  25.828  25.509  1.00  0.00    -0.200 F 
ENDBRANCH  59  73
BRANCH  60  84
ATOM     84  C   UNL A   1      39.903  28.597  29.099  1.00  0.00     0.064 A 
ATOM     85  C   UNL A   1      39.533  28.338  30.425  1.00  0.00     0.173 A 
ATOM     86  C   UNL A   1      38.924  29.115  28.237  1.00  0.00     0.173 A 
ATOM     87  F   UNL A   1      40.427  27.817  31.279  1.00  0.00    -0.203 F 
ATOM     88  C   UNL A   1      38.235  28.583  30.870  1.00  0.00     0.198 A 
ATOM     89  C   UNL A   1      37.636  29.387  28.690  1.00  0.00     0.198 A 
ATOM     90  F   UNL A   1      39.228  29.377  26.958  1.00  0.00    -0.203 F 
ATOM     91  F   UNL A   1      37.897  28.294  32.133  1.00  0.00    -0.200 F 
ATOM     92  C   UNL A   1      37.290  29.116  30.005  1.00  0.00     0.200 A 
ATOM     93  F   UNL A   1      36.731  29.912  27.853  1.00  0.00    -0.200 F 
ATOM     94  F   UNL A   1      36.046  29.362  30.438  1.00  0.00    -0.200 F 
ENDBRANCH  60  84
BRANCH  72  95
ATOM     95  C   UNL A   1      45.685  32.513  28.801  1.00  0.00     0.064 A 
ATOM     96  C   UNL A   1      45.567  33.526  27.838  1.00  0.00     0.173 A 
ATOM     97  C   UNL A   1      46.017  32.891  30.111  1.00  0.00     0.173 A 
ATOM     98  F   UNL A   1      45.267  33.219  26.567  1.00  0.00    -0.203 F 
ATOM     99  C   UNL A   1      45.792  34.860  28.171  1.00  0.00     0.198 A 
ATOM    100  C   UNL A   1      46.207  34.229  30.448  1.00  0.00     0.198 A 
ATOM    101  F   UNL A   1      46.135  31.963  31.073  1.00  0.00    -0.203 F 
ATOM    102  F   UNL A   1      45.716  35.807  27.225  1.00  0.00    -0.200 F 
ATOM    103  C   UNL A   1      46.101  35.211  29.477  1.00  0.00     0.200 A 
ATOM    104  F   UNL A   1      46.490  34.566  31.715  1.00  0.00    -0.200 F 
ATOM    105  F   UNL A   1      46.303  36.497  29.798  1.00  0.00    -0.200 F 
ENDBRANCH  72  95
ENDBRANCH  46  47
ENDBRANCH  39  41
ENDBRANCH  38  39
ENDBRANCH  37  38
ENDBRANCH  36  37
ENDBRANCH  35  36
ENDBRANCH  34  35
ENDBRANCH  33  34
ENDBRANCH   1  33
TORSDOF 23
ENDMDL
MODEL 2
REMARK VINA RESULT:     -10.8      1.284      2.160
REMARK SMILES C[NH+](C)CCc1nc(Nc2ccc(O)c(C(=O)OCCOCCOCCOC(=O)c3ccc(-c4c5nc(c(-c6c(F)c(F)c(F)c(F)c6F)c6ccc([nH]6)c(-c6c(F)c(F)c(F)c(F)c6F)c6nc(c(-c7c(F)c(F)c(F)c(F)c7F)c7ccc4[nH]7)C=C6)C=C5)cc3)c2)c2ccccc2n1
REMARK SMILES IDX 21 1 20 2 19 3 18 4 16 5 17 6 15 7 10 8 11 9 93 10 12 11
REMARK SMILES IDX 13 12 9 13 8 15 6 16 7 17 100 18 99 19 94 20 98 21 95 22
REMARK SMILES IDX 97 23 96 24 5 25 4 26 2 27 1 28 3 29 14 31 22 33 23 34 24 35
REMARK SMILES IDX 25 36 26 37 27 38 28 39 29 40 30 41 31 42 92 43 32 44 91 45
REMARK SMILES IDX 33 46 34 47 35 48 85 49 36 50 90 51 84 52 86 53 37 54 89 55
REMARK SMILES IDX 83 56 82 57 38 59 70 60 50 61 69 62 51 63 54 64 68 65 87 66
REMARK SMILES IDX 52 67 53 68 67 70 88 71 55 72 39 73 40 74 48 75 41 76 42 77
REMARK SMILES IDX 46 78 49 79 43 80 44 81 47 82 45 83 71 84 72 85 80 86 73 87
REMARK SMILES IDX 74 88 78 89 81 90 75 91 76 92 79 93 77 94 56 95 57 96 65 97
REMARK SMILES IDX 58 98 59 99 63 100 66 101 60 102 61 103 64 104 62 105
REMARK H PARENT 9 14 2 30 14 32 86 58 54 69
REMARK Flexibility Score: inf
ROOT
ATOM      1  O   UNL A   1      35.263  22.175  24.982  1.00  0.00    -0.376 OA
ENDROOT
BRANCH   1   2
ATOM      2  C   UNL A   1      34.842  22.679  26.240  1.00  0.00     0.202 C 
BRANCH   2   3
ATOM      3  C   UNL A   1      33.782  22.012  27.129  1.00  0.00     0.261 C 
BRANCH   3   4
ATOM      4  O   UNL A   1      32.428  22.201  26.719  1.00  0.00    -0.460 OA
BRANCH   4   5
ATOM      5  C   UNL A   1      32.083  21.633  25.534  1.00  0.00     0.342 C 
ATOM      6  O   UNL A   1      31.778  20.466  25.347  1.00  0.00    -0.246 OA
BRANCH   5   7
ATOM      7  C   UNL A   1      31.840  22.693  24.535  1.00  0.00     0.103 A 
ATOM      8  C   UNL A   1      30.835  24.867  24.105  1.00  0.00     0.041 A 
ATOM      9  C   UNL A   1      31.402  24.844  22.824  1.00  0.00     0.030 A 
ATOM     10  C   UNL A   1      31.052  23.779  24.952  1.00  0.00     0.045 A 
ATOM     11  C   UNL A   1      32.193  23.769  22.402  1.00  0.00     0.049 A 
ATOM     12  C   UNL A   1      32.408  22.691  23.259  1.00  0.00     0.130 A 
BRANCH   8  13
ATOM     13  N   UNL A   1      29.931  25.887  24.472  1.00  0.00    -0.340 N 
ATOM     14  H   UNL A   1      29.054  25.633  24.841  1.00  0.00     0.168 HD
BRANCH  13  15
ATOM     15  C   UNL A   1      30.239  27.265  24.328  1.00  0.00     0.142 A 
ATOM     16  C   UNL A   1      30.202  29.129  22.979  1.00  0.00     0.137 A 
ATOM     17  N   UNL A   1      29.854  27.855  23.185  1.00  0.00    -0.215 NA
ATOM     18  N   UNL A   1      30.852  29.887  23.872  1.00  0.00    -0.233 NA
ATOM     19  C   UNL A   1      31.203  29.310  25.026  1.00  0.00     0.076 A 
ATOM     20  C   UNL A   1      30.943  27.962  25.320  1.00  0.00     0.043 A 
ATOM     21  C   UNL A   1      31.876  30.077  25.966  1.00  0.00     0.029 A 
ATOM     22  C   UNL A   1      31.403  27.413  26.544  1.00  0.00     0.014 A 
ATOM     23  C   UNL A   1      32.315  29.543  27.180  1.00  0.00     0.002 A 
ATOM     24  C   UNL A   1      32.084  28.204  27.467  1.00  0.00     0.001 A 
BRANCH  16  25
ATOM     25  C   UNL A   1      29.894  29.703  21.629  1.00  0.00     0.138 C 
BRANCH  25  26
ATOM     26  C   UNL A   1      29.029  30.978  21.681  1.00  0.00     0.269 C 
BRANCH  26  27
ATOM     27  N   UNL A   1      28.685  31.618  22.965  1.00  0.00    -0.339 N 
ATOM     28  C   UNL A   1      28.780  33.074  22.926  1.00  0.00     0.332 C 
ATOM     29  C   UNL A   1      27.405  31.180  23.512  1.00  0.00     0.332 C 
ATOM     30  H   UNL A   1      29.403  31.293  23.614  1.00  0.00     0.347 HD
ENDBRANCH  26  27
ENDBRANCH  25  26
ENDBRANCH  16  25
ENDBRANCH  13  15
ENDBRANCH   8  13
BRANCH  12  31
ATOM     31  O   UNL A   1      33.164  21.635  22.841  1.00  0.00    -0.507 OA
ATOM     32  H   UNL A   1      33.450  20.990  23.457  1.00  0.00     0.293 HD
ENDBRANCH  12  31
ENDBRANCH   5   7
ENDBRANCH   4   5
ENDBRANCH   3   4
ENDBRANCH   2   3
ENDBRANCH   1   2
BRANCH   1  33
ATOM     33  C   UNL A   1      36.414  22.687  24.347  1.00  0.00     0.188 C 
BRANCH  33  34
ATOM     34  C   UNL A   1      37.780  22.651  25.063  1.00  0.00     0.188 C 
BRANCH  34  35
ATOM     35  O   UNL A   1      38.185  21.534  25.825  1.00  0.00    -0.376 OA
BRANCH  35  36
ATOM     36  C   UNL A   1      38.332  20.267  25.210  1.00  0.00     0.202 C 
BRANCH  36  37
ATOM     37  C   UNL A   1      39.323  19.203  25.704  1.00  0.00     0.261 C 
BRANCH  37  38
ATOM     38  O   UNL A   1      40.696  19.601  25.786  1.00  0.00    -0.460 OA
BRANCH  38  39
ATOM     39  C   UNL A   1      41.142  19.885  27.029  1.00  0.00     0.338 C 
ATOM     40  O   UNL A   1      41.207  19.128  27.995  1.00  0.00    -0.246 OA
BRANCH  39  41
ATOM     41  C   UNL A   1      41.722  21.235  27.044  1.00  0.00     0.060 A 
ATOM     42  C   UNL A   1      42.278  21.717  28.239  1.00  0.00     0.016 A 
ATOM     43  C   UNL A   1      41.671  22.040  25.907  1.00  0.00     0.016 A 
ATOM     44  C   UNL A   1      42.771  23.017  28.304  1.00  0.00     0.010 A 
ATOM     45  C   UNL A   1      42.146  23.351  25.980  1.00  0.00     0.010 A 
ATOM     46  C   UNL A   1      42.672  23.852  27.184  1.00  0.00    -0.014 A 
BRANCH  46  47
ATOM     47  C   UNL A   1      42.958  25.300  27.316  1.00  0.00     0.031 A 
ATOM     48  C   UNL A   1      44.304  25.809  26.888  1.00  0.00     0.074 A 
ATOM     49  C   UNL A   1      42.044  26.144  27.822  1.00  0.00     0.049 A 
ATOM     50  N   UNL A   1      44.813  27.010  26.993  1.00  0.00    -0.248 NA
ATOM     51  C   UNL A   1      45.202  24.823  26.266  1.00  0.00     0.031 C 
ATOM     52  C   UNL A   1      40.697  25.774  28.246  1.00  0.00     0.029 A 
ATOM     53  N   UNL A   1      42.129  27.489  28.088  1.00  0.00    -0.354 N 
ATOM     54  C   UNL A   1      46.095  26.920  26.467  1.00  0.00     0.074 A 
ATOM     55  C   UNL A   1      46.295  25.543  26.068  1.00  0.00     0.031 C 
ATOM     56  C   UNL A   1      40.091  26.860  28.755  1.00  0.00     0.029 A 
ATOM     57  C   UNL A   1      41.020  27.988  28.724  1.00  0.00     0.049 A 
ATOM     58  H   UNL A   1      42.908  28.039  27.846  1.00  0.00     0.167 HD
ATOM     59  C   UNL A   1      47.022  27.898  26.331  1.00  0.00     0.037 A 
ATOM     60  C   UNL A   1      40.801  29.206  29.258  1.00  0.00     0.037 A 
ATOM     61  C   UNL A   1      46.819  29.264  26.739  1.00  0.00     0.049 A 
ATOM     62  C   UNL A   1      41.867  30.268  29.152  1.00  0.00     0.074 A 
ATOM     63  C   UNL A   1      47.675  30.342  26.602  1.00  0.00     0.029 A 
ATOM     64  N   UNL A   1      45.685  29.735  27.386  1.00  0.00    -0.354 N 
ATOM     65  N   UNL A   1      43.058  30.194  28.609  1.00  0.00    -0.248 NA
ATOM     66  C   UNL A   1      41.553  31.583  29.729  1.00  0.00     0.031 C 
ATOM     67  C   UNL A   1      47.089  31.448  27.227  1.00  0.00     0.029 A 
ATOM     68  C   UNL A   1      45.836  31.078  27.690  1.00  0.00     0.049 A 
ATOM     69  H   UNL A   1      44.891  29.194  27.599  1.00  0.00     0.167 HD
ATOM     70  C   UNL A   1      43.627  31.453  28.756  1.00  0.00     0.074 A 
ATOM     71  C   UNL A   1      42.644  32.276  29.430  1.00  0.00     0.031 C 
ATOM     72  C   UNL A   1      44.851  31.888  28.363  1.00  0.00     0.037 A 
BRANCH  59  73
ATOM     73  C   UNL A   1      48.355  27.508  25.760  1.00  0.00     0.064 A 
ATOM     74  C   UNL A   1      49.451  27.192  26.576  1.00  0.00     0.173 A 
ATOM     75  C   UNL A   1      48.537  27.453  24.369  1.00  0.00     0.173 A 
ATOM     76  F   UNL A   1      49.334  27.241  27.912  1.00  0.00    -0.203 F 
ATOM     77  C   UNL A   1      50.690  26.880  26.024  1.00  0.00     0.198 A 
ATOM     78  C   UNL A   1      49.769  27.105  23.820  1.00  0.00     0.198 A 
ATOM     79  F   UNL A   1      47.522  27.740  23.542  1.00  0.00    -0.203 F 
ATOM     80  F   UNL A   1      51.740  26.650  26.825  1.00  0.00    -0.200 F 
ATOM     81  C   UNL A   1      50.847  26.833  24.646  1.00  0.00     0.200 A 
ATOM     82  F   UNL A   1      49.914  27.047  22.489  1.00  0.00    -0.200 F 
ATOM     83  F   UNL A   1      52.042  26.536  24.117  1.00  0.00    -0.200 F 
ENDBRANCH  59  73
BRANCH  60  84
ATOM     84  C   UNL A   1      39.522  29.471  29.966  1.00  0.00     0.064 A 
ATOM     85  C   UNL A   1      38.380  29.887  29.271  1.00  0.00     0.173 A 
ATOM     86  C   UNL A   1      39.415  29.297  31.354  1.00  0.00     0.173 A 
ATOM     87  F   UNL A   1      38.439  30.092  27.947  1.00  0.00    -0.203 F 
ATOM     88  C   UNL A   1      37.178  30.123  29.939  1.00  0.00     0.198 A 
ATOM     89  C   UNL A   1      38.208  29.506  32.016  1.00  0.00     0.198 A 
ATOM     90  F   UNL A   1      40.483  28.904  32.065  1.00  0.00    -0.203 F 
ATOM     91  F   UNL A   1      36.109  30.553  29.256  1.00  0.00    -0.200 F 
ATOM     92  C   UNL A   1      37.091  29.923  31.309  1.00  0.00     0.200 A 
ATOM     93  F   UNL A   1      38.127  29.300  33.338  1.00  0.00    -0.200 F 
ATOM     94  F   UNL A   1      35.933  30.138  31.947  1.00  0.00    -0.200 F 
ENDBRANCH  60  84
BRANCH  72  95
ATOM     95  C   UNL A   1      45.192  33.331  28.617  1.00  0.00     0.064 A 
ATOM     96  C   UNL A   1      45.914  33.733  29.751  1.00  0.00     0.173 A 
ATOM     97  C   UNL A   1      44.842  34.316  27.681  1.00  0.00     0.173 A 
ATOM     98  F   UNL A   1      46.262  32.835  30.684  1.00  0.00    -0.203 F 
ATOM     99  C   UNL A   1      46.254  35.070  29.946  1.00  0.00     0.198 A 
ATOM    100  C   UNL A   1      45.213  35.646  27.862  1.00  0.00     0.198 A 
ATOM    101  F   UNL A   1      44.158  33.985  26.575  1.00  0.00    -0.203 F 
ATOM    102  F   UNL A   1      46.906  35.438  31.058  1.00  0.00    -0.200 F 
ATOM    103  C   UNL A   1      45.912  36.023  28.997  1.00  0.00     0.200 A 
ATOM    104  F   UNL A   1      44.895  36.561  26.935  1.00  0.00    -0.200 F 
ATOM    105  F   UNL A   1      46.253  37.306  29.181  1.00  0.00    -0.200 F 
ENDBRANCH  72  95
ENDBRANCH  46  47
ENDBRANCH  39  41
ENDBRANCH  38  39
ENDBRANCH  37  38
ENDBRANCH  36  37
ENDBRANCH  35  36
ENDBRANCH  34  35
ENDBRANCH  33  34
ENDBRANCH   1  33
TORSDOF 23
ENDMDL
MODEL 3
REMARK VINA RESULT:     -10.4      1.595      3.282
REMARK SMILES C[NH+](C)CCc1nc(Nc2ccc(O)c(C(=O)OCCOCCOCCOC(=O)c3ccc(-c4c5nc(c(-c6c(F)c(F)c(F)c(F)c6F)c6ccc([nH]6)c(-c6c(F)c(F)c(F)c(F)c6F)c6nc(c(-c7c(F)c(F)c(F)c(F)c7F)c7ccc4[nH]7)C=C6)C=C5)cc3)c2)c2ccccc2n1
REMARK SMILES IDX 21 1 20 2 19 3 18 4 16 5 17 6 15 7 10 8 11 9 93 10 12 11
REMARK SMILES IDX 13 12 9 13 8 15 6 16 7 17 100 18 99 19 94 20 98 21 95 22
REMARK SMILES IDX 97 23 96 24 5 25 4 26 2 27 1 28 3 29 14 31 22 33 23 34 24 35
REMARK SMILES IDX 25 36 26 37 27 38 28 39 29 40 30 41 31 42 92 43 32 44 91 45
REMARK SMILES IDX 33 46 34 47 35 48 85 49 36 50 90 51 84 52 86 53 37 54 89 55
REMARK SMILES IDX 83 56 82 57 38 59 70 60 50 61 69 62 51 63 54 64 68 65 87 66
REMARK SMILES IDX 52 67 53 68 67 70 88 71 55 72 39 73 40 74 48 75 41 76 42 77
REMARK SMILES IDX 46 78 49 79 43 80 44 81 47 82 45 83 71 84 72 85 80 86 73 87
REMARK SMILES IDX 74 88 78 89 81 90 75 91 76 92 79 93 77 94 56 95 57 96 65 97
REMARK SMILES IDX 58 98 59 99 63 100 66 101 60 102 61 103 64 104 62 105
REMARK H PARENT 9 14 2 30 14 32 86 58 54 69
REMARK Flexibility Score: inf
ROOT
ATOM      1  O   UNL A   1      34.981  22.130  24.135  1.00  0.00    -0.376 OA
ENDROOT
BRANCH   1   2
ATOM      2  C   UNL A   1      34.146  22.528  25.212  1.00  0.00     0.202 C 
BRANCH   2   3
ATOM      3  C   UNL A   1      32.738  21.968  25.467  1.00  0.00     0.261 C 
BRANCH   3   4
ATOM      4  O   UNL A   1      31.698  22.533  24.670  1.00  0.00    -0.460 OA
BRANCH   4   5
ATOM      5  C   UNL A   1      31.873  22.453  23.325  1.00  0.00     0.342 C 
ATOM      6  O   UNL A   1      31.759  21.454  22.634  1.00  0.00    -0.246 OA
BRANCH   5   7
ATOM      7  C   UNL A   1      31.938  23.815  22.757  1.00  0.00     0.103 A 
ATOM      8  C   UNL A   1      31.003  26.061  22.793  1.00  0.00     0.041 A 
ATOM      9  C   UNL A   1      32.003  26.462  21.898  1.00  0.00     0.030 A 
ATOM     10  C   UNL A   1      30.973  24.730  23.210  1.00  0.00     0.045 A 
ATOM     11  C   UNL A   1      32.973  25.558  21.446  1.00  0.00     0.049 A 
ATOM     12  C   UNL A   1      32.936  24.232  21.874  1.00  0.00     0.130 A 
BRANCH   8  13
ATOM     13  N   UNL A   1      29.953  26.940  23.137  1.00  0.00    -0.340 N 
ATOM     14  H   UNL A   1      29.025  26.660  22.966  1.00  0.00     0.168 HD
BRANCH  13  15
ATOM     15  C   UNL A   1      30.186  28.213  23.718  1.00  0.00     0.142 A 
ATOM     16  C   UNL A   1      31.353  29.454  25.265  1.00  0.00     0.137 A 
ATOM     17  N   UNL A   1      31.163  28.290  24.637  1.00  0.00    -0.215 NA
ATOM     18  N   UNL A   1      30.681  30.579  24.991  1.00  0.00    -0.233 NA
ATOM     19  C   UNL A   1      29.733  30.512  24.050  1.00  0.00     0.076 A 
ATOM     20  C   UNL A   1      29.408  29.326  23.371  1.00  0.00     0.043 A 
ATOM     21  C   UNL A   1      29.024  31.667  23.748  1.00  0.00     0.029 A 
ATOM     22  C   UNL A   1      28.348  29.330  22.429  1.00  0.00     0.014 A 
ATOM     23  C   UNL A   1      27.991  31.676  22.808  1.00  0.00     0.002 A 
ATOM     24  C   UNL A   1      27.646  30.502  22.151  1.00  0.00     0.001 A 
BRANCH  16  25
ATOM     25  C   UNL A   1      32.341  29.458  26.393  1.00  0.00     0.138 C 
BRANCH  25  26
ATOM     26  C   UNL A   1      33.338  30.632  26.339  1.00  0.00     0.269 C 
BRANCH  26  27
ATOM     27  N   UNL A   1      34.681  30.525  26.943  1.00  0.00    -0.339 N 
ATOM     28  C   UNL A   1      35.067  31.712  27.700  1.00  0.00     0.332 C 
ATOM     29  C   UNL A   1      34.876  29.307  27.722  1.00  0.00     0.332 C 
ATOM     30  H   UNL A   1      35.316  30.464  26.146  1.00  0.00     0.347 HD
ENDBRANCH  26  27
ENDBRANCH  25  26
ENDBRANCH  16  25
ENDBRANCH  13  15
ENDBRANCH   8  13
BRANCH  12  31
ATOM     31  O   UNL A   1      33.871  23.349  21.419  1.00  0.00    -0.507 OA
ATOM     32  H   UNL A   1      34.766  23.613  21.340  1.00  0.00     0.293 HD
ENDBRANCH  12  31
ENDBRANCH   5   7
ENDBRANCH   4   5
ENDBRANCH   3   4
ENDBRANCH   2   3
ENDBRANCH   1   2
BRANCH   1  33
ATOM     33  C   UNL A   1      36.251  22.714  23.952  1.00  0.00     0.188 C 
BRANCH  33  34
ATOM     34  C   UNL A   1      37.335  22.581  25.042  1.00  0.00     0.188 C 
BRANCH  34  35
ATOM     35  O   UNL A   1      37.570  21.357  25.704  1.00  0.00    -0.376 OA
BRANCH  35  36
ATOM     36  C   UNL A   1      38.205  20.290  25.023  1.00  0.00     0.202 C 
BRANCH  36  37
ATOM     37  C   UNL A   1      39.189  19.326  25.704  1.00  0.00     0.261 C 
BRANCH  37  38
ATOM     38  O   UNL A   1      40.522  19.812  25.900  1.00  0.00    -0.460 OA
BRANCH  38  39
ATOM     39  C   UNL A   1      40.822  20.181  27.165  1.00  0.00     0.338 C 
ATOM     40  O   UNL A   1      40.760  19.494  28.181  1.00  0.00    -0.246 OA
BRANCH  39  41
ATOM     41  C   UNL A   1      41.417  21.524  27.154  1.00  0.00     0.060 A 
ATOM     42  C   UNL A   1      42.126  21.956  28.286  1.00  0.00     0.016 A 
ATOM     43  C   UNL A   1      41.233  22.371  26.062  1.00  0.00     0.016 A 
ATOM     44  C   UNL A   1      42.641  23.249  28.334  1.00  0.00     0.010 A 
ATOM     45  C   UNL A   1      41.731  23.674  26.122  1.00  0.00     0.010 A 
ATOM     46  C   UNL A   1      42.413  24.126  27.267  1.00  0.00    -0.014 A 
BRANCH  46  47
ATOM     47  C   UNL A   1      42.733  25.565  27.413  1.00  0.00     0.031 A 
ATOM     48  C   UNL A   1      44.047  26.066  26.889  1.00  0.00     0.074 A 
ATOM     49  C   UNL A   1      41.878  26.408  28.015  1.00  0.00     0.049 A 
ATOM     50  N   UNL A   1      44.582  27.256  26.983  1.00  0.00    -0.248 NA
ATOM     51  C   UNL A   1      44.874  25.086  26.168  1.00  0.00     0.031 C 
ATOM     52  C   UNL A   1      40.564  26.045  28.540  1.00  0.00     0.029 A 
ATOM     53  N   UNL A   1      42.006  27.743  28.309  1.00  0.00    -0.354 N 
ATOM     54  C   UNL A   1      45.815  27.163  26.350  1.00  0.00     0.074 A 
ATOM     55  C   UNL A   1      45.958  25.795  25.899  1.00  0.00     0.031 C 
ATOM     56  C   UNL A   1      40.020  27.125  29.127  1.00  0.00     0.029 A 
ATOM     57  C   UNL A   1      40.963  28.240  29.048  1.00  0.00     0.049 A 
ATOM     58  H   UNL A   1      42.772  28.289  28.019  1.00  0.00     0.167 HD
ATOM     59  C   UNL A   1      46.743  28.131  26.163  1.00  0.00     0.037 A 
ATOM     60  C   UNL A   1      40.808  29.446  29.632  1.00  0.00     0.037 A 
ATOM     61  C   UNL A   1      46.598  29.488  26.623  1.00  0.00     0.049 A 
ATOM     62  C   UNL A   1      41.879  30.494  29.466  1.00  0.00     0.074 A 
ATOM     63  C   UNL A   1      47.458  30.556  26.445  1.00  0.00     0.029 A 
ATOM     64  N   UNL A   1      45.530  29.957  27.375  1.00  0.00    -0.354 N 
ATOM     65  N   UNL A   1      43.020  30.418  28.824  1.00  0.00    -0.248 NA
ATOM     66  C   UNL A   1      41.637  31.797  30.102  1.00  0.00     0.031 C 
ATOM     67  C   UNL A   1      46.944  31.653  27.146  1.00  0.00     0.029 A 
ATOM     68  C   UNL A   1      45.728  31.288  27.701  1.00  0.00     0.049 A 
ATOM     69  H   UNL A   1      44.747  29.421  27.639  1.00  0.00     0.167 HD
ATOM     70  C   UNL A   1      43.621  31.665  28.957  1.00  0.00     0.074 A 
ATOM     71  C   UNL A   1      42.711  32.482  29.732  1.00  0.00     0.031 C 
ATOM     72  C   UNL A   1      44.815  32.093  28.475  1.00  0.00     0.037 A 
BRANCH  59  73
ATOM     73  C   UNL A   1      48.018  27.738  25.473  1.00  0.00     0.064 A 
ATOM     74  C   UNL A   1      48.121  27.681  24.075  1.00  0.00     0.173 A 
ATOM     75  C   UNL A   1      49.155  27.408  26.227  1.00  0.00     0.173 A 
ATOM     76  F   UNL A   1      47.061  27.974  23.307  1.00  0.00    -0.203 F 
ATOM     77  C   UNL A   1      49.299  27.266  23.459  1.00  0.00     0.198 A 
ATOM     78  C   UNL A   1      50.343  27.029  25.607  1.00  0.00     0.198 A 
ATOM     79  F   UNL A   1      49.114  27.451  27.567  1.00  0.00    -0.203 F 
ATOM     80  F   UNL A   1      49.351  27.153  22.125  1.00  0.00    -0.200 F 
ATOM     81  C   UNL A   1      50.410  26.944  24.226  1.00  0.00     0.200 A 
ATOM     82  F   UNL A   1      51.418  26.732  26.349  1.00  0.00    -0.200 F 
ATOM     83  F   UNL A   1      51.542  26.542  23.631  1.00  0.00    -0.200 F 
ENDBRANCH  59  73
BRANCH  60  84
ATOM     84  C   UNL A   1      39.597  29.709  30.450  1.00  0.00     0.064 A 
ATOM     85  C   UNL A   1      38.482  30.359  29.909  1.00  0.00     0.173 A 
ATOM     86  C   UNL A   1      39.528  29.298  31.790  1.00  0.00     0.173 A 
ATOM     87  F   UNL A   1      38.511  30.794  28.640  1.00  0.00    -0.203 F 
ATOM     88  C   UNL A   1      37.342  30.593  30.677  1.00  0.00     0.198 A 
ATOM     89  C   UNL A   1      38.379  29.507  32.549  1.00  0.00     0.198 A 
ATOM     90  F   UNL A   1      40.572  28.675  32.355  1.00  0.00    -0.203 F 
ATOM     91  F   UNL A   1      36.302  31.248  30.146  1.00  0.00    -0.200 F 
ATOM     92  C   UNL A   1      37.289  30.159  31.994  1.00  0.00     0.200 A 
ATOM     93  F   UNL A   1      38.329  29.075  33.817  1.00  0.00    -0.200 F 
ATOM     94  F   UNL A   1      36.189  30.374  32.728  1.00  0.00    -0.200 F 
ENDBRANCH  60  84
BRANCH  72  95
ATOM     95  C   UNL A   1      45.200  33.523  28.739  1.00  0.00     0.064 A 
ATOM     96  C   UNL A   1      44.786  34.569  27.901  1.00  0.00     0.173 A 
ATOM     97  C   UNL A   1      45.944  33.856  29.882  1.00  0.00     0.173 A 
ATOM     98  F   UNL A   1      44.085  34.306  26.788  1.00  0.00    -0.203 F 
ATOM     99  C   UNL A   1      45.122  35.891  28.186  1.00  0.00     0.198 A 
ATOM    100  C   UNL A   1      46.249  35.181  30.182  1.00  0.00     0.198 A 
ATOM    101  F   UNL A   1      46.359  32.894  30.722  1.00  0.00    -0.203 F 
ATOM    102  F   UNL A   1      44.753  36.870  27.348  1.00  0.00    -0.200 F 
ATOM    103  C   UNL A   1      45.843  36.196  29.331  1.00  0.00     0.200 A 
ATOM    104  F   UNL A   1      46.932  35.473  31.298  1.00  0.00    -0.200 F 
ATOM    105  F   UNL A   1      46.152  37.469  29.611  1.00  0.00    -0.200 F 
ENDBRANCH  72  95
ENDBRANCH  46  47
ENDBRANCH  39  41
ENDBRANCH  38  39
ENDBRANCH  37  38
ENDBRANCH  36  37
ENDBRANCH  35  36
ENDBRANCH  34  35
ENDBRANCH  33  34
ENDBRANCH   1  33
TORSDOF 23
ENDMDL
