MODEL 1
REMARK VINA RESULT:     -12.5      0.000      0.000
REMARK SMILES CC1=C[C@H](C)[C@H](CN2C[C@@]34C=C[C@@H](O3)[C@H](C(=O)OCCOCCOCCOC(=O)c3ccc(-c5c6nc(c(-c7c(F)c(F)c(F)c(F)c7F)c7ccc([nH]7)c(-c7c(F)c(F)c(F)c(F)c7F)c7nc(c(-c8c(F)c(F)c(F)c(F)c8F)c8ccc5[nH]8)C=C7)C=C6)cc3)[C@@H]4C2=O)[C@H](C)C1
REMARK SMILES IDX 22 1 21 2 20 3 19 4 18 5 16 6 17 7 15 8 8 9 9 10 94 11 10 12
REMARK SMILES IDX 93 13 95 14 11 15 14 16 12 17 13 18 7 19 6 20 1 21 2 22 3 23
REMARK SMILES IDX 98 24 4 25 96 26 5 27 97 28 23 29 24 30 25 31 26 32 27 33
REMARK SMILES IDX 28 34 29 35 30 36 31 37 92 38 32 39 91 40 33 41 34 42 35 43
REMARK SMILES IDX 85 44 36 45 90 46 84 47 86 48 37 49 89 50 83 51 82 52 38 54
REMARK SMILES IDX 70 55 50 56 69 57 51 58 54 59 68 60 87 61 52 62 53 63 67 65
REMARK SMILES IDX 88 66 55 67 39 68 40 69 48 70 41 71 42 72 46 73 49 74 43 75
REMARK SMILES IDX 44 76 47 77 45 78 71 79 72 80 80 81 73 82 74 83 78 84 81 85
REMARK SMILES IDX 75 86 76 87 79 88 77 89 56 90 57 91 65 92 58 93 59 94 63 95
REMARK SMILES IDX 66 96 60 97 61 98 64 99 62 100
REMARK H PARENT 86 53 54 64
REMARK Flexibility Score: inf
ROOT
ATOM      1  C   UNL A   1      40.476  21.573  26.411  1.00  0.00     0.188 C 
ENDROOT
BRANCH   1   2
ATOM      2  O   UNL A   1      39.069  21.703  26.408  1.00  0.00    -0.376 OA
BRANCH   2   3
ATOM      3  C   UNL A   1      38.274  21.177  25.350  1.00  0.00     0.202 C 
BRANCH   3   4
ATOM      4  C   UNL A   1      37.127  21.981  24.697  1.00  0.00     0.261 C 
BRANCH   4   5
ATOM      5  O   UNL A   1      36.282  22.593  25.673  1.00  0.00    -0.463 OA
BRANCH   5   6
ATOM      6  C   UNL A   1      35.110  21.982  26.060  1.00  0.00     0.312 C 
ATOM      7  O   UNL A   1      34.746  21.776  27.202  1.00  0.00    -0.252 OA
BRANCH   6   8
ATOM      8  C   UNL A   1      34.373  21.710  24.773  1.00  0.00     0.148 C 
ATOM      9  N   UNL A   1      32.689  24.916  23.984  1.00  0.00    -0.339 N 
ATOM     10  C   UNL A   1      32.212  23.991  22.915  1.00  0.00     0.160 C 
ATOM     11  C   UNL A   1      33.311  24.168  24.989  1.00  0.00     0.230 C 
ATOM     12  C   UNL A   1      32.461  22.622  23.588  1.00  0.00     0.117 C 
ATOM     13  C   UNL A   1      33.793  22.990  24.240  1.00  0.00     0.133 C 
ATOM     14  O   UNL A   1      33.478  24.417  26.173  1.00  0.00    -0.274 OA
ATOM     15  C   UNL A   1      31.445  22.137  24.595  1.00  0.00     0.009 C 
ATOM     16  O   UNL A   1      32.882  21.357  23.067  1.00  0.00    -0.360 OA
ATOM     17  C   UNL A   1      31.956  21.028  25.144  1.00  0.00     0.004 C 
ATOM     18  C   UNL A   1      33.242  20.758  24.434  1.00  0.00     0.157 C 
BRANCH   9  19
ATOM     19  C   UNL A   1      32.563  26.368  24.006  1.00  0.00     0.124 C 
BRANCH  19  20
ATOM     20  C   UNL A   1      31.238  26.893  23.345  1.00  0.00     0.018 C 
ATOM     21  C   UNL A   1      27.376  29.093  22.994  1.00  0.00     0.039 C 
ATOM     22  C   UNL A   1      28.633  28.280  23.092  1.00  0.00    -0.077 C 
ATOM     23  C   UNL A   1      28.684  27.118  23.764  1.00  0.00    -0.025 C 
ATOM     24  C   UNL A   1      29.857  28.852  22.452  1.00  0.00     0.034 C 
ATOM     25  C   UNL A   1      29.941  26.300  23.990  1.00  0.00     0.014 C 
ATOM     26  C   UNL A   1      31.138  28.442  23.188  1.00  0.00    -0.005 C 
ATOM     27  C   UNL A   1      30.066  26.001  25.489  1.00  0.00     0.012 C 
ATOM     28  C   UNL A   1      31.252  29.230  24.501  1.00  0.00     0.008 C 
ENDBRANCH  19  20
ENDBRANCH   9  19
ENDBRANCH   6   8
ENDBRANCH   5   6
ENDBRANCH   4   5
ENDBRANCH   3   4
ENDBRANCH   2   3
ENDBRANCH   1   2
BRANCH   1  29
ATOM     29  C   UNL A   1      41.171  20.201  26.275  1.00  0.00     0.188 C 
BRANCH  29  30
ATOM     30  O   UNL A   1      42.312  20.030  25.459  1.00  0.00    -0.376 OA
BRANCH  30  31
ATOM     31  C   UNL A   1      43.480  20.776  25.753  1.00  0.00     0.202 C 
BRANCH  31  32
ATOM     32  C   UNL A   1      43.923  21.881  24.789  1.00  0.00     0.261 C 
BRANCH  32  33
ATOM     33  O   UNL A   1      43.104  23.061  24.830  1.00  0.00    -0.460 OA
BRANCH  33  34
ATOM     34  C   UNL A   1      43.783  24.225  24.971  1.00  0.00     0.338 C 
ATOM     35  O   UNL A   1      44.806  24.567  24.404  1.00  0.00    -0.246 OA
BRANCH  34  36
ATOM     36  C   UNL A   1      43.037  25.136  25.857  1.00  0.00     0.060 A 
ATOM     37  C   UNL A   1      43.374  26.495  25.854  1.00  0.00     0.016 A 
ATOM     38  C   UNL A   1      42.109  24.633  26.770  1.00  0.00     0.016 A 
ATOM     39  C   UNL A   1      42.803  27.355  26.793  1.00  0.00     0.010 A 
ATOM     40  C   UNL A   1      41.550  25.493  27.719  1.00  0.00     0.010 A 
ATOM     41  C   UNL A   1      41.920  26.851  27.756  1.00  0.00    -0.014 A 
BRANCH  41  42
ATOM     42  C   UNL A   1      41.510  27.701  28.901  1.00  0.00     0.031 A 
ATOM     43  C   UNL A   1      42.268  27.594  30.195  1.00  0.00     0.074 A 
ATOM     44  C   UNL A   1      40.484  28.562  28.793  1.00  0.00     0.049 A 
ATOM     45  N   UNL A   1      42.050  28.193  31.338  1.00  0.00    -0.248 NA
ATOM     46  C   UNL A   1      43.429  26.691  30.199  1.00  0.00     0.031 C 
ATOM     47  C   UNL A   1      39.696  28.788  27.584  1.00  0.00     0.029 A 
ATOM     48  N   UNL A   1      39.921  29.397  29.727  1.00  0.00    -0.354 N 
ATOM     49  C   UNL A   1      43.040  27.736  32.197  1.00  0.00     0.074 A 
ATOM     50  C   UNL A   1      43.845  26.791  31.453  1.00  0.00     0.031 C 
ATOM     51  C   UNL A   1      38.733  29.686  27.857  1.00  0.00     0.029 A 
ATOM     52  C   UNL A   1      38.816  30.068  29.265  1.00  0.00     0.049 A 
ATOM     53  H   UNL A   1      40.274  29.504  30.638  1.00  0.00     0.167 HD
ATOM     54  C   UNL A   1      43.262  28.079  33.488  1.00  0.00     0.037 A 
ATOM     55  C   UNL A   1      37.952  30.873  29.912  1.00  0.00     0.037 A 
ATOM     56  C   UNL A   1      42.462  29.017  34.231  1.00  0.00     0.049 A 
ATOM     57  C   UNL A   1      38.174  31.180  31.371  1.00  0.00     0.074 A 
ATOM     58  C   UNL A   1      42.627  29.452  35.533  1.00  0.00     0.029 A 
ATOM     59  N   UNL A   1      41.335  29.657  33.736  1.00  0.00    -0.354 N 
ATOM     60  N   UNL A   1      39.134  30.775  32.165  1.00  0.00    -0.248 NA
ATOM     61  C   UNL A   1      37.194  32.063  32.020  1.00  0.00     0.031 C 
ATOM     62  C   UNL A   1      41.572  30.315  35.844  1.00  0.00     0.029 A 
ATOM     63  C   UNL A   1      40.778  30.461  34.719  1.00  0.00     0.049 A 
ATOM     64  H   UNL A   1      40.982  29.556  32.823  1.00  0.00     0.167 HD
ATOM     65  C   UNL A   1      38.893  31.374  33.395  1.00  0.00     0.074 A 
ATOM     66  C   UNL A   1      37.701  32.181  33.239  1.00  0.00     0.031 C 
ATOM     67  C   UNL A   1      39.596  31.266  34.549  1.00  0.00     0.037 A 
BRANCH  54  68
ATOM     68  C   UNL A   1      44.406  27.414  34.194  1.00  0.00     0.064 A 
ATOM     69  C   UNL A   1      44.250  26.190  34.860  1.00  0.00     0.173 A 
ATOM     70  C   UNL A   1      45.685  27.992  34.170  1.00  0.00     0.173 A 
ATOM     71  F   UNL A   1      43.045  25.605  34.923  1.00  0.00    -0.203 F 
ATOM     72  C   UNL A   1      45.329  25.579  35.495  1.00  0.00     0.198 A 
ATOM     73  C   UNL A   1      46.766  27.365  34.783  1.00  0.00     0.198 A 
ATOM     74  F   UNL A   1      45.887  29.161  33.543  1.00  0.00    -0.203 F 
ATOM     75  F   UNL A   1      45.148  24.430  36.161  1.00  0.00    -0.200 F 
ATOM     76  C   UNL A   1      46.586  26.163  35.450  1.00  0.00     0.200 A 
ATOM     77  F   UNL A   1      47.982  27.925  34.728  1.00  0.00    -0.200 F 
ATOM     78  F   UNL A   1      47.624  25.569  36.055  1.00  0.00    -0.200 F 
ENDBRANCH  54  68
BRANCH  55  79
ATOM     79  C   UNL A   1      36.778  31.435  29.193  1.00  0.00     0.064 A 
ATOM     80  C   UNL A   1      36.733  32.785  28.821  1.00  0.00     0.173 A 
ATOM     81  C   UNL A   1      35.666  30.637  28.884  1.00  0.00     0.173 A 
ATOM     82  F   UNL A   1      37.763  33.594  29.113  1.00  0.00    -0.203 F 
ATOM     83  C   UNL A   1      35.613  33.322  28.189  1.00  0.00     0.198 A 
ATOM     84  C   UNL A   1      34.558  31.167  28.226  1.00  0.00     0.198 A 
ATOM     85  F   UNL A   1      35.659  29.337  29.216  1.00  0.00    -0.203 F 
ATOM     86  F   UNL A   1      35.578  34.626  27.889  1.00  0.00    -0.200 F 
ATOM     87  C   UNL A   1      34.529  32.511  27.888  1.00  0.00     0.200 A 
ATOM     88  F   UNL A   1      33.520  30.377  27.923  1.00  0.00    -0.200 F 
ATOM     89  F   UNL A   1      33.453  33.027  27.278  1.00  0.00    -0.200 F 
ENDBRANCH  55  79
BRANCH  67  90
ATOM     90  C   UNL A   1      39.120  32.068  35.726  1.00  0.00     0.064 A 
ATOM     91  C   UNL A   1      38.275  31.518  36.701  1.00  0.00     0.173 A 
ATOM     92  C   UNL A   1      39.551  33.392  35.904  1.00  0.00     0.173 A 
ATOM     93  F   UNL A   1      37.823  30.261  36.570  1.00  0.00    -0.203 F 
ATOM     94  C   UNL A   1      37.858  32.272  37.795  1.00  0.00     0.198 A 
ATOM     95  C   UNL A   1      39.157  34.133  37.014  1.00  0.00     0.198 A 
ATOM     96  F   UNL A   1      40.366  33.964  35.004  1.00  0.00    -0.203 F 
ATOM     97  F   UNL A   1      37.013  31.740  38.690  1.00  0.00    -0.200 F 
ATOM     98  C   UNL A   1      38.306  33.574  37.955  1.00  0.00     0.200 A 
ATOM     99  F   UNL A   1      39.601  35.387  37.174  1.00  0.00    -0.200 F 
ATOM    100  F   UNL A   1      37.910  34.295  39.013  1.00  0.00    -0.200 F 
ENDBRANCH  67  90
ENDBRANCH  41  42
ENDBRANCH  34  36
ENDBRANCH  33  34
ENDBRANCH  32  33
ENDBRANCH  31  32
ENDBRANCH  30  31
ENDBRANCH  29  30
ENDBRANCH   1  29
TORSDOF 19
ENDMDL
MODEL 2
REMARK VINA RESULT:     -12.0      0.774      6.921
REMARK SMILES CC1=C[C@H](C)[C@H](CN2C[C@@]34C=C[C@@H](O3)[C@H](C(=O)OCCOCCOCCOC(=O)c3ccc(-c5c6nc(c(-c7c(F)c(F)c(F)c(F)c7F)c7ccc([nH]7)c(-c7c(F)c(F)c(F)c(F)c7F)c7nc(c(-c8c(F)c(F)c(F)c(F)c8F)c8ccc5[nH]8)C=C7)C=C6)cc3)[C@@H]4C2=O)[C@H](C)C1
REMARK SMILES IDX 22 1 21 2 20 3 19 4 18 5 16 6 17 7 15 8 8 9 9 10 94 11 10 12
REMARK SMILES IDX 93 13 95 14 11 15 14 16 12 17 13 18 7 19 6 20 1 21 2 22 3 23
REMARK SMILES IDX 98 24 4 25 96 26 5 27 97 28 23 29 24 30 25 31 26 32 27 33
REMARK SMILES IDX 28 34 29 35 30 36 31 37 92 38 32 39 91 40 33 41 34 42 35 43
REMARK SMILES IDX 85 44 36 45 90 46 84 47 86 48 37 49 89 50 83 51 82 52 38 54
REMARK SMILES IDX 70 55 50 56 69 57 51 58 54 59 68 60 87 61 52 62 53 63 67 65
REMARK SMILES IDX 88 66 55 67 39 68 40 69 48 70 41 71 42 72 46 73 49 74 43 75
REMARK SMILES IDX 44 76 47 77 45 78 71 79 72 80 80 81 73 82 74 83 78 84 81 85
REMARK SMILES IDX 75 86 76 87 79 88 77 89 56 90 57 91 65 92 58 93 59 94 63 95
REMARK SMILES IDX 66 96 60 97 61 98 64 99 62 100
REMARK H PARENT 86 53 54 64
REMARK Flexibility Score: inf
ROOT
ATOM      1  C   UNL A   1      40.410  22.354  26.637  1.00  0.00     0.188 C 
ENDROOT
BRANCH   1   2
ATOM      2  O   UNL A   1      39.059  21.944  26.560  1.00  0.00    -0.376 OA
BRANCH   2   3
ATOM      3  C   UNL A   1      38.554  21.249  25.425  1.00  0.00     0.202 C 
BRANCH   3   4
ATOM      4  C   UNL A   1      37.228  21.643  24.735  1.00  0.00     0.261 C 
BRANCH   4   5
ATOM      5  O   UNL A   1      36.418  22.471  25.570  1.00  0.00    -0.463 OA
BRANCH   5   6
ATOM      6  C   UNL A   1      35.174  22.043  25.977  1.00  0.00     0.312 C 
ATOM      7  O   UNL A   1      34.772  21.977  27.123  1.00  0.00    -0.252 OA
BRANCH   6   8
ATOM      8  C   UNL A   1      34.425  21.761  24.699  1.00  0.00     0.148 C 
ATOM      9  N   UNL A   1      32.717  24.954  23.911  1.00  0.00    -0.339 N 
ATOM     10  C   UNL A   1      32.234  24.022  22.851  1.00  0.00     0.160 C 
ATOM     11  C   UNL A   1      33.353  24.215  24.914  1.00  0.00     0.230 C 
ATOM     12  C   UNL A   1      32.497  22.658  23.528  1.00  0.00     0.117 C 
ATOM     13  C   UNL A   1      33.834  23.036  24.165  1.00  0.00     0.133 C 
ATOM     14  O   UNL A   1      33.530  24.470  26.094  1.00  0.00    -0.274 OA
ATOM     15  C   UNL A   1      31.494  22.172  24.548  1.00  0.00     0.009 C 
ATOM     16  O   UNL A   1      32.919  21.393  23.009  1.00  0.00    -0.360 OA
ATOM     17  C   UNL A   1      32.016  21.069  25.097  1.00  0.00     0.004 C 
ATOM     18  C   UNL A   1      33.296  20.801  24.376  1.00  0.00     0.157 C 
BRANCH   9  19
ATOM     19  C   UNL A   1      32.584  26.406  23.927  1.00  0.00     0.124 C 
BRANCH  19  20
ATOM     20  C   UNL A   1      31.233  26.919  23.312  1.00  0.00     0.018 C 
ATOM     21  C   UNL A   1      27.321  29.049  23.109  1.00  0.00     0.039 C 
ATOM     22  C   UNL A   1      28.595  28.259  23.156  1.00  0.00    -0.077 C 
ATOM     23  C   UNL A   1      28.687  27.084  23.800  1.00  0.00    -0.025 C 
ATOM     24  C   UNL A   1      29.791  28.870  22.498  1.00  0.00     0.034 C 
ATOM     25  C   UNL A   1      29.965  26.286  23.976  1.00  0.00     0.014 C 
ATOM     26  C   UNL A   1      31.098  28.469  23.193  1.00  0.00    -0.005 C 
ATOM     27  C   UNL A   1      30.134  25.956  25.463  1.00  0.00     0.012 C 
ATOM     28  C   UNL A   1      31.230  29.230  24.521  1.00  0.00     0.008 C 
ENDBRANCH  19  20
ENDBRANCH   9  19
ENDBRANCH   6   8
ENDBRANCH   5   6
ENDBRANCH   4   5
ENDBRANCH   3   4
ENDBRANCH   2   3
ENDBRANCH   1   2
BRANCH   1  29
ATOM     29  C   UNL A   1      41.577  21.358  26.472  1.00  0.00     0.188 C 
BRANCH  29  30
ATOM     30  O   UNL A   1      42.450  21.423  25.362  1.00  0.00    -0.376 OA
BRANCH  30  31
ATOM     31  C   UNL A   1      43.679  22.114  25.499  1.00  0.00     0.202 C 
BRANCH  31  32
ATOM     32  C   UNL A   1      44.017  23.238  24.515  1.00  0.00     0.261 C 
BRANCH  32  33
ATOM     33  O   UNL A   1      43.231  24.428  24.687  1.00  0.00    -0.460 OA
BRANCH  33  34
ATOM     34  C   UNL A   1      43.928  25.525  25.071  1.00  0.00     0.338 C 
ATOM     35  O   UNL A   1      44.990  25.927  24.630  1.00  0.00    -0.246 OA
BRANCH  34  36
ATOM     36  C   UNL A   1      43.151  26.290  26.062  1.00  0.00     0.060 A 
ATOM     37  C   UNL A   1      43.650  27.525  26.494  1.00  0.00     0.016 A 
ATOM     38  C   UNL A   1      42.015  25.735  26.652  1.00  0.00     0.016 A 
ATOM     39  C   UNL A   1      43.029  28.197  27.546  1.00  0.00     0.010 A 
ATOM     40  C   UNL A   1      41.402  26.402  27.716  1.00  0.00     0.010 A 
ATOM     41  C   UNL A   1      41.926  27.620  28.190  1.00  0.00    -0.014 A 
BRANCH  41  42
ATOM     42  C   UNL A   1      41.422  28.201  29.458  1.00  0.00     0.031 A 
ATOM     43  C   UNL A   1      40.189  29.061  29.424  1.00  0.00     0.074 A 
ATOM     44  C   UNL A   1      42.044  27.965  30.625  1.00  0.00     0.049 A 
ATOM     45  N   UNL A   1      39.607  29.717  30.396  1.00  0.00    -0.248 NA
ATOM     46  C   UNL A   1      39.522  29.197  28.120  1.00  0.00     0.031 C 
ATOM     47  C   UNL A   1      43.222  27.119  30.797  1.00  0.00     0.029 A 
ATOM     48  N   UNL A   1      41.774  28.432  31.888  1.00  0.00    -0.354 N 
ATOM     49  C   UNL A   1      38.512  30.348  29.820  1.00  0.00     0.074 A 
ATOM     50  C   UNL A   1      38.523  30.018  28.411  1.00  0.00     0.031 C 
ATOM     51  C   UNL A   1      43.589  27.145  32.090  1.00  0.00     0.029 A 
ATOM     52  C   UNL A   1      42.695  28.038  32.826  1.00  0.00     0.049 A 
ATOM     53  H   UNL A   1      40.996  28.995  32.101  1.00  0.00     0.167 HD
ATOM     54  C   UNL A   1      37.577  31.126  30.415  1.00  0.00     0.037 A 
ATOM     55  C   UNL A   1      42.823  28.382  34.122  1.00  0.00     0.037 A 
ATOM     56  C   UNL A   1      37.564  31.457  31.816  1.00  0.00     0.049 A 
ATOM     57  C   UNL A   1      41.814  29.313  34.744  1.00  0.00     0.074 A 
ATOM     58  C   UNL A   1      36.640  32.213  32.515  1.00  0.00     0.029 A 
ATOM     59  N   UNL A   1      38.529  31.060  32.728  1.00  0.00    -0.354 N 
ATOM     60  N   UNL A   1      40.761  29.874  34.203  1.00  0.00    -0.248 NA
ATOM     61  C   UNL A   1      42.010  29.653  36.161  1.00  0.00     0.031 C 
ATOM     62  C   UNL A   1      37.074  32.317  33.841  1.00  0.00     0.029 A 
ATOM     63  C   UNL A   1      38.239  31.581  33.980  1.00  0.00     0.049 A 
ATOM     64  H   UNL A   1      39.306  30.493  32.519  1.00  0.00     0.167 HD
ATOM     65  C   UNL A   1      40.153  30.605  35.215  1.00  0.00     0.074 A 
ATOM     66  C   UNL A   1      40.950  30.408  36.408  1.00  0.00     0.031 C 
ATOM     67  C   UNL A   1      39.036  31.371  35.162  1.00  0.00     0.037 A 
BRANCH  54  68
ATOM     68  C   UNL A   1      36.497  31.699  29.545  1.00  0.00     0.064 A 
ATOM     69  C   UNL A   1      35.481  30.896  29.007  1.00  0.00     0.173 A 
ATOM     70  C   UNL A   1      36.460  33.076  29.277  1.00  0.00     0.173 A 
ATOM     71  F   UNL A   1      35.481  29.573  29.223  1.00  0.00    -0.203 F 
ATOM     72  C   UNL A   1      34.477  31.449  28.215  1.00  0.00     0.198 A 
ATOM     73  C   UNL A   1      35.440  33.628  28.507  1.00  0.00     0.198 A 
ATOM     74  F   UNL A   1      37.408  33.887  29.770  1.00  0.00    -0.203 F 
ATOM     75  F   UNL A   1      33.539  30.658  27.678  1.00  0.00    -0.200 F 
ATOM     76  C   UNL A   1      34.454  32.814  27.972  1.00  0.00     0.200 A 
ATOM     77  F   UNL A   1      35.413  34.949  28.283  1.00  0.00    -0.200 F 
ATOM     78  F   UNL A   1      33.482  33.345  27.216  1.00  0.00    -0.200 F 
ENDBRANCH  54  68
BRANCH  55  79
ATOM     79  C   UNL A   1      43.964  27.862  34.921  1.00  0.00     0.064 A 
ATOM     80  C   UNL A   1      45.138  28.611  35.082  1.00  0.00     0.173 A 
ATOM     81  C   UNL A   1      43.911  26.594  35.520  1.00  0.00     0.173 A 
ATOM     82  F   UNL A   1      45.244  29.819  34.510  1.00  0.00    -0.203 F 
ATOM     83  C   UNL A   1      46.224  28.103  35.792  1.00  0.00     0.198 A 
ATOM     84  C   UNL A   1      44.987  26.099  36.254  1.00  0.00     0.198 A 
ATOM     85  F   UNL A   1      42.810  25.839  35.398  1.00  0.00    -0.203 F 
ATOM     86  F   UNL A   1      47.351  28.819  35.888  1.00  0.00    -0.200 F 
ATOM     87  C   UNL A   1      46.146  26.849  36.381  1.00  0.00     0.200 A 
ATOM     88  F   UNL A   1      44.901  24.895  36.835  1.00  0.00    -0.200 F 
ATOM     89  F   UNL A   1      47.190  26.362  37.066  1.00  0.00    -0.200 F 
ENDBRANCH  55  79
BRANCH  67  90
ATOM     90  C   UNL A   1      38.582  32.023  36.436  1.00  0.00     0.064 A 
ATOM     91  C   UNL A   1      37.808  31.337  37.382  1.00  0.00     0.173 A 
ATOM     92  C   UNL A   1      38.964  33.341  36.734  1.00  0.00     0.173 A 
ATOM     93  F   UNL A   1      37.404  30.080  37.139  1.00  0.00    -0.203 F 
ATOM     94  C   UNL A   1      37.411  31.953  38.566  1.00  0.00     0.198 A 
ATOM     95  C   UNL A   1      38.591  33.944  37.932  1.00  0.00     0.198 A 
ATOM     96  F   UNL A   1      39.711  34.042  35.866  1.00  0.00    -0.203 F 
ATOM     97  F   UNL A   1      36.631  31.292  39.434  1.00  0.00    -0.200 F 
ATOM     98  C   UNL A   1      37.810  33.251  38.844  1.00  0.00     0.200 A 
ATOM     99  F   UNL A   1      38.988  35.195  38.204  1.00  0.00    -0.200 F 
ATOM    100  F   UNL A   1      37.433  33.839  39.987  1.00  0.00    -0.200 F 
ENDBRANCH  67  90
ENDBRANCH  41  42
ENDBRANCH  34  36
ENDBRANCH  33  34
ENDBRANCH  32  33
ENDBRANCH  31  32
ENDBRANCH  30  31
ENDBRANCH  29  30
ENDBRANCH   1  29
TORSDOF 19
ENDMDL
MODEL 3
REMARK VINA RESULT:     -11.7      3.537      9.310
REMARK SMILES CC1=C[C@H](C)[C@H](CN2C[C@@]34C=C[C@@H](O3)[C@H](C(=O)OCCOCCOCCOC(=O)c3ccc(-c5c6nc(c(-c7c(F)c(F)c(F)c(F)c7F)c7ccc([nH]7)c(-c7c(F)c(F)c(F)c(F)c7F)c7nc(c(-c8c(F)c(F)c(F)c(F)c8F)c8ccc5[nH]8)C=C7)C=C6)cc3)[C@@H]4C2=O)[C@H](C)C1
REMARK SMILES IDX 22 1 21 2 20 3 19 4 18 5 16 6 17 7 15 8 8 9 9 10 94 11 10 12
REMARK SMILES IDX 93 13 95 14 11 15 14 16 12 17 13 18 7 19 6 20 1 21 2 22 3 23
REMARK SMILES IDX 98 24 4 25 96 26 5 27 97 28 23 29 24 30 25 31 26 32 27 33
REMARK SMILES IDX 28 34 29 35 30 36 31 37 92 38 32 39 91 40 33 41 34 42 35 43
REMARK SMILES IDX 85 44 36 45 90 46 84 47 86 48 37 49 89 50 83 51 82 52 38 54
REMARK SMILES IDX 70 55 50 56 69 57 51 58 54 59 68 60 87 61 52 62 53 63 67 65
REMARK SMILES IDX 88 66 55 67 39 68 40 69 48 70 41 71 42 72 46 73 49 74 43 75
REMARK SMILES IDX 44 76 47 77 45 78 71 79 72 80 80 81 73 82 74 83 78 84 81 85
REMARK SMILES IDX 75 86 76 87 79 88 77 89 56 90 57 91 65 92 58 93 59 94 63 95
REMARK SMILES IDX 66 96 60 97 61 98 64 99 62 100
REMARK H PARENT 86 53 54 64
REMARK Flexibility Score: inf
ROOT
ATOM      1  C   UNL A   1      35.841  31.895  28.425  1.00  0.00     0.188 C 
ENDROOT
BRANCH   1   2
ATOM      2  O   UNL A   1      35.508  30.911  27.467  1.00  0.00    -0.376 OA
BRANCH   2   3
ATOM      3  C   UNL A   1      34.172  30.442  27.312  1.00  0.00     0.202 C 
BRANCH   3   4
ATOM      4  C   UNL A   1      33.844  28.972  26.966  1.00  0.00     0.261 C 
BRANCH   4   5
ATOM      5  O   UNL A   1      32.538  28.836  26.404  1.00  0.00    -0.463 OA
BRANCH   5   6
ATOM      6  C   UNL A   1      32.359  28.885  25.039  1.00  0.00     0.312 C 
ATOM      7  O   UNL A   1      33.122  29.376  24.229  1.00  0.00    -0.252 OA
BRANCH   6   8
ATOM      8  C   UNL A   1      31.072  28.140  24.791  1.00  0.00     0.148 C 
ATOM      9  N   UNL A   1      32.065  24.569  24.782  1.00  0.00    -0.339 N 
ATOM     10  C   UNL A   1      30.613  24.535  24.443  1.00  0.00     0.160 C 
ATOM     11  C   UNL A   1      32.528  25.885  24.674  1.00  0.00     0.230 C 
ATOM     12  C   UNL A   1      30.407  25.974  23.919  1.00  0.00     0.117 C 
ATOM     13  C   UNL A   1      31.303  26.663  24.948  1.00  0.00     0.133 C 
ATOM     14  O   UNL A   1      33.651  26.315  24.464  1.00  0.00    -0.274 OA
ATOM     15  C   UNL A   1      30.830  26.275  22.500  1.00  0.00     0.009 C 
ATOM     16  O   UNL A   1      29.310  26.888  24.025  1.00  0.00    -0.360 OA
ATOM     17  C   UNL A   1      30.702  27.598  22.339  1.00  0.00     0.004 C 
ATOM     18  C   UNL A   1      30.121  28.125  23.609  1.00  0.00     0.157 C 
BRANCH   9  19
ATOM     19  C   UNL A   1      32.898  23.442  25.183  1.00  0.00     0.124 C 
BRANCH  19  20
ATOM     20  C   UNL A   1      32.370  22.056  24.663  1.00  0.00     0.018 C 
ATOM     21  C   UNL A   1      32.440  18.118  22.573  1.00  0.00     0.039 C 
ATOM     22  C   UNL A   1      32.347  19.465  23.228  1.00  0.00    -0.077 C 
ATOM     23  C   UNL A   1      32.199  20.597  22.521  1.00  0.00    -0.025 C 
ATOM     24  C   UNL A   1      32.488  19.501  24.716  1.00  0.00     0.034 C 
ATOM     25  C   UNL A   1      32.203  21.996  23.108  1.00  0.00     0.014 C 
ATOM     26  C   UNL A   1      33.131  20.806  25.202  1.00  0.00    -0.005 C 
ATOM     27  C   UNL A   1      33.216  22.847  22.334  1.00  0.00     0.012 C 
ATOM     28  C   UNL A   1      34.635  20.785  24.892  1.00  0.00     0.008 C 
ENDBRANCH  19  20
ENDBRANCH   9  19
ENDBRANCH   6   8
ENDBRANCH   5   6
ENDBRANCH   4   5
ENDBRANCH   3   4
ENDBRANCH   2   3
ENDBRANCH   1   2
BRANCH   1  29
ATOM     29  C   UNL A   1      35.514  33.388  28.211  1.00  0.00     0.188 C 
BRANCH  29  30
ATOM     30  O   UNL A   1      34.254  33.924  28.560  1.00  0.00    -0.376 OA
BRANCH  30  31
ATOM     31  C   UNL A   1      34.089  35.332  28.567  1.00  0.00     0.202 C 
BRANCH  31  32
ATOM     32  C   UNL A   1      33.072  35.959  29.525  1.00  0.00     0.261 C 
BRANCH  32  33
ATOM     33  O   UNL A   1      32.658  35.094  30.595  1.00  0.00    -0.460 OA
BRANCH  33  34
ATOM     34  C   UNL A   1      32.790  35.616  31.838  1.00  0.00     0.338 C 
ATOM     35  O   UNL A   1      32.053  36.407  32.398  1.00  0.00    -0.246 OA
BRANCH  34  36
ATOM     36  C   UNL A   1      33.934  34.990  32.524  1.00  0.00     0.060 A 
ATOM     37  C   UNL A   1      35.188  35.606  32.431  1.00  0.00     0.016 A 
ATOM     38  C   UNL A   1      33.795  33.745  33.140  1.00  0.00     0.016 A 
ATOM     39  C   UNL A   1      36.320  34.959  32.928  1.00  0.00     0.010 A 
ATOM     40  C   UNL A   1      34.932  33.092  33.624  1.00  0.00     0.010 A 
ATOM     41  C   UNL A   1      36.203  33.681  33.490  1.00  0.00    -0.014 A 
BRANCH  41  42
ATOM     42  C   UNL A   1      37.423  32.890  33.787  1.00  0.00     0.031 A 
ATOM     43  C   UNL A   1      38.184  33.174  35.053  1.00  0.00     0.074 A 
ATOM     44  C   UNL A   1      37.846  31.928  32.951  1.00  0.00     0.049 A 
ATOM     45  N   UNL A   1      39.303  32.650  35.485  1.00  0.00    -0.248 NA
ATOM     46  C   UNL A   1      37.603  34.182  35.953  1.00  0.00     0.031 C 
ATOM     47  C   UNL A   1      37.177  31.530  31.715  1.00  0.00     0.029 A 
ATOM     48  N   UNL A   1      38.955  31.120  33.012  1.00  0.00    -0.354 N 
ATOM     49  C   UNL A   1      39.563  33.268  36.701  1.00  0.00     0.074 A 
ATOM     50  C   UNL A   1      38.500  34.224  36.927  1.00  0.00     0.031 C 
ATOM     51  C   UNL A   1      37.903  30.567  31.120  1.00  0.00     0.029 A 
ATOM     52  C   UNL A   1      39.103  30.309  31.914  1.00  0.00     0.049 A 
ATOM     53  H   UNL A   1      39.583  31.121  33.769  1.00  0.00     0.167 HD
ATOM     54  C   UNL A   1      40.591  33.053  37.554  1.00  0.00     0.037 A 
ATOM     55  C   UNL A   1      40.107  29.479  31.572  1.00  0.00     0.037 A 
ATOM     56  C   UNL A   1      41.650  32.104  37.331  1.00  0.00     0.049 A 
ATOM     57  C   UNL A   1      41.281  29.313  32.503  1.00  0.00     0.074 A 
ATOM     58  C   UNL A   1      42.718  31.793  38.153  1.00  0.00     0.029 A 
ATOM     59  N   UNL A   1      41.779  31.320  36.194  1.00  0.00    -0.354 N 
ATOM     60  N   UNL A   1      41.500  29.871  33.667  1.00  0.00    -0.248 NA
ATOM     61  C   UNL A   1      42.344  28.393  32.072  1.00  0.00     0.031 C 
ATOM     62  C   UNL A   1      43.523  30.859  37.491  1.00  0.00     0.029 A 
ATOM     63  C   UNL A   1      42.927  30.548  36.281  1.00  0.00     0.049 A 
ATOM     64  H   UNL A   1      41.150  31.313  35.438  1.00  0.00     0.167 HD
ATOM     65  C   UNL A   1      42.706  29.353  34.121  1.00  0.00     0.074 A 
ATOM     66  C   UNL A   1      43.167  28.424  33.111  1.00  0.00     0.031 C 
ATOM     67  C   UNL A   1      43.371  29.620  35.271  1.00  0.00     0.037 A 
BRANCH  54  68
ATOM     68  C   UNL A   1      40.638  33.880  38.805  1.00  0.00     0.064 A 
ATOM     69  C   UNL A   1      41.354  35.084  38.866  1.00  0.00     0.173 A 
ATOM     70  C   UNL A   1      39.924  33.480  39.945  1.00  0.00     0.173 A 
ATOM     71  F   UNL A   1      42.063  35.502  37.807  1.00  0.00    -0.203 F 
ATOM     72  C   UNL A   1      41.371  35.848  40.031  1.00  0.00     0.198 A 
ATOM     73  C   UNL A   1      39.922  34.260  41.099  1.00  0.00     0.198 A 
ATOM     74  F   UNL A   1      39.221  32.338  39.937  1.00  0.00    -0.203 F 
ATOM     75  F   UNL A   1      42.095  36.974  40.080  1.00  0.00    -0.200 F 
ATOM     76  C   UNL A   1      40.650  35.439  41.143  1.00  0.00     0.200 A 
ATOM     77  F   UNL A   1      39.214  33.869  42.168  1.00  0.00    -0.200 F 
ATOM     78  F   UNL A   1      40.661  36.180  42.260  1.00  0.00    -0.200 F 
ENDBRANCH  54  68
BRANCH  55  79
ATOM     79  C   UNL A   1      40.060  28.750  30.278  1.00  0.00     0.064 A 
ATOM     80  C   UNL A   1      39.456  27.490  30.176  1.00  0.00     0.173 A 
ATOM     81  C   UNL A   1      40.642  29.290  29.120  1.00  0.00     0.173 A 
ATOM     82  F   UNL A   1      38.905  26.923  31.260  1.00  0.00    -0.203 F 
ATOM     83  C   UNL A   1      39.454  26.787  28.972  1.00  0.00     0.198 A 
ATOM     84  C   UNL A   1      40.614  28.599  27.910  1.00  0.00     0.198 A 
ATOM     85  F   UNL A   1      41.231  30.493  29.163  1.00  0.00    -0.203 F 
ATOM     86  F   UNL A   1      38.913  25.563  28.916  1.00  0.00    -0.200 F 
ATOM     87  C   UNL A   1      40.030  27.344  27.840  1.00  0.00     0.200 A 
ATOM     88  F   UNL A   1      41.157  29.148  26.816  1.00  0.00    -0.200 F 
ATOM     89  F   UNL A   1      40.026  26.668  26.682  1.00  0.00    -0.200 F 
ENDBRANCH  55  79
BRANCH  67  90
ATOM     90  C   UNL A   1      44.650  28.873  35.522  1.00  0.00     0.064 A 
ATOM     91  C   UNL A   1      45.895  29.394  35.142  1.00  0.00     0.173 A 
ATOM     92  C   UNL A   1      44.631  27.638  36.189  1.00  0.00     0.173 A 
ATOM     93  F   UNL A   1      45.966  30.564  34.489  1.00  0.00    -0.203 F 
ATOM     94  C   UNL A   1      47.072  28.694  35.398  1.00  0.00     0.198 A 
ATOM     95  C   UNL A   1      45.811  26.956  36.470  1.00  0.00     0.198 A 
ATOM     96  F   UNL A   1      43.466  27.098  36.580  1.00  0.00    -0.203 F 
ATOM     97  F   UNL A   1      48.247  29.189  34.984  1.00  0.00    -0.200 F 
ATOM     98  C   UNL A   1      47.029  27.481  36.069  1.00  0.00     0.200 A 
ATOM     99  F   UNL A   1      45.769  25.790  37.129  1.00  0.00    -0.200 F 
ATOM    100  F   UNL A   1      48.164  26.814  36.321  1.00  0.00    -0.200 F 
ENDBRANCH  67  90
ENDBRANCH  41  42
ENDBRANCH  34  36
ENDBRANCH  33  34
ENDBRANCH  32  33
ENDBRANCH  31  32
ENDBRANCH  30  31
ENDBRANCH  29  30
ENDBRANCH   1  29
TORSDOF 19
ENDMDL
