MODEL 1
REMARK VINA RESULT:     -11.2      0.000      0.000
REMARK SMILES Cc1cc(F)cc(/C=C/C(=O)OCCOCCOCCOC(=O)c2ccc(-c3c4nc(c(-c5c(F)c(F)c(F)c(F)c5F)c5ccc([nH]5)c(-c5c(F)c(F)c(F)c(F)c5F)c5nc(c(-c6c(F)c(F)c(F)c(F)c6F)c6ccc3[nH]6)C=C5)C=C4)cc2)c1
REMARK SMILES IDX 17 1 16 2 15 3 14 4 13 5 12 6 10 7 11 8 9 9 8 10 7 11 1 12
REMARK SMILES IDX 2 13 3 14 87 15 4 16 5 17 6 18 18 19 19 20 20 21 21 22 22 23
REMARK SMILES IDX 23 24 24 25 25 26 86 27 26 28 85 29 27 30 28 31 29 32 79 33
REMARK SMILES IDX 30 34 84 35 78 36 80 37 31 38 83 39 77 40 76 41 32 43 64 44
REMARK SMILES IDX 44 45 63 46 45 47 48 48 62 49 81 50 46 51 47 52 61 54 82 55
REMARK SMILES IDX 49 56 33 57 34 58 42 59 35 60 36 61 40 62 43 63 37 64 38 65
REMARK SMILES IDX 41 66 39 67 65 68 66 69 74 70 67 71 68 72 72 73 75 74 69 75
REMARK SMILES IDX 70 76 73 77 71 78 50 79 51 80 59 81 52 82 53 83 57 84 60 85
REMARK SMILES IDX 54 86 55 87 58 88 56 89
REMARK H PARENT 80 42 48 53
REMARK Flexibility Score: inf
ROOT
ATOM      1  C   UNL A   1      45.602  22.673  26.468  1.00  0.00     0.188 C 
ENDROOT
BRANCH   1   2
ATOM      2  C   UNL A   1      45.390  22.496  24.945  1.00  0.00     0.188 C 
BRANCH   2   3
ATOM      3  O   UNL A   1      44.467  21.541  24.443  1.00  0.00    -0.376 OA
BRANCH   3   4
ATOM      4  C   UNL A   1      44.375  20.281  25.093  1.00  0.00     0.202 C 
BRANCH   4   5
ATOM      5  C   UNL A   1      43.077  19.908  25.833  1.00  0.00     0.261 C 
BRANCH   5   6
ATOM      6  O   UNL A   1      41.947  20.762  25.567  1.00  0.00    -0.460 OA
BRANCH   6   7
ATOM      7  C   UNL A   1      41.080  20.921  26.596  1.00  0.00     0.330 C 
ATOM      8  O   UNL A   1      41.372  21.041  27.779  1.00  0.00    -0.247 OA
BRANCH   7   9
ATOM      9  C   UNL A   1      39.679  21.094  26.147  1.00  0.00     0.094 C 
ATOM     10  C   UNL A   1      38.963  22.230  26.152  1.00  0.00     0.016 C 
BRANCH  10  11
ATOM     11  C   UNL A   1      37.552  22.289  25.724  1.00  0.00    -0.022 A 
ATOM     12  C   UNL A   1      34.849  24.962  25.285  1.00  0.00     0.044 C 
ATOM     13  C   UNL A   1      35.545  23.633  25.317  1.00  0.00    -0.048 A 
ATOM     14  C   UNL A   1      34.877  22.490  24.870  1.00  0.00     0.042 A 
ATOM     15  C   UNL A   1      36.880  23.521  25.748  1.00  0.00     0.011 A 
ATOM     16  C   UNL A   1      35.527  21.262  24.886  1.00  0.00     0.124 A 
ATOM     17  F   UNL A   1      34.875  20.168  24.471  1.00  0.00    -0.207 F 
ATOM     18  C   UNL A   1      36.846  21.149  25.318  1.00  0.00     0.047 A 
ENDBRANCH  10  11
ENDBRANCH   7   9
ENDBRANCH   6   7
ENDBRANCH   5   6
ENDBRANCH   4   5
ENDBRANCH   3   4
ENDBRANCH   2   3
ENDBRANCH   1   2
BRANCH   1  19
ATOM     19  O   UNL A   1      44.425  22.749  27.270  1.00  0.00    -0.376 OA
BRANCH  19  20
ATOM     20  C   UNL A   1      44.548  23.536  28.458  1.00  0.00     0.202 C 
BRANCH  20  21
ATOM     21  C   UNL A   1      43.528  24.682  28.529  1.00  0.00     0.261 C 
BRANCH  21  22
ATOM     22  O   UNL A   1      42.194  24.241  28.285  1.00  0.00    -0.460 OA
BRANCH  22  23
ATOM     23  C   UNL A   1      41.769  24.533  27.046  1.00  0.00     0.338 C 
ATOM     24  O   UNL A   1      42.240  24.169  25.979  1.00  0.00    -0.246 OA
BRANCH  23  25
ATOM     25  C   UNL A   1      40.581  25.374  27.119  1.00  0.00     0.060 A 
ATOM     26  C   UNL A   1      40.545  26.456  26.221  1.00  0.00     0.016 A 
ATOM     27  C   UNL A   1      39.961  25.386  28.361  1.00  0.00     0.016 A 
ATOM     28  C   UNL A   1      40.192  27.689  26.708  1.00  0.00     0.010 A 
ATOM     29  C   UNL A   1      39.652  26.620  28.859  1.00  0.00     0.010 A 
ATOM     30  C   UNL A   1      39.915  27.751  28.066  1.00  0.00    -0.014 A 
BRANCH  30  31
ATOM     31  C   UNL A   1      40.181  28.949  28.826  1.00  0.00     0.031 A 
ATOM     32  C   UNL A   1      39.128  29.947  28.950  1.00  0.00     0.074 A 
ATOM     33  C   UNL A   1      41.318  28.962  29.554  1.00  0.00     0.049 A 
ATOM     34  N   UNL A   1      39.308  31.131  29.411  1.00  0.00    -0.248 NA
ATOM     35  C   UNL A   1      37.764  29.683  28.508  1.00  0.00     0.031 C 
ATOM     36  C   UNL A   1      41.635  29.786  30.710  1.00  0.00     0.029 A 
ATOM     37  N   UNL A   1      42.523  28.298  29.253  1.00  0.00    -0.354 N 
ATOM     38  C   UNL A   1      38.062  31.665  29.627  1.00  0.00     0.074 A 
ATOM     39  C   UNL A   1      37.140  30.770  28.967  1.00  0.00     0.031 C 
ATOM     40  C   UNL A   1      42.969  29.806  30.872  1.00  0.00     0.029 A 
ATOM     41  C   UNL A   1      43.552  29.153  29.709  1.00  0.00     0.049 A 
ATOM     42  H   UNL A   1      42.627  27.422  28.817  1.00  0.00     0.167 HD
ATOM     43  C   UNL A   1      37.949  32.714  30.487  1.00  0.00     0.037 A 
ATOM     44  C   UNL A   1      44.355  29.781  28.797  1.00  0.00     0.037 A 
ATOM     45  C   UNL A   1      39.264  33.168  30.940  1.00  0.00     0.049 A 
ATOM     46  C   UNL A   1      44.194  31.291  28.759  1.00  0.00     0.074 A 
ATOM     47  C   UNL A   1      40.038  32.920  32.063  1.00  0.00     0.029 A 
ATOM     48  N   UNL A   1      40.131  33.697  29.999  1.00  0.00    -0.354 N 
ATOM     49  N   UNL A   1      43.248  31.947  29.374  1.00  0.00    -0.248 NA
ATOM     50  C   UNL A   1      45.045  32.171  27.958  1.00  0.00     0.031 C 
ATOM     51  C   UNL A   1      41.386  33.277  31.766  1.00  0.00     0.029 A 
ATOM     52  C   UNL A   1      41.429  33.749  30.466  1.00  0.00     0.049 A 
ATOM     53  H   UNL A   1      39.855  33.999  29.104  1.00  0.00     0.167 HD
ATOM     54  C   UNL A   1      43.341  33.277  29.075  1.00  0.00     0.074 A 
ATOM     55  C   UNL A   1      44.472  33.370  28.169  1.00  0.00     0.031 C 
ATOM     56  C   UNL A   1      42.479  34.209  29.573  1.00  0.00     0.037 A 
BRANCH  43  57
ATOM     57  C   UNL A   1      36.637  33.081  31.122  1.00  0.00     0.064 A 
ATOM     58  C   UNL A   1      35.664  33.792  30.394  1.00  0.00     0.173 A 
ATOM     59  C   UNL A   1      36.314  32.832  32.469  1.00  0.00     0.173 A 
ATOM     60  F   UNL A   1      35.793  34.010  29.080  1.00  0.00    -0.203 F 
ATOM     61  C   UNL A   1      34.522  34.320  30.998  1.00  0.00     0.198 A 
ATOM     62  C   UNL A   1      35.205  33.413  33.089  1.00  0.00     0.198 A 
ATOM     63  F   UNL A   1      37.043  31.987  33.211  1.00  0.00    -0.203 F 
ATOM     64  F   UNL A   1      33.632  34.997  30.257  1.00  0.00    -0.200 F 
ATOM     65  C   UNL A   1      34.314  34.168  32.354  1.00  0.00     0.200 A 
ATOM     66  F   UNL A   1      35.011  33.241  34.405  1.00  0.00    -0.200 F 
ATOM     67  F   UNL A   1      33.248  34.725  32.943  1.00  0.00    -0.200 F 
ENDBRANCH  43  57
BRANCH  44  68
ATOM     68  C   UNL A   1      44.655  28.932  27.609  1.00  0.00     0.064 A 
ATOM     69  C   UNL A   1      45.643  27.932  27.718  1.00  0.00     0.173 A 
ATOM     70  C   UNL A   1      43.770  28.847  26.528  1.00  0.00     0.173 A 
ATOM     71  F   UNL A   1      46.523  27.969  28.732  1.00  0.00    -0.203 F 
ATOM     72  C   UNL A   1      45.679  26.845  26.845  1.00  0.00     0.198 A 
ATOM     73  C   UNL A   1      43.811  27.759  25.654  1.00  0.00     0.198 A 
ATOM     74  F   UNL A   1      42.803  29.761  26.369  1.00  0.00    -0.203 F 
ATOM     75  F   UNL A   1      46.584  25.872  27.019  1.00  0.00    -0.200 F 
ATOM     76  C   UNL A   1      44.741  26.745  25.830  1.00  0.00     0.200 A 
ATOM     77  F   UNL A   1      42.891  27.651  24.684  1.00  0.00    -0.200 F 
ATOM     78  F   UNL A   1      44.713  25.663  25.039  1.00  0.00    -0.200 F 
ENDBRANCH  44  68
BRANCH  56  79
ATOM     79  C   UNL A   1      42.582  35.672  29.276  1.00  0.00     0.064 A 
ATOM     80  C   UNL A   1      41.980  36.247  28.148  1.00  0.00     0.173 A 
ATOM     81  C   UNL A   1      43.418  36.513  30.041  1.00  0.00     0.173 A 
ATOM     82  F   UNL A   1      41.203  35.514  27.337  1.00  0.00    -0.203 F 
ATOM     83  C   UNL A   1      42.185  37.588  27.820  1.00  0.00     0.198 A 
ATOM     84  C   UNL A   1      43.668  37.832  29.676  1.00  0.00     0.198 A 
ATOM     85  F   UNL A   1      43.996  36.081  31.171  1.00  0.00    -0.203 F 
ATOM     86  F   UNL A   1      41.555  38.117  26.761  1.00  0.00    -0.200 F 
ATOM     87  C   UNL A   1      43.043  38.374  28.571  1.00  0.00     0.200 A 
ATOM     88  F   UNL A   1      44.518  38.571  30.404  1.00  0.00    -0.200 F 
ATOM     89  F   UNL A   1      43.264  39.651  28.235  1.00  0.00    -0.200 F 
ENDBRANCH  56  79
ENDBRANCH  30  31
ENDBRANCH  23  25
ENDBRANCH  22  23
ENDBRANCH  21  22
ENDBRANCH  20  21
ENDBRANCH  19  20
ENDBRANCH   1  19
TORSDOF 18
ENDMDL
MODEL 2
REMARK VINA RESULT:     -11.0      4.608     10.861
REMARK SMILES Cc1cc(F)cc(/C=C/C(=O)OCCOCCOCCOC(=O)c2ccc(-c3c4nc(c(-c5c(F)c(F)c(F)c(F)c5F)c5ccc([nH]5)c(-c5c(F)c(F)c(F)c(F)c5F)c5nc(c(-c6c(F)c(F)c(F)c(F)c6F)c6ccc3[nH]6)C=C5)C=C4)cc2)c1
REMARK SMILES IDX 17 1 16 2 15 3 14 4 13 5 12 6 10 7 11 8 9 9 8 10 7 11 1 12
REMARK SMILES IDX 2 13 3 14 87 15 4 16 5 17 6 18 18 19 19 20 20 21 21 22 22 23
REMARK SMILES IDX 23 24 24 25 25 26 86 27 26 28 85 29 27 30 28 31 29 32 79 33
REMARK SMILES IDX 30 34 84 35 78 36 80 37 31 38 83 39 77 40 76 41 32 43 64 44
REMARK SMILES IDX 44 45 63 46 45 47 48 48 62 49 81 50 46 51 47 52 61 54 82 55
REMARK SMILES IDX 49 56 33 57 34 58 42 59 35 60 36 61 40 62 43 63 37 64 38 65
REMARK SMILES IDX 41 66 39 67 65 68 66 69 74 70 67 71 68 72 72 73 75 74 69 75
REMARK SMILES IDX 70 76 73 77 71 78 50 79 51 80 59 81 52 82 53 83 57 84 60 85
REMARK SMILES IDX 54 86 55 87 58 88 56 89
REMARK H PARENT 80 42 48 53
REMARK Flexibility Score: inf
ROOT
ATOM      1  C   UNL A   1      33.716  29.826  26.379  1.00  0.00     0.188 C 
ENDROOT
BRANCH   1   2
ATOM      2  C   UNL A   1      32.486  29.740  25.443  1.00  0.00     0.188 C 
BRANCH   2   3
ATOM      3  O   UNL A   1      31.475  28.766  25.656  1.00  0.00    -0.376 OA
BRANCH   3   4
ATOM      4  C   UNL A   1      31.080  27.951  24.562  1.00  0.00     0.202 C 
BRANCH   4   5
ATOM      5  C   UNL A   1      31.869  26.663  24.258  1.00  0.00     0.261 C 
BRANCH   5   6
ATOM      6  O   UNL A   1      33.195  26.862  23.733  1.00  0.00    -0.460 OA
BRANCH   6   7
ATOM      7  C   UNL A   1      33.591  25.969  22.793  1.00  0.00     0.330 C 
ATOM      8  O   UNL A   1      33.724  26.188  21.596  1.00  0.00    -0.247 OA
BRANCH   7   9
ATOM      9  C   UNL A   1      34.016  24.673  23.373  1.00  0.00     0.094 C 
ATOM     10  C   UNL A   1      33.499  23.462  23.110  1.00  0.00     0.016 C 
BRANCH  10  11
ATOM     11  C   UNL A   1      33.964  22.231  23.777  1.00  0.00    -0.022 A 
ATOM     12  C   UNL A   1      32.533  18.798  24.675  1.00  0.00     0.044 C 
ATOM     13  C   UNL A   1      33.476  19.959  24.549  1.00  0.00    -0.048 A 
ATOM     14  C   UNL A   1      34.796  19.831  24.992  1.00  0.00     0.042 A 
ATOM     15  C   UNL A   1      33.068  21.164  23.950  1.00  0.00     0.011 A 
ATOM     16  C   UNL A   1      35.671  20.901  24.862  1.00  0.00     0.124 A 
ATOM     17  F   UNL A   1      36.930  20.777  25.301  1.00  0.00    -0.207 F 
ATOM     18  C   UNL A   1      35.268  22.097  24.273  1.00  0.00     0.047 A 
ENDBRANCH  10  11
ENDBRANCH   7   9
ENDBRANCH   6   7
ENDBRANCH   5   6
ENDBRANCH   4   5
ENDBRANCH   3   4
ENDBRANCH   2   3
ENDBRANCH   1   2
BRANCH   1  19
ATOM     19  O   UNL A   1      33.496  30.397  27.667  1.00  0.00    -0.376 OA
BRANCH  19  20
ATOM     20  C   UNL A   1      33.928  31.753  27.814  1.00  0.00     0.202 C 
BRANCH  20  21
ATOM     21  C   UNL A   1      34.955  31.939  28.942  1.00  0.00     0.261 C 
BRANCH  21  22
ATOM     22  O   UNL A   1      36.278  32.137  28.446  1.00  0.00    -0.460 OA
BRANCH  22  23
ATOM     23  C   UNL A   1      37.210  31.534  29.200  1.00  0.00     0.338 C 
ATOM     24  O   UNL A   1      37.881  32.014  30.101  1.00  0.00    -0.246 OA
BRANCH  23  25
ATOM     25  C   UNL A   1      37.324  30.132  28.814  1.00  0.00     0.060 A 
ATOM     26  C   UNL A   1      37.251  29.203  29.867  1.00  0.00     0.016 A 
ATOM     27  C   UNL A   1      38.043  29.915  27.646  1.00  0.00     0.016 A 
ATOM     28  C   UNL A   1      38.188  28.202  29.912  1.00  0.00     0.010 A 
ATOM     29  C   UNL A   1      39.004  28.947  27.712  1.00  0.00     0.010 A 
ATOM     30  C   UNL A   1      39.142  28.215  28.905  1.00  0.00    -0.014 A 
BRANCH  30  31
ATOM     31  C   UNL A   1      40.479  27.725  29.140  1.00  0.00     0.031 A 
ATOM     32  C   UNL A   1      40.838  26.404  28.644  1.00  0.00     0.074 A 
ATOM     33  C   UNL A   1      41.373  28.619  29.616  1.00  0.00     0.049 A 
ATOM     34  N   UNL A   1      41.911  25.780  28.969  1.00  0.00    -0.248 NA
ATOM     35  C   UNL A   1      39.963  25.656  27.750  1.00  0.00     0.031 C 
ATOM     36  C   UNL A   1      42.825  28.564  29.539  1.00  0.00     0.029 A 
ATOM     37  N   UNL A   1      41.106  29.724  30.447  1.00  0.00    -0.354 N 
ATOM     38  C   UNL A   1      42.028  24.719  28.106  1.00  0.00     0.074 A 
ATOM     39  C   UNL A   1      40.754  24.629  27.431  1.00  0.00     0.031 C 
ATOM     40  C   UNL A   1      43.336  29.386  30.471  1.00  0.00     0.029 A 
ATOM     41  C   UNL A   1      42.228  29.840  31.297  1.00  0.00     0.049 A 
ATOM     42  H   UNL A   1      40.305  30.296  30.436  1.00  0.00     0.167 HD
ATOM     43  C   UNL A   1      43.254  24.149  27.946  1.00  0.00     0.037 A 
ATOM     44  C   UNL A   1      42.093  29.556  32.628  1.00  0.00     0.037 A 
ATOM     45  C   UNL A   1      44.230  24.731  28.866  1.00  0.00     0.049 A 
ATOM     46  C   UNL A   1      42.863  28.328  33.083  1.00  0.00     0.074 A 
ATOM     47  C   UNL A   1      45.185  25.731  28.758  1.00  0.00     0.029 A 
ATOM     48  N   UNL A   1      44.035  24.548  30.225  1.00  0.00    -0.354 N 
ATOM     49  N   UNL A   1      43.444  27.481  32.278  1.00  0.00    -0.248 NA
ATOM     50  C   UNL A   1      42.969  27.918  34.484  1.00  0.00     0.031 C 
ATOM     51  C   UNL A   1      45.531  26.164  30.072  1.00  0.00     0.029 A 
ATOM     52  C   UNL A   1      44.794  25.423  30.977  1.00  0.00     0.049 A 
ATOM     53  H   UNL A   1      43.429  23.874  30.608  1.00  0.00     0.167 HD
ATOM     54  C   UNL A   1      43.981  26.453  33.000  1.00  0.00     0.074 A 
ATOM     55  C   UNL A   1      43.644  26.760  34.379  1.00  0.00     0.031 C 
ATOM     56  C   UNL A   1      44.649  25.414  32.423  1.00  0.00     0.037 A 
BRANCH  43  57
ATOM     57  C   UNL A   1      43.587  23.308  26.745  1.00  0.00     0.064 A 
ATOM     58  C   UNL A   1      43.168  21.966  26.673  1.00  0.00     0.173 A 
ATOM     59  C   UNL A   1      44.385  23.745  25.671  1.00  0.00     0.173 A 
ATOM     60  F   UNL A   1      42.322  21.447  27.573  1.00  0.00    -0.203 F 
ATOM     61  C   UNL A   1      43.617  21.099  25.676  1.00  0.00     0.198 A 
ATOM     62  C   UNL A   1      44.886  22.864  24.709  1.00  0.00     0.198 A 
ATOM     63  F   UNL A   1      44.669  25.043  25.502  1.00  0.00    -0.203 F 
ATOM     64  F   UNL A   1      43.191  19.827  25.663  1.00  0.00    -0.200 F 
ATOM     65  C   UNL A   1      44.510  21.536  24.719  1.00  0.00     0.200 A 
ATOM     66  F   UNL A   1      45.741  23.310  23.778  1.00  0.00    -0.200 F 
ATOM     67  F   UNL A   1      44.986  20.688  23.798  1.00  0.00    -0.200 F 
ENDBRANCH  43  57
BRANCH  44  68
ATOM     68  C   UNL A   1      40.776  29.981  33.181  1.00  0.00     0.064 A 
ATOM     69  C   UNL A   1      40.535  31.355  33.385  1.00  0.00     0.173 A 
ATOM     70  C   UNL A   1      39.666  29.128  33.167  1.00  0.00     0.173 A 
ATOM     71  F   UNL A   1      41.564  32.218  33.415  1.00  0.00    -0.203 F 
ATOM     72  C   UNL A   1      39.238  31.863  33.470  1.00  0.00     0.198 A 
ATOM     73  C   UNL A   1      38.370  29.640  33.255  1.00  0.00     0.198 A 
ATOM     74  F   UNL A   1      39.825  27.812  32.970  1.00  0.00    -0.203 F 
ATOM     75  F   UNL A   1      39.040  33.183  33.591  1.00  0.00    -0.200 F 
ATOM     76  C   UNL A   1      38.155  31.005  33.374  1.00  0.00     0.200 A 
ATOM     77  F   UNL A   1      37.320  28.813  33.143  1.00  0.00    -0.200 F 
ATOM     78  F   UNL A   1      36.905  31.491  33.369  1.00  0.00    -0.200 F 
ENDBRANCH  44  68
BRANCH  56  79
ATOM     79  C   UNL A   1      45.264  24.292  33.201  1.00  0.00     0.064 A 
ATOM     80  C   UNL A   1      44.539  23.147  33.558  1.00  0.00     0.173 A 
ATOM     81  C   UNL A   1      46.563  24.408  33.739  1.00  0.00     0.173 A 
ATOM     82  F   UNL A   1      43.280  22.972  33.129  1.00  0.00    -0.203 F 
ATOM     83  C   UNL A   1      45.090  22.167  34.385  1.00  0.00     0.198 A 
ATOM     84  C   UNL A   1      47.086  23.459  34.612  1.00  0.00     0.198 A 
ATOM     85  F   UNL A   1      47.364  25.434  33.416  1.00  0.00    -0.203 F 
ATOM     86  F   UNL A   1      44.385  21.062  34.666  1.00  0.00    -0.200 F 
ATOM     87  C   UNL A   1      46.353  22.332  34.926  1.00  0.00     0.200 A 
ATOM     88  F   UNL A   1      48.302  23.646  35.143  1.00  0.00    -0.200 F 
ATOM     89  F   UNL A   1      46.867  21.406  35.747  1.00  0.00    -0.200 F 
ENDBRANCH  56  79
ENDBRANCH  30  31
ENDBRANCH  23  25
ENDBRANCH  22  23
ENDBRANCH  21  22
ENDBRANCH  20  21
ENDBRANCH  19  20
ENDBRANCH   1  19
TORSDOF 18
ENDMDL
MODEL 3
REMARK VINA RESULT:     -11.0      4.687     10.971
REMARK SMILES Cc1cc(F)cc(/C=C/C(=O)OCCOCCOCCOC(=O)c2ccc(-c3c4nc(c(-c5c(F)c(F)c(F)c(F)c5F)c5ccc([nH]5)c(-c5c(F)c(F)c(F)c(F)c5F)c5nc(c(-c6c(F)c(F)c(F)c(F)c6F)c6ccc3[nH]6)C=C5)C=C4)cc2)c1
REMARK SMILES IDX 17 1 16 2 15 3 14 4 13 5 12 6 10 7 11 8 9 9 8 10 7 11 1 12
REMARK SMILES IDX 2 13 3 14 87 15 4 16 5 17 6 18 18 19 19 20 20 21 21 22 22 23
REMARK SMILES IDX 23 24 24 25 25 26 86 27 26 28 85 29 27 30 28 31 29 32 79 33
REMARK SMILES IDX 30 34 84 35 78 36 80 37 31 38 83 39 77 40 76 41 32 43 64 44
REMARK SMILES IDX 44 45 63 46 45 47 48 48 62 49 81 50 46 51 47 52 61 54 82 55
REMARK SMILES IDX 49 56 33 57 34 58 42 59 35 60 36 61 40 62 43 63 37 64 38 65
REMARK SMILES IDX 41 66 39 67 65 68 66 69 74 70 67 71 68 72 72 73 75 74 69 75
REMARK SMILES IDX 70 76 73 77 71 78 50 79 51 80 59 81 52 82 53 83 57 84 60 85
REMARK SMILES IDX 54 86 55 87 58 88 56 89
REMARK H PARENT 80 42 48 53
REMARK Flexibility Score: inf
ROOT
ATOM      1  C   UNL A   1      33.829  33.831  28.677  1.00  0.00     0.188 C 
ENDROOT
BRANCH   1   2
ATOM      2  C   UNL A   1      33.899  32.697  27.624  1.00  0.00     0.188 C 
BRANCH   2   3
ATOM      3  O   UNL A   1      33.643  31.349  27.987  1.00  0.00    -0.376 OA
BRANCH   3   4
ATOM      4  C   UNL A   1      33.536  30.379  26.954  1.00  0.00     0.202 C 
BRANCH   4   5
ATOM      5  C   UNL A   1      32.163  30.114  26.309  1.00  0.00     0.261 C 
BRANCH   5   6
ATOM      6  O   UNL A   1      31.946  28.766  25.850  1.00  0.00    -0.460 OA
BRANCH   6   7
ATOM      7  C   UNL A   1      31.906  27.818  26.818  1.00  0.00     0.330 C 
ATOM      8  O   UNL A   1      31.241  27.859  27.845  1.00  0.00    -0.247 OA
BRANCH   7   9
ATOM      9  C   UNL A   1      32.657  26.593  26.456  1.00  0.00     0.094 C 
ATOM     10  C   UNL A   1      33.108  26.252  25.238  1.00  0.00     0.016 C 
BRANCH  10  11
ATOM     11  C   UNL A   1      33.809  24.982  24.971  1.00  0.00    -0.022 A 
ATOM     12  C   UNL A   1      37.285  23.499  25.572  1.00  0.00     0.044 C 
ATOM     13  C   UNL A   1      35.860  23.652  25.128  1.00  0.00    -0.048 A 
ATOM     14  C   UNL A   1      35.196  22.570  24.542  1.00  0.00     0.042 A 
ATOM     15  C   UNL A   1      35.159  24.855  25.332  1.00  0.00     0.011 A 
ATOM     16  C   UNL A   1      33.873  22.708  24.144  1.00  0.00     0.124 A 
ATOM     17  F   UNL A   1      33.248  21.671  23.570  1.00  0.00    -0.207 F 
ATOM     18  C   UNL A   1      33.180  23.899  24.340  1.00  0.00     0.047 A 
ENDBRANCH  10  11
ENDBRANCH   7   9
ENDBRANCH   6   7
ENDBRANCH   5   6
ENDBRANCH   4   5
ENDBRANCH   3   4
ENDBRANCH   2   3
ENDBRANCH   1   2
BRANCH   1  19
ATOM     19  O   UNL A   1      34.032  33.450  30.036  1.00  0.00    -0.376 OA
BRANCH  19  20
ATOM     20  C   UNL A   1      35.184  34.022  30.663  1.00  0.00     0.202 C 
BRANCH  20  21
ATOM     21  C   UNL A   1      36.280  32.989  30.964  1.00  0.00     0.261 C 
BRANCH  21  22
ATOM     22  O   UNL A   1      36.114  31.784  30.218  1.00  0.00    -0.460 OA
BRANCH  22  23
ATOM     23  C   UNL A   1      37.057  31.622  29.277  1.00  0.00     0.338 C 
ATOM     24  O   UNL A   1      37.765  32.473  28.761  1.00  0.00    -0.246 OA
BRANCH  23  25
ATOM     25  C   UNL A   1      37.167  30.210  28.930  1.00  0.00     0.060 A 
ATOM     26  C   UNL A   1      37.131  29.313  30.012  1.00  0.00     0.016 A 
ATOM     27  C   UNL A   1      37.853  29.962  27.748  1.00  0.00     0.016 A 
ATOM     28  C   UNL A   1      38.075  28.318  30.059  1.00  0.00     0.010 A 
ATOM     29  C   UNL A   1      38.821  29.000  27.814  1.00  0.00     0.010 A 
ATOM     30  C   UNL A   1      38.998  28.305  29.024  1.00  0.00    -0.014 A 
BRANCH  30  31
ATOM     31  C   UNL A   1      40.344  27.829  29.234  1.00  0.00     0.031 A 
ATOM     32  C   UNL A   1      40.710  26.514  28.727  1.00  0.00     0.074 A 
ATOM     33  C   UNL A   1      41.237  28.731  29.697  1.00  0.00     0.049 A 
ATOM     34  N   UNL A   1      41.794  25.900  29.031  1.00  0.00    -0.248 NA
ATOM     35  C   UNL A   1      39.827  25.759  27.846  1.00  0.00     0.031 C 
ATOM     36  C   UNL A   1      42.688  28.692  29.594  1.00  0.00     0.029 A 
ATOM     37  N   UNL A   1      40.972  29.830  30.536  1.00  0.00    -0.354 N 
ATOM     38  C   UNL A   1      41.907  24.844  28.162  1.00  0.00     0.074 A 
ATOM     39  C   UNL A   1      40.623  24.742  27.510  1.00  0.00     0.031 C 
ATOM     40  C   UNL A   1      43.207  29.517  30.520  1.00  0.00     0.029 A 
ATOM     41  C   UNL A   1      42.108  29.957  31.367  1.00  0.00     0.049 A 
ATOM     42  H   UNL A   1      40.165  30.394  30.542  1.00  0.00     0.167 HD
ATOM     43  C   UNL A   1      43.137  24.288  27.978  1.00  0.00     0.037 A 
ATOM     44  C   UNL A   1      42.000  29.666  32.699  1.00  0.00     0.037 A 
ATOM     45  C   UNL A   1      44.123  24.878  28.884  1.00  0.00     0.049 A 
ATOM     46  C   UNL A   1      42.791  28.445  33.137  1.00  0.00     0.074 A 
ATOM     47  C   UNL A   1      45.064  25.888  28.762  1.00  0.00     0.029 A 
ATOM     48  N   UNL A   1      43.954  24.687  30.245  1.00  0.00    -0.354 N 
ATOM     49  N   UNL A   1      43.367  27.608  32.318  1.00  0.00    -0.248 NA
ATOM     50  C   UNL A   1      42.927  28.033  34.534  1.00  0.00     0.031 C 
ATOM     51  C   UNL A   1      45.429  26.321  30.071  1.00  0.00     0.029 A 
ATOM     52  C   UNL A   1      44.716  25.569  30.987  1.00  0.00     0.049 A 
ATOM     53  H   UNL A   1      43.361  24.006  30.636  1.00  0.00     0.167 HD
ATOM     54  C   UNL A   1      43.928  26.583  33.027  1.00  0.00     0.074 A 
ATOM     55  C   UNL A   1      43.612  26.882  34.412  1.00  0.00     0.031 C 
ATOM     56  C   UNL A   1      44.597  25.553  32.435  1.00  0.00     0.037 A 
BRANCH  43  57
ATOM     57  C   UNL A   1      43.457  23.454  26.769  1.00  0.00     0.064 A 
ATOM     58  C   UNL A   1      43.064  22.104  26.706  1.00  0.00     0.173 A 
ATOM     59  C   UNL A   1      44.220  23.908  25.677  1.00  0.00     0.173 A 
ATOM     60  F   UNL A   1      42.251  21.568  27.625  1.00  0.00    -0.203 F 
ATOM     61  C   UNL A   1      43.506  21.247  25.698  1.00  0.00     0.198 A 
ATOM     62  C   UNL A   1      44.716  23.038  24.702  1.00  0.00     0.198 A 
ATOM     63  F   UNL A   1      44.474  25.212  25.502  1.00  0.00    -0.203 F 
ATOM     64  F   UNL A   1      43.106  19.967  25.693  1.00  0.00    -0.200 F 
ATOM     65  C   UNL A   1      44.368  21.703  24.720  1.00  0.00     0.200 A 
ATOM     66  F   UNL A   1      45.539  23.501  23.751  1.00  0.00    -0.200 F 
ATOM     67  F   UNL A   1      44.838  20.865  23.787  1.00  0.00    -0.200 F 
ENDBRANCH  43  57
BRANCH  44  68
ATOM     68  C   UNL A   1      40.689  30.075  33.276  1.00  0.00     0.064 A 
ATOM     69  C   UNL A   1      40.452  31.443  33.528  1.00  0.00     0.173 A 
ATOM     70  C   UNL A   1      39.577  29.226  33.243  1.00  0.00     0.173 A 
ATOM     71  F   UNL A   1      41.483  32.302  33.578  1.00  0.00    -0.203 F 
ATOM     72  C   UNL A   1      39.157  31.949  33.640  1.00  0.00     0.198 A 
ATOM     73  C   UNL A   1      38.283  29.736  33.359  1.00  0.00     0.198 A 
ATOM     74  F   UNL A   1      39.731  27.917  33.001  1.00  0.00    -0.203 F 
ATOM     75  F   UNL A   1      38.962  33.265  33.807  1.00  0.00    -0.200 F 
ATOM     76  C   UNL A   1      38.072  31.097  33.525  1.00  0.00     0.200 A 
ATOM     77  F   UNL A   1      37.230  28.915  33.228  1.00  0.00    -0.200 F 
ATOM     78  F   UNL A   1      36.823  31.585  33.546  1.00  0.00    -0.200 F 
ENDBRANCH  44  68
BRANCH  56  79
ATOM     79  C   UNL A   1      45.237  24.436  33.198  1.00  0.00     0.064 A 
ATOM     80  C   UNL A   1      44.508  23.327  33.649  1.00  0.00     0.173 A 
ATOM     81  C   UNL A   1      46.579  24.525  33.626  1.00  0.00     0.173 A 
ATOM     82  F   UNL A   1      43.215  23.181  33.328  1.00  0.00    -0.203 F 
ATOM     83  C   UNL A   1      45.094  22.355  34.462  1.00  0.00     0.198 A 
ATOM     84  C   UNL A   1      47.141  23.586  34.486  1.00  0.00     0.198 A 
ATOM     85  F   UNL A   1      47.382  25.513  33.207  1.00  0.00    -0.203 F 
ATOM     86  F   UNL A   1      44.380  21.284  34.835  1.00  0.00    -0.200 F 
ATOM     87  C   UNL A   1      46.402  22.494  34.895  1.00  0.00     0.200 A 
ATOM     88  F   UNL A   1      48.402  23.747  34.912  1.00  0.00    -0.200 F 
ATOM     89  F   UNL A   1      46.951  21.577  35.702  1.00  0.00    -0.200 F 
ENDBRANCH  56  79
ENDBRANCH  30  31
ENDBRANCH  23  25
ENDBRANCH  22  23
ENDBRANCH  21  22
ENDBRANCH  20  21
ENDBRANCH  19  20
ENDBRANCH   1  19
TORSDOF 18
ENDMDL
