MODEL 1
REMARK VINA RESULT:     -10.5      0.000      0.000
REMARK SMILES Cc1ccccc1C(=O)Nc1cc(C(=O)OCCOCCOCCOC(=O)c2ccc(-c3c4nc(c(-c5c(F)c(F)c(F)c(F)c5F)c5ccc([nH]5)c(-c5c(F)c(F)c(F)c(F)c5F)c5nc(c(-c6c(F)c(F)c(F)c(F)c6F)c6ccc3[nH]6)C=C5)C=C4)cc2)ccc1N1CC[NH+](CC(=O)Nc2ccc(F)cc2)CC1
REMARK SMILES IDX 20 1 19 2 18 3 17 4 16 5 14 6 15 7 13 8 11 9 12 10 93 11
REMARK SMILES IDX 92 12 91 13 10 14 8 15 9 16 7 18 1 19 2 20 3 21 4 22 6 23
REMARK SMILES IDX 5 24 94 25 95 26 110 27 96 28 109 29 97 30 98 32 99 33
REMARK SMILES IDX 100 34 101 35 102 37 103 38 108 39 104 40 107 41 105 42
REMARK SMILES IDX 106 43 21 44 22 45 23 46 24 47 25 48 26 49 27 50 28 51 29 52
REMARK SMILES IDX 90 53 30 54 89 55 31 56 32 57 33 58 83 59 34 60 88 61 82 62
REMARK SMILES IDX 84 63 35 64 87 65 81 66 80 67 36 69 68 70 48 71 67 72 49 73
REMARK SMILES IDX 52 74 66 75 85 76 50 77 51 78 65 80 86 81 53 82 37 83 38 84
REMARK SMILES IDX 46 85 39 86 40 87 44 88 47 89 41 90 42 91 45 92 43 93 69 94
REMARK SMILES IDX 70 95 78 96 71 97 72 98 76 99 79 100 73 101 74 102 77 103
REMARK SMILES IDX 75 104 54 105 55 106 63 107 56 108 57 109 61 110 64 111
REMARK SMILES IDX 58 112 59 113 62 114 60 115
REMARK H PARENT 10 17 97 31 101 36 84 68 52 79
REMARK Flexibility Score: inf
ROOT
ATOM      1  C   UNL A   1      35.680  34.087  30.543  1.00  0.00     0.188 C 
ENDROOT
BRANCH   1   2
ATOM      2  O   UNL A   1      36.563  33.009  30.298  1.00  0.00    -0.376 OA
BRANCH   2   3
ATOM      3  C   UNL A   1      36.247  32.328  29.101  1.00  0.00     0.202 C 
BRANCH   3   4
ATOM      4  C   UNL A   1      36.253  30.782  29.061  1.00  0.00     0.261 C 
BRANCH   4   5
ATOM      5  O   UNL A   1      35.196  29.936  28.205  1.00  0.00    -0.460 OA
BRANCH   5   6
ATOM      6  C   UNL A   1      34.189  29.725  27.232  1.00  0.00     0.338 C 
ATOM      7  O   UNL A   1      33.532  30.769  27.083  1.00  0.00    -0.246 OA
BRANCH   6   8
ATOM      8  C   UNL A   1      33.545  28.479  26.285  1.00  0.00     0.062 A 
ATOM      9  C   UNL A   1      31.725  26.833  25.467  1.00  0.00     0.065 A 
ATOM     10  C   UNL A   1      32.267  28.158  25.666  1.00  0.00     0.044 A 
ATOM     11  C   UNL A   1      32.579  25.731  25.782  1.00  0.00     0.061 A 
ATOM     12  C   UNL A   1      33.932  26.071  26.021  1.00  0.00     0.029 A 
ATOM     13  C   UNL A   1      34.392  27.375  26.277  1.00  0.00     0.018 A 
BRANCH   9  14
ATOM     14  N   UNL A   1      30.322  26.551  25.233  1.00  0.00    -0.320 N 
ATOM     15  C   UNL A   1      29.171  26.690  24.432  1.00  0.00     0.255 C 
ATOM     16  O   UNL A   1      28.211  26.004  24.830  1.00  0.00    -0.269 OA
ATOM     17  H   UNL A   1      30.038  26.002  25.999  1.00  0.00     0.170 HD
BRANCH  15  18
ATOM     18  C   UNL A   1      28.810  27.533  23.208  1.00  0.00     0.043 A 
ATOM     19  C   UNL A   1      31.302  27.215  21.925  1.00  0.00     0.045 C 
ATOM     20  C   UNL A   1      30.198  28.189  22.226  1.00  0.00    -0.038 A 
ATOM     21  C   UNL A   1      30.207  29.988  21.674  1.00  0.00     0.004 A 
ATOM     22  C   UNL A   1      28.781  31.118  22.099  1.00  0.00     0.000 A 
ATOM     23  C   UNL A   1      27.327  28.616  23.539  1.00  0.00     0.014 A 
ATOM     24  C   UNL A   1      27.331  30.445  23.049  1.00  0.00     0.001 A 
ENDBRANCH  15  18
ENDBRANCH   9  14
BRANCH  11  25
ATOM     25  N   UNL A   1      32.199  24.379  25.923  1.00  0.00    -0.359 N 
ATOM     26  C   UNL A   1      33.101  23.441  26.682  1.00  0.00     0.178 C 
ATOM     27  C   UNL A   1      31.360  23.656  24.967  1.00  0.00     0.178 C 
ATOM     28  C   UNL A   1      32.523  22.018  26.992  1.00  0.00     0.284 C 
ATOM     29  C   UNL A   1      30.601  22.541  25.704  1.00  0.00     0.284 C 
ATOM     30  N   UNL A   1      31.482  21.458  26.118  1.00  0.00    -0.324 N 
ATOM     31  H   UNL A   1      30.957  20.785  26.677  1.00  0.00     0.348 HD
BRANCH  30  32
ATOM     32  C   UNL A   1      31.908  20.535  25.044  1.00  0.00     0.364 C 
BRANCH  32  33
ATOM     33  C   UNL A   1      33.045  19.560  25.337  1.00  0.00     0.279 C 
ATOM     34  O   UNL A   1      32.780  18.463  25.853  1.00  0.00    -0.268 OA
ATOM     35  N   UNL A   1      34.370  19.779  25.068  1.00  0.00    -0.321 N 
ATOM     36  H   UNL A   1      34.883  18.940  25.092  1.00  0.00     0.170 HD
BRANCH  35  37
ATOM     37  C   UNL A   1      35.198  20.882  24.763  1.00  0.00     0.041 A 
ATOM     38  C   UNL A   1      34.655  21.826  23.870  1.00  0.00     0.029 A 
ATOM     39  C   UNL A   1      36.521  21.061  25.164  1.00  0.00     0.029 A 
ATOM     40  C   UNL A   1      35.435  22.855  23.328  1.00  0.00     0.041 A 
ATOM     41  C   UNL A   1      37.322  22.057  24.582  1.00  0.00     0.041 A 
ATOM     42  C   UNL A   1      36.775  22.940  23.664  1.00  0.00     0.123 A 
ATOM     43  F   UNL A   1      37.539  23.889  23.109  1.00  0.00    -0.207 F 
ENDBRANCH  35  37
ENDBRANCH  32  33
ENDBRANCH  30  32
ENDBRANCH  11  25
ENDBRANCH   6   8
ENDBRANCH   5   6
ENDBRANCH   4   5
ENDBRANCH   3   4
ENDBRANCH   2   3
ENDBRANCH   1   2
BRANCH   1  44
ATOM     44  C   UNL A   1      34.606  33.682  31.556  1.00  0.00     0.188 C 
BRANCH  44  45
ATOM     45  O   UNL A   1      34.746  34.329  32.818  1.00  0.00    -0.376 OA
BRANCH  45  46
ATOM     46  C   UNL A   1      35.356  33.560  33.855  1.00  0.00     0.202 C 
BRANCH  46  47
ATOM     47  C   UNL A   1      36.818  33.987  34.020  1.00  0.00     0.261 C 
BRANCH  47  48
ATOM     48  O   UNL A   1      37.415  33.359  35.176  1.00  0.00    -0.460 OA
BRANCH  48  49
ATOM     49  C   UNL A   1      37.761  32.055  35.001  1.00  0.00     0.338 C 
ATOM     50  O   UNL A   1      37.723  31.190  35.860  1.00  0.00    -0.246 OA
BRANCH  49  51
ATOM     51  C   UNL A   1      38.438  31.922  33.678  1.00  0.00     0.060 A 
ATOM     52  C   UNL A   1      37.894  31.085  32.722  1.00  0.00     0.016 A 
ATOM     53  C   UNL A   1      39.751  32.359  33.504  1.00  0.00     0.016 A 
ATOM     54  C   UNL A   1      38.743  30.536  31.753  1.00  0.00     0.010 A 
ATOM     55  C   UNL A   1      40.603  31.654  32.652  1.00  0.00     0.010 A 
ATOM     56  C   UNL A   1      40.139  30.595  31.860  1.00  0.00    -0.014 A 
BRANCH  56  57
ATOM     57  C   UNL A   1      41.252  29.767  31.227  1.00  0.00     0.031 A 
ATOM     58  C   UNL A   1      41.719  28.701  32.149  1.00  0.00     0.074 A 
ATOM     59  C   UNL A   1      42.202  29.905  30.190  1.00  0.00     0.049 A 
ATOM     60  N   UNL A   1      42.862  28.205  31.915  1.00  0.00    -0.248 NA
ATOM     61  C   UNL A   1      41.138  28.310  33.393  1.00  0.00     0.031 C 
ATOM     62  C   UNL A   1      42.772  28.796  29.381  1.00  0.00     0.029 A 
ATOM     63  N   UNL A   1      42.775  30.965  29.470  1.00  0.00    -0.354 N 
ATOM     64  C   UNL A   1      43.477  27.317  32.847  1.00  0.00     0.074 A 
ATOM     65  C   UNL A   1      42.030  27.390  33.773  1.00  0.00     0.031 C 
ATOM     66  C   UNL A   1      43.760  29.232  28.569  1.00  0.00     0.029 A 
ATOM     67  C   UNL A   1      43.843  30.663  28.663  1.00  0.00     0.049 A 
ATOM     68  H   UNL A   1      42.428  31.883  29.540  1.00  0.00     0.167 HD
ATOM     69  C   UNL A   1      45.166  26.505  32.903  1.00  0.00     0.037 A 
ATOM     70  C   UNL A   1      44.739  31.522  28.117  1.00  0.00     0.037 A 
ATOM     71  C   UNL A   1      46.476  26.581  31.759  1.00  0.00     0.049 A 
ATOM     72  C   UNL A   1      46.157  31.023  28.279  1.00  0.00     0.074 A 
ATOM     73  C   UNL A   1      46.603  25.949  30.491  1.00  0.00     0.029 A 
ATOM     74  N   UNL A   1      47.472  27.564  31.717  1.00  0.00    -0.354 N 
ATOM     75  N   UNL A   1      46.485  29.943  28.944  1.00  0.00    -0.248 NA
ATOM     76  C   UNL A   1      47.321  31.768  27.802  1.00  0.00     0.031 C 
ATOM     77  C   UNL A   1      47.301  26.807  29.620  1.00  0.00     0.029 A 
ATOM     78  C   UNL A   1      47.748  27.874  30.370  1.00  0.00     0.049 A 
ATOM     79  H   UNL A   1      47.909  27.972  32.500  1.00  0.00     0.167 HD
ATOM     80  C   UNL A   1      47.852  29.930  29.117  1.00  0.00     0.074 A 
ATOM     81  C   UNL A   1      48.329  31.055  28.331  1.00  0.00     0.031 C 
ATOM     82  C   UNL A   1      48.500  29.037  29.929  1.00  0.00     0.037 A 
BRANCH  69  83
ATOM     83  C   UNL A   1      45.826  24.995  33.704  1.00  0.00     0.064 A 
ATOM     84  C   UNL A   1      44.997  23.830  33.663  1.00  0.00     0.173 A 
ATOM     85  C   UNL A   1      46.760  24.912  34.767  1.00  0.00     0.173 A 
ATOM     86  F   UNL A   1      44.487  23.348  32.528  1.00  0.00    -0.203 F 
ATOM     87  C   UNL A   1      44.796  22.971  34.742  1.00  0.00     0.198 A 
ATOM     88  C   UNL A   1      46.565  24.047  35.867  1.00  0.00     0.198 A 
ATOM     89  F   UNL A   1      47.855  25.686  34.804  1.00  0.00    -0.203 F 
ATOM     90  F   UNL A   1      43.895  21.982  34.644  1.00  0.00    -0.200 F 
ATOM     91  C   UNL A   1      45.529  23.133  35.885  1.00  0.00     0.200 A 
ATOM     92  F   UNL A   1      47.358  24.147  36.944  1.00  0.00    -0.200 F 
ATOM     93  F   UNL A   1      45.291  22.364  36.956  1.00  0.00    -0.200 F 
ENDBRANCH  69  83
BRANCH  70  94
ATOM     94  C   UNL A   1      44.310  32.946  27.919  1.00  0.00     0.064 A 
ATOM     95  C   UNL A   1      43.972  33.373  26.613  1.00  0.00     0.173 A 
ATOM     96  C   UNL A   1      44.040  33.856  28.949  1.00  0.00     0.173 A 
ATOM     97  F   UNL A   1      44.219  32.567  25.568  1.00  0.00    -0.203 F 
ATOM     98  C   UNL A   1      43.330  34.591  26.361  1.00  0.00     0.198 A 
ATOM     99  C   UNL A   1      43.395  35.082  28.696  1.00  0.00     0.198 A 
ATOM    100  F   UNL A   1      44.336  33.540  30.217  1.00  0.00    -0.203 F 
ATOM    101  F   UNL A   1      42.972  34.914  25.109  1.00  0.00    -0.200 F 
ATOM    102  C   UNL A   1      43.019  35.438  27.408  1.00  0.00     0.200 A 
ATOM    103  F   UNL A   1      43.080  35.892  29.719  1.00  0.00    -0.200 F 
ATOM    104  F   UNL A   1      42.332  36.569  27.182  1.00  0.00    -0.200 F 
ENDBRANCH  70  94
BRANCH  82 105
ATOM    105  C   UNL A   1      49.960  29.084  30.253  1.00  0.00     0.064 A 
ATOM    106  C   UNL A   1      50.507  29.858  31.283  1.00  0.00     0.173 A 
ATOM    107  C   UNL A   1      50.844  28.203  29.590  1.00  0.00     0.173 A 
ATOM    108  F   UNL A   1      49.738  30.662  32.032  1.00  0.00    -0.203 F 
ATOM    109  C   UNL A   1      51.864  29.787  31.600  1.00  0.00     0.198 A 
ATOM    110  C   UNL A   1      52.180  28.088  29.950  1.00  0.00     0.198 A 
ATOM    111  F   UNL A   1      50.430  27.414  28.588  1.00  0.00    -0.203 F 
ATOM    112  F   UNL A   1      52.362  30.573  32.564  1.00  0.00    -0.200 F 
ATOM    113  C   UNL A   1      52.694  28.891  30.946  1.00  0.00     0.200 A 
ATOM    114  F   UNL A   1      52.955  27.184  29.339  1.00  0.00    -0.200 F 
ATOM    115  F   UNL A   1      53.984  28.787  31.290  1.00  0.00    -0.200 F 
ENDBRANCH  82 105
ENDBRANCH  56  57
ENDBRANCH  49  51
ENDBRANCH  48  49
ENDBRANCH  47  48
ENDBRANCH  46  47
ENDBRANCH  45  46
ENDBRANCH  44  45
ENDBRANCH   1  44
TORSDOF 23
ENDMDL
MODEL 2
REMARK VINA RESULT:     -10.2      6.332     14.876
REMARK SMILES Cc1ccccc1C(=O)Nc1cc(C(=O)OCCOCCOCCOC(=O)c2ccc(-c3c4nc(c(-c5c(F)c(F)c(F)c(F)c5F)c5ccc([nH]5)c(-c5c(F)c(F)c(F)c(F)c5F)c5nc(c(-c6c(F)c(F)c(F)c(F)c6F)c6ccc3[nH]6)C=C5)C=C4)cc2)ccc1N1CC[NH+](CC(=O)Nc2ccc(F)cc2)CC1
REMARK SMILES IDX 20 1 19 2 18 3 17 4 16 5 14 6 15 7 13 8 11 9 12 10 93 11
REMARK SMILES IDX 92 12 91 13 10 14 8 15 9 16 7 18 1 19 2 20 3 21 4 22 6 23
REMARK SMILES IDX 5 24 94 25 95 26 110 27 96 28 109 29 97 30 98 32 99 33
REMARK SMILES IDX 100 34 101 35 102 37 103 38 108 39 104 40 107 41 105 42
REMARK SMILES IDX 106 43 21 44 22 45 23 46 24 47 25 48 26 49 27 50 28 51 29 52
REMARK SMILES IDX 90 53 30 54 89 55 31 56 32 57 33 58 83 59 34 60 88 61 82 62
REMARK SMILES IDX 84 63 35 64 87 65 81 66 80 67 36 69 68 70 48 71 67 72 49 73
REMARK SMILES IDX 52 74 66 75 85 76 50 77 51 78 65 80 86 81 53 82 37 83 38 84
REMARK SMILES IDX 46 85 39 86 40 87 44 88 47 89 41 90 42 91 45 92 43 93 69 94
REMARK SMILES IDX 70 95 78 96 71 97 72 98 76 99 79 100 73 101 74 102 77 103
REMARK SMILES IDX 75 104 54 105 55 106 63 107 56 108 57 109 61 110 64 111
REMARK SMILES IDX 58 112 59 113 62 114 60 115
REMARK H PARENT 10 17 97 31 101 36 84 68 52 79
REMARK Flexibility Score: inf
ROOT
ATOM      1  C   UNL A   1      46.473  27.144  24.851  1.00  0.00     0.188 C 
ENDROOT
BRANCH   1   2
ATOM      2  O   UNL A   1      46.578  28.167  25.823  1.00  0.00    -0.376 OA
BRANCH   2   3
ATOM      3  C   UNL A   1      45.489  29.065  25.766  1.00  0.00     0.202 C 
BRANCH   3   4
ATOM      4  C   UNL A   1      44.494  29.155  26.947  1.00  0.00     0.261 C 
BRANCH   4   5
ATOM      5  O   UNL A   1      44.109  30.543  27.647  1.00  0.00    -0.460 OA
BRANCH   5   6
ATOM      6  C   UNL A   1      44.159  31.941  27.868  1.00  0.00     0.338 C 
ATOM      7  O   UNL A   1      43.452  32.231  28.848  1.00  0.00    -0.246 OA
BRANCH   6   8
ATOM      8  C   UNL A   1      44.799  33.340  27.165  1.00  0.00     0.062 A 
ATOM      9  C   UNL A   1      46.295  35.446  27.033  1.00  0.00     0.065 A 
ATOM     10  C   UNL A   1      46.087  34.018  27.113  1.00  0.00     0.044 A 
ATOM     11  C   UNL A   1      45.135  36.261  26.851  1.00  0.00     0.061 A 
ATOM     12  C   UNL A   1      43.951  35.553  26.530  1.00  0.00     0.029 A 
ATOM     13  C   UNL A   1      43.783  34.167  26.693  1.00  0.00     0.018 A 
BRANCH   9  14
ATOM     14  N   UNL A   1      47.535  36.111  27.385  1.00  0.00    -0.320 N 
ATOM     15  C   UNL A   1      48.917  36.291  27.185  1.00  0.00     0.255 C 
ATOM     16  O   UNL A   1      49.392  37.229  27.853  1.00  0.00    -0.269 OA
ATOM     17  H   UNL A   1      47.296  36.733  28.111  1.00  0.00     0.170 HD
BRANCH  15  18
ATOM     18  C   UNL A   1      49.988  35.562  26.370  1.00  0.00     0.043 A 
ATOM     19  C   UNL A   1      51.007  34.081  28.544  1.00  0.00     0.045 C 
ATOM     20  C   UNL A   1      51.380  34.843  27.304  1.00  0.00    -0.038 A 
ATOM     21  C   UNL A   1      53.149  35.095  26.718  1.00  0.00     0.004 A 
ATOM     22  C   UNL A   1      53.504  36.060  25.157  1.00  0.00     0.000 A 
ATOM     23  C   UNL A   1      50.319  36.427  24.750  1.00  0.00     0.014 A 
ATOM     24  C   UNL A   1      52.091  36.748  24.165  1.00  0.00     0.001 A 
ENDBRANCH  15  18
ENDBRANCH   9  14
BRANCH  11  25
ATOM     25  N   UNL A   1      45.050  37.660  27.007  1.00  0.00    -0.359 N 
ATOM     26  C   UNL A   1      43.705  38.288  27.268  1.00  0.00     0.178 C 
ATOM     27  C   UNL A   1      45.973  38.615  26.392  1.00  0.00     0.178 C 
ATOM     28  C   UNL A   1      43.707  39.807  27.650  1.00  0.00     0.284 C 
ATOM     29  C   UNL A   1      46.047  39.879  27.263  1.00  0.00     0.284 C 
ATOM     30  N   UNL A   1      44.819  40.660  27.203  1.00  0.00    -0.324 N 
ATOM     31  H   UNL A   1      44.877  41.438  27.859  1.00  0.00     0.348 HD
BRANCH  30  32
ATOM     32  C   UNL A   1      44.626  41.453  25.970  1.00  0.00     0.364 C 
BRANCH  32  33
ATOM     33  C   UNL A   1      45.056  42.917  25.977  1.00  0.00     0.279 C 
ATOM     34  O   UNL A   1      44.737  43.634  26.939  1.00  0.00    -0.268 OA
ATOM     35  N   UNL A   1      45.794  43.534  25.003  1.00  0.00    -0.321 N 
ATOM     36  H   UNL A   1      46.173  44.383  25.324  1.00  0.00     0.170 HD
BRANCH  35  37
ATOM     37  C   UNL A   1      46.159  43.281  23.661  1.00  0.00     0.041 A 
ATOM     38  C   UNL A   1      45.316  43.844  22.683  1.00  0.00     0.029 A 
ATOM     39  C   UNL A   1      47.185  42.447  23.224  1.00  0.00     0.029 A 
ATOM     40  C   UNL A   1      45.441  43.510  21.329  1.00  0.00     0.041 A 
ATOM     41  C   UNL A   1      47.281  42.067  21.875  1.00  0.00     0.041 A 
ATOM     42  C   UNL A   1      46.404  42.594  20.941  1.00  0.00     0.123 A 
ATOM     43  F   UNL A   1      46.494  42.230  19.656  1.00  0.00    -0.207 F 
ENDBRANCH  35  37
ENDBRANCH  32  33
ENDBRANCH  30  32
ENDBRANCH  11  25
ENDBRANCH   6   8
ENDBRANCH   5   6
ENDBRANCH   4   5
ENDBRANCH   3   4
ENDBRANCH   2   3
ENDBRANCH   1   2
BRANCH   1  44
ATOM     44  C   UNL A   1      47.733  26.275  24.848  1.00  0.00     0.188 C 
BRANCH  44  45
ATOM     45  O   UNL A   1      47.752  25.301  25.889  1.00  0.00    -0.376 OA
BRANCH  45  46
ATOM     46  C   UNL A   1      46.479  24.842  26.344  1.00  0.00     0.202 C 
BRANCH  46  47
ATOM     47  C   UNL A   1      46.023  23.657  25.487  1.00  0.00     0.261 C 
BRANCH  47  48
ATOM     48  O   UNL A   1      44.870  24.005  24.689  1.00  0.00    -0.460 OA
BRANCH  48  49
ATOM     49  C   UNL A   1      43.741  23.306  24.983  1.00  0.00     0.338 C 
ATOM     50  O   UNL A   1      43.484  22.179  24.593  1.00  0.00    -0.246 OA
BRANCH  49  51
ATOM     51  C   UNL A   1      42.768  24.234  25.628  1.00  0.00     0.060 A 
ATOM     52  C   UNL A   1      42.749  25.564  25.251  1.00  0.00     0.016 A 
ATOM     53  C   UNL A   1      42.114  23.872  26.806  1.00  0.00     0.016 A 
ATOM     54  C   UNL A   1      42.280  26.513  26.168  1.00  0.00     0.010 A 
ATOM     55  C   UNL A   1      41.833  24.848  27.764  1.00  0.00     0.010 A 
ATOM     56  C   UNL A   1      42.069  26.207  27.519  1.00  0.00    -0.014 A 
BRANCH  56  57
ATOM     57  C   UNL A   1      41.981  27.081  28.766  1.00  0.00     0.031 A 
ATOM     58  C   UNL A   1      40.796  27.975  28.712  1.00  0.00     0.074 A 
ATOM     59  C   UNL A   1      42.844  27.549  29.782  1.00  0.00     0.049 A 
ATOM     60  N   UNL A   1      40.814  28.991  29.470  1.00  0.00    -0.248 NA
ATOM     61  C   UNL A   1      39.731  27.953  27.762  1.00  0.00     0.031 C 
ATOM     62  C   UNL A   1      42.444  27.887  31.173  1.00  0.00     0.029 A 
ATOM     63  N   UNL A   1      44.230  27.688  29.955  1.00  0.00    -0.354 N 
ATOM     64  C   UNL A   1      39.817  30.006  29.354  1.00  0.00     0.074 A 
ATOM     65  C   UNL A   1      39.040  29.016  28.181  1.00  0.00     0.031 C 
ATOM     66  C   UNL A   1      43.466  28.442  31.862  1.00  0.00     0.029 A 
ATOM     67  C   UNL A   1      44.652  28.398  31.052  1.00  0.00     0.049 A 
ATOM     68  H   UNL A   1      44.871  27.295  29.320  1.00  0.00     0.167 HD
ATOM     69  C   UNL A   1      39.594  31.668  30.191  1.00  0.00     0.037 A 
ATOM     70  C   UNL A   1      45.881  28.923  31.277  1.00  0.00     0.037 A 
ATOM     71  C   UNL A   1      40.557  32.433  31.424  1.00  0.00     0.049 A 
ATOM     72  C   UNL A   1      45.794  30.342  31.790  1.00  0.00     0.074 A 
ATOM     73  C   UNL A   1      40.641  32.139  32.813  1.00  0.00     0.029 A 
ATOM     74  N   UNL A   1      41.689  33.226  31.204  1.00  0.00    -0.354 N 
ATOM     75  N   UNL A   1      44.676  31.012  31.915  1.00  0.00    -0.248 NA
ATOM     76  C   UNL A   1      46.975  31.151  32.093  1.00  0.00     0.031 C 
ATOM     77  C   UNL A   1      41.962  32.359  33.247  1.00  0.00     0.029 A 
ATOM     78  C   UNL A   1      42.645  32.937  32.199  1.00  0.00     0.049 A 
ATOM     79  H   UNL A   1      41.800  33.878  30.476  1.00  0.00     0.167 HD
ATOM     80  C   UNL A   1      44.979  32.336  32.149  1.00  0.00     0.074 A 
ATOM     81  C   UNL A   1      46.422  32.355  32.314  1.00  0.00     0.031 C 
ATOM     82  C   UNL A   1      44.042  33.336  32.141  1.00  0.00     0.037 A 
BRANCH  69  83
ATOM     83  C   UNL A   1      38.146  32.742  30.522  1.00  0.00     0.064 A 
ATOM     84  C   UNL A   1      37.130  32.207  31.375  1.00  0.00     0.173 A 
ATOM     85  C   UNL A   1      37.625  33.775  29.704  1.00  0.00     0.173 A 
ATOM     86  F   UNL A   1      37.393  31.707  32.583  1.00  0.00    -0.203 F 
ATOM     87  C   UNL A   1      35.762  32.326  31.136  1.00  0.00     0.198 A 
ATOM     88  C   UNL A   1      36.240  33.903  29.453  1.00  0.00     0.198 A 
ATOM     89  F   UNL A   1      38.426  34.658  29.089  1.00  0.00    -0.203 F 
ATOM     90  F   UNL A   1      34.892  31.674  31.923  1.00  0.00    -0.200 F 
ATOM     91  C   UNL A   1      35.317  33.116  30.113  1.00  0.00     0.200 A 
ATOM     92  F   UNL A   1      35.809  34.759  28.515  1.00  0.00    -0.200 F 
ATOM     93  F   UNL A   1      34.010  33.177  29.825  1.00  0.00    -0.200 F 
ENDBRANCH  69  83
BRANCH  70  94
ATOM     94  C   UNL A   1      47.048  28.298  30.568  1.00  0.00     0.064 A 
ATOM     95  C   UNL A   1      47.573  27.086  31.074  1.00  0.00     0.173 A 
ATOM     96  C   UNL A   1      47.557  28.717  29.332  1.00  0.00     0.173 A 
ATOM     97  F   UNL A   1      47.153  26.627  32.263  1.00  0.00    -0.203 F 
ATOM     98  C   UNL A   1      48.484  26.302  30.356  1.00  0.00     0.198 A 
ATOM     99  C   UNL A   1      48.474  27.930  28.610  1.00  0.00     0.198 A 
ATOM    100  F   UNL A   1      47.123  29.859  28.781  1.00  0.00    -0.203 F 
ATOM    101  F   UNL A   1      48.899  25.128  30.856  1.00  0.00    -0.200 F 
ATOM    102  C   UNL A   1      48.918  26.713  29.110  1.00  0.00     0.200 A 
ATOM    103  F   UNL A   1      48.877  28.326  27.393  1.00  0.00    -0.200 F 
ATOM    104  F   UNL A   1      49.728  25.928  28.383  1.00  0.00    -0.200 F 
ENDBRANCH  70  94
BRANCH  82 105
ATOM    105  C   UNL A   1      44.353  34.795  32.246  1.00  0.00     0.064 A 
ATOM    106  C   UNL A   1      44.481  35.649  31.144  1.00  0.00     0.173 A 
ATOM    107  C   UNL A   1      44.389  35.404  33.521  1.00  0.00     0.173 A 
ATOM    108  F   UNL A   1      44.374  35.185  29.890  1.00  0.00    -0.203 F 
ATOM    109  C   UNL A   1      44.676  37.020  31.309  1.00  0.00     0.198 A 
ATOM    110  C   UNL A   1      44.520  36.777  33.680  1.00  0.00     0.198 A 
ATOM    111  F   UNL A   1      44.277  34.684  34.647  1.00  0.00    -0.203 F 
ATOM    112  F   UNL A   1      44.835  37.801  30.232  1.00  0.00    -0.200 F 
ATOM    113  C   UNL A   1      44.678  37.584  32.574  1.00  0.00     0.200 A 
ATOM    114  F   UNL A   1      44.472  37.308  34.908  1.00  0.00    -0.200 F 
ATOM    115  F   UNL A   1      44.811  38.908  32.725  1.00  0.00    -0.200 F 
ENDBRANCH  82 105
ENDBRANCH  56  57
ENDBRANCH  49  51
ENDBRANCH  48  49
ENDBRANCH  47  48
ENDBRANCH  46  47
ENDBRANCH  45  46
ENDBRANCH  44  45
ENDBRANCH   1  44
TORSDOF 23
ENDMDL
MODEL 3
REMARK VINA RESULT:     -10.1      6.732     14.464
REMARK SMILES Cc1ccccc1C(=O)Nc1cc(C(=O)OCCOCCOCCOC(=O)c2ccc(-c3c4nc(c(-c5c(F)c(F)c(F)c(F)c5F)c5ccc([nH]5)c(-c5c(F)c(F)c(F)c(F)c5F)c5nc(c(-c6c(F)c(F)c(F)c(F)c6F)c6ccc3[nH]6)C=C5)C=C4)cc2)ccc1N1CC[NH+](CC(=O)Nc2ccc(F)cc2)CC1
REMARK SMILES IDX 20 1 19 2 18 3 17 4 16 5 14 6 15 7 13 8 11 9 12 10 93 11
REMARK SMILES IDX 92 12 91 13 10 14 8 15 9 16 7 18 1 19 2 20 3 21 4 22 6 23
REMARK SMILES IDX 5 24 94 25 95 26 110 27 96 28 109 29 97 30 98 32 99 33
REMARK SMILES IDX 100 34 101 35 102 37 103 38 108 39 104 40 107 41 105 42
REMARK SMILES IDX 106 43 21 44 22 45 23 46 24 47 25 48 26 49 27 50 28 51 29 52
REMARK SMILES IDX 90 53 30 54 89 55 31 56 32 57 33 58 83 59 34 60 88 61 82 62
REMARK SMILES IDX 84 63 35 64 87 65 81 66 80 67 36 69 68 70 48 71 67 72 49 73
REMARK SMILES IDX 52 74 66 75 85 76 50 77 51 78 65 80 86 81 53 82 37 83 38 84
REMARK SMILES IDX 46 85 39 86 40 87 44 88 47 89 41 90 42 91 45 92 43 93 69 94
REMARK SMILES IDX 70 95 78 96 71 97 72 98 76 99 79 100 73 101 74 102 77 103
REMARK SMILES IDX 75 104 54 105 55 106 63 107 56 108 57 109 61 110 64 111
REMARK SMILES IDX 58 112 59 113 62 114 60 115
REMARK H PARENT 10 17 97 31 101 36 84 68 52 79
REMARK Flexibility Score: inf
ROOT
ATOM      1  C   UNL A   1      48.949  27.766  39.484  1.00  0.00     0.188 C 
ENDROOT
BRANCH   1   2
ATOM      2  O   UNL A   1      48.595  28.920  40.222  1.00  0.00    -0.376 OA
BRANCH   2   3
ATOM      3  C   UNL A   1      47.669  29.730  39.527  1.00  0.00     0.202 C 
BRANCH   3   4
ATOM      4  C   UNL A   1      47.976  30.200  38.086  1.00  0.00     0.261 C 
BRANCH   4   5
ATOM      5  O   UNL A   1      47.183  29.646  36.810  1.00  0.00    -0.460 OA
BRANCH   5   6
ATOM      6  C   UNL A   1      46.703  29.656  35.477  1.00  0.00     0.338 C 
ATOM      7  O   UNL A   1      47.088  28.631  34.891  1.00  0.00    -0.246 OA
BRANCH   6   8
ATOM      8  C   UNL A   1      45.856  30.664  34.414  1.00  0.00     0.062 A 
ATOM      9  C   UNL A   1      45.581  32.369  32.488  1.00  0.00     0.065 A 
ATOM     10  C   UNL A   1      45.961  31.081  33.023  1.00  0.00     0.044 A 
ATOM     11  C   UNL A   1      44.916  33.269  33.377  1.00  0.00     0.061 A 
ATOM     12  C   UNL A   1      44.496  32.697  34.603  1.00  0.00     0.029 A 
ATOM     13  C   UNL A   1      44.953  31.466  35.106  1.00  0.00     0.018 A 
BRANCH   9  14
ATOM     14  N   UNL A   1      46.056  32.901  31.225  1.00  0.00    -0.320 N 
ATOM     15  C   UNL A   1      45.793  33.310  29.903  1.00  0.00     0.255 C 
ATOM     16  O   UNL A   1      46.777  33.833  29.347  1.00  0.00    -0.269 OA
ATOM     17  H   UNL A   1      47.022  33.043  31.352  1.00  0.00     0.170 HD
BRANCH  15  18
ATOM     18  C   UNL A   1      44.586  33.213  28.969  1.00  0.00     0.043 A 
ATOM     19  C   UNL A   1      45.496  30.920  27.601  1.00  0.00     0.045 C 
ATOM     20  C   UNL A   1      44.808  32.246  27.440  1.00  0.00    -0.038 A 
ATOM     21  C   UNL A   1      44.219  32.928  25.789  1.00  0.00     0.004 A 
ATOM     22  C   UNL A   1      43.372  34.591  25.697  1.00  0.00     0.000 A 
ATOM     23  C   UNL A   1      43.638  34.820  28.909  1.00  0.00     0.014 A 
ATOM     24  C   UNL A   1      43.085  35.560  27.257  1.00  0.00     0.001 A 
ENDBRANCH  15  18
ENDBRANCH   9  14
BRANCH  11  25
ATOM     25  N   UNL A   1      44.690  34.646  33.176  1.00  0.00    -0.359 N 
ATOM     26  C   UNL A   1      43.440  35.086  32.457  1.00  0.00     0.178 C 
ATOM     27  C   UNL A   1      45.751  35.646  33.059  1.00  0.00     0.178 C 
ATOM     28  C   UNL A   1      43.140  36.624  32.460  1.00  0.00     0.284 C 
ATOM     29  C   UNL A   1      45.219  37.007  33.535  1.00  0.00     0.284 C 
ATOM     30  N   UNL A   1      44.253  37.574  32.606  1.00  0.00    -0.324 N 
ATOM     31  H   UNL A   1      43.861  38.429  33.000  1.00  0.00     0.348 HD
BRANCH  30  32
ATOM     32  C   UNL A   1      44.820  38.164  31.374  1.00  0.00     0.364 C 
BRANCH  32  33
ATOM     33  C   UNL A   1      43.879  38.899  30.425  1.00  0.00     0.279 C 
ATOM     34  O   UNL A   1      43.663  38.421  29.300  1.00  0.00    -0.268 OA
ATOM     35  N   UNL A   1      43.218  40.065  30.705  1.00  0.00    -0.321 N 
ATOM     36  H   UNL A   1      42.480  40.219  30.072  1.00  0.00     0.170 HD
BRANCH  35  37
ATOM     37  C   UNL A   1      43.307  41.106  31.656  1.00  0.00     0.041 A 
ATOM     38  C   UNL A   1      42.350  42.132  31.531  1.00  0.00     0.029 A 
ATOM     39  C   UNL A   1      44.305  41.270  32.614  1.00  0.00     0.029 A 
ATOM     40  C   UNL A   1      42.444  43.315  32.272  1.00  0.00     0.041 A 
ATOM     41  C   UNL A   1      44.435  42.477  33.320  1.00  0.00     0.041 A 
ATOM     42  C   UNL A   1      43.509  43.491  33.139  1.00  0.00     0.123 A 
ATOM     43  F   UNL A   1      43.634  44.643  33.811  1.00  0.00    -0.207 F 
ENDBRANCH  35  37
ENDBRANCH  32  33
ENDBRANCH  30  32
ENDBRANCH  11  25
ENDBRANCH   6   8
ENDBRANCH   5   6
ENDBRANCH   4   5
ENDBRANCH   3   4
ENDBRANCH   2   3
ENDBRANCH   1   2
BRANCH   1  44
ATOM     44  C   UNL A   1      47.738  26.844  39.319  1.00  0.00     0.188 C 
BRANCH  44  45
ATOM     45  O   UNL A   1      47.842  25.634  40.065  1.00  0.00    -0.376 OA
BRANCH  45  46
ATOM     46  C   UNL A   1      47.027  24.549  39.621  1.00  0.00     0.202 C 
BRANCH  46  47
ATOM     47  C   UNL A   1      46.759  24.689  38.119  1.00  0.00     0.261 C 
BRANCH  47  48
ATOM     48  O   UNL A   1      45.388  24.359  37.802  1.00  0.00    -0.460 OA
BRANCH  48  49
ATOM     49  C   UNL A   1      45.235  23.289  36.977  1.00  0.00     0.338 C 
ATOM     50  O   UNL A   1      45.533  22.137  37.248  1.00  0.00    -0.246 OA
BRANCH  49  51
ATOM     51  C   UNL A   1      44.898  23.790  35.613  1.00  0.00     0.060 A 
ATOM     52  C   UNL A   1      45.912  24.237  34.788  1.00  0.00     0.016 A 
ATOM     53  C   UNL A   1      43.583  24.115  35.280  1.00  0.00     0.016 A 
ATOM     54  C   UNL A   1      45.602  25.175  33.795  1.00  0.00     0.010 A 
ATOM     55  C   UNL A   1      43.337  25.183  34.417  1.00  0.00     0.010 A 
ATOM     56  C   UNL A   1      44.379  25.857  33.766  1.00  0.00    -0.014 A 
BRANCH  56  57
ATOM     57  C   UNL A   1      43.949  27.163  33.105  1.00  0.00     0.031 A 
ATOM     58  C   UNL A   1      43.276  28.061  34.078  1.00  0.00     0.074 A 
ATOM     59  C   UNL A   1      43.683  27.641  31.802  1.00  0.00     0.049 A 
ATOM     60  N   UNL A   1      42.548  28.981  33.596  1.00  0.00    -0.248 NA
ATOM     61  C   UNL A   1      43.175  27.893  35.491  1.00  0.00     0.031 C 
ATOM     62  C   UNL A   1      43.849  29.045  31.342  1.00  0.00     0.029 A 
ATOM     63  N   UNL A   1      43.388  27.076  30.551  1.00  0.00    -0.354 N 
ATOM     64  C   UNL A   1      41.714  29.770  34.443  1.00  0.00     0.074 A 
ATOM     65  C   UNL A   1      42.410  28.948  35.785  1.00  0.00     0.031 C 
ATOM     66  C   UNL A   1      43.377  29.214  30.087  1.00  0.00     0.029 A 
ATOM     67  C   UNL A   1      42.988  27.936  29.559  1.00  0.00     0.049 A 
ATOM     68  H   UNL A   1      43.466  26.108  30.392  1.00  0.00     0.167 HD
ATOM     69  C   UNL A   1      40.440  31.099  34.090  1.00  0.00     0.037 A 
ATOM     70  C   UNL A   1      42.371  27.626  28.392  1.00  0.00     0.037 A 
ATOM     71  C   UNL A   1      39.946  31.791  32.570  1.00  0.00     0.049 A 
ATOM     72  C   UNL A   1      41.207  28.549  28.116  1.00  0.00     0.074 A 
ATOM     73  C   UNL A   1      40.630  32.719  31.737  1.00  0.00     0.029 A 
ATOM     74  N   UNL A   1      38.957  31.281  31.720  1.00  0.00    -0.354 N 
ATOM     75  N   UNL A   1      40.788  29.473  28.944  1.00  0.00    -0.248 NA
ATOM     76  C   UNL A   1      40.354  28.421  26.935  1.00  0.00     0.031 C 
ATOM     77  C   UNL A   1      40.350  32.418  30.391  1.00  0.00     0.029 A 
ATOM     78  C   UNL A   1      39.382  31.436  30.386  1.00  0.00     0.049 A 
ATOM     79  H   UNL A   1      38.105  30.879  32.007  1.00  0.00     0.167 HD
ATOM     80  C   UNL A   1      39.568  29.939  28.506  1.00  0.00     0.074 A 
ATOM     81  C   UNL A   1      39.376  29.297  27.217  1.00  0.00     0.031 C 
ATOM     82  C   UNL A   1      38.772  30.775  29.244  1.00  0.00     0.037 A 
BRANCH  69  83
ATOM     83  C   UNL A   1      39.757  32.496  35.057  1.00  0.00     0.064 A 
ATOM     84  C   UNL A   1      40.498  32.903  36.212  1.00  0.00     0.173 A 
ATOM     85  C   UNL A   1      38.403  32.904  35.159  1.00  0.00     0.173 A 
ATOM     86  F   UNL A   1      41.798  33.201  36.164  1.00  0.00    -0.203 F 
ATOM     87  C   UNL A   1      39.924  33.223  37.441  1.00  0.00     0.198 A 
ATOM     88  C   UNL A   1      37.811  33.228  36.400  1.00  0.00     0.198 A 
ATOM     89  F   UNL A   1      37.603  32.960  34.084  1.00  0.00    -0.203 F 
ATOM     90  F   UNL A   1      40.714  33.463  38.499  1.00  0.00    -0.200 F 
ATOM     91  C   UNL A   1      38.565  33.304  37.555  1.00  0.00     0.200 A 
ATOM     92  F   UNL A   1      36.484  33.406  36.480  1.00  0.00    -0.200 F 
ATOM     93  F   UNL A   1      37.999  33.534  38.748  1.00  0.00    -0.200 F 
ENDBRANCH  69  83
BRANCH  70  94
ATOM     94  C   UNL A   1      42.562  26.239  27.849  1.00  0.00     0.064 A 
ATOM     95  C   UNL A   1      43.749  25.953  27.135  1.00  0.00     0.173 A 
ATOM     96  C   UNL A   1      41.743  25.141  28.140  1.00  0.00     0.173 A 
ATOM     97  F   UNL A   1      44.578  26.954  26.797  1.00  0.00    -0.203 F 
ATOM     98  C   UNL A   1      44.134  24.648  26.806  1.00  0.00     0.198 A 
ATOM     99  C   UNL A   1      42.129  23.828  27.809  1.00  0.00     0.198 A 
ATOM    100  F   UNL A   1      40.594  25.320  28.806  1.00  0.00    -0.203 F 
ATOM    101  F   UNL A   1      45.304  24.429  26.186  1.00  0.00    -0.200 F 
ATOM    102  C   UNL A   1      43.334  23.580  27.165  1.00  0.00     0.200 A 
ATOM    103  F   UNL A   1      41.356  22.794  28.176  1.00  0.00    -0.200 F 
ATOM    104  F   UNL A   1      43.736  22.322  26.925  1.00  0.00    -0.200 F 
ENDBRANCH  70  94
BRANCH  82 105
ATOM    105  C   UNL A   1      37.383  31.183  28.865  1.00  0.00     0.064 A 
ATOM    106  C   UNL A   1      37.019  32.490  28.519  1.00  0.00     0.173 A 
ATOM    107  C   UNL A   1      36.390  30.190  28.705  1.00  0.00     0.173 A 
ATOM    108  F   UNL A   1      37.911  33.491  28.553  1.00  0.00    -0.203 F 
ATOM    109  C   UNL A   1      35.729  32.791  28.082  1.00  0.00     0.198 A 
ATOM    110  C   UNL A   1      35.127  30.483  28.208  1.00  0.00     0.198 A 
ATOM    111  F   UNL A   1      36.627  28.905  29.005  1.00  0.00    -0.203 F 
ATOM    112  F   UNL A   1      35.404  34.059  27.798  1.00  0.00    -0.200 F 
ATOM    113  C   UNL A   1      34.792  31.786  27.910  1.00  0.00     0.200 A 
ATOM    114  F   UNL A   1      34.250  29.491  28.005  1.00  0.00    -0.200 F 
ATOM    115  F   UNL A   1      33.571  32.071  27.438  1.00  0.00    -0.200 F 
ENDBRANCH  82 105
ENDBRANCH  56  57
ENDBRANCH  49  51
ENDBRANCH  48  49
ENDBRANCH  47  48
ENDBRANCH  46  47
ENDBRANCH  45  46
ENDBRANCH  44  45
ENDBRANCH   1  44
TORSDOF 23
ENDMDL
