MODEL 1
REMARK VINA RESULT:     -10.8      0.000      0.000
REMARK SMILES O=C(OCCOCCOCCOC(=O)c1cc(-c2ccc[nH]c2=O)ccc1Cl)c1ccc(-c2c3nc(c(-c4c(F)c(F)c(F)c(F)c4F)c4ccc([nH]4)c(-c4c(F)c(F)c(F)c(F)c4F)c4nc(c(-c5c(F)c(F)c(F)c(F)c5F)c5ccc2[nH]5)C=C4)C=C3)cc1
REMARK SMILES IDX 7 1 6 2 5 3 4 4 3 5 2 6 1 7 29 8 30 9 91 10 31 11 90 12
REMARK SMILES IDX 32 13 33 14 34 15 84 16 35 17 89 18 83 19 85 20 36 21 88 22
REMARK SMILES IDX 82 23 81 24 37 26 69 27 49 28 68 29 50 30 53 31 67 32 86 33
REMARK SMILES IDX 51 34 52 35 66 37 87 38 54 39 38 40 39 41 47 42 40 43 41 44
REMARK SMILES IDX 45 45 48 46 42 47 43 48 46 49 44 50 70 51 71 52 79 53 72 54
REMARK SMILES IDX 73 55 77 56 80 57 74 58 75 59 78 60 76 61 55 62 56 63 64 64
REMARK SMILES IDX 57 65 58 66 62 67 65 68 59 69 60 70 63 71 61 72 8 73 9 74
REMARK SMILES IDX 10 75 11 76 12 77 13 78 14 79 15 80 16 81 27 82 17 83 26 84
REMARK SMILES IDX 28 85 25 86 18 87 19 88 23 89 20 90 22 91 24 92 21 93
REMARK H PARENT 85 25 53 36 22 94
REMARK Flexibility Score: inf
ROOT
ATOM      1  C   UNL A   1      34.730  32.963  29.409  1.00  0.00     0.188 C 
ENDROOT
BRANCH   1   2
ATOM      2  O   UNL A   1      33.505  33.687  29.232  1.00  0.00    -0.376 OA
BRANCH   2   3
ATOM      3  C   UNL A   1      33.690  35.027  28.770  1.00  0.00     0.202 C 
BRANCH   3   4
ATOM      4  C   UNL A   1      32.936  36.082  29.592  1.00  0.00     0.261 C 
BRANCH   4   5
ATOM      5  O   UNL A   1      32.244  35.507  30.717  1.00  0.00    -0.460 OA
BRANCH   5   6
ATOM      6  C   UNL A   1      32.617  35.542  32.021  1.00  0.00     0.338 C 
ATOM      7  O   UNL A   1      31.856  36.024  32.858  1.00  0.00    -0.246 OA
BRANCH   6   8
ATOM      8  C   UNL A   1      33.896  34.953  32.507  1.00  0.00     0.060 A 
ATOM      9  C   UNL A   1      35.108  35.638  32.527  1.00  0.00     0.016 A 
ATOM     10  C   UNL A   1      33.864  33.649  33.030  1.00  0.00     0.016 A 
ATOM     11  C   UNL A   1      36.285  35.000  32.892  1.00  0.00     0.010 A 
ATOM     12  C   UNL A   1      35.033  33.032  33.494  1.00  0.00     0.010 A 
ATOM     13  C   UNL A   1      36.262  33.691  33.379  1.00  0.00    -0.014 A 
BRANCH  13  14
ATOM     14  C   UNL A   1      37.558  33.031  33.667  1.00  0.00     0.031 A 
ATOM     15  C   UNL A   1      38.212  33.244  35.000  1.00  0.00     0.074 A 
ATOM     16  C   UNL A   1      38.049  32.122  32.803  1.00  0.00     0.049 A 
ATOM     17  N   UNL A   1      39.323  32.737  35.468  1.00  0.00    -0.248 NA
ATOM     18  C   UNL A   1      37.517  34.136  35.943  1.00  0.00     0.031 C 
ATOM     19  C   UNL A   1      37.435  31.766  31.523  1.00  0.00     0.029 A 
ATOM     20  N   UNL A   1      39.134  31.288  32.892  1.00  0.00    -0.354 N 
ATOM     21  C   UNL A   1      39.467  33.259  36.746  1.00  0.00     0.074 A 
ATOM     22  C   UNL A   1      38.344  34.141  36.976  1.00  0.00     0.031 C 
ATOM     23  C   UNL A   1      38.113  30.744  30.981  1.00  0.00     0.029 A 
ATOM     24  C   UNL A   1      39.257  30.430  31.825  1.00  0.00     0.049 A 
ATOM     25  H   UNL A   1      39.766  31.302  33.647  1.00  0.00     0.167 HD
ATOM     26  C   UNL A   1      40.446  33.016  37.648  1.00  0.00     0.037 A 
ATOM     27  C   UNL A   1      40.196  29.507  31.547  1.00  0.00     0.037 A 
ATOM     28  C   UNL A   1      41.552  32.130  37.411  1.00  0.00     0.049 A 
ATOM     29  C   UNL A   1      41.306  29.303  32.539  1.00  0.00     0.074 A 
ATOM     30  C   UNL A   1      42.652  31.880  38.210  1.00  0.00     0.029 A 
ATOM     31  N   UNL A   1      41.684  31.330  36.283  1.00  0.00    -0.354 N 
ATOM     32  N   UNL A   1      41.480  29.873  33.707  1.00  0.00    -0.248 NA
ATOM     33  C   UNL A   1      42.352  28.341  32.175  1.00  0.00     0.031 C 
ATOM     34  C   UNL A   1      43.461  30.943  37.555  1.00  0.00     0.029 A 
ATOM     35  C   UNL A   1      42.848  30.586  36.364  1.00  0.00     0.049 A 
ATOM     36  H   UNL A   1      41.044  31.299  35.535  1.00  0.00     0.167 HD
ATOM     37  C   UNL A   1      42.652  29.339  34.221  1.00  0.00     0.074 A 
ATOM     38  C   UNL A   1      43.128  28.373  33.250  1.00  0.00     0.031 C 
ATOM     39  C   UNL A   1      43.289  29.631  35.379  1.00  0.00     0.037 A 
BRANCH  26  40
ATOM     40  C   UNL A   1      40.370  33.760  38.948  1.00  0.00     0.064 A 
ATOM     41  C   UNL A   1      41.098  34.939  39.163  1.00  0.00     0.173 A 
ATOM     42  C   UNL A   1      39.585  33.268  40.001  1.00  0.00     0.173 A 
ATOM     43  F   UNL A   1      41.887  35.431  38.197  1.00  0.00    -0.203 F 
ATOM     44  C   UNL A   1      41.064  35.585  40.397  1.00  0.00     0.198 A 
ATOM     45  C   UNL A   1      39.536  33.928  41.226  1.00  0.00     0.198 A 
ATOM     46  F   UNL A   1      38.878  32.139  39.848  1.00  0.00    -0.203 F 
ATOM     47  F   UNL A   1      41.812  36.678  40.601  1.00  0.00    -0.200 F 
ATOM     48  C   UNL A   1      40.281  35.081  41.426  1.00  0.00     0.200 A 
ATOM     49  F   UNL A   1      38.780  33.440  42.219  1.00  0.00    -0.200 F 
ATOM     50  F   UNL A   1      40.259  35.696  42.616  1.00  0.00    -0.200 F 
ENDBRANCH  26  40
BRANCH  27  51
ATOM     51  C   UNL A   1      40.144  28.747  30.268  1.00  0.00     0.064 A 
ATOM     52  C   UNL A   1      39.515  27.499  30.181  1.00  0.00     0.173 A 
ATOM     53  C   UNL A   1      40.737  29.257  29.100  1.00  0.00     0.173 A 
ATOM     54  F   UNL A   1      38.951  26.956  31.270  1.00  0.00    -0.203 F 
ATOM     55  C   UNL A   1      39.495  26.782  28.984  1.00  0.00     0.198 A 
ATOM     56  C   UNL A   1      40.688  28.555  27.898  1.00  0.00     0.198 A 
ATOM     57  F   UNL A   1      41.348  30.451  29.122  1.00  0.00    -0.203 F 
ATOM     58  F   UNL A   1      38.928  25.569  28.942  1.00  0.00    -0.200 F 
ATOM     59  C   UNL A   1      40.076  27.314  27.842  1.00  0.00     0.200 A 
ATOM     60  F   UNL A   1      41.234  29.085  26.795  1.00  0.00    -0.200 F 
ATOM     61  F   UNL A   1      40.056  26.626  26.692  1.00  0.00    -0.200 F 
ENDBRANCH  27  51
BRANCH  39  62
ATOM     62  C   UNL A   1      44.559  28.889  35.654  1.00  0.00     0.064 A 
ATOM     63  C   UNL A   1      44.554  27.672  36.350  1.00  0.00     0.173 A 
ATOM     64  C   UNL A   1      45.787  29.386  35.196  1.00  0.00     0.173 A 
ATOM     65  F   UNL A   1      43.403  27.169  36.821  1.00  0.00    -0.203 F 
ATOM     66  C   UNL A   1      45.739  26.989  36.600  1.00  0.00     0.198 A 
ATOM     67  C   UNL A   1      46.968  28.688  35.427  1.00  0.00     0.198 A 
ATOM     68  F   UNL A   1      45.839  30.545  34.523  1.00  0.00    -0.203 F 
ATOM     69  F   UNL A   1      45.718  25.850  37.306  1.00  0.00    -0.200 F 
ATOM     70  C   UNL A   1      46.944  27.495  36.134  1.00  0.00     0.200 A 
ATOM     71  F   UNL A   1      48.131  29.173  34.970  1.00  0.00    -0.200 F 
ATOM     72  F   UNL A   1      48.086  26.835  36.374  1.00  0.00    -0.200 F 
ENDBRANCH  39  62
ENDBRANCH  13  14
ENDBRANCH   6   8
ENDBRANCH   5   6
ENDBRANCH   4   5
ENDBRANCH   3   4
ENDBRANCH   2   3
ENDBRANCH   1   2
BRANCH   1  73
ATOM     73  C   UNL A   1      35.307  32.560  28.050  1.00  0.00     0.188 C 
BRANCH  73  74
ATOM     74  O   UNL A   1      35.427  31.149  27.857  1.00  0.00    -0.376 OA
BRANCH  74  75
ATOM     75  C   UNL A   1      34.321  30.484  27.252  1.00  0.00     0.202 C 
BRANCH  75  76
ATOM     76  C   UNL A   1      34.234  28.973  27.496  1.00  0.00     0.261 C 
BRANCH  76  77
ATOM     77  O   UNL A   1      33.489  28.242  26.504  1.00  0.00    -0.460 OA
BRANCH  77  78
ATOM     78  C   UNL A   1      32.185  28.044  26.819  1.00  0.00     0.339 C 
ATOM     79  O   UNL A   1      31.695  27.935  27.929  1.00  0.00    -0.246 OA
BRANCH  78  80
ATOM     80  C   UNL A   1      31.368  27.946  25.603  1.00  0.00     0.079 A 
ATOM     81  C   UNL A   1      30.948  29.129  24.973  1.00  0.00     0.026 A 
ATOM     82  C   UNL A   1      30.846  26.709  25.213  1.00  0.00     0.055 A 
ATOM     83  C   UNL A   1      29.990  29.072  23.952  1.00  0.00    -0.012 A 
ATOM     84  C   UNL A   1      29.885  26.657  24.202  1.00  0.00     0.022 A 
ATOM     85  Cl  UNL A   1      31.324  25.221  25.946  1.00  0.00    -0.083 Cl
ATOM     86  C   UNL A   1      29.464  27.829  23.573  1.00  0.00     0.010 A 
BRANCH  83  87
ATOM     87  C   UNL A   1      29.463  30.286  23.312  1.00  0.00     0.047 A 
ATOM     88  C   UNL A   1      28.951  31.293  24.044  1.00  0.00     0.016 A 
ATOM     89  C   UNL A   1      29.566  30.467  21.821  1.00  0.00     0.255 A 
ATOM     90  C   UNL A   1      28.510  32.522  23.424  1.00  0.00     0.019 A 
ATOM     91  N   UNL A   1      29.128  31.673  21.326  1.00  0.00    -0.329 N 
ATOM     92  O   UNL A   1      30.022  29.599  21.082  1.00  0.00    -0.269 OA
ATOM     93  C   UNL A   1      28.615  32.679  22.099  1.00  0.00     0.086 A 
ATOM     94  H   UNL A   1      29.187  31.822  20.355  1.00  0.00     0.169 HD
ENDBRANCH  83  87
ENDBRANCH  78  80
ENDBRANCH  77  78
ENDBRANCH  76  77
ENDBRANCH  75  76
ENDBRANCH  74  75
ENDBRANCH  73  74
ENDBRANCH   1  73
TORSDOF 18
ENDMDL
MODEL 2
REMARK VINA RESULT:     -10.8      1.663      2.693
REMARK SMILES O=C(OCCOCCOCCOC(=O)c1cc(-c2ccc[nH]c2=O)ccc1Cl)c1ccc(-c2c3nc(c(-c4c(F)c(F)c(F)c(F)c4F)c4ccc([nH]4)c(-c4c(F)c(F)c(F)c(F)c4F)c4nc(c(-c5c(F)c(F)c(F)c(F)c5F)c5ccc2[nH]5)C=C4)C=C3)cc1
REMARK SMILES IDX 7 1 6 2 5 3 4 4 3 5 2 6 1 7 29 8 30 9 91 10 31 11 90 12
REMARK SMILES IDX 32 13 33 14 34 15 84 16 35 17 89 18 83 19 85 20 36 21 88 22
REMARK SMILES IDX 82 23 81 24 37 26 69 27 49 28 68 29 50 30 53 31 67 32 86 33
REMARK SMILES IDX 51 34 52 35 66 37 87 38 54 39 38 40 39 41 47 42 40 43 41 44
REMARK SMILES IDX 45 45 48 46 42 47 43 48 46 49 44 50 70 51 71 52 79 53 72 54
REMARK SMILES IDX 73 55 77 56 80 57 74 58 75 59 78 60 76 61 55 62 56 63 64 64
REMARK SMILES IDX 57 65 58 66 62 67 65 68 59 69 60 70 63 71 61 72 8 73 9 74
REMARK SMILES IDX 10 75 11 76 12 77 13 78 14 79 15 80 16 81 27 82 17 83 26 84
REMARK SMILES IDX 28 85 25 86 18 87 19 88 23 89 20 90 22 91 24 92 21 93
REMARK H PARENT 85 25 53 36 22 94
REMARK Flexibility Score: inf
ROOT
ATOM      1  C   UNL A   1      34.543  30.373  27.384  1.00  0.00     0.188 C 
ENDROOT
BRANCH   1   2
ATOM      2  O   UNL A   1      33.707  31.358  28.007  1.00  0.00    -0.376 OA
BRANCH   2   3
ATOM      3  C   UNL A   1      32.533  31.674  27.257  1.00  0.00     0.202 C 
BRANCH   3   4
ATOM      4  C   UNL A   1      32.423  33.153  26.859  1.00  0.00     0.261 C 
BRANCH   4   5
ATOM      5  O   UNL A   1      32.090  33.996  27.979  1.00  0.00    -0.460 OA
BRANCH   5   6
ATOM      6  C   UNL A   1      32.922  34.815  28.672  1.00  0.00     0.338 C 
ATOM      7  O   UNL A   1      32.614  35.993  28.840  1.00  0.00    -0.246 OA
BRANCH   6   8
ATOM      8  C   UNL A   1      34.181  34.332  29.306  1.00  0.00     0.060 A 
ATOM      9  C   UNL A   1      35.445  34.500  28.748  1.00  0.00     0.016 A 
ATOM     10  C   UNL A   1      34.089  33.723  30.569  1.00  0.00     0.016 A 
ATOM     11  C   UNL A   1      36.568  33.934  29.336  1.00  0.00     0.010 A 
ATOM     12  C   UNL A   1      35.233  33.237  31.216  1.00  0.00     0.010 A 
ATOM     13  C   UNL A   1      36.476  33.297  30.576  1.00  0.00    -0.014 A 
BRANCH  13  14
ATOM     14  C   UNL A   1      37.688  32.633  31.111  1.00  0.00     0.031 A 
ATOM     15  C   UNL A   1      38.147  32.951  32.504  1.00  0.00     0.074 A 
ATOM     16  C   UNL A   1      38.265  31.636  30.413  1.00  0.00     0.049 A 
ATOM     17  N   UNL A   1      39.156  32.461  33.175  1.00  0.00    -0.248 NA
ATOM     18  C   UNL A   1      37.355  33.942  33.251  1.00  0.00     0.031 C 
ATOM     19  C   UNL A   1      37.833  31.180  29.091  1.00  0.00     0.029 A 
ATOM     20  N   UNL A   1      39.293  30.786  30.736  1.00  0.00    -0.354 N 
ATOM     21  C   UNL A   1      39.131  33.094  34.410  1.00  0.00     0.074 A 
ATOM     22  C   UNL A   1      38.021  34.021  34.392  1.00  0.00     0.031 C 
ATOM     23  C   UNL A   1      38.544  30.095  28.748  1.00  0.00     0.029 A 
ATOM     24  C   UNL A   1      39.537  29.831  29.778  1.00  0.00     0.049 A 
ATOM     25  H   UNL A   1      39.806  30.854  31.573  1.00  0.00     0.167 HD
ATOM     26  C   UNL A   1      39.956  32.909  35.467  1.00  0.00     0.037 A 
ATOM     27  C   UNL A   1      40.471  28.863  29.726  1.00  0.00     0.037 A 
ATOM     28  C   UNL A   1      41.050  31.978  35.476  1.00  0.00     0.049 A 
ATOM     29  C   UNL A   1      41.414  28.723  30.887  1.00  0.00     0.074 A 
ATOM     30  C   UNL A   1      42.010  31.774  36.450  1.00  0.00     0.029 A 
ATOM     31  N   UNL A   1      41.316  31.075  34.455  1.00  0.00    -0.354 N 
ATOM     32  N   UNL A   1      41.436  29.392  32.014  1.00  0.00    -0.248 NA
ATOM     33  C   UNL A   1      42.464  27.705  30.769  1.00  0.00     0.031 C 
ATOM     34  C   UNL A   1      42.869  30.761  36.008  1.00  0.00     0.029 A 
ATOM     35  C   UNL A   1      42.424  30.311  34.774  1.00  0.00     0.049 A 
ATOM     36  H   UNL A   1      40.792  30.991  33.624  1.00  0.00     0.167 HD
ATOM     37  C   UNL A   1      42.498  28.879  32.742  1.00  0.00     0.074 A 
ATOM     38  C   UNL A   1      43.074  27.815  31.942  1.00  0.00     0.031 C 
ATOM     39  C   UNL A   1      42.968  29.260  33.953  1.00  0.00     0.037 A 
BRANCH  26  40
ATOM     40  C   UNL A   1      39.718  33.771  36.670  1.00  0.00     0.064 A 
ATOM     41  C   UNL A   1      38.899  33.349  37.728  1.00  0.00     0.173 A 
ATOM     42  C   UNL A   1      40.292  35.048  36.752  1.00  0.00     0.173 A 
ATOM     43  F   UNL A   1      38.303  32.148  37.681  1.00  0.00    -0.203 F 
ATOM     44  C   UNL A   1      38.641  34.186  38.810  1.00  0.00     0.198 A 
ATOM     45  C   UNL A   1      40.050  35.874  37.846  1.00  0.00     0.198 A 
ATOM     46  F   UNL A   1      41.076  35.502  35.763  1.00  0.00    -0.203 F 
ATOM     47  F   UNL A   1      37.809  33.785  39.782  1.00  0.00    -0.200 F 
ATOM     48  C   UNL A   1      39.218  35.446  38.870  1.00  0.00     0.200 A 
ATOM     49  F   UNL A   1      40.607  37.091  37.902  1.00  0.00    -0.200 F 
ATOM     50  F   UNL A   1      38.959  36.255  39.907  1.00  0.00    -0.200 F 
ENDBRANCH  26  40
BRANCH  27  51
ATOM     51  C   UNL A   1      40.579  27.990  28.524  1.00  0.00     0.064 A 
ATOM     52  C   UNL A   1      39.937  26.747  28.460  1.00  0.00     0.173 A 
ATOM     53  C   UNL A   1      41.340  28.384  27.411  1.00  0.00     0.173 A 
ATOM     54  F   UNL A   1      39.214  26.313  29.503  1.00  0.00    -0.203 F 
ATOM     55  C   UNL A   1      40.066  25.925  27.341  1.00  0.00     0.198 A 
ATOM     56  C   UNL A   1      41.441  27.577  26.280  1.00  0.00     0.198 A 
ATOM     57  F   UNL A   1      41.972  29.568  27.412  1.00  0.00    -0.203 F 
ATOM     58  F   UNL A   1      39.480  24.719  27.327  1.00  0.00    -0.200 F 
ATOM     59  C   UNL A   1      40.812  26.343  26.249  1.00  0.00     0.200 A 
ATOM     60  F   UNL A   1      42.149  27.997  25.223  1.00  0.00    -0.200 F 
ATOM     61  F   UNL A   1      40.935  25.553  25.173  1.00  0.00    -0.200 F 
ENDBRANCH  27  51
BRANCH  39  62
ATOM     62  C   UNL A   1      44.155  28.514  34.479  1.00  0.00     0.064 A 
ATOM     63  C   UNL A   1      44.000  27.345  35.238  1.00  0.00     0.173 A 
ATOM     64  C   UNL A   1      45.455  28.958  34.201  1.00  0.00     0.173 A 
ATOM     65  F   UNL A   1      42.773  26.895  35.541  1.00  0.00    -0.203 F 
ATOM     66  C   UNL A   1      45.109  26.658  35.721  1.00  0.00     0.198 A 
ATOM     67  C   UNL A   1      46.561  28.254  34.667  1.00  0.00     0.198 A 
ATOM     68  F   UNL A   1      45.650  30.069  33.477  1.00  0.00    -0.203 F 
ATOM     69  F   UNL A   1      44.940  25.568  36.482  1.00  0.00    -0.200 F 
ATOM     70  C   UNL A   1      46.388  27.111  35.431  1.00  0.00     0.200 A 
ATOM     71  F   UNL A   1      47.797  28.688  34.380  1.00  0.00    -0.200 F 
ATOM     72  F   UNL A   1      47.455  26.447  35.897  1.00  0.00    -0.200 F 
ENDBRANCH  39  62
ENDBRANCH  13  14
ENDBRANCH   6   8
ENDBRANCH   5   6
ENDBRANCH   4   5
ENDBRANCH   3   4
ENDBRANCH   2   3
ENDBRANCH   1   2
BRANCH   1  73
ATOM     73  C   UNL A   1      33.711  29.486  26.455  1.00  0.00     0.188 C 
BRANCH  73  74
ATOM     74  O   UNL A   1      33.223  28.289  27.065  1.00  0.00    -0.376 OA
BRANCH  74  75
ATOM     75  C   UNL A   1      33.230  27.108  26.266  1.00  0.00     0.202 C 
BRANCH  75  76
ATOM     76  C   UNL A   1      33.767  27.268  24.840  1.00  0.00     0.261 C 
BRANCH  76  77
ATOM     77  O   UNL A   1      33.326  26.260  23.911  1.00  0.00    -0.460 OA
BRANCH  77  78
ATOM     78  C   UNL A   1      32.855  26.750  22.737  1.00  0.00     0.339 C 
ATOM     79  O   UNL A   1      33.477  26.941  21.707  1.00  0.00    -0.246 OA
BRANCH  78  80
ATOM     80  C   UNL A   1      31.426  27.067  22.845  1.00  0.00     0.079 A 
ATOM     81  C   UNL A   1      31.017  28.402  22.696  1.00  0.00     0.026 A 
ATOM     82  C   UNL A   1      30.529  26.095  23.298  1.00  0.00     0.055 A 
ATOM     83  C   UNL A   1      29.701  28.767  23.013  1.00  0.00    -0.012 A 
ATOM     84  C   UNL A   1      29.223  26.464  23.621  1.00  0.00     0.022 A 
ATOM     85  Cl  UNL A   1      30.971  24.438  23.497  1.00  0.00    -0.083 Cl
ATOM     86  C   UNL A   1      28.811  27.789  23.476  1.00  0.00     0.010 A 
BRANCH  83  87
ATOM     87  C   UNL A   1      29.243  30.162  22.946  1.00  0.00     0.047 A 
ATOM     88  C   UNL A   1      29.572  31.050  23.904  1.00  0.00     0.016 A 
ATOM     89  C   UNL A   1      28.467  30.652  21.753  1.00  0.00     0.255 A 
ATOM     90  C   UNL A   1      29.196  32.442  23.797  1.00  0.00     0.019 A 
ATOM     91  N   UNL A   1      28.162  31.993  21.739  1.00  0.00    -0.329 N 
ATOM     92  O   UNL A   1      28.130  29.909  20.836  1.00  0.00    -0.269 OA
ATOM     93  C   UNL A   1      28.515  32.872  22.728  1.00  0.00     0.086 A 
ATOM     94  H   UNL A   1      27.659  32.344  20.969  1.00  0.00     0.169 HD
ENDBRANCH  83  87
ENDBRANCH  78  80
ENDBRANCH  77  78
ENDBRANCH  76  77
ENDBRANCH  75  76
ENDBRANCH  74  75
ENDBRANCH  73  74
ENDBRANCH   1  73
TORSDOF 18
ENDMDL
MODEL 3
REMARK VINA RESULT:     -10.7      4.242      6.580
REMARK SMILES O=C(OCCOCCOCCOC(=O)c1cc(-c2ccc[nH]c2=O)ccc1Cl)c1ccc(-c2c3nc(c(-c4c(F)c(F)c(F)c(F)c4F)c4ccc([nH]4)c(-c4c(F)c(F)c(F)c(F)c4F)c4nc(c(-c5c(F)c(F)c(F)c(F)c5F)c5ccc2[nH]5)C=C4)C=C3)cc1
REMARK SMILES IDX 7 1 6 2 5 3 4 4 3 5 2 6 1 7 29 8 30 9 91 10 31 11 90 12
REMARK SMILES IDX 32 13 33 14 34 15 84 16 35 17 89 18 83 19 85 20 36 21 88 22
REMARK SMILES IDX 82 23 81 24 37 26 69 27 49 28 68 29 50 30 53 31 67 32 86 33
REMARK SMILES IDX 51 34 52 35 66 37 87 38 54 39 38 40 39 41 47 42 40 43 41 44
REMARK SMILES IDX 45 45 48 46 42 47 43 48 46 49 44 50 70 51 71 52 79 53 72 54
REMARK SMILES IDX 73 55 77 56 80 57 74 58 75 59 78 60 76 61 55 62 56 63 64 64
REMARK SMILES IDX 57 65 58 66 62 67 65 68 59 69 60 70 63 71 61 72 8 73 9 74
REMARK SMILES IDX 10 75 11 76 12 77 13 78 14 79 15 80 16 81 27 82 17 83 26 84
REMARK SMILES IDX 28 85 25 86 18 87 19 88 23 89 20 90 22 91 24 92 21 93
REMARK H PARENT 85 25 53 36 22 94
REMARK Flexibility Score: inf
ROOT
ATOM      1  C   UNL A   1      30.089  28.420  23.389  1.00  0.00     0.188 C 
ENDROOT
BRANCH   1   2
ATOM      2  O   UNL A   1      30.525  29.550  24.158  1.00  0.00    -0.376 OA
BRANCH   2   3
ATOM      3  C   UNL A   1      31.482  29.223  25.167  1.00  0.00     0.202 C 
BRANCH   3   4
ATOM      4  C   UNL A   1      31.642  30.300  26.250  1.00  0.00     0.261 C 
BRANCH   4   5
ATOM      5  O   UNL A   1      32.947  30.908  26.228  1.00  0.00    -0.460 OA
BRANCH   5   6
ATOM      6  C   UNL A   1      33.563  31.579  27.234  1.00  0.00     0.338 C 
ATOM      7  O   UNL A   1      33.000  32.538  27.759  1.00  0.00    -0.246 OA
BRANCH   6   8
ATOM      8  C   UNL A   1      34.883  31.163  27.787  1.00  0.00     0.060 A 
ATOM      9  C   UNL A   1      35.231  29.842  28.053  1.00  0.00     0.016 A 
ATOM     10  C   UNL A   1      35.852  32.159  27.996  1.00  0.00     0.016 A 
ATOM     11  C   UNL A   1      36.436  29.529  28.667  1.00  0.00     0.010 A 
ATOM     12  C   UNL A   1      37.109  31.837  28.524  1.00  0.00     0.010 A 
ATOM     13  C   UNL A   1      37.388  30.521  28.909  1.00  0.00    -0.014 A 
BRANCH  13  14
ATOM     14  C   UNL A   1      38.617  30.144  29.649  1.00  0.00     0.031 A 
ATOM     15  C   UNL A   1      38.801  30.618  31.060  1.00  0.00     0.074 A 
ATOM     16  C   UNL A   1      39.470  29.250  29.112  1.00  0.00     0.049 A 
ATOM     17  N   UNL A   1      39.779  30.377  31.894  1.00  0.00    -0.248 NA
ATOM     18  C   UNL A   1      37.734  31.466  31.617  1.00  0.00     0.031 C 
ATOM     19  C   UNL A   1      39.327  28.650  27.785  1.00  0.00     0.029 A 
ATOM     20  N   UNL A   1      40.584  28.643  29.632  1.00  0.00    -0.354 N 
ATOM     21  C   UNL A   1      39.455  31.054  33.061  1.00  0.00     0.074 A 
ATOM     22  C   UNL A   1      38.202  31.736  32.826  1.00  0.00     0.031 C 
ATOM     23  C   UNL A   1      40.276  27.715  27.623  1.00  0.00     0.029 A 
ATOM     24  C   UNL A   1      41.143  27.710  28.792  1.00  0.00     0.049 A 
ATOM     25  H   UNL A   1      40.950  28.855  30.521  1.00  0.00     0.167 HD
ATOM     26  C   UNL A   1      40.140  31.094  34.227  1.00  0.00     0.037 A 
ATOM     27  C   UNL A   1      42.244  26.949  28.937  1.00  0.00     0.037 A 
ATOM     28  C   UNL A   1      41.380  30.404  34.452  1.00  0.00     0.049 A 
ATOM     29  C   UNL A   1      43.020  27.061  30.219  1.00  0.00     0.074 A 
ATOM     30  C   UNL A   1      42.212  30.448  35.556  1.00  0.00     0.029 A 
ATOM     31  N   UNL A   1      41.959  29.523  33.549  1.00  0.00    -0.354 N 
ATOM     32  N   UNL A   1      42.751  27.778  31.283  1.00  0.00    -0.248 NA
ATOM     33  C   UNL A   1      44.253  26.271  30.319  1.00  0.00     0.031 C 
ATOM     34  C   UNL A   1      43.306  29.609  35.311  1.00  0.00     0.029 A 
ATOM     35  C   UNL A   1      43.137  29.016  34.068  1.00  0.00     0.049 A 
ATOM     36  H   UNL A   1      41.586  29.293  32.666  1.00  0.00     0.167 HD
ATOM     37  C   UNL A   1      43.776  27.527  32.181  1.00  0.00     0.074 A 
ATOM     38  C   UNL A   1      44.655  26.563  31.549  1.00  0.00     0.031 C 
ATOM     39  C   UNL A   1      43.986  28.056  33.410  1.00  0.00     0.037 A 
BRANCH  26  40
ATOM     40  C   UNL A   1      39.571  31.950  35.319  1.00  0.00     0.064 A 
ATOM     41  C   UNL A   1      39.963  33.286  35.486  1.00  0.00     0.173 A 
ATOM     42  C   UNL A   1      38.647  31.416  36.229  1.00  0.00     0.173 A 
ATOM     43  F   UNL A   1      40.868  33.832  34.660  1.00  0.00    -0.203 F 
ATOM     44  C   UNL A   1      39.470  34.049  36.541  1.00  0.00     0.198 A 
ATOM     45  C   UNL A   1      38.139  32.189  37.270  1.00  0.00     0.198 A 
ATOM     46  F   UNL A   1      38.247  30.141  36.118  1.00  0.00    -0.203 F 
ATOM     47  F   UNL A   1      39.902  35.306  36.717  1.00  0.00    -0.200 F 
ATOM     48  C   UNL A   1      38.557  33.502  37.430  1.00  0.00     0.200 A 
ATOM     49  F   UNL A   1      37.258  31.658  38.129  1.00  0.00    -0.200 F 
ATOM     50  F   UNL A   1      38.093  34.233  38.453  1.00  0.00    -0.200 F 
ENDBRANCH  26  40
BRANCH  27  51
ATOM     51  C   UNL A   1      42.690  26.056  27.832  1.00  0.00     0.064 A 
ATOM     52  C   UNL A   1      43.593  26.493  26.855  1.00  0.00     0.173 A 
ATOM     53  C   UNL A   1      42.209  24.740  27.727  1.00  0.00     0.173 A 
ATOM     54  F   UNL A   1      44.068  27.747  26.895  1.00  0.00    -0.203 F 
ATOM     55  C   UNL A   1      43.985  25.658  25.808  1.00  0.00     0.198 A 
ATOM     56  C   UNL A   1      42.626  23.896  26.701  1.00  0.00     0.198 A 
ATOM     57  F   UNL A   1      41.347  24.264  28.638  1.00  0.00    -0.203 F 
ATOM     58  F   UNL A   1      44.812  26.119  24.860  1.00  0.00    -0.200 F 
ATOM     59  C   UNL A   1      43.506  24.358  25.735  1.00  0.00     0.200 A 
ATOM     60  F   UNL A   1      42.174  22.636  26.649  1.00  0.00    -0.200 F 
ATOM     61  F   UNL A   1      43.883  23.556  24.730  1.00  0.00    -0.200 F 
ENDBRANCH  27  51
BRANCH  39  62
ATOM     62  C   UNL A   1      45.206  27.593  34.143  1.00  0.00     0.064 A 
ATOM     63  C   UNL A   1      46.447  28.216  33.953  1.00  0.00     0.173 A 
ATOM     64  C   UNL A   1      45.128  26.533  35.058  1.00  0.00     0.173 A 
ATOM     65  F   UNL A   1      46.570  29.222  33.075  1.00  0.00    -0.203 F 
ATOM     66  C   UNL A   1      47.576  27.779  34.639  1.00  0.00     0.198 A 
ATOM     67  C   UNL A   1      46.254  26.115  35.759  1.00  0.00     0.198 A 
ATOM     68  F   UNL A   1      43.960  25.910  35.272  1.00  0.00    -0.203 F 
ATOM     69  F   UNL A   1      48.762  28.359  34.411  1.00  0.00    -0.200 F 
ATOM     70  C   UNL A   1      47.477  26.732  35.545  1.00  0.00     0.200 A 
ATOM     71  F   UNL A   1      46.156  25.109  36.640  1.00  0.00    -0.200 F 
ATOM     72  F   UNL A   1      48.565  26.313  36.205  1.00  0.00    -0.200 F 
ENDBRANCH  39  62
ENDBRANCH  13  14
ENDBRANCH   6   8
ENDBRANCH   5   6
ENDBRANCH   4   5
ENDBRANCH   3   4
ENDBRANCH   2   3
ENDBRANCH   1   2
BRANCH   1  73
ATOM     73  C   UNL A   1      31.096  27.274  23.517  1.00  0.00     0.188 C 
BRANCH  73  74
ATOM     74  O   UNL A   1      31.830  27.001  22.321  1.00  0.00    -0.376 OA
BRANCH  74  75
ATOM     75  C   UNL A   1      32.713  25.882  22.347  1.00  0.00     0.202 C 
BRANCH  75  76
ATOM     76  C   UNL A   1      33.017  25.302  23.733  1.00  0.00     0.261 C 
BRANCH  76  77
ATOM     77  O   UNL A   1      34.043  24.292  23.754  1.00  0.00    -0.460 OA
BRANCH  77  78
ATOM     78  C   UNL A   1      34.238  23.720  24.968  1.00  0.00     0.339 C 
ATOM     79  O   UNL A   1      33.886  24.142  26.056  1.00  0.00    -0.246 OA
BRANCH  78  80
ATOM     80  C   UNL A   1      34.985  22.464  24.834  1.00  0.00     0.079 A 
ATOM     81  C   UNL A   1      34.273  21.272  24.623  1.00  0.00     0.026 A 
ATOM     82  C   UNL A   1      36.352  22.432  25.126  1.00  0.00     0.055 A 
ATOM     83  C   UNL A   1      34.935  20.040  24.715  1.00  0.00    -0.012 A 
ATOM     84  C   UNL A   1      37.005  21.203  25.227  1.00  0.00     0.022 A 
ATOM     85  Cl  UNL A   1      37.283  23.862  25.392  1.00  0.00    -0.083 Cl
ATOM     86  C   UNL A   1      36.303  20.016  25.019  1.00  0.00     0.010 A 
BRANCH  83  87
ATOM     87  C   UNL A   1      34.221  18.762  24.577  1.00  0.00     0.047 A 
ATOM     88  C   UNL A   1      34.866  17.640  24.206  1.00  0.00     0.016 A 
ATOM     89  C   UNL A   1      32.762  18.662  24.937  1.00  0.00     0.255 A 
ATOM     90  C   UNL A   1      34.184  16.366  24.153  1.00  0.00     0.019 A 
ATOM     91  N   UNL A   1      32.205  17.407  24.862  1.00  0.00    -0.329 N 
ATOM     92  O   UNL A   1      32.102  19.636  25.287  1.00  0.00    -0.269 OA
ATOM     93  C   UNL A   1      32.890  16.284  24.484  1.00  0.00     0.086 A 
ATOM     94  H   UNL A   1      31.253  17.310  25.096  1.00  0.00     0.169 HD
ENDBRANCH  83  87
ENDBRANCH  78  80
ENDBRANCH  77  78
ENDBRANCH  76  77
ENDBRANCH  75  76
ENDBRANCH  74  75
ENDBRANCH  73  74
ENDBRANCH   1  73
TORSDOF 18
ENDMDL
