MODEL 1
REMARK VINA RESULT:     -11.2      0.000      0.000
REMARK SMILES COc1ccc2c(c1)c(Cc1nc(-c3ccc(C(=O)OCCOCCOCCOC(=O)c4ccc(-c5c6nc(c(-c7c(F)c(F)c(F)c(F)c7F)c7ccc([nH]7)c(-c7c(F)c(F)c(F)c(F)c7F)c7nc(c(-c8c(F)c(F)c(F)c(F)c8F)c8ccc5[nH]8)C=C7)C=C6)cc4)cc3)cs1)c(C)n2C(=O)c1ccc(Cl)cc1
REMARK SMILES IDX 23 1 22 2 21 3 20 4 18 5 19 6 17 7 14 8 15 9 96 10 16 11
REMARK SMILES IDX 95 12 13 13 11 14 12 15 98 16 97 17 10 18 9 19 3 20 4 21
REMARK SMILES IDX 8 22 5 23 7 24 6 25 101 26 99 27 100 28 2 29 1 30 102 31
REMARK SMILES IDX 103 32 104 33 105 34 110 35 106 36 109 37 107 38 108 39
REMARK SMILES IDX 24 40 25 41 26 42 27 43 28 44 29 45 30 46 31 47 32 48 33 49
REMARK SMILES IDX 94 50 34 51 93 52 35 53 36 54 37 55 87 56 38 57 92 58 86 59
REMARK SMILES IDX 88 60 39 61 91 62 85 63 84 64 40 66 72 67 52 68 71 69 53 70
REMARK SMILES IDX 56 71 70 72 89 73 54 74 55 75 69 77 90 78 57 79 41 80 42 81
REMARK SMILES IDX 50 82 43 83 44 84 48 85 51 86 45 87 46 88 49 89 47 90 73 91
REMARK SMILES IDX 74 92 82 93 75 94 76 95 80 96 83 97 77 98 78 99 81 100
REMARK SMILES IDX 79 101 58 102 59 103 67 104 60 105 61 106 65 107 68 108
REMARK SMILES IDX 62 109 63 110 66 111 64 112
REMARK H PARENT 88 65 56 76
REMARK Flexibility Score: inf
ROOT
ATOM      1  O   UNL A   1      46.201  21.198  25.339  1.00  0.00    -0.376 OA
ENDROOT
BRANCH   1   2
ATOM      2  C   UNL A   1      46.253  22.345  24.509  1.00  0.00     0.202 C 
BRANCH   2   3
ATOM      3  C   UNL A   1      44.997  23.212  24.236  1.00  0.00     0.261 C 
BRANCH   3   4
ATOM      4  O   UNL A   1      45.019  24.572  24.762  1.00  0.00    -0.460 OA
BRANCH   4   5
ATOM      5  C   UNL A   1      46.252  25.114  24.989  1.00  0.00     0.338 C 
ATOM      6  O   UNL A   1      46.920  25.702  24.151  1.00  0.00    -0.246 OA
BRANCH   5   7
ATOM      7  C   UNL A   1      46.655  25.134  26.440  1.00  0.00     0.060 A 
ATOM      8  C   UNL A   1      47.601  25.874  29.063  1.00  0.00     0.001 A 
ATOM      9  C   UNL A   1      46.402  26.327  28.555  1.00  0.00     0.011 A 
ATOM     10  C   UNL A   1      48.331  25.017  28.230  1.00  0.00     0.011 A 
ATOM     11  C   UNL A   1      45.915  25.924  27.312  1.00  0.00     0.016 A 
ATOM     12  C   UNL A   1      47.876  24.670  26.917  1.00  0.00     0.016 A 
BRANCH   8  13
ATOM     13  C   UNL A   1      48.033  26.402  30.365  1.00  0.00     0.081 A 
ATOM     14  C   UNL A   1      48.390  26.365  32.558  1.00  0.00     0.098 A 
ATOM     15  N   UNL A   1      47.705  25.807  31.571  1.00  0.00    -0.241 NA
ATOM     16  S   UNL A   1      49.350  27.724  32.118  1.00  0.00    -0.126 S 
ATOM     17  C   UNL A   1      48.887  27.492  30.490  1.00  0.00     0.095 A 
BRANCH  14  18
ATOM     18  C   UNL A   1      48.394  25.901  33.994  1.00  0.00     0.105 C 
BRANCH  18  19
ATOM     19  C   UNL A   1      48.634  24.413  34.114  1.00  0.00    -0.012 A 
ATOM     20  C   UNL A   1      52.743  23.223  32.734  1.00  0.00     0.119 A 
ATOM     21  C   UNL A   1      52.431  21.367  33.419  1.00  0.00     0.048 A 
ATOM     22  C   UNL A   1      51.371  24.381  32.964  1.00  0.00     0.057 A 
ATOM     23  C   UNL A   1      50.875  20.955  34.128  1.00  0.00     0.031 A 
ATOM     24  C   UNL A   1      49.856  23.800  33.732  1.00  0.00     0.008 A 
ATOM     25  C   UNL A   1      49.630  22.176  34.252  1.00  0.00     0.057 A 
ATOM     26  N   UNL A   1      48.267  22.101  34.569  1.00  0.00    -0.280 N 
ATOM     27  C   UNL A   1      47.720  23.414  34.523  1.00  0.00     0.028 A 
ATOM     28  C   UNL A   1      46.267  23.696  34.809  1.00  0.00     0.065 C 
BRANCH  20  29
ATOM     29  O   UNL A   1      53.887  23.974  32.416  1.00  0.00    -0.497 OA
ATOM     30  C   UNL A   1      54.911  24.232  33.389  1.00  0.00     0.278 C 
ENDBRANCH  20  29
BRANCH  26  31
ATOM     31  C   UNL A   1      47.591  20.846  34.805  1.00  0.00     0.262 C 
ATOM     32  O   UNL A   1      47.316  20.114  33.858  1.00  0.00    -0.268 OA
BRANCH  31  33
ATOM     33  C   UNL A   1      47.271  20.281  36.149  1.00  0.00     0.040 A 
ATOM     34  C   UNL A   1      48.220  20.245  37.185  1.00  0.00     0.015 A 
ATOM     35  C   UNL A   1      46.024  19.662  36.323  1.00  0.00     0.015 A 
ATOM     36  C   UNL A   1      47.976  19.445  38.318  1.00  0.00     0.021 A 
ATOM     37  C   UNL A   1      45.778  18.887  37.464  1.00  0.00     0.021 A 
ATOM     38  C   UNL A   1      46.772  18.743  38.431  1.00  0.00     0.041 A 
ATOM     39  Cl  UNL A   1      46.554  17.615  39.714  1.00  0.00    -0.084 Cl
ENDBRANCH  31  33
ENDBRANCH  26  31
ENDBRANCH  18  19
ENDBRANCH  14  18
ENDBRANCH   8  13
ENDBRANCH   5   7
ENDBRANCH   4   5
ENDBRANCH   3   4
ENDBRANCH   2   3
ENDBRANCH   1   2
BRANCH   1  40
ATOM     40  C   UNL A   1      46.286  19.955  24.691  1.00  0.00     0.188 C 
BRANCH  40  41
ATOM     41  C   UNL A   1      44.976  19.154  24.491  1.00  0.00     0.188 C 
BRANCH  41  42
ATOM     42  O   UNL A   1      43.741  19.754  24.791  1.00  0.00    -0.376 OA
BRANCH  42  43
ATOM     43  C   UNL A   1      42.944  19.074  25.741  1.00  0.00     0.202 C 
BRANCH  43  44
ATOM     44  C   UNL A   1      41.793  19.826  26.463  1.00  0.00     0.261 C 
BRANCH  44  45
ATOM     45  O   UNL A   1      41.903  21.279  26.509  1.00  0.00    -0.460 OA
BRANCH  45  46
ATOM     46  C   UNL A   1      40.745  22.002  26.639  1.00  0.00     0.338 C 
ATOM     47  O   UNL A   1      39.642  21.540  26.881  1.00  0.00    -0.246 OA
BRANCH  46  48
ATOM     48  C   UNL A   1      41.081  23.455  26.860  1.00  0.00     0.060 A 
ATOM     49  C   UNL A   1      42.233  23.924  27.503  1.00  0.00     0.016 A 
ATOM     50  C   UNL A   1      40.047  24.363  26.635  1.00  0.00     0.016 A 
ATOM     51  C   UNL A   1      42.234  25.205  28.134  1.00  0.00     0.010 A 
ATOM     52  C   UNL A   1      40.084  25.633  27.228  1.00  0.00     0.010 A 
ATOM     53  C   UNL A   1      41.096  26.034  28.121  1.00  0.00    -0.014 A 
BRANCH  53  54
ATOM     54  C   UNL A   1      41.074  27.450  28.670  1.00  0.00     0.031 A 
ATOM     55  C   UNL A   1      42.218  28.165  28.069  1.00  0.00     0.074 A 
ATOM     56  C   UNL A   1      40.255  28.152  29.531  1.00  0.00     0.049 A 
ATOM     57  N   UNL A   1      43.300  28.426  28.723  1.00  0.00    -0.248 NA
ATOM     58  C   UNL A   1      42.332  28.355  26.619  1.00  0.00     0.031 C 
ATOM     59  C   UNL A   1      39.198  27.658  30.401  1.00  0.00     0.029 A 
ATOM     60  N   UNL A   1      40.142  29.527  29.801  1.00  0.00    -0.354 N 
ATOM     61  C   UNL A   1      44.125  29.066  27.819  1.00  0.00     0.074 A 
ATOM     62  C   UNL A   1      43.596  28.773  26.515  1.00  0.00     0.031 C 
ATOM     63  C   UNL A   1      38.326  28.630  30.775  1.00  0.00     0.029 A 
ATOM     64  C   UNL A   1      38.903  29.916  30.422  1.00  0.00     0.049 A 
ATOM     65  H   UNL A   1      40.853  30.172  29.583  1.00  0.00     0.167 HD
ATOM     66  C   UNL A   1      44.940  30.057  28.262  1.00  0.00     0.037 A 
ATOM     67  C   UNL A   1      38.533  31.059  31.091  1.00  0.00     0.037 A 
ATOM     68  C   UNL A   1      45.047  30.026  29.702  1.00  0.00     0.049 A 
ATOM     69  C   UNL A   1      39.762  31.733  31.504  1.00  0.00     0.074 A 
ATOM     70  C   UNL A   1      45.705  29.250  30.634  1.00  0.00     0.029 A 
ATOM     71  N   UNL A   1      43.995  30.622  30.347  1.00  0.00    -0.354 N 
ATOM     72  N   UNL A   1      40.471  31.309  32.509  1.00  0.00    -0.248 NA
ATOM     73  C   UNL A   1      40.451  32.582  30.544  1.00  0.00     0.031 C 
ATOM     74  C   UNL A   1      44.936  29.313  31.834  1.00  0.00     0.029 A 
ATOM     75  C   UNL A   1      43.872  30.187  31.639  1.00  0.00     0.049 A 
ATOM     76  H   UNL A   1      43.398  31.286  29.931  1.00  0.00     0.167 HD
ATOM     77  C   UNL A   1      41.766  31.420  32.052  1.00  0.00     0.074 A 
ATOM     78  C   UNL A   1      41.710  32.356  30.929  1.00  0.00     0.031 C 
ATOM     79  C   UNL A   1      42.691  30.483  32.404  1.00  0.00     0.037 A 
BRANCH  66  80
ATOM     80  C   UNL A   1      45.212  31.311  27.472  1.00  0.00     0.064 A 
ATOM     81  C   UNL A   1      46.517  31.575  27.023  1.00  0.00     0.173 A 
ATOM     82  C   UNL A   1      44.304  32.390  27.372  1.00  0.00     0.173 A 
ATOM     83  F   UNL A   1      47.475  30.640  27.127  1.00  0.00    -0.203 F 
ATOM     84  C   UNL A   1      46.885  32.829  26.526  1.00  0.00     0.198 A 
ATOM     85  C   UNL A   1      44.658  33.620  26.824  1.00  0.00     0.198 A 
ATOM     86  F   UNL A   1      43.077  32.344  27.903  1.00  0.00    -0.203 F 
ATOM     87  F   UNL A   1      48.162  33.067  26.199  1.00  0.00    -0.200 F 
ATOM     88  C   UNL A   1      45.953  33.847  26.419  1.00  0.00     0.200 A 
ATOM     89  F   UNL A   1      43.747  34.601  26.767  1.00  0.00    -0.200 F 
ATOM     90  F   UNL A   1      46.312  35.059  25.978  1.00  0.00    -0.200 F 
ENDBRANCH  66  80
BRANCH  67  91
ATOM     91  C   UNL A   1      37.243  31.812  31.137  1.00  0.00     0.064 A 
ATOM     92  C   UNL A   1      36.231  32.112  32.572  1.00  0.00     0.173 A 
ATOM     93  C   UNL A   1      36.855  32.805  29.679  1.00  0.00     0.173 A 
ATOM     94  F   UNL A   1      36.598  31.581  33.748  1.00  0.00    -0.203 F 
ATOM     95  C   UNL A   1      34.857  33.278  32.613  1.00  0.00     0.198 A 
ATOM     96  C   UNL A   1      35.297  34.089  29.733  1.00  0.00     0.198 A 
ATOM     97  F   UNL A   1      37.793  32.567  28.703  1.00  0.00    -0.203 F 
ATOM     98  F   UNL A   1      34.257  33.536  33.788  1.00  0.00    -0.200 F 
ATOM     99  C   UNL A   1      34.359  34.241  31.237  1.00  0.00     0.200 A 
ATOM    100  F   UNL A   1      34.779  34.949  28.791  1.00  0.00    -0.200 F 
ATOM    101  F   UNL A   1      33.382  35.157  31.326  1.00  0.00    -0.200 F 
ENDBRANCH  67  91
BRANCH  79 102
ATOM    102  C   UNL A   1      42.365  29.643  33.601  1.00  0.00     0.064 A 
ATOM    103  C   UNL A   1      41.879  28.328  33.532  1.00  0.00     0.173 A 
ATOM    104  C   UNL A   1      42.594  30.176  34.870  1.00  0.00     0.173 A 
ATOM    105  F   UNL A   1      41.733  27.724  32.351  1.00  0.00    -0.203 F 
ATOM    106  C   UNL A   1      41.584  27.597  34.681  1.00  0.00     0.198 A 
ATOM    107  C   UNL A   1      42.335  29.434  36.020  1.00  0.00     0.198 A 
ATOM    108  F   UNL A   1      43.108  31.409  34.993  1.00  0.00    -0.203 F 
ATOM    109  F   UNL A   1      41.109  26.345  34.585  1.00  0.00    -0.200 F 
ATOM    110  C   UNL A   1      41.815  28.152  35.927  1.00  0.00     0.200 A 
ATOM    111  F   UNL A   1      42.611  29.958  37.221  1.00  0.00    -0.200 F 
ATOM    112  F   UNL A   1      41.568  27.444  37.038  1.00  0.00    -0.200 F 
ENDBRANCH  79 102
ENDBRANCH  53  54
ENDBRANCH  46  48
ENDBRANCH  45  46
ENDBRANCH  44  45
ENDBRANCH  43  44
ENDBRANCH  42  43
ENDBRANCH  41  42
ENDBRANCH  40  41
ENDBRANCH   1  40
TORSDOF 23
ENDMDL
MODEL 2
REMARK VINA RESULT:     -10.3      6.971     14.013
REMARK SMILES COc1ccc2c(c1)c(Cc1nc(-c3ccc(C(=O)OCCOCCOCCOC(=O)c4ccc(-c5c6nc(c(-c7c(F)c(F)c(F)c(F)c7F)c7ccc([nH]7)c(-c7c(F)c(F)c(F)c(F)c7F)c7nc(c(-c8c(F)c(F)c(F)c(F)c8F)c8ccc5[nH]8)C=C7)C=C6)cc4)cc3)cs1)c(C)n2C(=O)c1ccc(Cl)cc1
REMARK SMILES IDX 23 1 22 2 21 3 20 4 18 5 19 6 17 7 14 8 15 9 96 10 16 11
REMARK SMILES IDX 95 12 13 13 11 14 12 15 98 16 97 17 10 18 9 19 3 20 4 21
REMARK SMILES IDX 8 22 5 23 7 24 6 25 101 26 99 27 100 28 2 29 1 30 102 31
REMARK SMILES IDX 103 32 104 33 105 34 110 35 106 36 109 37 107 38 108 39
REMARK SMILES IDX 24 40 25 41 26 42 27 43 28 44 29 45 30 46 31 47 32 48 33 49
REMARK SMILES IDX 94 50 34 51 93 52 35 53 36 54 37 55 87 56 38 57 92 58 86 59
REMARK SMILES IDX 88 60 39 61 91 62 85 63 84 64 40 66 72 67 52 68 71 69 53 70
REMARK SMILES IDX 56 71 70 72 89 73 54 74 55 75 69 77 90 78 57 79 41 80 42 81
REMARK SMILES IDX 50 82 43 83 44 84 48 85 51 86 45 87 46 88 49 89 47 90 73 91
REMARK SMILES IDX 74 92 82 93 75 94 76 95 80 96 83 97 77 98 78 99 81 100
REMARK SMILES IDX 79 101 58 102 59 103 67 104 60 105 61 106 65 107 68 108
REMARK SMILES IDX 62 109 63 110 66 111 64 112
REMARK H PARENT 88 65 56 76
REMARK Flexibility Score: inf
ROOT
ATOM      1  O   UNL A   1      30.052  31.488  24.629  1.00  0.00    -0.376 OA
ENDROOT
BRANCH   1   2
ATOM      2  C   UNL A   1      28.807  31.983  24.167  1.00  0.00     0.202 C 
BRANCH   2   3
ATOM      3  C   UNL A   1      28.710  32.922  22.937  1.00  0.00     0.261 C 
BRANCH   3   4
ATOM      4  O   UNL A   1      29.153  32.372  21.662  1.00  0.00    -0.460 OA
BRANCH   4   5
ATOM      5  C   UNL A   1      28.475  31.277  21.206  1.00  0.00     0.338 C 
ATOM      6  O   UNL A   1      27.622  31.300  20.331  1.00  0.00    -0.246 OA
BRANCH   5   7
ATOM      7  C   UNL A   1      29.018  29.966  21.710  1.00  0.00     0.060 A 
ATOM      8  C   UNL A   1      29.946  27.770  23.335  1.00  0.00     0.001 A 
ATOM      9  C   UNL A   1      28.611  28.103  23.235  1.00  0.00     0.011 A 
ATOM     10  C   UNL A   1      30.829  28.557  22.586  1.00  0.00     0.011 A 
ATOM     11  C   UNL A   1      28.155  29.126  22.405  1.00  0.00     0.016 A 
ATOM     12  C   UNL A   1      30.373  29.664  21.800  1.00  0.00     0.016 A 
BRANCH   8  13
ATOM     13  C   UNL A   1      30.313  26.703  24.277  1.00  0.00     0.081 A 
ATOM     14  C   UNL A   1      31.681  25.470  25.521  1.00  0.00     0.098 A 
ATOM     15  N   UNL A   1      31.618  26.289  24.481  1.00  0.00    -0.241 NA
ATOM     16  S   UNL A   1      30.168  25.039  26.217  1.00  0.00    -0.126 S 
ATOM     17  C   UNL A   1      29.390  26.085  25.112  1.00  0.00     0.095 A 
BRANCH  14  18
ATOM     18  C   UNL A   1      32.948  24.916  26.124  1.00  0.00     0.105 C 
BRANCH  18  19
ATOM     19  C   UNL A   1      33.321  23.572  25.542  1.00  0.00    -0.012 A 
ATOM     20  C   UNL A   1      37.714  22.699  25.921  1.00  0.00     0.119 A 
ATOM     21  C   UNL A   1      37.394  20.830  25.276  1.00  0.00     0.048 A 
ATOM     22  C   UNL A   1      36.244  23.749  26.032  1.00  0.00     0.057 A 
ATOM     23  C   UNL A   1      35.770  20.340  24.809  1.00  0.00     0.031 A 
ATOM     24  C   UNL A   1      34.653  23.081  25.538  1.00  0.00     0.008 A 
ATOM     25  C   UNL A   1      34.451  21.480  24.940  1.00  0.00     0.057 A 
ATOM     26  N   UNL A   1      33.132  21.450  24.469  1.00  0.00    -0.280 N 
ATOM     27  C   UNL A   1      32.485  22.654  24.864  1.00  0.00     0.028 A 
ATOM     28  C   UNL A   1      31.049  22.954  24.514  1.00  0.00     0.065 C 
BRANCH  20  29
ATOM     29  O   UNL A   1      38.743  23.327  26.643  1.00  0.00    -0.497 OA
ATOM     30  C   UNL A   1      39.559  24.350  26.051  1.00  0.00     0.278 C 
ENDBRANCH  20  29
BRANCH  26  31
ATOM     31  C   UNL A   1      32.622  20.375  23.649  1.00  0.00     0.262 C 
ATOM     32  O   UNL A   1      32.241  20.609  22.505  1.00  0.00    -0.268 OA
BRANCH  31  33
ATOM     33  C   UNL A   1      32.606  18.934  24.035  1.00  0.00     0.040 A 
ATOM     34  C   UNL A   1      32.244  18.514  25.326  1.00  0.00     0.015 A 
ATOM     35  C   UNL A   1      33.091  17.999  23.108  1.00  0.00     0.015 A 
ATOM     36  C   UNL A   1      32.529  17.196  25.730  1.00  0.00     0.021 A 
ATOM     37  C   UNL A   1      33.349  16.682  23.509  1.00  0.00     0.021 A 
ATOM     38  C   UNL A   1      33.114  16.300  24.830  1.00  0.00     0.041 A 
ATOM     39  Cl  UNL A   1      33.641  14.755  25.376  1.00  0.00    -0.084 Cl
ENDBRANCH  31  33
ENDBRANCH  26  31
ENDBRANCH  18  19
ENDBRANCH  14  18
ENDBRANCH   8  13
ENDBRANCH   5   7
ENDBRANCH   4   5
ENDBRANCH   3   4
ENDBRANCH   2   3
ENDBRANCH   1   2
BRANCH   1  40
ATOM     40  C   UNL A   1      30.630  32.171  25.713  1.00  0.00     0.188 C 
BRANCH  40  41
ATOM     41  C   UNL A   1      31.702  31.426  26.545  1.00  0.00     0.188 C 
BRANCH  41  42
ATOM     42  O   UNL A   1      32.633  32.162  27.298  1.00  0.00    -0.376 OA
BRANCH  42  43
ATOM     43  C   UNL A   1      33.909  31.569  27.444  1.00  0.00     0.202 C 
BRANCH  43  44
ATOM     44  C   UNL A   1      35.026  32.323  28.214  1.00  0.00     0.261 C 
BRANCH  44  45
ATOM     45  O   UNL A   1      34.890  32.370  29.665  1.00  0.00    -0.460 OA
BRANCH  45  46
ATOM     46  C   UNL A   1      36.035  32.494  30.409  1.00  0.00     0.338 C 
ATOM     47  O   UNL A   1      36.147  33.139  31.438  1.00  0.00    -0.246 OA
BRANCH  46  48
ATOM     48  C   UNL A   1      37.005  31.405  30.026  1.00  0.00     0.060 A 
ATOM     49  C   UNL A   1      36.732  30.032  30.075  1.00  0.00     0.016 A 
ATOM     50  C   UNL A   1      38.333  31.798  29.864  1.00  0.00     0.016 A 
ATOM     51  C   UNL A   1      37.797  29.092  30.221  1.00  0.00     0.010 A 
ATOM     52  C   UNL A   1      39.365  30.854  29.967  1.00  0.00     0.010 A 
ATOM     53  C   UNL A   1      39.140  29.506  30.306  1.00  0.00    -0.014 A 
BRANCH  53  54
ATOM     54  C   UNL A   1      40.320  28.551  30.342  1.00  0.00     0.031 A 
ATOM     55  C   UNL A   1      40.699  28.383  31.760  1.00  0.00     0.074 A 
ATOM     56  C   UNL A   1      41.039  27.849  29.395  1.00  0.00     0.049 A 
ATOM     57  N   UNL A   1      41.738  28.948  32.277  1.00  0.00    -0.248 NA
ATOM     58  C   UNL A   1      39.767  27.822  32.744  1.00  0.00     0.031 C 
ATOM     59  C   UNL A   1      41.016  27.975  27.945  1.00  0.00     0.029 A 
ATOM     60  N   UNL A   1      41.954  26.789  29.513  1.00  0.00    -0.354 N 
ATOM     61  C   UNL A   1      41.729  28.576  33.607  1.00  0.00     0.074 A 
ATOM     62  C   UNL A   1      40.397  28.112  33.886  1.00  0.00     0.031 C 
ATOM     63  C   UNL A   1      41.500  26.875  27.313  1.00  0.00     0.029 A 
ATOM     64  C   UNL A   1      42.163  26.041  28.301  1.00  0.00     0.049 A 
ATOM     65  H   UNL A   1      42.415  26.576  30.356  1.00  0.00     0.167 HD
ATOM     66  C   UNL A   1      42.912  28.357  34.235  1.00  0.00     0.037 A 
ATOM     67  C   UNL A   1      43.151  25.160  27.928  1.00  0.00     0.037 A 
ATOM     68  C   UNL A   1      44.008  28.902  33.467  1.00  0.00     0.049 A 
ATOM     69  C   UNL A   1      44.294  25.396  28.807  1.00  0.00     0.074 A 
ATOM     70  C   UNL A   1      44.522  30.159  33.224  1.00  0.00     0.029 A 
ATOM     71  N   UNL A   1      44.419  28.094  32.440  1.00  0.00    -0.354 N 
ATOM     72  N   UNL A   1      45.076  26.424  28.652  1.00  0.00    -0.248 NA
ATOM     73  C   UNL A   1      44.307  24.770  30.120  1.00  0.00     0.031 C 
ATOM     74  C   UNL A   1      45.160  30.098  31.949  1.00  0.00     0.029 A 
ATOM     75  C   UNL A   1      45.094  28.793  31.477  1.00  0.00     0.049 A 
ATOM     76  H   UNL A   1      44.250  27.125  32.400  1.00  0.00     0.167 HD
ATOM     77  C   UNL A   1      45.286  26.859  29.943  1.00  0.00     0.074 A 
ATOM     78  C   UNL A   1      44.945  25.725  30.803  1.00  0.00     0.031 C 
ATOM     79  C   UNL A   1      45.381  28.194  30.200  1.00  0.00     0.037 A 
BRANCH  66  80
ATOM     80  C   UNL A   1      43.117  27.249  35.235  1.00  0.00     0.064 A 
ATOM     81  C   UNL A   1      43.507  27.567  36.547  1.00  0.00     0.173 A 
ATOM     82  C   UNL A   1      43.210  25.881  34.887  1.00  0.00     0.173 A 
ATOM     83  F   UNL A   1      43.515  28.842  36.965  1.00  0.00    -0.203 F 
ATOM     84  C   UNL A   1      43.968  26.590  37.436  1.00  0.00     0.198 A 
ATOM     85  C   UNL A   1      43.616  24.903  35.791  1.00  0.00     0.198 A 
ATOM     86  F   UNL A   1      43.030  25.448  33.634  1.00  0.00    -0.203 F 
ATOM     87  F   UNL A   1      44.420  26.950  38.644  1.00  0.00    -0.200 F 
ATOM     88  C   UNL A   1      44.013  25.259  37.060  1.00  0.00     0.200 A 
ATOM     89  F   UNL A   1      43.687  23.626  35.390  1.00  0.00    -0.200 F 
ATOM     90  F   UNL A   1      44.489  24.327  37.896  1.00  0.00    -0.200 F 
ENDBRANCH  66  80
BRANCH  67  91
ATOM     91  C   UNL A   1      43.113  23.911  27.109  1.00  0.00     0.064 A 
ATOM     92  C   UNL A   1      43.998  23.597  25.595  1.00  0.00     0.173 A 
ATOM     93  C   UNL A   1      42.383  22.464  27.907  1.00  0.00     0.173 A 
ATOM     94  F   UNL A   1      44.750  24.575  25.068  1.00  0.00    -0.203 F 
ATOM     95  C   UNL A   1      44.145  21.973  24.828  1.00  0.00     0.198 A 
ATOM     96  C   UNL A   1      42.535  20.655  27.023  1.00  0.00     0.198 A 
ATOM     97  F   UNL A   1      41.855  22.833  29.121  1.00  0.00    -0.203 F 
ATOM     98  F   UNL A   1      44.960  21.823  23.770  1.00  0.00    -0.200 F 
ATOM     99  C   UNL A   1      43.422  20.519  25.486  1.00  0.00     0.200 A 
ATOM    100  F   UNL A   1      42.082  19.409  27.392  1.00  0.00    -0.200 F 
ATOM    101  F   UNL A   1      43.618  19.313  24.932  1.00  0.00    -0.200 F 
ENDBRANCH  67  91
BRANCH  79 102
ATOM    102  C   UNL A   1      45.686  29.078  29.030  1.00  0.00     0.064 A 
ATOM    103  C   UNL A   1      46.950  29.181  28.428  1.00  0.00     0.173 A 
ATOM    104  C   UNL A   1      44.646  29.820  28.469  1.00  0.00     0.173 A 
ATOM    105  F   UNL A   1      47.962  28.423  28.852  1.00  0.00    -0.203 F 
ATOM    106  C   UNL A   1      47.177  30.030  27.346  1.00  0.00     0.198 A 
ATOM    107  C   UNL A   1      44.862  30.641  27.365  1.00  0.00     0.198 A 
ATOM    108  F   UNL A   1      43.407  29.719  28.972  1.00  0.00    -0.203 F 
ATOM    109  F   UNL A   1      48.398  30.117  26.797  1.00  0.00    -0.200 F 
ATOM    110  C   UNL A   1      46.129  30.759  26.813  1.00  0.00     0.200 A 
ATOM    111  F   UNL A   1      43.832  31.303  26.822  1.00  0.00    -0.200 F 
ATOM    112  F   UNL A   1      46.328  31.551  25.750  1.00  0.00    -0.200 F 
ENDBRANCH  79 102
ENDBRANCH  53  54
ENDBRANCH  46  48
ENDBRANCH  45  46
ENDBRANCH  44  45
ENDBRANCH  43  44
ENDBRANCH  42  43
ENDBRANCH  41  42
ENDBRANCH  40  41
ENDBRANCH   1  40
TORSDOF 23
ENDMDL
MODEL 3
REMARK VINA RESULT:     -10.0      6.978     13.280
REMARK SMILES COc1ccc2c(c1)c(Cc1nc(-c3ccc(C(=O)OCCOCCOCCOC(=O)c4ccc(-c5c6nc(c(-c7c(F)c(F)c(F)c(F)c7F)c7ccc([nH]7)c(-c7c(F)c(F)c(F)c(F)c7F)c7nc(c(-c8c(F)c(F)c(F)c(F)c8F)c8ccc5[nH]8)C=C7)C=C6)cc4)cc3)cs1)c(C)n2C(=O)c1ccc(Cl)cc1
REMARK SMILES IDX 23 1 22 2 21 3 20 4 18 5 19 6 17 7 14 8 15 9 96 10 16 11
REMARK SMILES IDX 95 12 13 13 11 14 12 15 98 16 97 17 10 18 9 19 3 20 4 21
REMARK SMILES IDX 8 22 5 23 7 24 6 25 101 26 99 27 100 28 2 29 1 30 102 31
REMARK SMILES IDX 103 32 104 33 105 34 110 35 106 36 109 37 107 38 108 39
REMARK SMILES IDX 24 40 25 41 26 42 27 43 28 44 29 45 30 46 31 47 32 48 33 49
REMARK SMILES IDX 94 50 34 51 93 52 35 53 36 54 37 55 87 56 38 57 92 58 86 59
REMARK SMILES IDX 88 60 39 61 91 62 85 63 84 64 40 66 72 67 52 68 71 69 53 70
REMARK SMILES IDX 56 71 70 72 89 73 54 74 55 75 69 77 90 78 57 79 41 80 42 81
REMARK SMILES IDX 50 82 43 83 44 84 48 85 51 86 45 87 46 88 49 89 47 90 73 91
REMARK SMILES IDX 74 92 82 93 75 94 76 95 80 96 83 97 77 98 78 99 81 100
REMARK SMILES IDX 79 101 58 102 59 103 67 104 60 105 61 106 65 107 68 108
REMARK SMILES IDX 62 109 63 110 66 111 64 112
REMARK H PARENT 88 65 56 76
REMARK Flexibility Score: inf
ROOT
ATOM      1  O   UNL A   1      29.905  31.248  24.593  1.00  0.00    -0.376 OA
ENDROOT
BRANCH   1   2
ATOM      2  C   UNL A   1      28.788  32.020  24.188  1.00  0.00     0.202 C 
BRANCH   2   3
ATOM      3  C   UNL A   1      28.781  32.803  22.850  1.00  0.00     0.261 C 
BRANCH   3   4
ATOM      4  O   UNL A   1      29.274  32.090  21.677  1.00  0.00    -0.460 OA
BRANCH   4   5
ATOM      5  C   UNL A   1      28.558  30.992  21.291  1.00  0.00     0.338 C 
ATOM      6  O   UNL A   1      27.674  30.998  20.446  1.00  0.00    -0.246 OA
BRANCH   5   7
ATOM      7  C   UNL A   1      29.093  29.691  21.828  1.00  0.00     0.060 A 
ATOM      8  C   UNL A   1      29.994  27.527  23.510  1.00  0.00     0.001 A 
ATOM      9  C   UNL A   1      28.661  27.856  23.381  1.00  0.00     0.011 A 
ATOM     10  C   UNL A   1      30.889  28.301  22.762  1.00  0.00     0.011 A 
ATOM     11  C   UNL A   1      28.219  28.864  22.524  1.00  0.00     0.016 A 
ATOM     12  C   UNL A   1      30.446  29.393  21.948  1.00  0.00     0.016 A 
BRANCH   8  13
ATOM     13  C   UNL A   1      30.345  26.478  24.478  1.00  0.00     0.081 A 
ATOM     14  C   UNL A   1      31.689  25.286  25.787  1.00  0.00     0.098 A 
ATOM     15  N   UNL A   1      31.650  26.092  24.736  1.00  0.00    -0.241 NA
ATOM     16  S   UNL A   1      30.159  24.833  26.432  1.00  0.00    -0.126 S 
ATOM     17  C   UNL A   1      29.403  25.852  25.286  1.00  0.00     0.095 A 
BRANCH  14  18
ATOM     18  C   UNL A   1      32.943  24.764  26.445  1.00  0.00     0.105 C 
BRANCH  18  19
ATOM     19  C   UNL A   1      33.425  23.475  25.818  1.00  0.00    -0.012 A 
ATOM     20  C   UNL A   1      37.908  23.150  25.802  1.00  0.00     0.119 A 
ATOM     21  C   UNL A   1      37.764  21.256  25.168  1.00  0.00     0.048 A 
ATOM     22  C   UNL A   1      36.335  24.011  26.053  1.00  0.00     0.057 A 
ATOM     23  C   UNL A   1      36.178  20.570  24.840  1.00  0.00     0.031 A 
ATOM     24  C   UNL A   1      34.801  23.152  25.692  1.00  0.00     0.008 A 
ATOM     25  C   UNL A   1      34.746  21.538  25.098  1.00  0.00     0.057 A 
ATOM     26  N   UNL A   1      33.404  21.346  24.743  1.00  0.00    -0.280 N 
ATOM     27  C   UNL A   1      32.651  22.462  25.206  1.00  0.00     0.028 A 
ATOM     28  C   UNL A   1      31.164  22.582  24.987  1.00  0.00     0.065 C 
BRANCH  20  29
ATOM     29  O   UNL A   1      38.912  23.901  26.438  1.00  0.00    -0.497 OA
ATOM     30  C   UNL A   1      40.154  23.304  26.842  1.00  0.00     0.278 C 
ENDBRANCH  20  29
BRANCH  26  31
ATOM     31  C   UNL A   1      32.960  20.216  23.960  1.00  0.00     0.262 C 
ATOM     32  O   UNL A   1      32.472  20.399  22.848  1.00  0.00    -0.268 OA
BRANCH  31  33
ATOM     33  C   UNL A   1      33.134  18.784  24.342  1.00  0.00     0.040 A 
ATOM     34  C   UNL A   1      33.489  17.802  23.402  1.00  0.00     0.015 A 
ATOM     35  C   UNL A   1      32.809  18.409  25.654  1.00  0.00     0.015 A 
ATOM     36  C   UNL A   1      33.350  16.442  23.738  1.00  0.00     0.021 A 
ATOM     37  C   UNL A   1      32.696  17.054  25.989  1.00  0.00     0.021 A 
ATOM     38  C   UNL A   1      32.919  16.078  25.017  1.00  0.00     0.041 A 
ATOM     39  Cl  UNL A   1      32.561  14.431  25.368  1.00  0.00    -0.084 Cl
ENDBRANCH  31  33
ENDBRANCH  26  31
ENDBRANCH  18  19
ENDBRANCH  14  18
ENDBRANCH   8  13
ENDBRANCH   5   7
ENDBRANCH   4   5
ENDBRANCH   3   4
ENDBRANCH   2   3
ENDBRANCH   1   2
BRANCH   1  40
ATOM     40  C   UNL A   1      30.709  31.798  25.605  1.00  0.00     0.188 C 
BRANCH  40  41
ATOM     41  C   UNL A   1      31.725  30.864  26.307  1.00  0.00     0.188 C 
BRANCH  41  42
ATOM     42  O   UNL A   1      32.677  31.407  27.187  1.00  0.00    -0.376 OA
BRANCH  42  43
ATOM     43  C   UNL A   1      33.901  30.704  27.277  1.00  0.00     0.202 C 
BRANCH  43  44
ATOM     44  C   UNL A   1      34.954  31.121  28.339  1.00  0.00     0.261 C 
BRANCH  44  45
ATOM     45  O   UNL A   1      35.779  30.049  28.882  1.00  0.00    -0.460 OA
BRANCH  45  46
ATOM     46  C   UNL A   1      36.696  30.378  29.846  1.00  0.00     0.338 C 
ATOM     47  O   UNL A   1      36.436  30.758  30.976  1.00  0.00    -0.246 OA
BRANCH  46  48
ATOM     48  C   UNL A   1      38.043  29.812  29.473  1.00  0.00     0.060 A 
ATOM     49  C   UNL A   1      38.333  28.449  29.338  1.00  0.00     0.016 A 
ATOM     50  C   UNL A   1      39.116  30.702  29.526  1.00  0.00     0.016 A 
ATOM     51  C   UNL A   1      39.668  27.976  29.514  1.00  0.00     0.010 A 
ATOM     52  C   UNL A   1      40.426  30.219  29.656  1.00  0.00     0.010 A 
ATOM     53  C   UNL A   1      40.728  28.853  29.815  1.00  0.00    -0.014 A 
BRANCH  53  54
ATOM     54  C   UNL A   1      42.183  28.426  29.896  1.00  0.00     0.031 A 
ATOM     55  C   UNL A   1      42.427  27.504  28.769  1.00  0.00     0.074 A 
ATOM     56  C   UNL A   1      43.243  28.718  30.731  1.00  0.00     0.049 A 
ATOM     57  N   UNL A   1      42.528  26.225  28.922  1.00  0.00    -0.248 NA
ATOM     58  C   UNL A   1      42.267  27.932  27.375  1.00  0.00     0.031 C 
ATOM     59  C   UNL A   1      43.241  29.421  32.006  1.00  0.00     0.029 A 
ATOM     60  N   UNL A   1      44.623  28.489  30.604  1.00  0.00    -0.354 N 
ATOM     61  C   UNL A   1      42.721  25.723  27.650  1.00  0.00     0.074 A 
ATOM     62  C   UNL A   1      42.307  26.757  26.741  1.00  0.00     0.031 C 
ATOM     63  C   UNL A   1      44.464  29.906  32.342  1.00  0.00     0.029 A 
ATOM     64  C   UNL A   1      45.447  29.308  31.455  1.00  0.00     0.049 A 
ATOM     65  H   UNL A   1      44.997  27.823  29.984  1.00  0.00     0.167 HD
ATOM     66  C   UNL A   1      43.534  24.648  27.485  1.00  0.00     0.037 A 
ATOM     67  C   UNL A   1      46.763  29.194  31.839  1.00  0.00     0.037 A 
ATOM     68  C   UNL A   1      43.784  23.997  28.751  1.00  0.00     0.049 A 
ATOM     69  C   UNL A   1      47.163  27.809  31.606  1.00  0.00     0.074 A 
ATOM     70  C   UNL A   1      43.079  23.168  29.598  1.00  0.00     0.029 A 
ATOM     71  N   UNL A   1      44.759  24.603  29.500  1.00  0.00    -0.354 N 
ATOM     72  N   UNL A   1      46.791  26.846  32.399  1.00  0.00    -0.248 NA
ATOM     73  C   UNL A   1      47.576  27.416  30.267  1.00  0.00     0.031 C 
ATOM     74  C   UNL A   1      43.597  23.389  30.909  1.00  0.00     0.029 A 
ATOM     75  C   UNL A   1      44.656  24.285  30.827  1.00  0.00     0.049 A 
ATOM     76  H   UNL A   1      45.451  25.195  29.128  1.00  0.00     0.167 HD
ATOM     77  C   UNL A   1      46.459  25.831  31.528  1.00  0.00     0.074 A 
ATOM     78  C   UNL A   1      47.115  26.162  30.264  1.00  0.00     0.031 C 
ATOM     79  C   UNL A   1      45.409  25.010  31.816  1.00  0.00     0.037 A 
BRANCH  66  80
ATOM     80  C   UNL A   1      44.474  24.501  26.317  1.00  0.00     0.064 A 
ATOM     81  C   UNL A   1      44.398  23.354  25.510  1.00  0.00     0.173 A 
ATOM     82  C   UNL A   1      45.619  25.307  26.122  1.00  0.00     0.173 A 
ATOM     83  F   UNL A   1      43.383  22.486  25.653  1.00  0.00    -0.203 F 
ATOM     84  C   UNL A   1      45.400  23.033  24.589  1.00  0.00     0.198 A 
ATOM     85  C   UNL A   1      46.587  25.016  25.165  1.00  0.00     0.198 A 
ATOM     86  F   UNL A   1      45.912  26.339  26.922  1.00  0.00    -0.203 F 
ATOM     87  F   UNL A   1      45.335  21.881  23.909  1.00  0.00    -0.200 F 
ATOM     88  C   UNL A   1      46.489  23.869  24.412  1.00  0.00     0.200 A 
ATOM     89  F   UNL A   1      47.651  25.822  25.040  1.00  0.00    -0.200 F 
ATOM     90  F   UNL A   1      47.468  23.546  23.557  1.00  0.00    -0.200 F 
ENDBRANCH  66  80
BRANCH  67  91
ATOM     91  C   UNL A   1      47.820  30.222  32.084  1.00  0.00     0.064 A 
ATOM     92  C   UNL A   1      48.728  30.483  33.594  1.00  0.00     0.173 A 
ATOM     93  C   UNL A   1      48.484  31.038  30.616  1.00  0.00     0.173 A 
ATOM     94  F   UNL A   1      48.430  29.737  34.669  1.00  0.00    -0.203 F 
ATOM     95  C   UNL A   1      50.192  31.527  33.726  1.00  0.00     0.198 A 
ATOM     96  C   UNL A   1      50.109  32.225  30.784  1.00  0.00     0.198 A 
ATOM     97  F   UNL A   1      47.768  30.641  29.512  1.00  0.00    -0.203 F 
ATOM     98  F   UNL A   1      50.885  31.534  34.877  1.00  0.00    -0.200 F 
ATOM     99  C   UNL A   1      50.878  32.412  32.378  1.00  0.00     0.200 A 
ATOM    100  F   UNL A   1      50.813  32.960  29.857  1.00  0.00    -0.200 F 
ATOM    101  F   UNL A   1      52.013  33.117  32.494  1.00  0.00    -0.200 F 
ENDBRANCH  67  91
BRANCH  79 102
ATOM    102  C   UNL A   1      44.959  24.980  33.244  1.00  0.00     0.064 A 
ATOM    103  C   UNL A   1      45.600  24.250  34.258  1.00  0.00     0.173 A 
ATOM    104  C   UNL A   1      43.857  25.753  33.610  1.00  0.00     0.173 A 
ATOM    105  F   UNL A   1      46.718  23.571  33.995  1.00  0.00    -0.203 F 
ATOM    106  C   UNL A   1      45.129  24.253  35.570  1.00  0.00     0.198 A 
ATOM    107  C   UNL A   1      43.405  25.786  34.928  1.00  0.00     0.198 A 
ATOM    108  F   UNL A   1      43.238  26.510  32.692  1.00  0.00    -0.203 F 
ATOM    109  F   UNL A   1      45.756  23.538  36.516  1.00  0.00    -0.200 F 
ATOM    110  C   UNL A   1      44.030  25.024  35.904  1.00  0.00     0.200 A 
ATOM    111  F   UNL A   1      42.374  26.576  35.254  1.00  0.00    -0.200 F 
ATOM    112  F   UNL A   1      43.590  25.061  37.169  1.00  0.00    -0.200 F 
ENDBRANCH  79 102
ENDBRANCH  53  54
ENDBRANCH  46  48
ENDBRANCH  45  46
ENDBRANCH  44  45
ENDBRANCH  43  44
ENDBRANCH  42  43
ENDBRANCH  41  42
ENDBRANCH  40  41
ENDBRANCH   1  40
TORSDOF 23
ENDMDL
