MODEL 1
REMARK VINA RESULT:     -12.8      0.000      0.000
REMARK SMILES Cc1ccccc1C(=O)Nc1cc(NC(=O)c2ccccc2C)cc(C(=O)OCCOCCOCCOC(=O)c2ccc(-c3c4nc(c(-c5c(F)c(F)c(F)c(F)c5F)c5ccc([nH]5)c(-c5c(F)c(F)c(F)c(F)c5F)c5nc(c(-c6c(F)c(F)c(F)c(F)c6F)c6ccc3[nH]6)C=C5)C=C4)cc2)c1
REMARK SMILES IDX 32 1 31 2 30 3 29 4 28 5 26 6 27 7 25 8 11 9 12 10 103 11
REMARK SMILES IDX 13 12 24 13 10 14 8 15 9 16 7 18 1 19 2 20 3 21 4 22 6 23
REMARK SMILES IDX 5 24 14 25 15 26 16 28 17 29 18 30 22 31 19 32 21 33 23 34
REMARK SMILES IDX 20 35 33 36 34 37 35 38 36 39 37 40 38 41 39 42 40 43 41 44
REMARK SMILES IDX 102 45 42 46 101 47 43 48 44 49 45 50 95 51 46 52 100 53
REMARK SMILES IDX 94 54 96 55 47 56 99 57 93 58 92 59 48 61 80 62 60 63 79 64
REMARK SMILES IDX 61 65 64 66 78 67 97 68 62 69 63 70 77 72 98 73 65 74 49 75
REMARK SMILES IDX 50 76 58 77 51 78 52 79 56 80 59 81 53 82 54 83 57 84 55 85
REMARK SMILES IDX 81 86 82 87 90 88 83 89 84 90 88 91 91 92 85 93 86 94 89 95
REMARK SMILES IDX 87 96 66 97 67 98 75 99 68 100 69 101 73 102 76 103 70 104
REMARK SMILES IDX 71 105 74 106 72 107
REMARK H PARENT 10 17 14 27 96 60 64 71
REMARK Flexibility Score: inf
ROOT
ATOM      1  C   UNL A   1      34.063  34.059  28.176  1.00  0.00     0.188 C 
ENDROOT
BRANCH   1   2
ATOM      2  O   UNL A   1      33.285  33.005  27.567  1.00  0.00    -0.376 OA
BRANCH   2   3
ATOM      3  C   UNL A   1      33.635  31.619  27.572  1.00  0.00     0.202 C 
BRANCH   3   4
ATOM      4  C   UNL A   1      32.680  30.338  27.033  1.00  0.00     0.261 C 
BRANCH   4   5
ATOM      5  O   UNL A   1      32.670  28.627  27.358  1.00  0.00    -0.460 OA
BRANCH   5   6
ATOM      6  C   UNL A   1      32.725  27.381  26.655  1.00  0.00     0.338 C 
ATOM      7  O   UNL A   1      31.958  26.418  26.700  1.00  0.00    -0.246 OA
BRANCH   6   8
ATOM      8  C   UNL A   1      33.714  26.899  25.685  1.00  0.00     0.064 A 
ATOM      9  C   UNL A   1      33.750  26.033  23.339  1.00  0.00     0.044 A 
ATOM     10  C   UNL A   1      34.543  24.985  23.782  1.00  0.00     0.052 A 
ATOM     11  C   UNL A   1      33.405  27.023  24.279  1.00  0.00     0.042 A 
ATOM     12  C   UNL A   1      34.870  24.881  25.147  1.00  0.00     0.044 A 
ATOM     13  C   UNL A   1      34.389  25.773  26.103  1.00  0.00     0.042 A 
BRANCH   9  14
ATOM     14  N   UNL A   1      33.249  26.135  22.015  1.00  0.00    -0.322 N 
ATOM     15  C   UNL A   1      31.955  26.168  21.515  1.00  0.00     0.255 C 
ATOM     16  O   UNL A   1      31.759  25.990  20.311  1.00  0.00    -0.269 OA
ATOM     17  H   UNL A   1      33.948  26.195  21.326  1.00  0.00     0.170 HD
BRANCH  15  18
ATOM     18  C   UNL A   1      30.784  26.503  22.368  1.00  0.00     0.043 A 
ATOM     19  C   UNL A   1      30.721  24.200  23.492  1.00  0.00     0.045 C 
ATOM     20  C   UNL A   1      30.169  25.574  23.227  1.00  0.00    -0.038 A 
ATOM     21  C   UNL A   1      28.992  25.952  23.898  1.00  0.00     0.004 A 
ATOM     22  C   UNL A   1      28.508  27.259  23.817  1.00  0.00     0.000 A 
ATOM     23  C   UNL A   1      30.339  27.837  22.357  1.00  0.00     0.014 A 
ATOM     24  C   UNL A   1      29.206  28.212  23.082  1.00  0.00     0.001 A 
ENDBRANCH  15  18
ENDBRANCH   9  14
BRANCH  12  25
ATOM     25  N   UNL A   1      35.738  23.917  25.649  1.00  0.00    -0.322 N 
ATOM     26  C   UNL A   1      35.504  22.574  25.799  1.00  0.00     0.255 C 
ATOM     27  H   UNL A   1      36.626  24.237  25.931  1.00  0.00     0.170 HD
ATOM     28  O   UNL A   1      36.406  21.855  26.226  1.00  0.00    -0.269 OA
BRANCH  26  29
ATOM     29  C   UNL A   1      34.201  21.967  25.429  1.00  0.00     0.043 A 
ATOM     30  C   UNL A   1      34.212  21.308  24.191  1.00  0.00     0.014 A 
ATOM     31  C   UNL A   1      33.012  22.029  26.190  1.00  0.00    -0.038 A 
ATOM     32  C   UNL A   1      33.068  20.677  23.715  1.00  0.00     0.001 A 
ATOM     33  C   UNL A   1      31.878  21.354  25.704  1.00  0.00     0.004 A 
ATOM     34  C   UNL A   1      32.854  22.745  27.503  1.00  0.00     0.045 C 
ATOM     35  C   UNL A   1      31.905  20.690  24.477  1.00  0.00     0.000 A 
ENDBRANCH  26  29
ENDBRANCH  12  25
ENDBRANCH   6   8
ENDBRANCH   5   6
ENDBRANCH   4   5
ENDBRANCH   3   4
ENDBRANCH   2   3
ENDBRANCH   1   2
BRANCH   1  36
ATOM     36  C   UNL A   1      33.426  35.205  28.958  1.00  0.00     0.188 C 
BRANCH  36  37
ATOM     37  O   UNL A   1      33.048  34.739  30.236  1.00  0.00    -0.376 OA
BRANCH  37  38
ATOM     38  C   UNL A   1      33.558  35.463  31.338  1.00  0.00     0.202 C 
BRANCH  38  39
ATOM     39  C   UNL A   1      34.540  34.616  32.163  1.00  0.00     0.261 C 
BRANCH  39  40
ATOM     40  O   UNL A   1      35.077  33.533  31.357  1.00  0.00    -0.460 OA
BRANCH  40  41
ATOM     41  C   UNL A   1      35.573  32.427  32.008  1.00  0.00     0.338 C 
ATOM     42  O   UNL A   1      35.761  32.358  33.213  1.00  0.00    -0.246 OA
BRANCH  41  43
ATOM     43  C   UNL A   1      36.098  31.426  31.009  1.00  0.00     0.060 A 
ATOM     44  C   UNL A   1      36.295  30.051  31.223  1.00  0.00     0.016 A 
ATOM     45  C   UNL A   1      36.832  31.952  30.009  1.00  0.00     0.016 A 
ATOM     46  C   UNL A   1      37.384  29.307  30.569  1.00  0.00     0.010 A 
ATOM     47  C   UNL A   1      38.033  31.286  29.781  1.00  0.00     0.010 A 
ATOM     48  C   UNL A   1      38.412  29.930  29.851  1.00  0.00    -0.014 A 
BRANCH  48  49
ATOM     49  C   UNL A   1      39.893  29.268  29.387  1.00  0.00     0.031 A 
ATOM     50  C   UNL A   1      40.402  27.747  28.751  1.00  0.00     0.074 A 
ATOM     51  C   UNL A   1      40.970  30.038  29.664  1.00  0.00     0.049 A 
ATOM     52  N   UNL A   1      41.439  27.048  29.196  1.00  0.00    -0.248 NA
ATOM     53  C   UNL A   1      39.729  26.846  27.747  1.00  0.00     0.031 C 
ATOM     54  C   UNL A   1      42.362  29.799  29.295  1.00  0.00     0.029 A 
ATOM     55  N   UNL A   1      41.023  31.191  30.463  1.00  0.00    -0.354 N 
ATOM     56  C   UNL A   1      41.507  25.812  28.509  1.00  0.00     0.074 A 
ATOM     57  C   UNL A   1      40.319  25.674  27.787  1.00  0.00     0.031 C 
ATOM     58  C   UNL A   1      43.146  30.539  30.095  1.00  0.00     0.029 A 
ATOM     59  C   UNL A   1      42.284  31.178  31.074  1.00  0.00     0.049 A 
ATOM     60  H   UNL A   1      40.320  31.871  30.570  1.00  0.00     0.167 HD
ATOM     61  C   UNL A   1      42.592  25.000  28.377  1.00  0.00     0.037 A 
ATOM     62  C   UNL A   1      42.410  31.121  32.429  1.00  0.00     0.037 A 
ATOM     63  C   UNL A   1      43.690  25.605  29.060  1.00  0.00     0.049 A 
ATOM     64  C   UNL A   1      43.232  29.941  32.886  1.00  0.00     0.074 A 
ATOM     65  C   UNL A   1      44.613  26.547  28.647  1.00  0.00     0.029 A 
ATOM     66  N   UNL A   1      43.651  25.635  30.437  1.00  0.00    -0.354 N 
ATOM     67  N   UNL A   1      43.506  28.910  32.133  1.00  0.00    -0.248 NA
ATOM     68  C   UNL A   1      43.798  29.817  34.225  1.00  0.00     0.031 C 
ATOM     69  C   UNL A   1      45.068  27.223  29.806  1.00  0.00     0.029 A 
ATOM     70  C   UNL A   1      44.473  26.633  30.908  1.00  0.00     0.049 A 
ATOM     71  H   UNL A   1      43.115  25.031  31.000  1.00  0.00     0.167 HD
ATOM     72  C   UNL A   1      44.231  28.001  32.853  1.00  0.00     0.074 A 
ATOM     73  C   UNL A   1      44.405  28.620  34.150  1.00  0.00     0.031 C 
ATOM     74  C   UNL A   1      44.613  26.800  32.336  1.00  0.00     0.037 A 
BRANCH  61  75
ATOM     75  C   UNL A   1      42.680  23.923  27.287  1.00  0.00     0.064 A 
ATOM     76  C   UNL A   1      42.377  22.583  27.587  1.00  0.00     0.173 A 
ATOM     77  C   UNL A   1      43.174  24.125  25.976  1.00  0.00     0.173 A 
ATOM     78  F   UNL A   1      41.758  22.255  28.727  1.00  0.00    -0.203 F 
ATOM     79  C   UNL A   1      42.713  21.526  26.729  1.00  0.00     0.198 A 
ATOM     80  C   UNL A   1      43.599  23.068  25.158  1.00  0.00     0.198 A 
ATOM     81  F   UNL A   1      43.249  25.355  25.444  1.00  0.00    -0.203 F 
ATOM     82  F   UNL A   1      42.404  20.268  27.072  1.00  0.00    -0.200 F 
ATOM     83  C   UNL A   1      43.383  21.763  25.545  1.00  0.00     0.200 A 
ATOM     84  F   UNL A   1      44.237  23.324  24.005  1.00  0.00    -0.200 F 
ATOM     85  F   UNL A   1      43.787  20.746  24.771  1.00  0.00    -0.200 F 
ENDBRANCH  61  75
BRANCH  62  86
ATOM     86  C   UNL A   1      41.299  31.783  33.176  1.00  0.00     0.064 A 
ATOM     87  C   UNL A   1      40.187  30.992  33.549  1.00  0.00     0.173 A 
ATOM     88  C   UNL A   1      41.425  33.029  33.802  1.00  0.00     0.173 A 
ATOM     89  F   UNL A   1      40.007  29.784  32.990  1.00  0.00    -0.203 F 
ATOM     90  C   UNL A   1      39.322  31.370  34.575  1.00  0.00     0.198 A 
ATOM     91  C   UNL A   1      40.538  33.419  34.818  1.00  0.00     0.198 A 
ATOM     92  F   UNL A   1      42.483  33.813  33.547  1.00  0.00    -0.203 F 
ATOM     93  F   UNL A   1      38.372  30.522  34.996  1.00  0.00    -0.200 F 
ATOM     94  C   UNL A   1      39.508  32.578  35.219  1.00  0.00     0.200 A 
ATOM     95  F   UNL A   1      40.769  34.544  35.511  1.00  0.00    -0.200 F 
ATOM     96  F   UNL A   1      38.754  32.892  36.283  1.00  0.00    -0.200 F 
ENDBRANCH  62  86
BRANCH  74  97
ATOM     97  C   UNL A   1      45.159  25.634  33.114  1.00  0.00     0.064 A 
ATOM     98  C   UNL A   1      46.522  25.315  33.160  1.00  0.00     0.173 A 
ATOM     99  C   UNL A   1      44.325  24.940  34.025  1.00  0.00     0.173 A 
ATOM    100  F   UNL A   1      47.417  25.981  32.417  1.00  0.00    -0.203 F 
ATOM    101  C   UNL A   1      47.013  24.341  34.030  1.00  0.00     0.198 A 
ATOM    102  C   UNL A   1      44.829  24.021  34.939  1.00  0.00     0.198 A 
ATOM    103  F   UNL A   1      43.003  25.172  34.083  1.00  0.00    -0.203 F 
ATOM    104  F   UNL A   1      48.319  24.043  34.018  1.00  0.00    -0.200 F 
ATOM    105  C   UNL A   1      46.172  23.712  34.932  1.00  0.00     0.200 A 
ATOM    106  F   UNL A   1      44.014  23.466  35.847  1.00  0.00    -0.200 F 
ATOM    107  F   UNL A   1      46.662  22.823  35.807  1.00  0.00    -0.200 F 
ENDBRANCH  74  97
ENDBRANCH  48  49
ENDBRANCH  41  43
ENDBRANCH  40  41
ENDBRANCH  39  40
ENDBRANCH  38  39
ENDBRANCH  37  38
ENDBRANCH  36  37
ENDBRANCH   1  36
TORSDOF 21
ENDMDL
MODEL 2
REMARK VINA RESULT:     -12.6      2.378      4.078
REMARK SMILES Cc1ccccc1C(=O)Nc1cc(NC(=O)c2ccccc2C)cc(C(=O)OCCOCCOCCOC(=O)c2ccc(-c3c4nc(c(-c5c(F)c(F)c(F)c(F)c5F)c5ccc([nH]5)c(-c5c(F)c(F)c(F)c(F)c5F)c5nc(c(-c6c(F)c(F)c(F)c(F)c6F)c6ccc3[nH]6)C=C5)C=C4)cc2)c1
REMARK SMILES IDX 32 1 31 2 30 3 29 4 28 5 26 6 27 7 25 8 11 9 12 10 103 11
REMARK SMILES IDX 13 12 24 13 10 14 8 15 9 16 7 18 1 19 2 20 3 21 4 22 6 23
REMARK SMILES IDX 5 24 14 25 15 26 16 28 17 29 18 30 22 31 19 32 21 33 23 34
REMARK SMILES IDX 20 35 33 36 34 37 35 38 36 39 37 40 38 41 39 42 40 43 41 44
REMARK SMILES IDX 102 45 42 46 101 47 43 48 44 49 45 50 95 51 46 52 100 53
REMARK SMILES IDX 94 54 96 55 47 56 99 57 93 58 92 59 48 61 80 62 60 63 79 64
REMARK SMILES IDX 61 65 64 66 78 67 97 68 62 69 63 70 77 72 98 73 65 74 49 75
REMARK SMILES IDX 50 76 58 77 51 78 52 79 56 80 59 81 53 82 54 83 57 84 55 85
REMARK SMILES IDX 81 86 82 87 90 88 83 89 84 90 88 91 91 92 85 93 86 94 89 95
REMARK SMILES IDX 87 96 66 97 67 98 75 99 68 100 69 101 73 102 76 103 70 104
REMARK SMILES IDX 71 105 74 106 72 107
REMARK H PARENT 10 17 14 27 96 60 64 71
REMARK Flexibility Score: inf
ROOT
ATOM      1  C   UNL A   1      34.642  34.033  28.728  1.00  0.00     0.188 C 
ENDROOT
BRANCH   1   2
ATOM      2  O   UNL A   1      34.778  32.595  28.751  1.00  0.00    -0.376 OA
BRANCH   2   3
ATOM      3  C   UNL A   1      34.577  31.733  27.629  1.00  0.00     0.202 C 
BRANCH   3   4
ATOM      4  C   UNL A   1      33.173  30.877  27.257  1.00  0.00     0.261 C 
BRANCH   4   5
ATOM      5  O   UNL A   1      32.553  30.162  25.795  1.00  0.00    -0.460 OA
BRANCH   5   6
ATOM      6  C   UNL A   1      32.957  29.251  24.766  1.00  0.00     0.338 C 
ATOM      7  O   UNL A   1      34.022  28.649  24.625  1.00  0.00    -0.246 OA
BRANCH   6   8
ATOM      8  C   UNL A   1      32.217  28.783  23.590  1.00  0.00     0.064 A 
ATOM      9  C   UNL A   1      29.931  27.923  23.052  1.00  0.00     0.044 A 
ATOM     10  C   UNL A   1      30.531  26.884  22.357  1.00  0.00     0.052 A 
ATOM     11  C   UNL A   1      30.778  28.907  23.599  1.00  0.00     0.042 A 
ATOM     12  C   UNL A   1      31.935  26.780  22.323  1.00  0.00     0.044 A 
ATOM     13  C   UNL A   1      32.768  27.665  23.004  1.00  0.00     0.042 A 
BRANCH   9  14
ATOM     14  N   UNL A   1      28.532  28.022  23.265  1.00  0.00    -0.322 N 
ATOM     15  C   UNL A   1      27.652  29.090  23.155  1.00  0.00     0.255 C 
ATOM     16  O   UNL A   1      26.525  29.008  23.648  1.00  0.00    -0.269 OA
ATOM     17  H   UNL A   1      28.107  27.178  23.540  1.00  0.00     0.170 HD
BRANCH  15  18
ATOM     18  C   UNL A   1      27.984  30.314  22.377  1.00  0.00     0.043 A 
ATOM     19  C   UNL A   1      28.988  31.535  24.395  1.00  0.00     0.045 C 
ATOM     20  C   UNL A   1      28.534  31.469  22.962  1.00  0.00    -0.038 A 
ATOM     21  C   UNL A   1      28.695  32.616  22.165  1.00  0.00     0.004 A 
ATOM     22  C   UNL A   1      28.437  32.580  20.794  1.00  0.00     0.000 A 
ATOM     23  C   UNL A   1      27.804  30.260  20.983  1.00  0.00     0.014 A 
ATOM     24  C   UNL A   1      28.033  31.391  20.196  1.00  0.00     0.001 A 
ENDBRANCH  15  18
ENDBRANCH   9  14
BRANCH  12  25
ATOM     25  N   UNL A   1      32.607  25.826  21.568  1.00  0.00    -0.322 N 
ATOM     26  C   UNL A   1      32.956  24.553  21.942  1.00  0.00     0.255 C 
ATOM     27  H   UNL A   1      32.865  26.096  20.657  1.00  0.00     0.170 HD
ATOM     28  O   UNL A   1      33.519  23.824  21.128  1.00  0.00    -0.269 OA
BRANCH  26  29
ATOM     29  C   UNL A   1      32.643  24.028  23.295  1.00  0.00     0.043 A 
ATOM     30  C   UNL A   1      31.398  23.389  23.383  1.00  0.00     0.014 A 
ATOM     31  C   UNL A   1      33.462  24.150  24.441  1.00  0.00    -0.038 A 
ATOM     32  C   UNL A   1      30.972  22.832  24.583  1.00  0.00     0.001 A 
ATOM     33  C   UNL A   1      33.023  23.549  25.635  1.00  0.00     0.004 A 
ATOM     34  C   UNL A   1      34.789  24.855  24.494  1.00  0.00     0.045 C 
ATOM     35  C   UNL A   1      31.789  22.903  25.706  1.00  0.00     0.000 A 
ENDBRANCH  26  29
ENDBRANCH  12  25
ENDBRANCH   6   8
ENDBRANCH   5   6
ENDBRANCH   4   5
ENDBRANCH   3   4
ENDBRANCH   2   3
ENDBRANCH   1   2
BRANCH   1  36
ATOM     36  C   UNL A   1      33.304  34.730  28.491  1.00  0.00     0.188 C 
BRANCH  36  37
ATOM     37  O   UNL A   1      32.663  34.932  29.733  1.00  0.00    -0.376 OA
BRANCH  37  38
ATOM     38  C   UNL A   1      32.728  36.242  30.260  1.00  0.00     0.202 C 
BRANCH  38  39
ATOM     39  C   UNL A   1      33.950  36.422  31.174  1.00  0.00     0.261 C 
BRANCH  39  40
ATOM     40  O   UNL A   1      33.591  36.162  32.557  1.00  0.00    -0.460 OA
BRANCH  40  41
ATOM     41  C   UNL A   1      33.099  34.917  32.874  1.00  0.00     0.338 C 
ATOM     42  O   UNL A   1      31.915  34.658  33.030  1.00  0.00    -0.246 OA
BRANCH  41  43
ATOM     43  C   UNL A   1      34.228  33.994  33.264  1.00  0.00     0.060 A 
ATOM     44  C   UNL A   1      35.426  34.357  33.903  1.00  0.00     0.016 A 
ATOM     45  C   UNL A   1      34.286  32.842  32.568  1.00  0.00     0.016 A 
ATOM     46  C   UNL A   1      36.695  33.662  33.636  1.00  0.00     0.010 A 
ATOM     47  C   UNL A   1      35.557  32.538  32.086  1.00  0.00     0.010 A 
ATOM     48  C   UNL A   1      36.855  32.733  32.601  1.00  0.00    -0.014 A 
BRANCH  48  49
ATOM     49  C   UNL A   1      38.300  32.159  31.945  1.00  0.00     0.031 A 
ATOM     50  C   UNL A   1      38.725  30.895  30.851  1.00  0.00     0.074 A 
ATOM     51  C   UNL A   1      39.417  32.724  32.456  1.00  0.00     0.049 A 
ATOM     52  N   UNL A   1      39.706  30.022  31.043  1.00  0.00    -0.248 NA
ATOM     53  C   UNL A   1      38.017  30.414  29.610  1.00  0.00     0.031 C 
ATOM     54  C   UNL A   1      40.799  32.526  32.028  1.00  0.00     0.029 A 
ATOM     55  N   UNL A   1      39.528  33.551  33.585  1.00  0.00    -0.354 N 
ATOM     56  C   UNL A   1      39.709  29.074  29.993  1.00  0.00     0.074 A 
ATOM     57  C   UNL A   1      38.530  29.256  29.267  1.00  0.00     0.031 C 
ATOM     58  C   UNL A   1      41.612  32.913  33.024  1.00  0.00     0.029 A 
ATOM     59  C   UNL A   1      40.773  33.257  34.158  1.00  0.00     0.049 A 
ATOM     60  H   UNL A   1      38.867  34.205  33.908  1.00  0.00     0.167 HD
ATOM     61  C   UNL A   1      40.744  28.278  29.604  1.00  0.00     0.037 A 
ATOM     62  C   UNL A   1      40.867  32.757  35.421  1.00  0.00     0.037 A 
ATOM     63  C   UNL A   1      41.863  28.554  30.445  1.00  0.00     0.049 A 
ATOM     64  C   UNL A   1      41.603  31.441  35.470  1.00  0.00     0.074 A 
ATOM     65  C   UNL A   1      42.852  29.516  30.358  1.00  0.00     0.029 A 
ATOM     66  N   UNL A   1      41.798  28.140  31.757  1.00  0.00    -0.354 N 
ATOM     67  N   UNL A   1      41.827  30.692  34.423  1.00  0.00    -0.248 NA
ATOM     68  C   UNL A   1      42.132  30.853  36.696  1.00  0.00     0.031 C 
ATOM     69  C   UNL A   1      43.325  29.749  31.673  1.00  0.00     0.029 A 
ATOM     70  C   UNL A   1      42.671  28.876  32.525  1.00  0.00     0.049 A 
ATOM     71  H   UNL A   1      41.213  27.424  32.095  1.00  0.00     0.167 HD
ATOM     72  C   UNL A   1      42.478  29.554  34.809  1.00  0.00     0.074 A 
ATOM     73  C   UNL A   1      42.664  29.707  36.237  1.00  0.00     0.031 C 
ATOM     74  C   UNL A   1      42.793  28.562  33.930  1.00  0.00     0.037 A 
BRANCH  61  75
ATOM     75  C   UNL A   1      40.785  27.608  28.224  1.00  0.00     0.064 A 
ATOM     76  C   UNL A   1      40.334  26.285  28.062  1.00  0.00     0.173 A 
ATOM     77  C   UNL A   1      41.369  28.165  27.061  1.00  0.00     0.173 A 
ATOM     78  F   UNL A   1      39.622  25.678  29.020  1.00  0.00    -0.203 F 
ATOM     79  C   UNL A   1      40.611  25.531  26.913  1.00  0.00     0.198 A 
ATOM     80  C   UNL A   1      41.733  27.388  25.951  1.00  0.00     0.198 A 
ATOM     81  F   UNL A   1      41.596  29.485  26.963  1.00  0.00    -0.203 F 
ATOM     82  F   UNL A   1      40.160  24.273  26.819  1.00  0.00    -0.200 F 
ATOM     83  C   UNL A   1      41.367  26.061  25.886  1.00  0.00     0.200 A 
ATOM     84  F   UNL A   1      42.457  27.929  24.959  1.00  0.00    -0.200 F 
ATOM     85  F   UNL A   1      41.711  25.310  24.830  1.00  0.00    -0.200 F 
ENDBRANCH  61  75
BRANCH  62  86
ATOM     86  C   UNL A   1      39.785  33.214  36.344  1.00  0.00     0.064 A 
ATOM     87  C   UNL A   1      38.780  32.284  36.699  1.00  0.00     0.173 A 
ATOM     88  C   UNL A   1      39.873  34.377  37.120  1.00  0.00     0.173 A 
ATOM     89  F   UNL A   1      38.642  31.146  36.000  1.00  0.00    -0.203 F 
ATOM     90  C   UNL A   1      37.992  32.448  37.838  1.00  0.00     0.198 A 
ATOM     91  C   UNL A   1      39.061  34.551  38.252  1.00  0.00     0.198 A 
ATOM     92  F   UNL A   1      40.836  35.279  36.883  1.00  0.00    -0.203 F 
ATOM     93  F   UNL A   1      37.157  31.470  38.220  1.00  0.00    -0.200 F 
ATOM     94  C   UNL A   1      38.144  33.575  38.621  1.00  0.00     0.200 A 
ATOM     95  F   UNL A   1      39.269  35.594  39.068  1.00  0.00    -0.200 F 
ATOM     96  F   UNL A   1      37.474  33.681  39.779  1.00  0.00    -0.200 F 
ENDBRANCH  62  86
BRANCH  74  97
ATOM     97  C   UNL A   1      43.248  27.173  34.287  1.00  0.00     0.064 A 
ATOM     98  C   UNL A   1      42.383  26.182  34.765  1.00  0.00     0.173 A 
ATOM     99  C   UNL A   1      44.552  26.745  33.932  1.00  0.00     0.173 A 
ATOM    100  F   UNL A   1      41.097  26.452  35.033  1.00  0.00    -0.203 F 
ATOM    101  C   UNL A   1      42.801  24.860  34.915  1.00  0.00     0.198 A 
ATOM    102  C   UNL A   1      44.942  25.413  34.017  1.00  0.00     0.198 A 
ATOM    103  F   UNL A   1      45.465  27.603  33.449  1.00  0.00    -0.203 F 
ATOM    104  F   UNL A   1      41.951  23.949  35.407  1.00  0.00    -0.200 F 
ATOM    105  C   UNL A   1      44.071  24.472  34.522  1.00  0.00     0.200 A 
ATOM    106  F   UNL A   1      46.153  25.043  33.575  1.00  0.00    -0.200 F 
ATOM    107  F   UNL A   1      44.444  23.189  34.610  1.00  0.00    -0.200 F 
ENDBRANCH  74  97
ENDBRANCH  48  49
ENDBRANCH  41  43
ENDBRANCH  40  41
ENDBRANCH  39  40
ENDBRANCH  38  39
ENDBRANCH  37  38
ENDBRANCH  36  37
ENDBRANCH   1  36
TORSDOF 21
ENDMDL
MODEL 3
REMARK VINA RESULT:     -12.5      3.652     10.036
REMARK SMILES Cc1ccccc1C(=O)Nc1cc(NC(=O)c2ccccc2C)cc(C(=O)OCCOCCOCCOC(=O)c2ccc(-c3c4nc(c(-c5c(F)c(F)c(F)c(F)c5F)c5ccc([nH]5)c(-c5c(F)c(F)c(F)c(F)c5F)c5nc(c(-c6c(F)c(F)c(F)c(F)c6F)c6ccc3[nH]6)C=C5)C=C4)cc2)c1
REMARK SMILES IDX 32 1 31 2 30 3 29 4 28 5 26 6 27 7 25 8 11 9 12 10 103 11
REMARK SMILES IDX 13 12 24 13 10 14 8 15 9 16 7 18 1 19 2 20 3 21 4 22 6 23
REMARK SMILES IDX 5 24 14 25 15 26 16 28 17 29 18 30 22 31 19 32 21 33 23 34
REMARK SMILES IDX 20 35 33 36 34 37 35 38 36 39 37 40 38 41 39 42 40 43 41 44
REMARK SMILES IDX 102 45 42 46 101 47 43 48 44 49 45 50 95 51 46 52 100 53
REMARK SMILES IDX 94 54 96 55 47 56 99 57 93 58 92 59 48 61 80 62 60 63 79 64
REMARK SMILES IDX 61 65 64 66 78 67 97 68 62 69 63 70 77 72 98 73 65 74 49 75
REMARK SMILES IDX 50 76 58 77 51 78 52 79 56 80 59 81 53 82 54 83 57 84 55 85
REMARK SMILES IDX 81 86 82 87 90 88 83 89 84 90 88 91 91 92 85 93 86 94 89 95
REMARK SMILES IDX 87 96 66 97 67 98 75 99 68 100 69 101 73 102 76 103 70 104
REMARK SMILES IDX 71 105 74 106 72 107
REMARK H PARENT 10 17 14 27 96 60 64 71
REMARK Flexibility Score: inf
ROOT
ATOM      1  C   UNL A   1      41.824  19.777  27.256  1.00  0.00     0.188 C 
ENDROOT
BRANCH   1   2
ATOM      2  O   UNL A   1      40.690  20.616  27.563  1.00  0.00    -0.376 OA
BRANCH   2   3
ATOM      3  C   UNL A   1      40.729  22.041  27.674  1.00  0.00     0.202 C 
BRANCH   3   4
ATOM      4  C   UNL A   1      39.483  23.114  27.300  1.00  0.00     0.261 C 
BRANCH   4   5
ATOM      5  O   UNL A   1      38.351  23.229  25.981  1.00  0.00    -0.460 OA
BRANCH   5   6
ATOM      6  C   UNL A   1      37.438  22.404  25.248  1.00  0.00     0.338 C 
ATOM      7  O   UNL A   1      37.669  21.481  24.466  1.00  0.00    -0.246 OA
BRANCH   6   8
ATOM      8  C   UNL A   1      35.972  22.430  25.220  1.00  0.00     0.064 A 
ATOM      9  C   UNL A   1      34.117  23.779  26.216  1.00  0.00     0.044 A 
ATOM     10  C   UNL A   1      33.503  22.590  26.579  1.00  0.00     0.052 A 
ATOM     11  C   UNL A   1      35.310  23.688  25.473  1.00  0.00     0.042 A 
ATOM     12  C   UNL A   1      34.134  21.362  26.306  1.00  0.00     0.044 A 
ATOM     13  C   UNL A   1      35.394  21.282  25.716  1.00  0.00     0.042 A 
BRANCH   9  14
ATOM     14  N   UNL A   1      33.629  25.060  26.583  1.00  0.00    -0.322 N 
ATOM     15  C   UNL A   1      33.191  26.136  25.824  1.00  0.00     0.255 C 
ATOM     16  O   UNL A   1      33.064  27.245  26.347  1.00  0.00    -0.269 OA
ATOM     17  H   UNL A   1      33.594  25.213  27.554  1.00  0.00     0.170 HD
BRANCH  15  18
ATOM     18  C   UNL A   1      32.774  25.986  24.403  1.00  0.00     0.043 A 
ATOM     19  C   UNL A   1      30.381  25.284  24.998  1.00  0.00     0.045 C 
ATOM     20  C   UNL A   1      31.500  25.523  24.022  1.00  0.00    -0.038 A 
ATOM     21  C   UNL A   1      31.246  25.299  22.658  1.00  0.00     0.004 A 
ATOM     22  C   UNL A   1      32.186  25.643  21.686  1.00  0.00     0.000 A 
ATOM     23  C   UNL A   1      33.683  26.407  23.416  1.00  0.00     0.014 A 
ATOM     24  C   UNL A   1      33.387  26.238  22.062  1.00  0.00     0.001 A 
ENDBRANCH  15  18
ENDBRANCH   9  14
BRANCH  12  25
ATOM     25  N   UNL A   1      33.537  20.130  26.550  1.00  0.00    -0.322 N 
ATOM     26  C   UNL A   1      32.770  19.385  25.692  1.00  0.00     0.255 C 
ATOM     27  H   UNL A   1      33.681  19.749  27.446  1.00  0.00     0.170 HD
ATOM     28  O   UNL A   1      32.350  18.290  26.063  1.00  0.00    -0.269 OA
BRANCH  26  29
ATOM     29  C   UNL A   1      32.462  19.854  24.318  1.00  0.00     0.043 A 
ATOM     30  C   UNL A   1      32.065  21.198  24.252  1.00  0.00     0.014 A 
ATOM     31  C   UNL A   1      32.514  19.070  23.143  1.00  0.00    -0.038 A 
ATOM     32  C   UNL A   1      31.758  21.785  23.030  1.00  0.00     0.001 A 
ATOM     33  C   UNL A   1      32.232  19.697  21.915  1.00  0.00     0.004 A 
ATOM     34  C   UNL A   1      32.872  17.611  23.084  1.00  0.00     0.045 C 
ATOM     35  C   UNL A   1      31.852  21.038  21.861  1.00  0.00     0.000 A 
ENDBRANCH  26  29
ENDBRANCH  12  25
ENDBRANCH   6   8
ENDBRANCH   5   6
ENDBRANCH   4   5
ENDBRANCH   3   4
ENDBRANCH   2   3
ENDBRANCH   1   2
BRANCH   1  36
ATOM     36  C   UNL A   1      41.876  18.881  26.021  1.00  0.00     0.188 C 
BRANCH  36  37
ATOM     37  O   UNL A   1      42.758  19.449  25.075  1.00  0.00    -0.376 OA
BRANCH  37  38
ATOM     38  C   UNL A   1      44.080  18.949  25.081  1.00  0.00     0.202 C 
BRANCH  38  39
ATOM     39  C   UNL A   1      45.097  20.042  24.716  1.00  0.00     0.261 C 
BRANCH  39  40
ATOM     40  O   UNL A   1      44.449  21.340  24.664  1.00  0.00    -0.460 OA
BRANCH  40  41
ATOM     41  C   UNL A   1      45.225  22.459  24.860  1.00  0.00     0.338 C 
ATOM     42  O   UNL A   1      46.437  22.444  25.016  1.00  0.00    -0.246 OA
BRANCH  41  43
ATOM     43  C   UNL A   1      44.351  23.661  25.124  1.00  0.00     0.060 A 
ATOM     44  C   UNL A   1      44.695  25.009  24.924  1.00  0.00     0.016 A 
ATOM     45  C   UNL A   1      43.360  23.458  26.012  1.00  0.00     0.016 A 
ATOM     46  C   UNL A   1      44.178  26.083  25.787  1.00  0.00     0.010 A 
ATOM     47  C   UNL A   1      43.266  24.446  26.989  1.00  0.00     0.010 A 
ATOM     48  C   UNL A   1      43.477  25.839  26.974  1.00  0.00    -0.014 A 
BRANCH  48  49
ATOM     49  C   UNL A   1      43.167  26.924  28.229  1.00  0.00     0.031 A 
ATOM     50  C   UNL A   1      41.800  27.848  28.732  1.00  0.00     0.074 A 
ATOM     51  C   UNL A   1      44.249  27.256  28.970  1.00  0.00     0.049 A 
ATOM     52  N   UNL A   1      41.832  29.135  29.056  1.00  0.00    -0.248 NA
ATOM     53  C   UNL A   1      40.338  27.482  28.740  1.00  0.00     0.031 C 
ATOM     54  C   UNL A   1      44.291  28.075  30.178  1.00  0.00     0.029 A 
ATOM     55  N   UNL A   1      45.598  26.984  28.698  1.00  0.00    -0.354 N 
ATOM     56  C   UNL A   1      40.518  29.587  29.327  1.00  0.00     0.074 A 
ATOM     57  C   UNL A   1      39.641  28.579  28.919  1.00  0.00     0.031 C 
ATOM     58  C   UNL A   1      45.550  28.506  30.355  1.00  0.00     0.029 A 
ATOM     59  C   UNL A   1      46.321  28.074  29.203  1.00  0.00     0.049 A 
ATOM     60  H   UNL A   1      45.964  26.190  28.246  1.00  0.00     0.167 HD
ATOM     61  C   UNL A   1      40.156  30.685  30.047  1.00  0.00     0.037 A 
ATOM     62  C   UNL A   1      47.072  28.862  28.385  1.00  0.00     0.037 A 
ATOM     63  C   UNL A   1      41.343  31.333  30.503  1.00  0.00     0.049 A 
ATOM     64  C   UNL A   1      46.674  30.316  28.454  1.00  0.00     0.074 A 
ATOM     65  C   UNL A   1      42.124  31.121  31.624  1.00  0.00     0.029 A 
ATOM     66  N   UNL A   1      42.123  31.977  29.568  1.00  0.00    -0.354 N 
ATOM     67  N   UNL A   1      45.544  30.738  28.957  1.00  0.00    -0.248 NA
ATOM     68  C   UNL A   1      47.500  31.408  27.952  1.00  0.00     0.031 C 
ATOM     69  C   UNL A   1      43.432  31.567  31.312  1.00  0.00     0.029 A 
ATOM     70  C   UNL A   1      43.408  32.110  30.039  1.00  0.00     0.049 A 
ATOM     71  H   UNL A   1      41.806  32.296  28.692  1.00  0.00     0.167 HD
ATOM     72  C   UNL A   1      45.472  32.097  28.833  1.00  0.00     0.074 A 
ATOM     73  C   UNL A   1      46.726  32.474  28.215  1.00  0.00     0.031 C 
ATOM     74  C   UNL A   1      44.377  32.807  29.225  1.00  0.00     0.037 A 
BRANCH  61  75
ATOM     75  C   UNL A   1      38.746  30.852  30.630  1.00  0.00     0.064 A 
ATOM     76  C   UNL A   1      37.697  31.333  29.826  1.00  0.00     0.173 A 
ATOM     77  C   UNL A   1      38.398  30.679  31.991  1.00  0.00     0.173 A 
ATOM     78  F   UNL A   1      37.825  31.399  28.495  1.00  0.00    -0.203 F 
ATOM     79  C   UNL A   1      36.480  31.776  30.363  1.00  0.00     0.198 A 
ATOM     80  C   UNL A   1      37.223  31.210  32.544  1.00  0.00     0.198 A 
ATOM     81  F   UNL A   1      39.184  29.979  32.825  1.00  0.00    -0.203 F 
ATOM     82  F   UNL A   1      35.520  32.230  29.546  1.00  0.00    -0.200 F 
ATOM     83  C   UNL A   1      36.268  31.776  31.727  1.00  0.00     0.200 A 
ATOM     84  F   UNL A   1      37.034  31.186  33.872  1.00  0.00    -0.200 F 
ATOM     85  F   UNL A   1      35.143  32.287  32.246  1.00  0.00    -0.200 F 
ENDBRANCH  61  75
BRANCH  62  86
ATOM     86  C   UNL A   1      47.654  28.146  27.209  1.00  0.00     0.064 A 
ATOM     87  C   UNL A   1      48.506  27.045  27.460  1.00  0.00     0.173 A 
ATOM     88  C   UNL A   1      47.167  28.284  25.904  1.00  0.00     0.173 A 
ATOM     89  F   UNL A   1      49.005  26.851  28.691  1.00  0.00    -0.203 F 
ATOM     90  C   UNL A   1      48.757  26.071  26.494  1.00  0.00     0.198 A 
ATOM     91  C   UNL A   1      47.442  27.315  24.926  1.00  0.00     0.198 A 
ATOM     92  F   UNL A   1      46.308  29.267  25.600  1.00  0.00    -0.203 F 
ATOM     93  F   UNL A   1      49.448  24.968  26.820  1.00  0.00    -0.200 F 
ATOM     94  C   UNL A   1      48.212  26.200  25.232  1.00  0.00     0.200 A 
ATOM     95  F   UNL A   1      46.840  27.384  23.730  1.00  0.00    -0.200 F 
ATOM     96  F   UNL A   1      48.352  25.209  24.338  1.00  0.00    -0.200 F 
ENDBRANCH  62  86
BRANCH  74  97
ATOM     97  C   UNL A   1      44.083  34.242  28.885  1.00  0.00     0.064 A 
ATOM     98  C   UNL A   1      43.612  34.652  27.631  1.00  0.00     0.173 A 
ATOM     99  C   UNL A   1      44.057  35.220  29.911  1.00  0.00     0.173 A 
ATOM    100  F   UNL A   1      43.494  33.785  26.616  1.00  0.00    -0.203 F 
ATOM    101  C   UNL A   1      43.181  35.959  27.407  1.00  0.00     0.198 A 
ATOM    102  C   UNL A   1      43.559  36.502  29.700  1.00  0.00     0.198 A 
ATOM    103  F   UNL A   1      44.470  34.939  31.158  1.00  0.00    -0.203 F 
ATOM    104  F   UNL A   1      42.769  36.318  26.183  1.00  0.00    -0.200 F 
ATOM    105  C   UNL A   1      43.134  36.875  28.443  1.00  0.00     0.200 A 
ATOM    106  F   UNL A   1      43.464  37.357  30.727  1.00  0.00    -0.200 F 
ATOM    107  F   UNL A   1      42.659  38.110  28.234  1.00  0.00    -0.200 F 
ENDBRANCH  74  97
ENDBRANCH  48  49
ENDBRANCH  41  43
ENDBRANCH  40  41
ENDBRANCH  39  40
ENDBRANCH  38  39
ENDBRANCH  37  38
ENDBRANCH  36  37
ENDBRANCH   1  36
TORSDOF 21
ENDMDL
