MODEL 1
REMARK VINA RESULT:     -10.3      0.000      0.000
REMARK SMILES COCC[C@H]([NH3+])C(=O)N1CC(n2cc(C(=O)OCCOCCOCCOC(=O)c3ccc(-c4c5nc(c(-c6c(F)c(F)c(F)c(F)c6F)c6ccc([nH]6)c(-c6c(F)c(F)c(F)c(F)c6F)c6nc(c(-c7c(F)c(F)c(F)c(F)c7F)c7ccc4[nH]7)C=C6)C=C5)cc3)nn2)C1
REMARK SMILES IDX 20 1 19 2 18 3 17 4 15 5 16 6 14 7 12 8 13 9 93 10 92 11
REMARK SMILES IDX 11 12 7 13 8 14 9 15 10 16 94 17 5 18 4 19 3 20 2 21 1 22
REMARK SMILES IDX 6 23 21 27 22 28 23 29 24 30 25 31 26 32 27 33 28 34 29 35
REMARK SMILES IDX 30 36 91 37 31 38 90 39 32 40 33 41 34 42 84 43 35 44 89 45
REMARK SMILES IDX 83 46 85 47 36 48 88 49 82 50 81 51 37 53 69 54 49 55 68 56
REMARK SMILES IDX 50 57 53 58 67 59 86 60 51 61 52 62 66 64 87 65 54 66 38 67
REMARK SMILES IDX 39 68 47 69 40 70 41 71 45 72 48 73 42 74 43 75 46 76 44 77
REMARK SMILES IDX 70 78 71 79 79 80 72 81 73 82 77 83 80 84 74 85 75 86 78 87
REMARK SMILES IDX 76 88 55 89 56 90 64 91 57 92 58 93 62 94 65 95 59 96 60 97
REMARK SMILES IDX 63 98 61 99
REMARK H PARENT 6 24 6 25 6 26 85 52 53 63
REMARK Flexibility Score: inf
ROOT
ATOM      1  O   UNL A   1      40.835  20.288  25.653  1.00  0.00    -0.376 OA
ENDROOT
BRANCH   1   2
ATOM      2  C   UNL A   1      40.032  21.160  26.432  1.00  0.00     0.202 C 
BRANCH   2   3
ATOM      3  C   UNL A   1      39.135  22.296  25.893  1.00  0.00     0.261 C 
BRANCH   3   4
ATOM      4  O   UNL A   1      37.719  22.138  26.020  1.00  0.00    -0.458 OA
BRANCH   4   5
ATOM      5  C   UNL A   1      37.081  21.616  24.925  1.00  0.00     0.360 C 
ATOM      6  O   UNL A   1      37.455  20.619  24.328  1.00  0.00    -0.244 OA
BRANCH   5   7
ATOM      7  C   UNL A   1      35.832  22.303  24.623  1.00  0.00     0.190 A 
ATOM      8  N   UNL A   1      34.201  23.471  23.796  1.00  0.00    -0.245 N 
ATOM      9  C   UNL A   1      35.510  23.134  23.567  1.00  0.00     0.147 A 
ATOM     10  N   UNL A   1      33.766  22.959  24.956  1.00  0.00    -0.066 NA
ATOM     11  N   UNL A   1      34.749  22.232  25.468  1.00  0.00    -0.123 NA
BRANCH   8  12
ATOM     12  C   UNL A   1      33.355  24.107  22.827  1.00  0.00     0.148 C 
ATOM     13  C   UNL A   1      31.590  26.756  22.256  1.00  0.00     0.280 C 
ATOM     14  O   UNL A   1      31.205  26.382  21.144  1.00  0.00    -0.268 OA
ATOM     15  N   UNL A   1      32.530  26.044  22.966  1.00  0.00    -0.333 N 
ATOM     16  C   UNL A   1      33.766  25.498  22.361  1.00  0.00     0.149 C 
ATOM     17  C   UNL A   1      32.175  24.739  23.546  1.00  0.00     0.149 C 
BRANCH  13  18
ATOM     18  C   UNL A   1      30.986  28.016  22.936  1.00  0.00     0.273 C 
BRANCH  18  19
ATOM     19  C   UNL A   1      29.477  28.044  23.227  1.00  0.00     0.104 C 
BRANCH  19  20
ATOM     20  C   UNL A   1      28.636  29.189  22.653  1.00  0.00     0.166 C 
BRANCH  20  21
ATOM     21  O   UNL A   1      28.973  30.452  23.203  1.00  0.00    -0.384 OA
ATOM     22  C   UNL A   1      27.855  31.245  23.578  1.00  0.00     0.194 C 
ENDBRANCH  20  21
ENDBRANCH  19  20
ENDBRANCH  18  19
BRANCH  18  23
ATOM     23  N   UNL A   1      31.497  29.250  22.299  1.00  0.00    -0.347 N 
ATOM     24  H   UNL A   1      30.726  29.749  21.857  1.00  0.00     0.345 HD
ATOM     25  H   UNL A   1      32.194  29.005  21.594  1.00  0.00     0.345 HD
ATOM     26  H   UNL A   1      31.926  29.844  23.008  1.00  0.00     0.345 HD
ENDBRANCH  18  23
ENDBRANCH  13  18
ENDBRANCH   8  12
ENDBRANCH   5   7
ENDBRANCH   4   5
ENDBRANCH   3   4
ENDBRANCH   2   3
ENDBRANCH   1   2
BRANCH   1  27
ATOM     27  C   UNL A   1      41.674  19.335  26.259  1.00  0.00     0.188 C 
BRANCH  27  28
ATOM     28  C   UNL A   1      43.132  19.242  25.771  1.00  0.00     0.188 C 
BRANCH  28  29
ATOM     29  O   UNL A   1      43.654  20.108  24.780  1.00  0.00    -0.376 OA
BRANCH  29  30
ATOM     30  C   UNL A   1      44.365  21.298  25.086  1.00  0.00     0.202 C 
BRANCH  30  31
ATOM     31  C   UNL A   1      43.972  22.290  26.180  1.00  0.00     0.261 C 
BRANCH  31  32
ATOM     32  O   UNL A   1      42.778  23.006  25.954  1.00  0.00    -0.460 OA
BRANCH  32  33
ATOM     33  C   UNL A   1      42.993  24.287  25.588  1.00  0.00     0.338 C 
ATOM     34  O   UNL A   1      43.734  24.690  24.709  1.00  0.00    -0.246 OA
BRANCH  33  35
ATOM     35  C   UNL A   1      42.234  25.169  26.474  1.00  0.00     0.060 A 
ATOM     36  C   UNL A   1      41.364  26.065  25.853  1.00  0.00     0.016 A 
ATOM     37  C   UNL A   1      42.617  25.298  27.816  1.00  0.00     0.016 A 
ATOM     38  C   UNL A   1      41.067  27.234  26.511  1.00  0.00     0.010 A 
ATOM     39  C   UNL A   1      42.330  26.473  28.469  1.00  0.00     0.010 A 
ATOM     40  C   UNL A   1      41.644  27.460  27.766  1.00  0.00    -0.014 A 
BRANCH  40  41
ATOM     41  C   UNL A   1      41.520  28.790  28.314  1.00  0.00     0.031 A 
ATOM     42  C   UNL A   1      42.651  29.672  27.997  1.00  0.00     0.074 A 
ATOM     43  C   UNL A   1      40.448  29.171  29.032  1.00  0.00     0.049 A 
ATOM     44  N   UNL A   1      43.526  30.144  28.819  1.00  0.00    -0.248 NA
ATOM     45  C   UNL A   1      42.919  29.963  26.582  1.00  0.00     0.031 C 
ATOM     46  C   UNL A   1      39.170  28.463  29.162  1.00  0.00     0.029 A 
ATOM     47  N   UNL A   1      40.241  30.329  29.723  1.00  0.00    -0.354 N 
ATOM     48  C   UNL A   1      44.351  30.952  28.050  1.00  0.00     0.074 A 
ATOM     49  C   UNL A   1      44.038  30.681  26.671  1.00  0.00     0.031 C 
ATOM     50  C   UNL A   1      38.257  29.298  29.705  1.00  0.00     0.029 A 
ATOM     51  C   UNL A   1      38.920  30.535  30.084  1.00  0.00     0.049 A 
ATOM     52  H   UNL A   1      40.964  30.959  29.944  1.00  0.00     0.167 HD
ATOM     53  C   UNL A   1      45.024  31.984  28.621  1.00  0.00     0.037 A 
ATOM     54  C   UNL A   1      38.395  31.664  30.612  1.00  0.00     0.037 A 
ATOM     55  C   UNL A   1      45.041  31.883  30.055  1.00  0.00     0.049 A 
ATOM     56  C   UNL A   1      39.491  32.445  31.232  1.00  0.00     0.074 A 
ATOM     57  C   UNL A   1      45.766  31.197  31.003  1.00  0.00     0.029 A 
ATOM     58  N   UNL A   1      43.915  32.363  30.668  1.00  0.00    -0.354 N 
ATOM     59  N   UNL A   1      40.125  32.070  32.308  1.00  0.00    -0.248 NA
ATOM     60  C   UNL A   1      40.124  33.525  30.481  1.00  0.00     0.031 C 
ATOM     61  C   UNL A   1      44.963  31.170  32.183  1.00  0.00     0.029 A 
ATOM     62  C   UNL A   1      43.770  31.840  31.924  1.00  0.00     0.049 A 
ATOM     63  H   UNL A   1      43.290  33.003  30.257  1.00  0.00     0.167 HD
ATOM     64  C   UNL A   1      41.407  32.551  32.132  1.00  0.00     0.074 A 
ATOM     65  C   UNL A   1      41.300  33.582  31.112  1.00  0.00     0.031 C 
ATOM     66  C   UNL A   1      42.482  31.845  32.578  1.00  0.00     0.037 A 
BRANCH  53  67
ATOM     67  C   UNL A   1      45.252  33.308  27.944  1.00  0.00     0.064 A 
ATOM     68  C   UNL A   1      46.572  33.746  27.725  1.00  0.00     0.173 A 
ATOM     69  C   UNL A   1      44.246  34.289  27.806  1.00  0.00     0.173 A 
ATOM     70  F   UNL A   1      47.603  32.900  27.867  1.00  0.00    -0.203 F 
ATOM     71  C   UNL A   1      46.863  35.083  27.444  1.00  0.00     0.198 A 
ATOM     72  C   UNL A   1      44.537  35.608  27.467  1.00  0.00     0.198 A 
ATOM     73  F   UNL A   1      42.966  34.042  28.109  1.00  0.00    -0.203 F 
ATOM     74  F   UNL A   1      48.140  35.481  27.358  1.00  0.00    -0.200 F 
ATOM     75  C   UNL A   1      45.846  36.011  27.316  1.00  0.00     0.200 A 
ATOM     76  F   UNL A   1      43.539  36.500  27.375  1.00  0.00    -0.200 F 
ATOM     77  F   UNL A   1      46.127  37.304  27.097  1.00  0.00    -0.200 F 
ENDBRANCH  53  67
BRANCH  54  78
ATOM     78  C   UNL A   1      37.031  32.205  30.447  1.00  0.00     0.064 A 
ATOM     79  C   UNL A   1      36.065  32.063  31.455  1.00  0.00     0.173 A 
ATOM     80  C   UNL A   1      36.729  33.104  29.406  1.00  0.00     0.173 A 
ATOM     81  F   UNL A   1      36.294  31.256  32.501  1.00  0.00    -0.203 F 
ATOM     82  C   UNL A   1      34.879  32.800  31.437  1.00  0.00     0.198 A 
ATOM     83  C   UNL A   1      35.541  33.832  29.385  1.00  0.00     0.198 A 
ATOM     84  F   UNL A   1      37.624  33.361  28.441  1.00  0.00    -0.203 F 
ATOM     85  F   UNL A   1      34.007  32.687  32.449  1.00  0.00    -0.200 F 
ATOM     86  C   UNL A   1      34.622  33.692  30.408  1.00  0.00     0.200 A 
ATOM     87  F   UNL A   1      35.320  34.716  28.400  1.00  0.00    -0.200 F 
ATOM     88  F   UNL A   1      33.514  34.444  30.423  1.00  0.00    -0.200 F 
ENDBRANCH  54  78
BRANCH  66  89
ATOM     89  C   UNL A   1      42.242  30.882  33.696  1.00  0.00     0.064 A 
ATOM     90  C   UNL A   1      42.318  31.220  35.056  1.00  0.00     0.173 A 
ATOM     91  C   UNL A   1      41.874  29.570  33.369  1.00  0.00     0.173 A 
ATOM     92  F   UNL A   1      42.588  32.475  35.440  1.00  0.00    -0.203 F 
ATOM     93  C   UNL A   1      42.083  30.265  36.044  1.00  0.00     0.198 A 
ATOM     94  C   UNL A   1      41.603  28.631  34.356  1.00  0.00     0.198 A 
ATOM     95  F   UNL A   1      41.747  29.209  32.081  1.00  0.00    -0.203 F 
ATOM     96  F   UNL A   1      42.188  30.598  37.339  1.00  0.00    -0.200 F 
ATOM     97  C   UNL A   1      41.721  28.974  35.693  1.00  0.00     0.200 A 
ATOM     98  F   UNL A   1      41.215  27.394  34.012  1.00  0.00    -0.200 F 
ATOM     99  F   UNL A   1      41.469  28.063  36.644  1.00  0.00    -0.200 F 
ENDBRANCH  66  89
ENDBRANCH  40  41
ENDBRANCH  33  35
ENDBRANCH  32  33
ENDBRANCH  31  32
ENDBRANCH  30  31
ENDBRANCH  29  30
ENDBRANCH  28  29
ENDBRANCH  27  28
ENDBRANCH   1  27
TORSDOF 23
ENDMDL
MODEL 2
REMARK VINA RESULT:     -10.3      4.339     10.305
REMARK SMILES COCC[C@H]([NH3+])C(=O)N1CC(n2cc(C(=O)OCCOCCOCCOC(=O)c3ccc(-c4c5nc(c(-c6c(F)c(F)c(F)c(F)c6F)c6ccc([nH]6)c(-c6c(F)c(F)c(F)c(F)c6F)c6nc(c(-c7c(F)c(F)c(F)c(F)c7F)c7ccc4[nH]7)C=C6)C=C5)cc3)nn2)C1
REMARK SMILES IDX 20 1 19 2 18 3 17 4 15 5 16 6 14 7 12 8 13 9 93 10 92 11
REMARK SMILES IDX 11 12 7 13 8 14 9 15 10 16 94 17 5 18 4 19 3 20 2 21 1 22
REMARK SMILES IDX 6 23 21 27 22 28 23 29 24 30 25 31 26 32 27 33 28 34 29 35
REMARK SMILES IDX 30 36 91 37 31 38 90 39 32 40 33 41 34 42 84 43 35 44 89 45
REMARK SMILES IDX 83 46 85 47 36 48 88 49 82 50 81 51 37 53 69 54 49 55 68 56
REMARK SMILES IDX 50 57 53 58 67 59 86 60 51 61 52 62 66 64 87 65 54 66 38 67
REMARK SMILES IDX 39 68 47 69 40 70 41 71 45 72 48 73 42 74 43 75 46 76 44 77
REMARK SMILES IDX 70 78 71 79 79 80 72 81 73 82 77 83 80 84 74 85 75 86 78 87
REMARK SMILES IDX 76 88 55 89 56 90 64 91 57 92 58 93 62 94 65 95 59 96 60 97
REMARK SMILES IDX 63 98 61 99
REMARK H PARENT 6 24 6 25 6 26 85 52 53 63
REMARK Flexibility Score: inf
ROOT
ATOM      1  O   UNL A   1      32.142  35.726  30.631  1.00  0.00    -0.376 OA
ENDROOT
BRANCH   1   2
ATOM      2  C   UNL A   1      33.091  35.792  29.579  1.00  0.00     0.202 C 
BRANCH   2   3
ATOM      3  C   UNL A   1      33.346  34.706  28.511  1.00  0.00     0.261 C 
BRANCH   3   4
ATOM      4  O   UNL A   1      33.940  33.479  28.944  1.00  0.00    -0.458 OA
BRANCH   4   5
ATOM      5  C   UNL A   1      34.681  32.815  28.000  1.00  0.00     0.360 C 
ATOM      6  O   UNL A   1      35.789  33.169  27.629  1.00  0.00    -0.244 OA
BRANCH   5   7
ATOM      7  C   UNL A   1      34.060  31.566  27.576  1.00  0.00     0.190 A 
ATOM      8  N   UNL A   1      33.564  29.533  27.004  1.00  0.00    -0.245 N 
ATOM      9  C   UNL A   1      34.621  30.318  27.385  1.00  0.00     0.147 A 
ATOM     10  N   UNL A   1      32.444  30.259  26.882  1.00  0.00    -0.066 NA
ATOM     11  N   UNL A   1      32.729  31.502  27.240  1.00  0.00    -0.123 NA
BRANCH   8  12
ATOM     12  C   UNL A   1      33.608  28.100  26.948  1.00  0.00     0.148 C 
ATOM     13  C   UNL A   1      32.083  25.495  25.789  1.00  0.00     0.280 C 
ATOM     14  O   UNL A   1      32.871  24.686  26.288  1.00  0.00    -0.268 OA
ATOM     15  N   UNL A   1      32.314  26.851  25.846  1.00  0.00    -0.333 N 
ATOM     16  C   UNL A   1      33.632  27.465  25.564  1.00  0.00     0.149 C 
ATOM     17  C   UNL A   1      32.200  27.558  27.130  1.00  0.00     0.149 C 
BRANCH  13  18
ATOM     18  C   UNL A   1      30.759  25.025  25.125  1.00  0.00     0.273 C 
BRANCH  18  19
ATOM     19  C   UNL A   1      29.591  26.019  25.025  1.00  0.00     0.104 C 
BRANCH  19  20
ATOM     20  C   UNL A   1      29.317  26.705  23.683  1.00  0.00     0.166 C 
BRANCH  20  21
ATOM     21  O   UNL A   1      29.900  27.994  23.592  1.00  0.00    -0.384 OA
ATOM     22  C   UNL A   1      29.248  28.869  22.683  1.00  0.00     0.194 C 
ENDBRANCH  20  21
ENDBRANCH  19  20
ENDBRANCH  18  19
BRANCH  18  23
ATOM     23  N   UNL A   1      30.368  23.688  25.626  1.00  0.00    -0.347 N 
ATOM     24  H   UNL A   1      29.352  23.630  25.683  1.00  0.00     0.345 HD
ATOM     25  H   UNL A   1      30.770  23.542  26.553  1.00  0.00     0.345 HD
ATOM     26  H   UNL A   1      30.715  22.972  24.989  1.00  0.00     0.345 HD
ENDBRANCH  18  23
ENDBRANCH  13  18
ENDBRANCH   8  12
ENDBRANCH   5   7
ENDBRANCH   4   5
ENDBRANCH   3   4
ENDBRANCH   2   3
ENDBRANCH   1   2
BRANCH   1  27
ATOM     27  C   UNL A   1      32.529  35.885  31.973  1.00  0.00     0.188 C 
BRANCH  27  28
ATOM     28  C   UNL A   1      33.669  34.997  32.507  1.00  0.00     0.188 C 
BRANCH  28  29
ATOM     29  O   UNL A   1      35.007  35.453  32.587  1.00  0.00    -0.376 OA
BRANCH  29  30
ATOM     30  C   UNL A   1      36.018  34.765  33.309  1.00  0.00     0.202 C 
BRANCH  30  31
ATOM     31  C   UNL A   1      36.994  33.760  32.699  1.00  0.00     0.261 C 
BRANCH  31  32
ATOM     32  O   UNL A   1      36.765  33.432  31.345  1.00  0.00    -0.460 OA
BRANCH  32  33
ATOM     33  C   UNL A   1      36.228  32.205  31.184  1.00  0.00     0.338 C 
ATOM     34  O   UNL A   1      35.144  31.814  31.582  1.00  0.00    -0.246 OA
BRANCH  33  35
ATOM     35  C   UNL A   1      37.193  31.350  30.496  1.00  0.00     0.060 A 
ATOM     36  C   UNL A   1      36.919  29.982  30.503  1.00  0.00     0.016 A 
ATOM     37  C   UNL A   1      38.451  31.864  30.149  1.00  0.00     0.016 A 
ATOM     38  C   UNL A   1      37.979  29.113  30.397  1.00  0.00     0.010 A 
ATOM     39  C   UNL A   1      39.511  30.995  30.056  1.00  0.00     0.010 A 
ATOM     40  C   UNL A   1      39.269  29.643  30.280  1.00  0.00    -0.014 A 
BRANCH  40  41
ATOM     41  C   UNL A   1      40.371  28.721  30.426  1.00  0.00     0.031 A 
ATOM     42  C   UNL A   1      40.860  28.591  31.805  1.00  0.00     0.074 A 
ATOM     43  C   UNL A   1      40.876  28.038  29.383  1.00  0.00     0.049 A 
ATOM     44  N   UNL A   1      42.000  28.976  32.267  1.00  0.00    -0.248 NA
ATOM     45  C   UNL A   1      39.923  28.090  32.821  1.00  0.00     0.031 C 
ATOM     46  C   UNL A   1      40.286  27.895  28.048  1.00  0.00     0.029 A 
ATOM     47  N   UNL A   1      41.984  27.246  29.327  1.00  0.00    -0.354 N 
ATOM     48  C   UNL A   1      42.003  28.592  33.601  1.00  0.00     0.074 A 
ATOM     49  C   UNL A   1      40.656  28.202  33.929  1.00  0.00     0.031 C 
ATOM     50  C   UNL A   1      40.924  26.903  27.388  1.00  0.00     0.029 A 
ATOM     51  C   UNL A   1      42.043  26.448  28.196  1.00  0.00     0.049 A 
ATOM     52  H   UNL A   1      42.677  27.240  30.026  1.00  0.00     0.167 HD
ATOM     53  C   UNL A   1      43.176  28.357  34.244  1.00  0.00     0.037 A 
ATOM     54  C   UNL A   1      42.921  25.446  27.961  1.00  0.00     0.037 A 
ATOM     55  C   UNL A   1      44.299  28.880  33.514  1.00  0.00     0.049 A 
ATOM     56  C   UNL A   1      44.114  25.659  28.814  1.00  0.00     0.074 A 
ATOM     57  C   UNL A   1      44.907  30.105  33.352  1.00  0.00     0.029 A 
ATOM     58  N   UNL A   1      44.756  28.060  32.518  1.00  0.00    -0.354 N 
ATOM     59  N   UNL A   1      44.964  26.632  28.637  1.00  0.00    -0.248 NA
ATOM     60  C   UNL A   1      44.222  24.963  30.093  1.00  0.00     0.031 C 
ATOM     61  C   UNL A   1      45.648  30.028  32.135  1.00  0.00     0.029 A 
ATOM     62  C   UNL A   1      45.474  28.760  31.586  1.00  0.00     0.049 A 
ATOM     63  H   UNL A   1      44.589  27.090  32.477  1.00  0.00     0.167 HD
ATOM     64  C   UNL A   1      45.399  26.938  29.911  1.00  0.00     0.074 A 
ATOM     65  C   UNL A   1      45.071  25.778  30.724  1.00  0.00     0.031 C 
ATOM     66  C   UNL A   1      45.678  28.224  30.261  1.00  0.00     0.037 A 
BRANCH  53  67
ATOM     67  C   UNL A   1      43.366  27.267  35.263  1.00  0.00     0.064 A 
ATOM     68  C   UNL A   1      43.739  27.615  36.575  1.00  0.00     0.173 A 
ATOM     69  C   UNL A   1      43.514  25.905  34.922  1.00  0.00     0.173 A 
ATOM     70  F   UNL A   1      43.669  28.890  36.988  1.00  0.00    -0.203 F 
ATOM     71  C   UNL A   1      44.274  26.675  37.459  1.00  0.00     0.198 A 
ATOM     72  C   UNL A   1      43.993  24.961  35.825  1.00  0.00     0.198 A 
ATOM     73  F   UNL A   1      43.319  25.461  33.674  1.00  0.00    -0.203 F 
ATOM     74  F   UNL A   1      44.725  27.071  38.657  1.00  0.00    -0.200 F 
ATOM     75  C   UNL A   1      44.401  25.350  37.083  1.00  0.00     0.200 A 
ATOM     76  F   UNL A   1      44.135  23.686  35.432  1.00  0.00    -0.200 F 
ATOM     77  F   UNL A   1      44.962  24.458  37.910  1.00  0.00    -0.200 F 
ENDBRANCH  53  67
BRANCH  54  78
ATOM     78  C   UNL A   1      42.713  24.209  27.183  1.00  0.00     0.064 A 
ATOM     79  C   UNL A   1      43.177  24.091  25.864  1.00  0.00     0.173 A 
ATOM     80  C   UNL A   1      42.289  23.021  27.811  1.00  0.00     0.173 A 
ATOM     81  F   UNL A   1      43.635  25.168  25.211  1.00  0.00    -0.203 F 
ATOM     82  C   UNL A   1      43.240  22.852  25.221  1.00  0.00     0.198 A 
ATOM     83  C   UNL A   1      42.344  21.788  27.165  1.00  0.00     0.198 A 
ATOM     84  F   UNL A   1      41.902  23.025  29.096  1.00  0.00    -0.203 F 
ATOM     85  F   UNL A   1      43.748  22.768  23.984  1.00  0.00    -0.200 F 
ATOM     86  C   UNL A   1      42.833  21.700  25.875  1.00  0.00     0.200 A 
ATOM     87  F   UNL A   1      41.978  20.677  27.822  1.00  0.00    -0.200 F 
ATOM     88  F   UNL A   1      42.952  20.506  25.282  1.00  0.00    -0.200 F 
ENDBRANCH  54  78
BRANCH  66  89
ATOM     89  C   UNL A   1      46.031  29.164  29.154  1.00  0.00     0.064 A 
ATOM     90  C   UNL A   1      47.320  29.298  28.616  1.00  0.00     0.173 A 
ATOM     91  C   UNL A   1      45.004  29.930  28.585  1.00  0.00     0.173 A 
ATOM     92  F   UNL A   1      48.333  28.540  29.059  1.00  0.00    -0.203 F 
ATOM     93  C   UNL A   1      47.575  30.199  27.584  1.00  0.00     0.198 A 
ATOM     94  C   UNL A   1      45.255  30.801  27.532  1.00  0.00     0.198 A 
ATOM     95  F   UNL A   1      43.746  29.808  29.037  1.00  0.00    -0.203 F 
ATOM     96  F   UNL A   1      48.819  30.335  27.102  1.00  0.00    -0.200 F 
ATOM     97  C   UNL A   1      46.542  30.946  27.040  1.00  0.00     0.200 A 
ATOM     98  F   UNL A   1      44.245  31.491  26.983  1.00  0.00    -0.200 F 
ATOM     99  F   UNL A   1      46.782  31.793  26.030  1.00  0.00    -0.200 F 
ENDBRANCH  66  89
ENDBRANCH  40  41
ENDBRANCH  33  35
ENDBRANCH  32  33
ENDBRANCH  31  32
ENDBRANCH  30  31
ENDBRANCH  29  30
ENDBRANCH  28  29
ENDBRANCH  27  28
ENDBRANCH   1  27
TORSDOF 23
ENDMDL
MODEL 3
REMARK VINA RESULT:     -10.1      4.190     10.337
REMARK SMILES COCC[C@H]([NH3+])C(=O)N1CC(n2cc(C(=O)OCCOCCOCCOC(=O)c3ccc(-c4c5nc(c(-c6c(F)c(F)c(F)c(F)c6F)c6ccc([nH]6)c(-c6c(F)c(F)c(F)c(F)c6F)c6nc(c(-c7c(F)c(F)c(F)c(F)c7F)c7ccc4[nH]7)C=C6)C=C5)cc3)nn2)C1
REMARK SMILES IDX 20 1 19 2 18 3 17 4 15 5 16 6 14 7 12 8 13 9 93 10 92 11
REMARK SMILES IDX 11 12 7 13 8 14 9 15 10 16 94 17 5 18 4 19 3 20 2 21 1 22
REMARK SMILES IDX 6 23 21 27 22 28 23 29 24 30 25 31 26 32 27 33 28 34 29 35
REMARK SMILES IDX 30 36 91 37 31 38 90 39 32 40 33 41 34 42 84 43 35 44 89 45
REMARK SMILES IDX 83 46 85 47 36 48 88 49 82 50 81 51 37 53 69 54 49 55 68 56
REMARK SMILES IDX 50 57 53 58 67 59 86 60 51 61 52 62 66 64 87 65 54 66 38 67
REMARK SMILES IDX 39 68 47 69 40 70 41 71 45 72 48 73 42 74 43 75 46 76 44 77
REMARK SMILES IDX 70 78 71 79 79 80 72 81 73 82 77 83 80 84 74 85 75 86 78 87
REMARK SMILES IDX 76 88 55 89 56 90 64 91 57 92 58 93 62 94 65 95 59 96 60 97
REMARK SMILES IDX 63 98 61 99
REMARK H PARENT 6 24 6 25 6 26 85 52 53 63
REMARK Flexibility Score: inf
ROOT
ATOM      1  O   UNL A   1      32.520  36.883  31.096  1.00  0.00    -0.376 OA
ENDROOT
BRANCH   1   2
ATOM      2  C   UNL A   1      33.282  36.632  29.926  1.00  0.00     0.202 C 
BRANCH   2   3
ATOM      3  C   UNL A   1      32.982  35.559  28.856  1.00  0.00     0.261 C 
BRANCH   3   4
ATOM      4  O   UNL A   1      33.310  34.203  29.169  1.00  0.00    -0.458 OA
BRANCH   4   5
ATOM      5  C   UNL A   1      34.093  33.555  28.247  1.00  0.00     0.360 C 
ATOM      6  O   UNL A   1      35.226  33.900  27.952  1.00  0.00    -0.244 OA
BRANCH   5   7
ATOM      7  C   UNL A   1      33.477  32.332  27.749  1.00  0.00     0.190 A 
ATOM      8  N   UNL A   1      32.964  30.317  27.131  1.00  0.00    -0.245 N 
ATOM      9  C   UNL A   1      33.993  31.054  27.656  1.00  0.00     0.147 A 
ATOM     10  N   UNL A   1      31.914  31.096  26.835  1.00  0.00    -0.066 NA
ATOM     11  N   UNL A   1      32.208  32.329  27.220  1.00  0.00    -0.123 NA
BRANCH   8  12
ATOM     12  C   UNL A   1      32.940  28.882  27.097  1.00  0.00     0.148 C 
ATOM     13  C   UNL A   1      33.504  26.315  25.213  1.00  0.00     0.280 C 
ATOM     14  O   UNL A   1      33.174  25.488  26.068  1.00  0.00    -0.268 OA
ATOM     15  N   UNL A   1      33.593  27.657  25.508  1.00  0.00    -0.333 N 
ATOM     16  C   UNL A   1      34.242  28.180  26.733  1.00  0.00     0.149 C 
ATOM     17  C   UNL A   1      32.369  28.432  25.763  1.00  0.00     0.149 C 
BRANCH  13  18
ATOM     18  C   UNL A   1      33.775  25.890  23.743  1.00  0.00     0.273 C 
BRANCH  18  19
ATOM     19  C   UNL A   1      33.398  26.862  22.614  1.00  0.00     0.104 C 
BRANCH  19  20
ATOM     20  C   UNL A   1      31.920  27.187  22.381  1.00  0.00     0.166 C 
BRANCH  20  21
ATOM     21  O   UNL A   1      31.067  26.077  22.604  1.00  0.00    -0.384 OA
ATOM     22  C   UNL A   1      30.114  26.267  23.640  1.00  0.00     0.194 C 
ENDBRANCH  20  21
ENDBRANCH  19  20
ENDBRANCH  18  19
BRANCH  18  23
ATOM     23  N   UNL A   1      33.327  24.498  23.510  1.00  0.00    -0.347 N 
ATOM     24  H   UNL A   1      33.142  24.362  22.517  1.00  0.00     0.345 HD
ATOM     25  H   UNL A   1      32.475  24.322  24.043  1.00  0.00     0.345 HD
ATOM     26  H   UNL A   1      34.056  23.853  23.813  1.00  0.00     0.345 HD
ENDBRANCH  18  23
ENDBRANCH  13  18
ENDBRANCH   8  12
ENDBRANCH   5   7
ENDBRANCH   4   5
ENDBRANCH   3   4
ENDBRANCH   2   3
ENDBRANCH   1   2
BRANCH   1  27
ATOM     27  C   UNL A   1      33.112  36.857  32.371  1.00  0.00     0.188 C 
BRANCH  27  28
ATOM     28  C   UNL A   1      33.915  35.604  32.769  1.00  0.00     0.188 C 
BRANCH  28  29
ATOM     29  O   UNL A   1      35.297  35.658  33.073  1.00  0.00    -0.376 OA
BRANCH  29  30
ATOM     30  C   UNL A   1      35.997  34.586  33.687  1.00  0.00     0.202 C 
BRANCH  30  31
ATOM     31  C   UNL A   1      36.785  33.516  32.935  1.00  0.00     0.261 C 
BRANCH  31  32
ATOM     32  O   UNL A   1      36.572  33.468  31.541  1.00  0.00    -0.460 OA
BRANCH  32  33
ATOM     33  C   UNL A   1      35.903  32.364  31.147  1.00  0.00     0.338 C 
ATOM     34  O   UNL A   1      34.746  32.073  31.397  1.00  0.00    -0.246 OA
BRANCH  33  35
ATOM     35  C   UNL A   1      36.814  31.494  30.406  1.00  0.00     0.060 A 
ATOM     36  C   UNL A   1      36.711  30.128  30.669  1.00  0.00     0.016 A 
ATOM     37  C   UNL A   1      37.911  32.051  29.734  1.00  0.00     0.016 A 
ATOM     38  C   UNL A   1      37.826  29.350  30.473  1.00  0.00     0.010 A 
ATOM     39  C   UNL A   1      39.029  31.275  29.550  1.00  0.00     0.010 A 
ATOM     40  C   UNL A   1      38.998  29.963  30.015  1.00  0.00    -0.014 A 
BRANCH  40  41
ATOM     41  C   UNL A   1      40.209  29.178  30.061  1.00  0.00     0.031 A 
ATOM     42  C   UNL A   1      40.793  29.063  31.404  1.00  0.00     0.074 A 
ATOM     43  C   UNL A   1      40.728  28.598  28.964  1.00  0.00     0.049 A 
ATOM     44  N   UNL A   1      41.905  29.569  31.817  1.00  0.00    -0.248 NA
ATOM     45  C   UNL A   1      39.986  28.418  32.449  1.00  0.00     0.031 C 
ATOM     46  C   UNL A   1      40.080  28.428  27.659  1.00  0.00     0.029 A 
ATOM     47  N   UNL A   1      41.918  27.949  28.814  1.00  0.00    -0.354 N 
ATOM     48  C   UNL A   1      42.035  29.143  33.131  1.00  0.00     0.074 A 
ATOM     49  C   UNL A   1      40.766  28.582  33.518  1.00  0.00     0.031 C 
ATOM     50  C   UNL A   1      40.792  27.545  26.925  1.00  0.00     0.029 A 
ATOM     51  C   UNL A   1      42.004  27.203  27.650  1.00  0.00     0.049 A 
ATOM     52  H   UNL A   1      42.648  28.005  29.472  1.00  0.00     0.167 HD
ATOM     53  C   UNL A   1      43.264  29.033  33.697  1.00  0.00     0.037 A 
ATOM     54  C   UNL A   1      42.980  26.324  27.326  1.00  0.00     0.037 A 
ATOM     55  C   UNL A   1      44.270  29.713  32.927  1.00  0.00     0.049 A 
ATOM     56  C   UNL A   1      44.188  26.652  28.118  1.00  0.00     0.074 A 
ATOM     57  C   UNL A   1      44.715  31.007  32.782  1.00  0.00     0.029 A 
ATOM     58  N   UNL A   1      44.761  28.989  31.875  1.00  0.00    -0.354 N 
ATOM     59  N   UNL A   1      44.903  27.728  27.934  1.00  0.00    -0.248 NA
ATOM     60  C   UNL A   1      44.456  25.933  29.360  1.00  0.00     0.031 C 
ATOM     61  C   UNL A   1      45.386  31.062  31.523  1.00  0.00     0.029 A 
ATOM     62  C   UNL A   1      45.332  29.802  30.934  1.00  0.00     0.049 A 
ATOM     63  H   UNL A   1      44.709  28.008  31.804  1.00  0.00     0.167 HD
ATOM     64  C   UNL A   1      45.375  28.041  29.193  1.00  0.00     0.074 A 
ATOM     65  C   UNL A   1      45.238  26.824  29.976  1.00  0.00     0.031 C 
ATOM     66  C   UNL A   1      45.518  29.340  29.578  1.00  0.00     0.037 A 
BRANCH  53  67
ATOM     67  C   UNL A   1      43.644  27.940  34.659  1.00  0.00     0.064 A 
ATOM     68  C   UNL A   1      43.619  26.603  34.221  1.00  0.00     0.173 A 
ATOM     69  C   UNL A   1      43.711  28.129  36.057  1.00  0.00     0.173 A 
ATOM     70  F   UNL A   1      43.521  26.317  32.914  1.00  0.00    -0.203 F 
ATOM     71  C   UNL A   1      43.605  25.536  35.122  1.00  0.00     0.198 A 
ATOM     72  C   UNL A   1      43.755  27.061  36.949  1.00  0.00     0.198 A 
ATOM     73  F   UNL A   1      43.612  29.341  36.616  1.00  0.00    -0.203 F 
ATOM     74  F   UNL A   1      43.463  24.283  34.667  1.00  0.00    -0.200 F 
ATOM     75  C   UNL A   1      43.673  25.766  36.484  1.00  0.00     0.200 A 
ATOM     76  F   UNL A   1      43.792  27.305  38.267  1.00  0.00    -0.200 F 
ATOM     77  F   UNL A   1      43.607  24.747  37.351  1.00  0.00    -0.200 F 
ENDBRANCH  53  67
BRANCH  54  78
ATOM     78  C   UNL A   1      42.875  25.097  26.511  1.00  0.00     0.064 A 
ATOM     79  C   UNL A   1      43.719  24.878  25.412  1.00  0.00     0.173 A 
ATOM     80  C   UNL A   1      42.122  23.994  26.958  1.00  0.00     0.173 A 
ATOM     81  F   UNL A   1      44.499  25.867  24.952  1.00  0.00    -0.203 F 
ATOM     82  C   UNL A   1      43.825  23.621  24.813  1.00  0.00     0.198 A 
ATOM     83  C   UNL A   1      42.221  22.743  26.353  1.00  0.00     0.198 A 
ATOM     84  F   UNL A   1      41.346  24.089  28.048  1.00  0.00    -0.203 F 
ATOM     85  F   UNL A   1      44.689  23.432  23.805  1.00  0.00    -0.200 F 
ATOM     86  C   UNL A   1      43.084  22.552  25.290  1.00  0.00     0.200 A 
ATOM     87  F   UNL A   1      41.523  21.709  26.846  1.00  0.00    -0.200 F 
ATOM     88  F   UNL A   1      43.232  21.332  24.756  1.00  0.00    -0.200 F 
ENDBRANCH  54  78
BRANCH  66  89
ATOM     89  C   UNL A   1      45.688  30.353  28.493  1.00  0.00     0.064 A 
ATOM     90  C   UNL A   1      44.623  30.989  27.835  1.00  0.00     0.173 A 
ATOM     91  C   UNL A   1      46.991  30.726  28.137  1.00  0.00     0.173 A 
ATOM     92  F   UNL A   1      43.352  30.737  28.179  1.00  0.00    -0.203 F 
ATOM     93  C   UNL A   1      44.860  31.923  26.829  1.00  0.00     0.198 A 
ATOM     94  C   UNL A   1      47.223  31.685  27.159  1.00  0.00     0.198 A 
ATOM     95  F   UNL A   1      48.043  30.177  28.766  1.00  0.00    -0.203 F 
ATOM     96  F   UNL A   1      43.830  32.499  26.191  1.00  0.00    -0.200 F 
ATOM     97  C   UNL A   1      46.158  32.274  26.495  1.00  0.00     0.200 A 
ATOM     98  F   UNL A   1      48.480  32.050  26.868  1.00  0.00    -0.200 F 
ATOM     99  F   UNL A   1      46.386  33.192  25.545  1.00  0.00    -0.200 F 
ENDBRANCH  66  89
ENDBRANCH  40  41
ENDBRANCH  33  35
ENDBRANCH  32  33
ENDBRANCH  31  32
ENDBRANCH  30  31
ENDBRANCH  29  30
ENDBRANCH  28  29
ENDBRANCH  27  28
ENDBRANCH   1  27
TORSDOF 23
ENDMDL
