MODEL 1
REMARK VINA RESULT:     -11.1      0.000      0.000
REMARK SMILES Cc1cc(Br)c(C)c([C@@H]2[NH2+][C@H](C(=O)OCCOCCOCCOC(=O)c3ccc(-c4c5nc(c(-c6c(F)c(F)c(F)c(F)c6F)c6ccc([nH]6)c(-c6c(F)c(F)c(F)c(F)c6F)c6nc(c(-c7c(F)c(F)c(F)c(F)c7F)c7ccc4[nH]7)C=C6)C=C5)cc3)CS2)c1O
REMARK SMILES IDX 18 1 17 2 16 3 15 4 14 5 12 6 13 7 11 8 9 9 10 10 90 11
REMARK SMILES IDX 89 14 8 15 1 16 2 17 3 18 91 19 4 20 5 21 6 22 7 23 92 24
REMARK SMILES IDX 19 26 20 27 21 28 22 29 23 30 24 31 25 32 26 33 27 34 88 35
REMARK SMILES IDX 28 36 87 37 29 38 30 39 31 40 81 41 32 42 86 43 80 44 82 45
REMARK SMILES IDX 33 46 85 47 79 48 78 49 34 51 66 52 46 53 65 54 47 55 50 56
REMARK SMILES IDX 64 57 83 58 48 59 49 60 63 62 84 63 51 64 35 65 36 66 44 67
REMARK SMILES IDX 37 68 38 69 42 70 45 71 39 72 40 73 43 74 41 75 67 76 68 77
REMARK SMILES IDX 76 78 69 79 70 80 74 81 77 82 71 83 72 84 75 85 73 86 52 87
REMARK SMILES IDX 53 88 61 89 54 90 55 91 59 92 62 93 56 94 57 95 60 96 58 97
REMARK H PARENT 10 12 10 13 92 25 82 50 50 61
REMARK Flexibility Score: inf
ROOT
ATOM      1  C   UNL A   1      29.439  28.440  22.839  1.00  0.00     0.188 C 
ENDROOT
BRANCH   1   2
ATOM      2  O   UNL A   1      28.422  27.667  23.476  1.00  0.00    -0.376 OA
BRANCH   2   3
ATOM      3  C   UNL A   1      28.758  26.343  23.883  1.00  0.00     0.202 C 
BRANCH   3   4
ATOM      4  C   UNL A   1      30.253  26.052  24.006  1.00  0.00     0.261 C 
BRANCH   4   5
ATOM      5  O   UNL A   1      30.683  25.963  25.378  1.00  0.00    -0.459 OA
BRANCH   5   6
ATOM      6  C   UNL A   1      31.196  24.765  25.762  1.00  0.00     0.365 C 
ATOM      7  O   UNL A   1      30.631  23.694  25.544  1.00  0.00    -0.245 OA
BRANCH   6   8
ATOM      8  C   UNL A   1      32.609  24.828  26.370  1.00  0.00     0.304 C 
ATOM      9  C   UNL A   1      34.047  22.954  25.852  1.00  0.00     0.278 C 
ATOM     10  N   UNL A   1      33.198  23.561  26.891  1.00  0.00    -0.319 N 
ATOM     11  S   UNL A   1      34.749  24.265  24.838  1.00  0.00    -0.087 SA
ATOM     12  H   UNL A   1      33.761  23.763  27.717  1.00  0.00     0.348 HD
ATOM     13  H   UNL A   1      32.449  22.915  27.141  1.00  0.00     0.348 HD
ATOM     14  C   UNL A   1      33.584  25.519  25.419  1.00  0.00     0.153 C 
BRANCH   9  15
ATOM     15  C   UNL A   1      33.387  21.760  25.164  1.00  0.00     0.066 A 
ATOM     16  C   UNL A   1      32.736  17.997  25.818  1.00  0.00     0.048 C 
ATOM     17  C   UNL A   1      32.818  19.352  25.176  1.00  0.00    -0.008 A 
ATOM     18  C   UNL A   1      32.381  19.464  23.855  1.00  0.00     0.023 A 
ATOM     19  C   UNL A   1      33.259  20.512  25.830  1.00  0.00     0.128 A 
ATOM     20  C   UNL A   1      32.432  20.684  23.183  1.00  0.00     0.021 A 
ATOM     21  Br  UNL A   1      31.728  20.685  21.409  1.00  0.00    -0.051 Br
ATOM     22  C   UNL A   1      32.970  21.838  23.796  1.00  0.00    -0.023 A 
ATOM     23  C   UNL A   1      33.017  23.121  22.995  1.00  0.00     0.046 C 
BRANCH  19  24
ATOM     24  O   UNL A   1      33.582  20.462  27.159  1.00  0.00    -0.507 OA
ATOM     25  H   UNL A   1      32.905  20.482  27.806  1.00  0.00     0.293 HD
ENDBRANCH  19  24
ENDBRANCH   9  15
ENDBRANCH   6   8
ENDBRANCH   5   6
ENDBRANCH   4   5
ENDBRANCH   3   4
ENDBRANCH   2   3
ENDBRANCH   1   2
BRANCH   1  26
ATOM     26  C   UNL A   1      29.398  29.974  22.984  1.00  0.00     0.188 C 
BRANCH  26  27
ATOM     27  O   UNL A   1      30.103  30.443  24.121  1.00  0.00    -0.376 OA
BRANCH  27  28
ATOM     28  C   UNL A   1      31.176  29.628  24.550  1.00  0.00     0.202 C 
BRANCH  28  29
ATOM     29  C   UNL A   1      31.625  29.956  25.978  1.00  0.00     0.261 C 
BRANCH  29  30
ATOM     30  O   UNL A   1      32.982  30.422  26.093  1.00  0.00    -0.460 OA
BRANCH  30  31
ATOM     31  C   UNL A   1      33.230  31.434  26.954  1.00  0.00     0.338 C 
ATOM     32  O   UNL A   1      32.478  32.346  27.253  1.00  0.00    -0.246 OA
BRANCH  31  33
ATOM     33  C   UNL A   1      34.503  31.120  27.647  1.00  0.00     0.060 A 
ATOM     34  C   UNL A   1      35.423  32.132  27.939  1.00  0.00     0.016 A 
ATOM     35  C   UNL A   1      34.815  29.784  27.936  1.00  0.00     0.016 A 
ATOM     36  C   UNL A   1      36.647  31.810  28.530  1.00  0.00     0.010 A 
ATOM     37  C   UNL A   1      36.049  29.460  28.513  1.00  0.00     0.010 A 
ATOM     38  C   UNL A   1      36.967  30.474  28.830  1.00  0.00    -0.014 A 
BRANCH  38  39
ATOM     39  C   UNL A   1      38.170  30.184  29.648  1.00  0.00     0.031 A 
ATOM     40  C   UNL A   1      38.347  30.714  31.039  1.00  0.00     0.074 A 
ATOM     41  C   UNL A   1      39.110  29.387  29.104  1.00  0.00     0.049 A 
ATOM     42  N   UNL A   1      39.291  30.436  31.905  1.00  0.00    -0.248 NA
ATOM     43  C   UNL A   1      37.352  31.681  31.521  1.00  0.00     0.031 C 
ATOM     44  C   UNL A   1      39.054  28.838  27.749  1.00  0.00     0.029 A 
ATOM     45  N   UNL A   1      40.282  28.894  29.619  1.00  0.00    -0.354 N 
ATOM     46  C   UNL A   1      38.993  31.170  33.045  1.00  0.00     0.074 A 
ATOM     47  C   UNL A   1      37.802  31.942  32.745  1.00  0.00     0.031 C 
ATOM     48  C   UNL A   1      40.137  28.075  27.541  1.00  0.00     0.029 A 
ATOM     49  C   UNL A   1      40.964  28.086  28.744  1.00  0.00     0.049 A 
ATOM     50  H   UNL A   1      40.602  29.101  30.527  1.00  0.00     0.167 HD
ATOM     51  C   UNL A   1      39.648  31.179  34.231  1.00  0.00     0.037 A 
ATOM     52  C   UNL A   1      42.121  27.417  28.896  1.00  0.00     0.037 A 
ATOM     53  C   UNL A   1      40.836  30.410  34.519  1.00  0.00     0.049 A 
ATOM     54  C   UNL A   1      42.831  27.460  30.219  1.00  0.00     0.074 A 
ATOM     55  C   UNL A   1      41.529  30.313  35.715  1.00  0.00     0.029 A 
ATOM     56  N   UNL A   1      41.512  29.618  33.604  1.00  0.00    -0.354 N 
ATOM     57  N   UNL A   1      42.485  28.081  31.319  1.00  0.00    -0.248 NA
ATOM     58  C   UNL A   1      44.081  26.696  30.327  1.00  0.00     0.031 C 
ATOM     59  C   UNL A   1      42.651  29.505  35.510  1.00  0.00     0.029 A 
ATOM     60  C   UNL A   1      42.631  29.055  34.201  1.00  0.00     0.049 A 
ATOM     61  H   UNL A   1      41.239  29.476  32.669  1.00  0.00     0.167 HD
ATOM     62  C   UNL A   1      43.461  27.768  32.255  1.00  0.00     0.074 A 
ATOM     63  C   UNL A   1      44.401  26.884  31.599  1.00  0.00     0.031 C 
ATOM     64  C   UNL A   1      43.566  28.182  33.541  1.00  0.00     0.037 A 
BRANCH  51  65
ATOM     65  C   UNL A   1      39.103  32.025  35.345  1.00  0.00     0.064 A 
ATOM     66  C   UNL A   1      38.316  31.464  36.360  1.00  0.00     0.173 A 
ATOM     67  C   UNL A   1      39.498  33.365  35.484  1.00  0.00     0.173 A 
ATOM     68  F   UNL A   1      37.917  30.186  36.276  1.00  0.00    -0.203 F 
ATOM     69  C   UNL A   1      37.949  32.211  37.477  1.00  0.00     0.198 A 
ATOM     70  C   UNL A   1      39.147  34.103  36.611  1.00  0.00     0.198 A 
ATOM     71  F   UNL A   1      40.266  33.944  34.547  1.00  0.00    -0.203 F 
ATOM     72  F   UNL A   1      37.197  31.654  38.437  1.00  0.00    -0.200 F 
ATOM     73  C   UNL A   1      38.375  33.525  37.609  1.00  0.00     0.200 A 
ATOM     74  F   UNL A   1      39.577  35.365  36.746  1.00  0.00    -0.200 F 
ATOM     75  F   UNL A   1      38.051  34.231  38.700  1.00  0.00    -0.200 F 
ENDBRANCH  51  65
BRANCH  52  76
ATOM     76  C   UNL A   1      42.659  26.621  27.764  1.00  0.00     0.064 A 
ATOM     77  C   UNL A   1      42.318  25.272  27.602  1.00  0.00     0.173 A 
ATOM     78  C   UNL A   1      43.515  27.199  26.816  1.00  0.00     0.173 A 
ATOM     79  F   UNL A   1      41.516  24.673  28.495  1.00  0.00    -0.203 F 
ATOM     80  C   UNL A   1      42.828  24.525  26.543  1.00  0.00     0.198 A 
ATOM     81  C   UNL A   1      44.001  26.460  25.741  1.00  0.00     0.198 A 
ATOM     82  F   UNL A   1      43.863  28.491  26.924  1.00  0.00    -0.203 F 
ATOM     83  F   UNL A   1      42.520  23.226  26.434  1.00  0.00    -0.200 F 
ATOM     84  C   UNL A   1      43.664  25.121  25.610  1.00  0.00     0.200 A 
ATOM     85  F   UNL A   1      44.795  27.043  24.834  1.00  0.00    -0.200 F 
ATOM     86  F   UNL A   1      44.149  24.403  24.589  1.00  0.00    -0.200 F 
ENDBRANCH  52  76
BRANCH  64  87
ATOM     87  C   UNL A   1      44.738  27.679  34.332  1.00  0.00     0.064 A 
ATOM     88  C   UNL A   1      45.936  28.405  34.406  1.00  0.00     0.173 A 
ATOM     89  C   UNL A   1      44.649  26.484  35.062  1.00  0.00     0.173 A 
ATOM     90  F   UNL A   1      46.077  29.545  33.714  1.00  0.00    -0.203 F 
ATOM     91  C   UNL A   1      47.009  27.943  35.164  1.00  0.00     0.198 A 
ATOM     92  C   UNL A   1      45.712  26.039  35.843  1.00  0.00     0.198 A 
ATOM     93  F   UNL A   1      43.523  25.755  35.031  1.00  0.00    -0.203 F 
ATOM     94  F   UNL A   1      48.158  28.632  35.185  1.00  0.00    -0.200 F 
ATOM     95  C   UNL A   1      46.893  26.766  35.889  1.00  0.00     0.200 A 
ATOM     96  F   UNL A   1      45.595  24.909  36.553  1.00  0.00    -0.200 F 
ATOM     97  F   UNL A   1      47.923  26.328  36.626  1.00  0.00    -0.200 F 
ENDBRANCH  64  87
ENDBRANCH  38  39
ENDBRANCH  31  33
ENDBRANCH  30  31
ENDBRANCH  29  30
ENDBRANCH  28  29
ENDBRANCH  27  28
ENDBRANCH  26  27
ENDBRANCH   1  26
TORSDOF 19
ENDMDL
MODEL 2
REMARK VINA RESULT:     -10.9      4.238      9.883
REMARK SMILES Cc1cc(Br)c(C)c([C@@H]2[NH2+][C@H](C(=O)OCCOCCOCCOC(=O)c3ccc(-c4c5nc(c(-c6c(F)c(F)c(F)c(F)c6F)c6ccc([nH]6)c(-c6c(F)c(F)c(F)c(F)c6F)c6nc(c(-c7c(F)c(F)c(F)c(F)c7F)c7ccc4[nH]7)C=C6)C=C5)cc3)CS2)c1O
REMARK SMILES IDX 18 1 17 2 16 3 15 4 14 5 12 6 13 7 11 8 9 9 10 10 90 11
REMARK SMILES IDX 89 14 8 15 1 16 2 17 3 18 91 19 4 20 5 21 6 22 7 23 92 24
REMARK SMILES IDX 19 26 20 27 21 28 22 29 23 30 24 31 25 32 26 33 27 34 88 35
REMARK SMILES IDX 28 36 87 37 29 38 30 39 31 40 81 41 32 42 86 43 80 44 82 45
REMARK SMILES IDX 33 46 85 47 79 48 78 49 34 51 66 52 46 53 65 54 47 55 50 56
REMARK SMILES IDX 64 57 83 58 48 59 49 60 63 62 84 63 51 64 35 65 36 66 44 67
REMARK SMILES IDX 37 68 38 69 42 70 45 71 39 72 40 73 43 74 41 75 67 76 68 77
REMARK SMILES IDX 76 78 69 79 70 80 74 81 77 82 71 83 72 84 75 85 73 86 52 87
REMARK SMILES IDX 53 88 61 89 54 90 55 91 59 92 62 93 56 94 57 95 60 96 58 97
REMARK H PARENT 10 12 10 13 92 25 82 50 50 61
REMARK Flexibility Score: inf
ROOT
ATOM      1  C   UNL A   1      33.996  22.120  27.633  1.00  0.00     0.188 C 
ENDROOT
BRANCH   1   2
ATOM      2  O   UNL A   1      32.677  22.582  27.918  1.00  0.00    -0.376 OA
BRANCH   2   3
ATOM      3  C   UNL A   1      31.743  22.617  26.841  1.00  0.00     0.202 C 
BRANCH   3   4
ATOM      4  C   UNL A   1      30.805  23.823  26.823  1.00  0.00     0.261 C 
BRANCH   4   5
ATOM      5  O   UNL A   1      30.555  24.303  25.488  1.00  0.00    -0.459 OA
BRANCH   5   6
ATOM      6  C   UNL A   1      30.623  25.649  25.319  1.00  0.00     0.365 C 
ATOM      7  O   UNL A   1      30.742  26.436  26.257  1.00  0.00    -0.245 OA
BRANCH   6   8
ATOM      8  C   UNL A   1      30.681  26.118  23.854  1.00  0.00     0.304 C 
ATOM      9  C   UNL A   1      31.791  28.236  23.485  1.00  0.00     0.278 C 
ATOM     10  N   UNL A   1      30.480  27.570  23.582  1.00  0.00    -0.319 N 
ATOM     11  S   UNL A   1      32.992  27.059  22.845  1.00  0.00    -0.087 SA
ATOM     12  H   UNL A   1      29.975  27.684  22.703  1.00  0.00     0.348 HD
ATOM     13  H   UNL A   1      29.940  27.988  24.340  1.00  0.00     0.348 HD
ATOM     14  C   UNL A   1      31.951  25.617  23.169  1.00  0.00     0.153 C 
BRANCH   9  15
ATOM     15  C   UNL A   1      32.142  29.046  24.733  1.00  0.00     0.066 A 
ATOM     16  C   UNL A   1      31.057  32.321  26.497  1.00  0.00     0.048 C 
ATOM     17  C   UNL A   1      31.781  31.058  26.128  1.00  0.00    -0.008 A 
ATOM     18  C   UNL A   1      32.890  30.703  26.898  1.00  0.00     0.023 A 
ATOM     19  C   UNL A   1      31.388  30.194  25.095  1.00  0.00     0.128 A 
ATOM     20  C   UNL A   1      33.623  29.552  26.615  1.00  0.00     0.021 A 
ATOM     21  Br  UNL A   1      35.064  29.172  27.807  1.00  0.00    -0.051 Br
ATOM     22  C   UNL A   1      33.300  28.728  25.514  1.00  0.00    -0.023 A 
ATOM     23  C   UNL A   1      34.157  27.509  25.253  1.00  0.00     0.046 C 
BRANCH  19  24
ATOM     24  O   UNL A   1      30.238  30.447  24.397  1.00  0.00    -0.507 OA
ATOM     25  H   UNL A   1      30.091  31.296  24.028  1.00  0.00     0.293 HD
ENDBRANCH  19  24
ENDBRANCH   9  15
ENDBRANCH   6   8
ENDBRANCH   5   6
ENDBRANCH   4   5
ENDBRANCH   3   4
ENDBRANCH   2   3
ENDBRANCH   1   2
BRANCH   1  26
ATOM     26  C   UNL A   1      34.213  21.226  26.396  1.00  0.00     0.188 C 
BRANCH  26  27
ATOM     27  O   UNL A   1      35.248  21.694  25.547  1.00  0.00    -0.376 OA
BRANCH  27  28
ATOM     28  C   UNL A   1      35.814  20.724  24.687  1.00  0.00     0.202 C 
BRANCH  28  29
ATOM     29  C   UNL A   1      37.286  20.445  25.010  1.00  0.00     0.261 C 
BRANCH  29  30
ATOM     30  O   UNL A   1      37.954  21.492  25.737  1.00  0.00    -0.460 OA
BRANCH  30  31
ATOM     31  C   UNL A   1      39.202  21.244  26.194  1.00  0.00     0.338 C 
ATOM     32  O   UNL A   1      39.825  20.201  26.101  1.00  0.00    -0.246 OA
BRANCH  31  33
ATOM     33  C   UNL A   1      39.772  22.539  26.639  1.00  0.00     0.060 A 
ATOM     34  C   UNL A   1      40.771  22.577  27.618  1.00  0.00     0.016 A 
ATOM     35  C   UNL A   1      39.245  23.733  26.128  1.00  0.00     0.016 A 
ATOM     36  C   UNL A   1      41.249  23.808  28.074  1.00  0.00     0.010 A 
ATOM     37  C   UNL A   1      39.713  24.966  26.599  1.00  0.00     0.010 A 
ATOM     38  C   UNL A   1      40.731  25.011  27.564  1.00  0.00    -0.014 A 
BRANCH  38  39
ATOM     39  C   UNL A   1      41.402  26.290  27.904  1.00  0.00     0.031 A 
ATOM     40  C   UNL A   1      42.827  26.577  27.537  1.00  0.00     0.074 A 
ATOM     41  C   UNL A   1      40.669  27.222  28.541  1.00  0.00     0.049 A 
ATOM     42  N   UNL A   1      43.495  27.698  27.666  1.00  0.00    -0.248 NA
ATOM     43  C   UNL A   1      43.608  25.473  26.963  1.00  0.00     0.031 C 
ATOM     44  C   UNL A   1      39.282  27.040  28.972  1.00  0.00     0.029 A 
ATOM     45  N   UNL A   1      40.976  28.501  28.930  1.00  0.00    -0.354 N 
ATOM     46  C   UNL A   1      44.765  27.446  27.165  1.00  0.00     0.074 A 
ATOM     47  C   UNL A   1      44.789  26.051  26.770  1.00  0.00     0.031 C 
ATOM     48  C   UNL A   1      38.853  28.169  29.555  1.00  0.00     0.029 A 
ATOM     49  C   UNL A   1      39.935  29.149  29.545  1.00  0.00     0.049 A 
ATOM     50  H   UNL A   1      41.858  28.913  28.783  1.00  0.00     0.167 HD
ATOM     51  C   UNL A   1      45.800  28.311  27.036  1.00  0.00     0.037 A 
ATOM     52  C   UNL A   1      39.852  30.399  30.036  1.00  0.00     0.037 A 
ATOM     53  C   UNL A   1      45.766  29.698  27.436  1.00  0.00     0.049 A 
ATOM     54  C   UNL A   1      41.024  31.327  29.891  1.00  0.00     0.074 A 
ATOM     55  C   UNL A   1      46.751  30.661  27.284  1.00  0.00     0.029 A 
ATOM     56  N   UNL A   1      44.703  30.317  28.074  1.00  0.00    -0.354 N 
ATOM     57  N   UNL A   1      42.186  31.106  29.327  1.00  0.00    -0.248 NA
ATOM     58  C   UNL A   1      40.868  32.684  30.432  1.00  0.00     0.031 C 
ATOM     59  C   UNL A   1      46.305  31.846  27.876  1.00  0.00     0.029 A 
ATOM     60  C   UNL A   1      45.021  31.639  28.351  1.00  0.00     0.049 A 
ATOM     61  H   UNL A   1      43.849  29.882  28.299  1.00  0.00     0.167 HD
ATOM     62  C   UNL A   1      42.891  32.297  29.429  1.00  0.00     0.074 A 
ATOM     63  C   UNL A   1      42.018  33.245  30.088  1.00  0.00     0.031 C 
ATOM     64  C   UNL A   1      44.150  32.575  29.013  1.00  0.00     0.037 A 
BRANCH  51  65
ATOM     65  C   UNL A   1      47.074  27.816  26.414  1.00  0.00     0.064 A 
ATOM     66  C   UNL A   1      48.062  27.193  27.190  1.00  0.00     0.173 A 
ATOM     67  C   UNL A   1      47.237  27.820  25.020  1.00  0.00     0.173 A 
ATOM     68  F   UNL A   1      47.949  27.159  28.526  1.00  0.00    -0.203 F 
ATOM     69  C   UNL A   1      49.165  26.589  26.592  1.00  0.00     0.198 A 
ATOM     70  C   UNL A   1      48.330  27.197  24.425  1.00  0.00     0.198 A 
ATOM     71  F   UNL A   1      46.311  28.389  24.233  1.00  0.00    -0.203 F 
ATOM     72  F   UNL A   1      50.098  25.998  27.352  1.00  0.00    -0.200 F 
ATOM     73  C   UNL A   1      49.293  26.579  25.210  1.00  0.00     0.200 A 
ATOM     74  F   UNL A   1      48.442  27.171  23.089  1.00  0.00    -0.200 F 
ATOM     75  F   UNL A   1      50.336  25.966  24.636  1.00  0.00    -0.200 F 
ENDBRANCH  51  65
BRANCH  52  76
ATOM     76  C   UNL A   1      38.595  30.849  30.684  1.00  0.00     0.064 A 
ATOM     77  C   UNL A   1      38.445  30.811  32.076  1.00  0.00     0.173 A 
ATOM     78  C   UNL A   1      37.523  31.336  29.922  1.00  0.00     0.173 A 
ATOM     79  F   UNL A   1      39.438  30.337  32.843  1.00  0.00    -0.203 F 
ATOM     80  C   UNL A   1      37.263  31.228  32.682  1.00  0.00     0.198 A 
ATOM     81  C   UNL A   1      36.352  31.779  30.531  1.00  0.00     0.198 A 
ATOM     82  F   UNL A   1      37.622  31.399  28.586  1.00  0.00    -0.203 F 
ATOM     83  F   UNL A   1      37.129  31.143  34.012  1.00  0.00    -0.200 F 
ATOM     84  C   UNL A   1      36.219  31.717  31.910  1.00  0.00     0.200 A 
ATOM     85  F   UNL A   1      35.353  32.266  29.782  1.00  0.00    -0.200 F 
ATOM     86  F   UNL A   1      35.085  32.122  32.494  1.00  0.00    -0.200 F 
ENDBRANCH  52  76
BRANCH  64  87
ATOM     87  C   UNL A   1      44.664  33.965  29.253  1.00  0.00     0.064 A 
ATOM     88  C   UNL A   1      44.443  34.996  28.329  1.00  0.00     0.173 A 
ATOM     89  C   UNL A   1      45.341  34.282  30.441  1.00  0.00     0.173 A 
ATOM     90  F   UNL A   1      43.814  34.740  27.172  1.00  0.00    -0.203 F 
ATOM     91  C   UNL A   1      44.900  36.288  28.573  1.00  0.00     0.198 A 
ATOM     92  C   UNL A   1      45.772  35.580  30.695  1.00  0.00     0.198 A 
ATOM     93  F   UNL A   1      45.572  33.334  31.361  1.00  0.00    -0.203 F 
ATOM     94  F   UNL A   1      44.715  37.247  27.655  1.00  0.00    -0.200 F 
ATOM     95  C   UNL A   1      45.556  36.581  29.759  1.00  0.00     0.200 A 
ATOM     96  F   UNL A   1      46.394  35.866  31.847  1.00  0.00    -0.200 F 
ATOM     97  F   UNL A   1      45.987  37.828  29.997  1.00  0.00    -0.200 F 
ENDBRANCH  64  87
ENDBRANCH  38  39
ENDBRANCH  31  33
ENDBRANCH  30  31
ENDBRANCH  29  30
ENDBRANCH  28  29
ENDBRANCH  27  28
ENDBRANCH  26  27
ENDBRANCH   1  26
TORSDOF 19
ENDMDL
MODEL 3
REMARK VINA RESULT:     -10.9      2.283      3.571
REMARK SMILES Cc1cc(Br)c(C)c([C@@H]2[NH2+][C@H](C(=O)OCCOCCOCCOC(=O)c3ccc(-c4c5nc(c(-c6c(F)c(F)c(F)c(F)c6F)c6ccc([nH]6)c(-c6c(F)c(F)c(F)c(F)c6F)c6nc(c(-c7c(F)c(F)c(F)c(F)c7F)c7ccc4[nH]7)C=C6)C=C5)cc3)CS2)c1O
REMARK SMILES IDX 18 1 17 2 16 3 15 4 14 5 12 6 13 7 11 8 9 9 10 10 90 11
REMARK SMILES IDX 89 14 8 15 1 16 2 17 3 18 91 19 4 20 5 21 6 22 7 23 92 24
REMARK SMILES IDX 19 26 20 27 21 28 22 29 23 30 24 31 25 32 26 33 27 34 88 35
REMARK SMILES IDX 28 36 87 37 29 38 30 39 31 40 81 41 32 42 86 43 80 44 82 45
REMARK SMILES IDX 33 46 85 47 79 48 78 49 34 51 66 52 46 53 65 54 47 55 50 56
REMARK SMILES IDX 64 57 83 58 48 59 49 60 63 62 84 63 51 64 35 65 36 66 44 67
REMARK SMILES IDX 37 68 38 69 42 70 45 71 39 72 40 73 43 74 41 75 67 76 68 77
REMARK SMILES IDX 76 78 69 79 70 80 74 81 77 82 71 83 72 84 75 85 73 86 52 87
REMARK SMILES IDX 53 88 61 89 54 90 55 91 59 92 62 93 56 94 57 95 60 96 58 97
REMARK H PARENT 10 12 10 13 92 25 82 50 50 61
REMARK Flexibility Score: inf
ROOT
ATOM      1  C   UNL A   1      33.736  28.918  26.561  1.00  0.00     0.188 C 
ENDROOT
BRANCH   1   2
ATOM      2  O   UNL A   1      33.997  28.251  25.327  1.00  0.00    -0.376 OA
BRANCH   2   3
ATOM      3  C   UNL A   1      32.988  28.309  24.321  1.00  0.00     0.202 C 
BRANCH   3   4
ATOM      4  C   UNL A   1      33.089  27.247  23.227  1.00  0.00     0.261 C 
BRANCH   4   5
ATOM      5  O   UNL A   1      31.819  26.628  22.945  1.00  0.00    -0.459 OA
BRANCH   5   6
ATOM      6  C   UNL A   1      31.773  25.278  23.090  1.00  0.00     0.365 C 
ATOM      7  O   UNL A   1      32.582  24.520  22.558  1.00  0.00    -0.245 OA
BRANCH   6   8
ATOM      8  C   UNL A   1      30.715  24.768  24.086  1.00  0.00     0.304 C 
ATOM      9  C   UNL A   1      31.473  23.059  25.621  1.00  0.00     0.278 C 
ATOM     10  N   UNL A   1      30.698  23.309  24.393  1.00  0.00    -0.319 N 
ATOM     11  S   UNL A   1      31.349  24.503  26.688  1.00  0.00    -0.087 SA
ATOM     12  H   UNL A   1      29.735  23.002  24.530  1.00  0.00     0.348 HD
ATOM     13  H   UNL A   1      31.111  22.793  23.617  1.00  0.00     0.348 HD
ATOM     14  C   UNL A   1      30.738  25.585  25.376  1.00  0.00     0.153 C 
BRANCH   9  15
ATOM     15  C   UNL A   1      32.851  22.459  25.345  1.00  0.00     0.066 A 
ATOM     16  C   UNL A   1      34.450  19.003  24.629  1.00  0.00     0.048 C 
ATOM     17  C   UNL A   1      34.250  20.464  24.913  1.00  0.00    -0.008 A 
ATOM     18  C   UNL A   1      35.392  21.255  25.048  1.00  0.00     0.023 A 
ATOM     19  C   UNL A   1      32.997  21.088  25.004  1.00  0.00     0.128 A 
ATOM     20  C   UNL A   1      35.294  22.619  25.322  1.00  0.00     0.021 A 
ATOM     21  Br  UNL A   1      36.946  23.570  25.402  1.00  0.00    -0.051 Br
ATOM     22  C   UNL A   1      34.040  23.239  25.518  1.00  0.00    -0.023 A 
ATOM     23  C   UNL A   1      34.013  24.718  25.838  1.00  0.00     0.046 C 
BRANCH  19  24
ATOM     24  O   UNL A   1      31.860  20.368  24.759  1.00  0.00    -0.507 OA
ATOM     25  H   UNL A   1      31.775  19.882  23.963  1.00  0.00     0.293 HD
ENDBRANCH  19  24
ENDBRANCH   9  15
ENDBRANCH   6   8
ENDBRANCH   5   6
ENDBRANCH   4   5
ENDBRANCH   3   4
ENDBRANCH   2   3
ENDBRANCH   1   2
BRANCH   1  26
ATOM     26  C   UNL A   1      32.303  29.406  26.848  1.00  0.00     0.188 C 
BRANCH  26  27
ATOM     27  O   UNL A   1      32.143  30.802  26.658  1.00  0.00    -0.376 OA
BRANCH  27  28
ATOM     28  C   UNL A   1      32.960  31.623  27.471  1.00  0.00     0.202 C 
BRANCH  28  29
ATOM     29  C   UNL A   1      32.666  33.114  27.278  1.00  0.00     0.261 C 
BRANCH  29  30
ATOM     30  O   UNL A   1      32.263  33.810  28.472  1.00  0.00    -0.460 OA
BRANCH  30  31
ATOM     31  C   UNL A   1      32.994  34.881  28.853  1.00  0.00     0.338 C 
ATOM     32  O   UNL A   1      32.635  36.046  28.872  1.00  0.00    -0.246 OA
BRANCH  31  33
ATOM     33  C   UNL A   1      34.245  34.367  29.460  1.00  0.00     0.060 A 
ATOM     34  C   UNL A   1      34.232  33.789  30.735  1.00  0.00     0.016 A 
ATOM     35  C   UNL A   1      35.458  34.536  28.779  1.00  0.00     0.016 A 
ATOM     36  C   UNL A   1      35.430  33.372  31.320  1.00  0.00     0.010 A 
ATOM     37  C   UNL A   1      36.660  34.133  29.374  1.00  0.00     0.010 A 
ATOM     38  C   UNL A   1      36.652  33.532  30.642  1.00  0.00    -0.014 A 
BRANCH  38  39
ATOM     39  C   UNL A   1      37.872  32.889  31.188  1.00  0.00     0.031 A 
ATOM     40  C   UNL A   1      38.575  33.398  32.411  1.00  0.00     0.074 A 
ATOM     41  C   UNL A   1      38.327  31.789  30.558  1.00  0.00     0.049 A 
ATOM     42  N   UNL A   1      39.577  32.859  33.062  1.00  0.00    -0.248 NA
ATOM     43  C   UNL A   1      38.108  34.673  32.972  1.00  0.00     0.031 C 
ATOM     44  C   UNL A   1      37.738  31.222  29.344  1.00  0.00     0.029 A 
ATOM     45  N   UNL A   1      39.372  30.951  30.848  1.00  0.00    -0.354 N 
ATOM     46  C   UNL A   1      39.845  33.710  34.125  1.00  0.00     0.074 A 
ATOM     47  C   UNL A   1      38.928  34.827  34.007  1.00  0.00     0.031 C 
ATOM     48  C   UNL A   1      38.423  30.122  28.998  1.00  0.00     0.029 A 
ATOM     49  C   UNL A   1      39.501  29.912  29.960  1.00  0.00     0.049 A 
ATOM     50  H   UNL A   1      39.973  31.082  31.617  1.00  0.00     0.167 HD
ATOM     51  C   UNL A   1      40.761  33.555  35.112  1.00  0.00     0.037 A 
ATOM     52  C   UNL A   1      40.380  28.894  29.929  1.00  0.00     0.037 A 
ATOM     53  C   UNL A   1      41.672  32.440  35.218  1.00  0.00     0.049 A 
ATOM     54  C   UNL A   1      41.393  28.760  31.029  1.00  0.00     0.074 A 
ATOM     55  C   UNL A   1      42.591  32.174  36.221  1.00  0.00     0.029 A 
ATOM     56  N   UNL A   1      41.790  31.416  34.292  1.00  0.00    -0.354 N 
ATOM     57  N   UNL A   1      41.571  29.519  32.082  1.00  0.00    -0.248 NA
ATOM     58  C   UNL A   1      42.314  27.619  30.949  1.00  0.00     0.031 C 
ATOM     59  C   UNL A   1      43.299  31.019  35.874  1.00  0.00     0.029 A 
ATOM     60  C   UNL A   1      42.787  30.535  34.683  1.00  0.00     0.049 A 
ATOM     61  H   UNL A   1      41.246  31.328  33.476  1.00  0.00     0.167 HD
ATOM     62  C   UNL A   1      42.610  28.940  32.797  1.00  0.00     0.074 A 
ATOM     63  C   UNL A   1      43.007  27.752  32.071  1.00  0.00     0.031 C 
ATOM     64  C   UNL A   1      43.181  29.359  33.952  1.00  0.00     0.037 A 
BRANCH  51  65
ATOM     65  C   UNL A   1      40.834  34.595  36.192  1.00  0.00     0.064 A 
ATOM     66  C   UNL A   1      40.060  34.484  37.356  1.00  0.00     0.173 A 
ATOM     67  C   UNL A   1      41.793  35.618  36.135  1.00  0.00     0.173 A 
ATOM     68  F   UNL A   1      39.133  33.520  37.460  1.00  0.00    -0.203 F 
ATOM     69  C   UNL A   1      40.247  35.355  38.426  1.00  0.00     0.198 A 
ATOM     70  C   UNL A   1      41.992  36.475  37.214  1.00  0.00     0.198 A 
ATOM     71  F   UNL A   1      42.570  35.757  35.050  1.00  0.00    -0.203 F 
ATOM     72  F   UNL A   1      39.497  35.230  39.530  1.00  0.00    -0.200 F 
ATOM     73  C   UNL A   1      41.221  36.341  38.361  1.00  0.00     0.200 A 
ATOM     74  F   UNL A   1      42.946  37.414  37.158  1.00  0.00    -0.200 F 
ATOM     75  F   UNL A   1      41.424  37.156  39.404  1.00  0.00    -0.200 F 
ENDBRANCH  51  65
BRANCH  52  76
ATOM     76  C   UNL A   1      40.312  27.903  28.826  1.00  0.00     0.064 A 
ATOM     77  C   UNL A   1      40.996  28.113  27.622  1.00  0.00     0.173 A 
ATOM     78  C   UNL A   1      39.570  26.720  28.960  1.00  0.00     0.173 A 
ATOM     79  F   UNL A   1      41.705  29.238  27.443  1.00  0.00    -0.203 F 
ATOM     80  C   UNL A   1      40.927  27.186  26.585  1.00  0.00     0.198 A 
ATOM     81  C   UNL A   1      39.525  25.780  27.935  1.00  0.00     0.198 A 
ATOM     82  F   UNL A   1      38.904  26.471  30.098  1.00  0.00    -0.203 F 
ATOM     83  F   UNL A   1      41.557  27.430  25.429  1.00  0.00    -0.200 F 
ATOM     84  C   UNL A   1      40.196  26.018  26.745  1.00  0.00     0.200 A 
ATOM     85  F   UNL A   1      38.831  24.646  28.098  1.00  0.00    -0.200 F 
ATOM     86  F   UNL A   1      40.134  25.124  25.749  1.00  0.00    -0.200 F 
ENDBRANCH  52  76
BRANCH  64  87
ATOM     87  C   UNL A   1      44.299  28.526  34.509  1.00  0.00     0.064 A 
ATOM     88  C   UNL A   1      44.047  27.441  35.363  1.00  0.00     0.173 A 
ATOM     89  C   UNL A   1      45.631  28.783  34.151  1.00  0.00     0.173 A 
ATOM     90  F   UNL A   1      42.792  27.164  35.747  1.00  0.00    -0.203 F 
ATOM     91  C   UNL A   1      45.088  26.658  35.853  1.00  0.00     0.198 A 
ATOM     92  C   UNL A   1      46.667  27.981  34.619  1.00  0.00     0.198 A 
ATOM     93  F   UNL A   1      45.926  29.804  33.332  1.00  0.00    -0.203 F 
ATOM     94  F   UNL A   1      44.826  25.654  36.700  1.00  0.00    -0.200 F 
ATOM     95  C   UNL A   1      46.395  26.922  35.474  1.00  0.00     0.200 A 
ATOM     96  F   UNL A   1      47.929  28.229  34.243  1.00  0.00    -0.200 F 
ATOM     97  F   UNL A   1      47.396  26.161  35.940  1.00  0.00    -0.200 F 
ENDBRANCH  64  87
ENDBRANCH  38  39
ENDBRANCH  31  33
ENDBRANCH  30  31
ENDBRANCH  29  30
ENDBRANCH  28  29
ENDBRANCH  27  28
ENDBRANCH  26  27
ENDBRANCH   1  26
TORSDOF 19
ENDMDL
