MODEL 1
REMARK VINA RESULT:     -11.1      0.000      0.000
REMARK SMILES O=C(C[N@@H+]1CCC[C@@H]1C(=O)OCCOCCOCCOC(=O)c1ccc(-c2c3nc(c(-c4c(F)c(F)c(F)c(F)c4F)c4ccc([nH]4)c(-c4c(F)c(F)c(F)c(F)c4F)c4nc(c(-c5c(F)c(F)c(F)c(F)c5F)c5ccc2[nH]5)C=C4)C=C3)cc1)NCc1ccc(Cl)cc1
REMARK SMILES IDX 15 1 14 2 13 3 12 4 11 5 9 6 10 7 8 8 4 9 5 10 6 12 7 13
REMARK SMILES IDX 3 14 2 15 1 16 86 17 87 19 88 20 89 21 94 22 90 23 93 24
REMARK SMILES IDX 91 25 92 26 16 27 17 28 18 29 19 30 20 31 21 32 22 33 23 34
REMARK SMILES IDX 24 35 85 36 25 37 84 38 26 39 27 40 28 41 78 42 29 43 83 44
REMARK SMILES IDX 77 45 79 46 30 47 82 48 76 49 75 50 31 52 63 53 43 54 62 55
REMARK SMILES IDX 44 56 47 57 61 58 80 59 45 60 46 61 60 63 81 64 48 65 32 66
REMARK SMILES IDX 33 67 41 68 34 69 35 70 39 71 42 72 36 73 37 74 40 75 38 76
REMARK SMILES IDX 64 77 65 78 73 79 66 80 67 81 71 82 74 83 68 84 69 85 72 86
REMARK SMILES IDX 70 87 49 88 50 89 58 90 51 91 52 92 56 93 59 94 53 95 54 96
REMARK SMILES IDX 57 97 55 98
REMARK H PARENT 4 11 86 18 79 51 47 62
REMARK Flexibility Score: inf
ROOT
ATOM      1  C   UNL A   1      33.149  29.000  25.720  1.00  0.00     0.188 C 
ENDROOT
BRANCH   1   2
ATOM      2  O   UNL A   1      33.119  28.936  24.309  1.00  0.00    -0.376 OA
BRANCH   2   3
ATOM      3  C   UNL A   1      34.017  28.070  23.624  1.00  0.00     0.202 C 
BRANCH   3   4
ATOM      4  C   UNL A   1      33.723  27.569  22.204  1.00  0.00     0.261 C 
BRANCH   4   5
ATOM      5  O   UNL A   1      33.932  26.162  21.992  1.00  0.00    -0.459 OA
BRANCH   5   6
ATOM      6  C   UNL A   1      32.816  25.404  21.809  1.00  0.00     0.365 C 
ATOM      7  O   UNL A   1      31.784  25.799  21.273  1.00  0.00    -0.245 OA
BRANCH   6   8
ATOM      8  C   UNL A   1      32.917  24.013  22.453  1.00  0.00     0.295 C 
ATOM      9  N   UNL A   1      32.111  23.911  23.699  1.00  0.00    -0.315 N 
ATOM     10  C   UNL A   1      32.653  22.723  24.382  1.00  0.00     0.263 C 
ATOM     11  H   UNL A   1      31.118  23.848  23.471  1.00  0.00     0.349 HD
ATOM     12  C   UNL A   1      34.151  22.795  24.149  1.00  0.00     0.068 C 
ATOM     13  C   UNL A   1      34.278  23.385  22.755  1.00  0.00     0.083 C 
BRANCH   9  14
ATOM     14  C   UNL A   1      32.199  25.100  24.587  1.00  0.00     0.364 C 
BRANCH  14  15
ATOM     15  C   UNL A   1      30.784  25.590  24.897  1.00  0.00     0.275 C 
ATOM     16  O   UNL A   1      30.305  25.539  26.026  1.00  0.00    -0.268 OA
ATOM     17  N   UNL A   1      30.159  26.168  23.815  1.00  0.00    -0.347 N 
ATOM     18  H   UNL A   1      30.644  26.210  22.959  1.00  0.00     0.164 HD
BRANCH  17  19
ATOM     19  C   UNL A   1      28.830  26.714  23.879  1.00  0.00     0.151 C 
BRANCH  19  20
ATOM     20  C   UNL A   1      28.749  28.064  23.213  1.00  0.00    -0.029 A 
ATOM     21  C   UNL A   1      29.892  28.669  22.670  1.00  0.00     0.007 A 
ATOM     22  C   UNL A   1      27.517  28.730  23.117  1.00  0.00     0.007 A 
ATOM     23  C   UNL A   1      29.799  29.899  22.011  1.00  0.00     0.021 A 
ATOM     24  C   UNL A   1      27.423  29.957  22.456  1.00  0.00     0.021 A 
ATOM     25  C   UNL A   1      28.562  30.531  21.899  1.00  0.00     0.041 A 
ATOM     26  Cl  UNL A   1      28.442  32.029  21.059  1.00  0.00    -0.084 Cl
ENDBRANCH  19  20
ENDBRANCH  17  19
ENDBRANCH  14  15
ENDBRANCH   9  14
ENDBRANCH   6   8
ENDBRANCH   5   6
ENDBRANCH   4   5
ENDBRANCH   3   4
ENDBRANCH   2   3
ENDBRANCH   1   2
BRANCH   1  27
ATOM     27  C   UNL A   1      33.021  30.368  26.403  1.00  0.00     0.188 C 
BRANCH  27  28
ATOM     28  O   UNL A   1      31.738  30.867  26.680  1.00  0.00    -0.376 OA
BRANCH  28  29
ATOM     29  C   UNL A   1      31.451  32.244  26.495  1.00  0.00     0.202 C 
BRANCH  29  30
ATOM     30  C   UNL A   1      32.125  33.421  27.236  1.00  0.00     0.261 C 
BRANCH  30  31
ATOM     31  O   UNL A   1      33.198  33.142  28.141  1.00  0.00    -0.460 OA
BRANCH  31  32
ATOM     32  C   UNL A   1      34.325  33.885  27.988  1.00  0.00     0.338 C 
ATOM     33  O   UNL A   1      34.399  35.073  27.753  1.00  0.00    -0.246 OA
BRANCH  32  34
ATOM     34  C   UNL A   1      35.471  33.050  28.425  1.00  0.00     0.060 A 
ATOM     35  C   UNL A   1      35.282  31.665  28.565  1.00  0.00     0.016 A 
ATOM     36  C   UNL A   1      36.724  33.617  28.657  1.00  0.00     0.016 A 
ATOM     37  C   UNL A   1      36.341  30.845  28.953  1.00  0.00     0.010 A 
ATOM     38  C   UNL A   1      37.775  32.800  29.082  1.00  0.00     0.010 A 
ATOM     39  C   UNL A   1      37.581  31.416  29.260  1.00  0.00    -0.014 A 
BRANCH  39  40
ATOM     40  C   UNL A   1      38.600  30.624  29.989  1.00  0.00     0.031 A 
ATOM     41  C   UNL A   1      38.823  30.932  31.444  1.00  0.00     0.074 A 
ATOM     42  C   UNL A   1      39.309  29.651  29.391  1.00  0.00     0.049 A 
ATOM     43  N   UNL A   1      39.709  30.451  32.277  1.00  0.00    -0.248 NA
ATOM     44  C   UNL A   1      37.920  31.933  32.033  1.00  0.00     0.031 C 
ATOM     45  C   UNL A   1      39.146  29.210  28.010  1.00  0.00     0.029 A 
ATOM     46  N   UNL A   1      40.325  28.868  29.883  1.00  0.00    -0.354 N 
ATOM     47  C   UNL A   1      39.478  31.099  33.483  1.00  0.00     0.074 A 
ATOM     48  C   UNL A   1      38.396  32.034  33.263  1.00  0.00     0.031 C 
ATOM     49  C   UNL A   1      40.040  28.237  27.759  1.00  0.00     0.029 A 
ATOM     50  C   UNL A   1      40.862  28.018  28.949  1.00  0.00     0.049 A 
ATOM     51  H   UNL A   1      40.636  28.911  30.815  1.00  0.00     0.167 HD
ATOM     52  C   UNL A   1      40.107  30.926  34.670  1.00  0.00     0.037 A 
ATOM     53  C   UNL A   1      41.914  27.180  29.043  1.00  0.00     0.037 A 
ATOM     54  C   UNL A   1      41.195  30.009  34.880  1.00  0.00     0.049 A 
ATOM     55  C   UNL A   1      42.675  27.086  30.343  1.00  0.00     0.074 A 
ATOM     56  C   UNL A   1      41.899  29.755  36.044  1.00  0.00     0.029 A 
ATOM     57  N   UNL A   1      41.750  29.204  33.895  1.00  0.00    -0.354 N 
ATOM     58  N   UNL A   1      42.449  27.688  31.485  1.00  0.00    -0.248 NA
ATOM     59  C   UNL A   1      43.843  26.193  30.360  1.00  0.00     0.031 C 
ATOM     60  C   UNL A   1      42.922  28.847  35.746  1.00  0.00     0.029 A 
ATOM     61  C   UNL A   1      42.811  28.479  34.416  1.00  0.00     0.049 A 
ATOM     62  H   UNL A   1      41.438  29.156  32.963  1.00  0.00     0.167 HD
ATOM     63  C   UNL A   1      43.418  27.220  32.366  1.00  0.00     0.074 A 
ATOM     64  C   UNL A   1      44.232  26.278  31.625  1.00  0.00     0.031 C 
ATOM     65  C   UNL A   1      43.611  27.537  33.671  1.00  0.00     0.037 A 
BRANCH  52  66
ATOM     66  C   UNL A   1      39.654  31.790  35.814  1.00  0.00     0.064 A 
ATOM     67  C   UNL A   1      38.569  31.432  36.631  1.00  0.00     0.173 A 
ATOM     68  C   UNL A   1      40.299  33.007  36.082  1.00  0.00     0.173 A 
ATOM     69  F   UNL A   1      37.905  30.287  36.409  1.00  0.00    -0.203 F 
ATOM     70  C   UNL A   1      38.116  32.282  37.636  1.00  0.00     0.198 A 
ATOM     71  C   UNL A   1      39.869  33.835  37.114  1.00  0.00     0.198 A 
ATOM     72  F   UNL A   1      41.344  33.397  35.338  1.00  0.00    -0.203 F 
ATOM     73  F   UNL A   1      37.030  31.955  38.349  1.00  0.00    -0.200 F 
ATOM     74  C   UNL A   1      38.769  33.482  37.880  1.00  0.00     0.200 A 
ATOM     75  F   UNL A   1      40.511  34.987  37.357  1.00  0.00    -0.200 F 
ATOM     76  F   UNL A   1      38.328  34.302  38.843  1.00  0.00    -0.200 F 
ENDBRANCH  52  66
BRANCH  53  77
ATOM     77  C   UNL A   1      42.309  26.353  27.872  1.00  0.00     0.064 A 
ATOM     78  C   UNL A   1      43.289  26.802  26.977  1.00  0.00     0.173 A 
ATOM     79  C   UNL A   1      41.715  25.107  27.619  1.00  0.00     0.173 A 
ATOM     80  F   UNL A   1      43.864  28.000  27.159  1.00  0.00    -0.203 F 
ATOM     81  C   UNL A   1      43.656  26.040  25.869  1.00  0.00     0.198 A 
ATOM     82  C   UNL A   1      42.103  24.334  26.526  1.00  0.00     0.198 A 
ATOM     83  F   UNL A   1      40.765  24.636  28.439  1.00  0.00    -0.203 F 
ATOM     84  F   UNL A   1      44.568  26.512  25.007  1.00  0.00    -0.200 F 
ATOM     85  C   UNL A   1      43.070  24.804  25.649  1.00  0.00     0.200 A 
ATOM     86  F   UNL A   1      41.541  23.135  26.323  1.00  0.00    -0.200 F 
ATOM     87  F   UNL A   1      43.430  24.067  24.589  1.00  0.00    -0.200 F 
ENDBRANCH  53  77
BRANCH  65  88
ATOM     88  C   UNL A   1      44.715  26.827  34.405  1.00  0.00     0.064 A 
ATOM     89  C   UNL A   1      45.997  27.382  34.542  1.00  0.00     0.173 A 
ATOM     90  C   UNL A   1      44.472  25.588  35.022  1.00  0.00     0.173 A 
ATOM     91  F   UNL A   1      46.288  28.556  33.964  1.00  0.00    -0.203 F 
ATOM     92  C   UNL A   1      46.998  26.712  35.242  1.00  0.00     0.198 A 
ATOM     93  C   UNL A   1      45.465  24.938  35.750  1.00  0.00     0.198 A 
ATOM     94  F   UNL A   1      43.263  25.014  34.931  1.00  0.00    -0.203 F 
ATOM     95  F   UNL A   1      48.229  27.237  35.314  1.00  0.00    -0.200 F 
ATOM     96  C   UNL A   1      46.729  25.497  35.852  1.00  0.00     0.200 A 
ATOM     97  F   UNL A   1      45.196  23.773  36.356  1.00  0.00    -0.200 F 
ATOM     98  F   UNL A   1      47.691  24.858  36.534  1.00  0.00    -0.200 F 
ENDBRANCH  65  88
ENDBRANCH  39  40
ENDBRANCH  32  34
ENDBRANCH  31  32
ENDBRANCH  30  31
ENDBRANCH  29  30
ENDBRANCH  28  29
ENDBRANCH  27  28
ENDBRANCH   1  27
TORSDOF 21
ENDMDL
MODEL 2
REMARK VINA RESULT:     -10.9      5.585     10.862
REMARK SMILES O=C(C[N@@H+]1CCC[C@@H]1C(=O)OCCOCCOCCOC(=O)c1ccc(-c2c3nc(c(-c4c(F)c(F)c(F)c(F)c4F)c4ccc([nH]4)c(-c4c(F)c(F)c(F)c(F)c4F)c4nc(c(-c5c(F)c(F)c(F)c(F)c5F)c5ccc2[nH]5)C=C4)C=C3)cc1)NCc1ccc(Cl)cc1
REMARK SMILES IDX 15 1 14 2 13 3 12 4 11 5 9 6 10 7 8 8 4 9 5 10 6 12 7 13
REMARK SMILES IDX 3 14 2 15 1 16 86 17 87 19 88 20 89 21 94 22 90 23 93 24
REMARK SMILES IDX 91 25 92 26 16 27 17 28 18 29 19 30 20 31 21 32 22 33 23 34
REMARK SMILES IDX 24 35 85 36 25 37 84 38 26 39 27 40 28 41 78 42 29 43 83 44
REMARK SMILES IDX 77 45 79 46 30 47 82 48 76 49 75 50 31 52 63 53 43 54 62 55
REMARK SMILES IDX 44 56 47 57 61 58 80 59 45 60 46 61 60 63 81 64 48 65 32 66
REMARK SMILES IDX 33 67 41 68 34 69 35 70 39 71 42 72 36 73 37 74 40 75 38 76
REMARK SMILES IDX 64 77 65 78 73 79 66 80 67 81 71 82 74 83 68 84 69 85 72 86
REMARK SMILES IDX 70 87 49 88 50 89 58 90 51 91 52 92 56 93 59 94 53 95 54 96
REMARK SMILES IDX 57 97 55 98
REMARK H PARENT 4 11 86 18 79 51 47 62
REMARK Flexibility Score: inf
ROOT
ATOM      1  C   UNL A   1      40.404  22.109  27.247  1.00  0.00     0.188 C 
ENDROOT
BRANCH   1   2
ATOM      2  O   UNL A   1      39.794  23.152  26.514  1.00  0.00    -0.376 OA
BRANCH   2   3
ATOM      3  C   UNL A   1      38.375  23.239  26.462  1.00  0.00     0.202 C 
BRANCH   3   4
ATOM      4  C   UNL A   1      37.559  22.445  25.432  1.00  0.00     0.261 C 
BRANCH   4   5
ATOM      5  O   UNL A   1      36.217  22.118  25.831  1.00  0.00    -0.459 OA
BRANCH   5   6
ATOM      6  C   UNL A   1      35.213  22.652  25.083  1.00  0.00     0.365 C 
ATOM      7  O   UNL A   1      35.034  23.855  24.913  1.00  0.00    -0.245 OA
BRANCH   6   8
ATOM      8  C   UNL A   1      34.227  21.600  24.554  1.00  0.00     0.295 C 
ATOM      9  N   UNL A   1      32.849  21.811  25.073  1.00  0.00    -0.315 N 
ATOM     10  C   UNL A   1      32.173  20.523  24.836  1.00  0.00     0.263 C 
ATOM     11  H   UNL A   1      32.414  22.606  24.604  1.00  0.00     0.349 HD
ATOM     12  C   UNL A   1      33.224  19.474  25.150  1.00  0.00     0.068 C 
ATOM     13  C   UNL A   1      34.525  20.107  24.689  1.00  0.00     0.083 C 
BRANCH   9  14
ATOM     14  C   UNL A   1      32.783  22.168  26.515  1.00  0.00     0.364 C 
BRANCH  14  15
ATOM     15  C   UNL A   1      31.800  23.326  26.693  1.00  0.00     0.275 C 
ATOM     16  O   UNL A   1      30.948  23.334  27.577  1.00  0.00    -0.268 OA
ATOM     17  N   UNL A   1      32.032  24.374  25.831  1.00  0.00    -0.347 N 
ATOM     18  H   UNL A   1      32.774  24.299  25.188  1.00  0.00     0.164 HD
BRANCH  17  19
ATOM     19  C   UNL A   1      31.242  25.576  25.830  1.00  0.00     0.151 C 
BRANCH  19  20
ATOM     20  C   UNL A   1      32.045  26.772  26.275  1.00  0.00    -0.029 A 
ATOM     21  C   UNL A   1      33.405  26.888  25.952  1.00  0.00     0.007 A 
ATOM     22  C   UNL A   1      31.432  27.796  27.015  1.00  0.00     0.007 A 
ATOM     23  C   UNL A   1      34.129  28.024  26.326  1.00  0.00     0.021 A 
ATOM     24  C   UNL A   1      32.154  28.933  27.387  1.00  0.00     0.021 A 
ATOM     25  C   UNL A   1      33.497  29.045  27.034  1.00  0.00     0.041 A 
ATOM     26  Cl  UNL A   1      34.379  30.457  27.467  1.00  0.00    -0.084 Cl
ENDBRANCH  19  20
ENDBRANCH  17  19
ENDBRANCH  14  15
ENDBRANCH   9  14
ENDBRANCH   6   8
ENDBRANCH   5   6
ENDBRANCH   4   5
ENDBRANCH   3   4
ENDBRANCH   2   3
ENDBRANCH   1   2
BRANCH   1  27
ATOM     27  C   UNL A   1      40.570  20.735  26.584  1.00  0.00     0.188 C 
BRANCH  27  28
ATOM     28  O   UNL A   1      41.814  20.400  26.027  1.00  0.00    -0.376 OA
BRANCH  28  29
ATOM     29  C   UNL A   1      42.246  19.049  26.000  1.00  0.00     0.202 C 
BRANCH  29  30
ATOM     30  C   UNL A   1      43.586  18.534  25.426  1.00  0.00     0.261 C 
BRANCH  30  31
ATOM     31  O   UNL A   1      44.056  19.070  24.186  1.00  0.00    -0.460 OA
BRANCH  31  32
ATOM     32  C   UNL A   1      45.279  19.661  24.209  1.00  0.00     0.338 C 
ATOM     33  O   UNL A   1      46.301  19.260  23.694  1.00  0.00    -0.246 OA
BRANCH  32  34
ATOM     34  C   UNL A   1      45.100  21.032  24.748  1.00  0.00     0.060 A 
ATOM     35  C   UNL A   1      44.688  22.052  23.875  1.00  0.00     0.016 A 
ATOM     36  C   UNL A   1      45.300  21.301  26.102  1.00  0.00     0.016 A 
ATOM     37  C   UNL A   1      44.489  23.348  24.350  1.00  0.00     0.010 A 
ATOM     38  C   UNL A   1      45.136  22.608  26.570  1.00  0.00     0.010 A 
ATOM     39  C   UNL A   1      44.759  23.642  25.691  1.00  0.00    -0.014 A 
BRANCH  39  40
ATOM     40  C   UNL A   1      44.883  25.053  26.128  1.00  0.00     0.031 A 
ATOM     41  C   UNL A   1      46.236  25.703  26.035  1.00  0.00     0.074 A 
ATOM     42  C   UNL A   1      43.832  25.752  26.590  1.00  0.00     0.049 A 
ATOM     43  N   UNL A   1      46.626  26.886  26.433  1.00  0.00    -0.248 NA
ATOM     44  C   UNL A   1      47.295  24.894  25.412  1.00  0.00     0.031 C 
ATOM     45  C   UNL A   1      42.459  25.264  26.670  1.00  0.00     0.029 A 
ATOM     46  N   UNL A   1      43.770  27.029  27.092  1.00  0.00    -0.354 N 
ATOM     47  C   UNL A   1      47.978  26.958  26.120  1.00  0.00     0.074 A 
ATOM     48  C   UNL A   1      48.347  25.687  25.536  1.00  0.00     0.031 C 
ATOM     49  C   UNL A   1      41.687  26.229  27.201  1.00  0.00     0.029 A 
ATOM     50  C   UNL A   1      42.520  27.384  27.535  1.00  0.00     0.049 A 
ATOM     51  H   UNL A   1      44.547  27.631  27.130  1.00  0.00     0.167 HD
ATOM     52  C   UNL A   1      48.834  27.992  26.297  1.00  0.00     0.037 A 
ATOM     53  C   UNL A   1      42.109  28.505  28.160  1.00  0.00     0.037 A 
ATOM     54  C   UNL A   1      48.468  29.248  26.896  1.00  0.00     0.049 A 
ATOM     55  C   UNL A   1      43.103  29.601  28.452  1.00  0.00     0.074 A 
ATOM     56  C   UNL A   1      49.257  30.362  27.118  1.00  0.00     0.029 A 
ATOM     57  N   UNL A   1      47.204  29.551  27.384  1.00  0.00    -0.354 N 
ATOM     58  N   UNL A   1      44.376  29.674  28.145  1.00  0.00    -0.248 NA
ATOM     59  C   UNL A   1      42.599  30.773  29.184  1.00  0.00     0.031 C 
ATOM     60  C   UNL A   1      48.490  31.312  27.801  1.00  0.00     0.029 A 
ATOM     61  C   UNL A   1      47.202  30.822  27.939  1.00  0.00     0.049 A 
ATOM     62  H   UNL A   1      46.425  28.951  27.343  1.00  0.00     0.167 HD
ATOM     63  C   UNL A   1      44.815  30.909  28.608  1.00  0.00     0.074 A 
ATOM     64  C   UNL A   1      43.669  31.556  29.214  1.00  0.00     0.031 C 
ATOM     65  C   UNL A   1      46.052  31.460  28.533  1.00  0.00     0.037 A 
BRANCH  52  66
ATOM     66  C   UNL A   1      50.261  27.776  25.877  1.00  0.00     0.064 A 
ATOM     67  C   UNL A   1      50.659  27.851  24.532  1.00  0.00     0.173 A 
ATOM     68  C   UNL A   1      51.241  27.464  26.831  1.00  0.00     0.173 A 
ATOM     69  F   UNL A   1      49.760  28.129  23.576  1.00  0.00    -0.203 F 
ATOM     70  C   UNL A   1      51.970  27.572  24.155  1.00  0.00     0.198 A 
ATOM     71  C   UNL A   1      52.560  27.226  26.455  1.00  0.00     0.198 A 
ATOM     72  F   UNL A   1      50.920  27.384  28.131  1.00  0.00    -0.203 F 
ATOM     73  F   UNL A   1      52.307  27.571  22.858  1.00  0.00    -0.200 F 
ATOM     74  C   UNL A   1      52.920  27.262  25.117  1.00  0.00     0.200 A 
ATOM     75  F   UNL A   1      53.479  26.942  27.388  1.00  0.00    -0.200 F 
ATOM     76  F   UNL A   1      54.180  26.988  24.752  1.00  0.00    -0.200 F 
ENDBRANCH  52  66
BRANCH  53  77
ATOM     77  C   UNL A   1      40.681  28.654  28.548  1.00  0.00     0.064 A 
ATOM     78  C   UNL A   1      40.250  28.311  29.837  1.00  0.00     0.173 A 
ATOM     79  C   UNL A   1      39.720  29.133  27.645  1.00  0.00     0.173 A 
ATOM     80  F   UNL A   1      41.126  27.821  30.727  1.00  0.00    -0.203 F 
ATOM     81  C   UNL A   1      38.912  28.435  30.206  1.00  0.00     0.198 A 
ATOM     82  C   UNL A   1      38.388  29.282  28.023  1.00  0.00     0.198 A 
ATOM     83  F   UNL A   1      40.079  29.465  26.396  1.00  0.00    -0.203 F 
ATOM     84  F   UNL A   1      38.521  28.063  31.433  1.00  0.00    -0.200 F 
ATOM     85  C   UNL A   1      37.983  28.928  29.302  1.00  0.00     0.200 A 
ATOM     86  F   UNL A   1      37.495  29.768  27.150  1.00  0.00    -0.200 F 
ATOM     87  F   UNL A   1      36.698  29.056  29.661  1.00  0.00    -0.200 F 
ENDBRANCH  53  77
BRANCH  65  88
ATOM     88  C   UNL A   1      46.230  32.852  29.074  1.00  0.00     0.064 A 
ATOM     89  C   UNL A   1      45.999  33.992  28.289  1.00  0.00     0.173 A 
ATOM     90  C   UNL A   1      46.595  33.049  30.416  1.00  0.00     0.173 A 
ATOM     91  F   UNL A   1      45.659  33.864  26.997  1.00  0.00    -0.203 F 
ATOM     92  C   UNL A   1      46.153  35.271  28.818  1.00  0.00     0.198 A 
ATOM     93  C   UNL A   1      46.714  34.329  30.951  1.00  0.00     0.198 A 
ATOM     94  F   UNL A   1      46.821  31.996  31.216  1.00  0.00    -0.203 F 
ATOM     95  F   UNL A   1      45.977  36.344  28.034  1.00  0.00    -0.200 F 
ATOM     96  C   UNL A   1      46.501  35.438  30.149  1.00  0.00     0.200 A 
ATOM     97  F   UNL A   1      47.033  34.487  32.243  1.00  0.00    -0.200 F 
ATOM     98  F   UNL A   1      46.640  36.671  30.659  1.00  0.00    -0.200 F 
ENDBRANCH  65  88
ENDBRANCH  39  40
ENDBRANCH  32  34
ENDBRANCH  31  32
ENDBRANCH  30  31
ENDBRANCH  29  30
ENDBRANCH  28  29
ENDBRANCH  27  28
ENDBRANCH   1  27
TORSDOF 21
ENDMDL
MODEL 3
REMARK VINA RESULT:     -10.6      5.856     11.317
REMARK SMILES O=C(C[N@@H+]1CCC[C@@H]1C(=O)OCCOCCOCCOC(=O)c1ccc(-c2c3nc(c(-c4c(F)c(F)c(F)c(F)c4F)c4ccc([nH]4)c(-c4c(F)c(F)c(F)c(F)c4F)c4nc(c(-c5c(F)c(F)c(F)c(F)c5F)c5ccc2[nH]5)C=C4)C=C3)cc1)NCc1ccc(Cl)cc1
REMARK SMILES IDX 15 1 14 2 13 3 12 4 11 5 9 6 10 7 8 8 4 9 5 10 6 12 7 13
REMARK SMILES IDX 3 14 2 15 1 16 86 17 87 19 88 20 89 21 94 22 90 23 93 24
REMARK SMILES IDX 91 25 92 26 16 27 17 28 18 29 19 30 20 31 21 32 22 33 23 34
REMARK SMILES IDX 24 35 85 36 25 37 84 38 26 39 27 40 28 41 78 42 29 43 83 44
REMARK SMILES IDX 77 45 79 46 30 47 82 48 76 49 75 50 31 52 63 53 43 54 62 55
REMARK SMILES IDX 44 56 47 57 61 58 80 59 45 60 46 61 60 63 81 64 48 65 32 66
REMARK SMILES IDX 33 67 41 68 34 69 35 70 39 71 42 72 36 73 37 74 40 75 38 76
REMARK SMILES IDX 64 77 65 78 73 79 66 80 67 81 71 82 74 83 68 84 69 85 72 86
REMARK SMILES IDX 70 87 49 88 50 89 58 90 51 91 52 92 56 93 59 94 53 95 54 96
REMARK SMILES IDX 57 97 55 98
REMARK H PARENT 4 11 86 18 79 51 47 62
REMARK Flexibility Score: inf
ROOT
ATOM      1  C   UNL A   1      40.265  21.979  27.172  1.00  0.00     0.188 C 
ENDROOT
BRANCH   1   2
ATOM      2  O   UNL A   1      39.630  23.036  26.481  1.00  0.00    -0.376 OA
BRANCH   2   3
ATOM      3  C   UNL A   1      38.317  22.853  25.967  1.00  0.00     0.202 C 
BRANCH   3   4
ATOM      4  C   UNL A   1      37.158  23.771  26.378  1.00  0.00     0.261 C 
BRANCH   4   5
ATOM      5  O   UNL A   1      36.226  24.092  25.331  1.00  0.00    -0.459 OA
BRANCH   5   6
ATOM      6  C   UNL A   1      34.996  23.516  25.415  1.00  0.00     0.365 C 
ATOM      7  O   UNL A   1      34.787  22.307  25.375  1.00  0.00    -0.245 OA
BRANCH   6   8
ATOM      8  C   UNL A   1      33.850  24.538  25.444  1.00  0.00     0.295 C 
ATOM      9  N   UNL A   1      33.019  24.487  24.211  1.00  0.00    -0.315 N 
ATOM     10  C   UNL A   1      32.287  25.766  24.216  1.00  0.00     0.263 C 
ATOM     11  H   UNL A   1      32.421  23.661  24.225  1.00  0.00     0.349 HD
ATOM     12  C   UNL A   1      33.295  26.785  24.717  1.00  0.00     0.068 C 
ATOM     13  C   UNL A   1      34.122  26.015  25.731  1.00  0.00     0.083 C 
BRANCH   9  14
ATOM     14  C   UNL A   1      33.797  24.345  22.952  1.00  0.00     0.364 C 
BRANCH  14  15
ATOM     15  C   UNL A   1      33.200  23.202  22.130  1.00  0.00     0.275 C 
ATOM     16  O   UNL A   1      33.362  23.113  20.916  1.00  0.00    -0.268 OA
ATOM     17  N   UNL A   1      32.559  22.256  22.898  1.00  0.00    -0.347 N 
ATOM     18  H   UNL A   1      32.524  22.387  23.873  1.00  0.00     0.164 HD
BRANCH  17  19
ATOM     19  C   UNL A   1      31.937  21.086  22.340  1.00  0.00     0.151 C 
BRANCH  19  20
ATOM     20  C   UNL A   1      32.321  19.838  23.094  1.00  0.00    -0.029 A 
ATOM     21  C   UNL A   1      32.409  18.600  22.441  1.00  0.00     0.007 A 
ATOM     22  C   UNL A   1      32.607  19.903  24.467  1.00  0.00     0.007 A 
ATOM     23  C   UNL A   1      32.815  17.457  23.137  1.00  0.00     0.021 A 
ATOM     24  C   UNL A   1      33.015  18.763  25.163  1.00  0.00     0.021 A 
ATOM     25  C   UNL A   1      33.124  17.547  24.493  1.00  0.00     0.041 A 
ATOM     26  Cl  UNL A   1      33.653  16.147  25.343  1.00  0.00    -0.084 Cl
ENDBRANCH  19  20
ENDBRANCH  17  19
ENDBRANCH  14  15
ENDBRANCH   9  14
ENDBRANCH   6   8
ENDBRANCH   5   6
ENDBRANCH   4   5
ENDBRANCH   3   4
ENDBRANCH   2   3
ENDBRANCH   1   2
BRANCH   1  27
ATOM     27  C   UNL A   1      40.613  20.696  26.405  1.00  0.00     0.188 C 
BRANCH  27  28
ATOM     28  O   UNL A   1      41.964  20.354  26.238  1.00  0.00    -0.376 OA
BRANCH  28  29
ATOM     29  C   UNL A   1      42.353  18.993  26.146  1.00  0.00     0.202 C 
BRANCH  29  30
ATOM     30  C   UNL A   1      43.617  18.453  25.439  1.00  0.00     0.261 C 
BRANCH  30  31
ATOM     31  O   UNL A   1      44.005  19.029  24.189  1.00  0.00    -0.460 OA
BRANCH  31  32
ATOM     32  C   UNL A   1      45.222  19.632  24.154  1.00  0.00     0.338 C 
ATOM     33  O   UNL A   1      46.221  19.245  23.586  1.00  0.00    -0.246 OA
BRANCH  32  34
ATOM     34  C   UNL A   1      45.057  20.998  24.711  1.00  0.00     0.060 A 
ATOM     35  C   UNL A   1      44.580  22.017  23.870  1.00  0.00     0.016 A 
ATOM     36  C   UNL A   1      45.333  21.262  26.052  1.00  0.00     0.016 A 
ATOM     37  C   UNL A   1      44.392  23.307  24.363  1.00  0.00     0.010 A 
ATOM     38  C   UNL A   1      45.180  22.564  26.537  1.00  0.00     0.010 A 
ATOM     39  C   UNL A   1      44.737  23.598  25.688  1.00  0.00    -0.014 A 
BRANCH  39  40
ATOM     40  C   UNL A   1      44.867  25.008  26.125  1.00  0.00     0.031 A 
ATOM     41  C   UNL A   1      46.222  25.653  26.028  1.00  0.00     0.074 A 
ATOM     42  C   UNL A   1      43.820  25.710  26.591  1.00  0.00     0.049 A 
ATOM     43  N   UNL A   1      46.618  26.835  26.425  1.00  0.00    -0.248 NA
ATOM     44  C   UNL A   1      47.276  24.841  25.401  1.00  0.00     0.031 C 
ATOM     45  C   UNL A   1      42.446  25.227  26.676  1.00  0.00     0.029 A 
ATOM     46  N   UNL A   1      43.765  26.987  27.095  1.00  0.00    -0.354 N 
ATOM     47  C   UNL A   1      47.969  26.902  26.107  1.00  0.00     0.074 A 
ATOM     48  C   UNL A   1      48.331  25.630  25.522  1.00  0.00     0.031 C 
ATOM     49  C   UNL A   1      41.679  26.194  27.210  1.00  0.00     0.029 A 
ATOM     50  C   UNL A   1      42.518  27.347  27.542  1.00  0.00     0.049 A 
ATOM     51  H   UNL A   1      44.545  27.587  27.131  1.00  0.00     0.167 HD
ATOM     52  C   UNL A   1      48.829  27.933  26.282  1.00  0.00     0.037 A 
ATOM     53  C   UNL A   1      42.113  28.469  28.170  1.00  0.00     0.037 A 
ATOM     54  C   UNL A   1      48.470  29.190  26.883  1.00  0.00     0.049 A 
ATOM     55  C   UNL A   1      43.112  29.561  28.459  1.00  0.00     0.074 A 
ATOM     56  C   UNL A   1      49.264  30.301  27.103  1.00  0.00     0.029 A 
ATOM     57  N   UNL A   1      47.209  29.497  27.376  1.00  0.00    -0.354 N 
ATOM     58  N   UNL A   1      44.384  29.629  28.147  1.00  0.00    -0.248 NA
ATOM     59  C   UNL A   1      42.614  30.734  29.193  1.00  0.00     0.031 C 
ATOM     60  C   UNL A   1      48.502  31.254  27.789  1.00  0.00     0.029 A 
ATOM     61  C   UNL A   1      47.213  30.767  27.932  1.00  0.00     0.049 A 
ATOM     62  H   UNL A   1      46.428  28.900  27.338  1.00  0.00     0.167 HD
ATOM     63  C   UNL A   1      44.829  30.863  28.610  1.00  0.00     0.074 A 
ATOM     64  C   UNL A   1      43.687  31.513  29.219  1.00  0.00     0.031 C 
ATOM     65  C   UNL A   1      46.068  31.409  28.530  1.00  0.00     0.037 A 
BRANCH  52  66
ATOM     66  C   UNL A   1      50.254  27.712  25.858  1.00  0.00     0.064 A 
ATOM     67  C   UNL A   1      50.644  27.764  24.509  1.00  0.00     0.173 A 
ATOM     68  C   UNL A   1      51.241  27.418  26.811  1.00  0.00     0.173 A 
ATOM     69  F   UNL A   1      49.738  28.025  23.554  1.00  0.00    -0.203 F 
ATOM     70  C   UNL A   1      51.953  27.481  24.128  1.00  0.00     0.198 A 
ATOM     71  C   UNL A   1      52.558  27.176  26.430  1.00  0.00     0.198 A 
ATOM     72  F   UNL A   1      50.927  27.360  28.114  1.00  0.00    -0.203 F 
ATOM     73  F   UNL A   1      52.282  27.459  22.830  1.00  0.00    -0.200 F 
ATOM     74  C   UNL A   1      52.909  27.190  25.090  1.00  0.00     0.200 A 
ATOM     75  F   UNL A   1      53.483  26.909  27.362  1.00  0.00    -0.200 F 
ATOM     76  F   UNL A   1      54.167  26.911  24.722  1.00  0.00    -0.200 F 
ENDBRANCH  52  66
BRANCH  53  77
ATOM     77  C   UNL A   1      40.687  28.623  28.563  1.00  0.00     0.064 A 
ATOM     78  C   UNL A   1      40.258  28.274  29.851  1.00  0.00     0.173 A 
ATOM     79  C   UNL A   1      39.726  29.112  27.665  1.00  0.00     0.173 A 
ATOM     80  F   UNL A   1      41.133  27.773  30.735  1.00  0.00    -0.203 F 
ATOM     81  C   UNL A   1      38.921  28.402  30.224  1.00  0.00     0.198 A 
ATOM     82  C   UNL A   1      38.395  29.266  28.048  1.00  0.00     0.198 A 
ATOM     83  F   UNL A   1      40.083  29.451  26.418  1.00  0.00    -0.203 F 
ATOM     84  F   UNL A   1      38.532  28.023  31.450  1.00  0.00    -0.200 F 
ATOM     85  C   UNL A   1      37.993  28.905  29.326  1.00  0.00     0.200 A 
ATOM     86  F   UNL A   1      37.503  29.762  27.181  1.00  0.00    -0.200 F 
ATOM     87  F   UNL A   1      36.709  29.037  29.689  1.00  0.00    -0.200 F 
ENDBRANCH  53  77
BRANCH  65  88
ATOM     88  C   UNL A   1      46.253  32.801  29.071  1.00  0.00     0.064 A 
ATOM     89  C   UNL A   1      46.682  33.039  30.386  1.00  0.00     0.173 A 
ATOM     90  C   UNL A   1      46.039  33.915  28.244  1.00  0.00     0.173 A 
ATOM     91  F   UNL A   1      46.891  32.012  31.223  1.00  0.00    -0.203 F 
ATOM     92  C   UNL A   1      46.863  34.337  30.858  1.00  0.00     0.198 A 
ATOM     93  C   UNL A   1      46.255  35.210  28.708  1.00  0.00     0.198 A 
ATOM     94  F   UNL A   1      45.636  33.748  26.975  1.00  0.00    -0.203 F 
ATOM     95  F   UNL A   1      47.224  34.540  32.132  1.00  0.00    -0.200 F 
ATOM     96  C   UNL A   1      46.658  35.420  30.017  1.00  0.00     0.200 A 
ATOM     97  F   UNL A   1      46.074  36.254  27.887  1.00  0.00    -0.200 F 
ATOM     98  F   UNL A   1      46.842  36.668  30.470  1.00  0.00    -0.200 F 
ENDBRANCH  65  88
ENDBRANCH  39  40
ENDBRANCH  32  34
ENDBRANCH  31  32
ENDBRANCH  30  31
ENDBRANCH  29  30
ENDBRANCH  28  29
ENDBRANCH  27  28
ENDBRANCH   1  27
TORSDOF 21
ENDMDL
