MODEL 1
REMARK VINA RESULT:     -10.5      0.000      0.000
REMARK SMILES Cc1ccc(N2C(=O)N=C(OCCOCCOCCOC(=O)c3ccc(-c4c5nc(c(-c6c(F)c(F)c(F)c(F)c6F)c6ccc([nH]6)c(-c6c(F)c(F)c(F)c(F)c6F)c6nc(c(-c7c(F)c(F)c(F)c(F)c7F)c7ccc4[nH]7)C=C6)C=C5)cc3)/C(=C/c3ccccc3OCc3cccc(C(=O)[O-])c3)C2=O)cc1
REMARK SMILES IDX 15 1 14 2 13 3 12 4 11 5 10 6 6 7 7 8 105 9 8 10 9 11 86 12
REMARK SMILES IDX 106 13 87 14 5 15 1 16 2 17 3 18 108 19 4 20 107 21 88 22
REMARK SMILES IDX 89 23 93 24 90 25 92 26 91 27 94 28 95 29 96 30 97 31 104 32
REMARK SMILES IDX 98 33 100 34 99 35 101 36 102 37 103 38 16 39 17 40 18 41
REMARK SMILES IDX 19 42 20 43 21 44 22 45 23 46 24 47 85 48 25 49 84 50 26 51
REMARK SMILES IDX 27 52 28 53 78 54 29 55 83 56 77 57 79 58 30 59 82 60 76 61
REMARK SMILES IDX 75 62 31 64 63 65 43 66 62 67 44 68 47 69 61 70 80 71 45 72
REMARK SMILES IDX 46 73 60 75 81 76 48 77 32 78 33 79 41 80 34 81 35 82 39 83
REMARK SMILES IDX 42 84 36 85 37 86 40 87 38 88 64 89 65 90 73 91 66 92 67 93
REMARK SMILES IDX 71 94 74 95 68 96 69 97 72 98 70 99 49 100 50 101 58 102
REMARK SMILES IDX 51 103 52 104 56 105 59 106 53 107 54 108 57 109 55 110
REMARK H PARENT 79 63 47 74
REMARK Flexibility Score: inf
ROOT
ATOM      1  C   UNL A   1      34.306  33.461  33.262  1.00  0.00     0.188 C 
ENDROOT
BRANCH   1   2
ATOM      2  O   UNL A   1      35.069  34.664  33.397  1.00  0.00    -0.376 OA
BRANCH   2   3
ATOM      3  C   UNL A   1      36.386  34.442  33.913  1.00  0.00     0.201 C 
BRANCH   3   4
ATOM      4  C   UNL A   1      37.484  34.715  32.885  1.00  0.00     0.260 C 
BRANCH   4   5
ATOM      5  O   UNL A   1      38.755  34.989  33.562  1.00  0.00    -0.475 OA
BRANCH   5   6
ATOM      6  C   UNL A   1      39.419  34.767  34.706  1.00  0.00     0.231 C 
ATOM      7  N   UNL A   1      40.414  34.666  37.302  1.00  0.00    -0.226 N 
ATOM      8  C   UNL A   1      39.881  35.815  36.750  1.00  0.00     0.358 C 
ATOM      9  C   UNL A   1      40.026  33.478  36.724  1.00  0.00     0.272 C 
ATOM     10  O   UNL A   1      39.605  36.791  37.444  1.00  0.00    -0.245 OA
ATOM     11  N   UNL A   1      39.525  35.819  35.435  1.00  0.00    -0.156 NA
ATOM     12  C   UNL A   1      39.798  33.398  35.123  1.00  0.00     0.103 C 
ATOM     13  O   UNL A   1      39.874  32.518  37.482  1.00  0.00    -0.268 OA
ATOM     14  C   UNL A   1      39.539  32.486  34.084  1.00  0.00     0.031 C 
BRANCH   7  15
ATOM     15  C   UNL A   1      40.997  34.727  38.671  1.00  0.00     0.054 A 
ATOM     16  C   UNL A   1      43.016  34.783  42.579  1.00  0.00     0.044 C 
ATOM     17  C   UNL A   1      42.326  34.752  41.245  1.00  0.00    -0.051 A 
ATOM     18  C   UNL A   1      41.001  34.340  41.127  1.00  0.00     0.005 A 
ATOM     19  C   UNL A   1      42.976  35.171  40.086  1.00  0.00     0.005 A 
ATOM     20  C   UNL A   1      40.357  34.318  39.867  1.00  0.00     0.027 A 
ATOM     21  C   UNL A   1      42.327  35.157  38.835  1.00  0.00     0.027 A 
ENDBRANCH   7  15
BRANCH  14  22
ATOM     22  C   UNL A   1      39.072  30.975  33.422  1.00  0.00     0.018 A 
ATOM     23  C   UNL A   1      37.742  31.102  32.943  1.00  0.00     0.012 A 
ATOM     24  C   UNL A   1      39.625  29.515  33.339  1.00  0.00     0.127 A 
ATOM     25  C   UNL A   1      36.947  30.001  32.592  1.00  0.00     0.001 A 
ATOM     26  C   UNL A   1      38.747  28.448  33.042  1.00  0.00     0.047 A 
ATOM     27  C   UNL A   1      37.421  28.697  32.701  1.00  0.00     0.004 A 
BRANCH  24  28
ATOM     28  O   UNL A   1      41.142  28.868  33.000  1.00  0.00    -0.488 OA
BRANCH  28  29
ATOM     29  C   UNL A   1      42.403  27.885  33.659  1.00  0.00     0.265 C 
BRANCH  29  30
ATOM     30  C   UNL A   1      42.621  26.810  34.805  1.00  0.00    -0.010 A 
ATOM     31  C   UNL A   1      41.572  25.901  35.077  1.00  0.00     0.007 A 
ATOM     32  C   UNL A   1      43.613  26.866  35.786  1.00  0.00     0.017 A 
ATOM     33  C   UNL A   1      41.522  25.146  36.265  1.00  0.00     0.001 A 
ATOM     34  C   UNL A   1      43.595  26.111  36.970  1.00  0.00    -0.002 A 
ATOM     35  C   UNL A   1      42.527  25.263  37.224  1.00  0.00     0.010 A 
BRANCH  34  36
ATOM     36  C   UNL A   1      44.650  26.303  37.995  1.00  0.00     0.071 C 
ATOM     37  O   UNL A   1      45.841  26.140  37.833  1.00  0.00    -0.545 OA
ATOM     38  O   UNL A   1      44.142  26.680  39.184  1.00  0.00    -0.545 OA
ENDBRANCH  34  36
ENDBRANCH  29  30
ENDBRANCH  28  29
ENDBRANCH  24  28
ENDBRANCH  14  22
ENDBRANCH   5   6
ENDBRANCH   4   5
ENDBRANCH   3   4
ENDBRANCH   2   3
ENDBRANCH   1   2
BRANCH   1  39
ATOM     39  C   UNL A   1      34.594  32.707  31.950  1.00  0.00     0.188 C 
BRANCH  39  40
ATOM     40  O   UNL A   1      34.365  33.393  30.723  1.00  0.00    -0.376 OA
BRANCH  40  41
ATOM     41  C   UNL A   1      35.471  33.521  29.839  1.00  0.00     0.202 C 
BRANCH  41  42
ATOM     42  C   UNL A   1      34.996  33.119  28.434  1.00  0.00     0.261 C 
BRANCH  42  43
ATOM     43  O   UNL A   1      35.959  32.214  27.841  1.00  0.00    -0.460 OA
BRANCH  43  44
ATOM     44  C   UNL A   1      35.584  30.918  27.631  1.00  0.00     0.338 C 
ATOM     45  O   UNL A   1      34.464  30.524  27.362  1.00  0.00    -0.246 OA
BRANCH  44  46
ATOM     46  C   UNL A   1      36.751  30.012  27.911  1.00  0.00     0.060 A 
ATOM     47  C   UNL A   1      36.861  29.312  29.126  1.00  0.00     0.016 A 
ATOM     48  C   UNL A   1      37.835  29.981  27.048  1.00  0.00     0.016 A 
ATOM     49  C   UNL A   1      38.102  28.759  29.554  1.00  0.00     0.010 A 
ATOM     50  C   UNL A   1      39.068  29.514  27.513  1.00  0.00     0.010 A 
ATOM     51  C   UNL A   1      39.271  29.000  28.827  1.00  0.00    -0.014 A 
BRANCH  51  52
ATOM     52  C   UNL A   1      40.765  28.632  29.147  1.00  0.00     0.031 A 
ATOM     53  C   UNL A   1      40.668  27.024  28.338  1.00  0.00     0.074 A 
ATOM     54  C   UNL A   1      42.031  29.497  29.668  1.00  0.00     0.049 A 
ATOM     55  N   UNL A   1      41.434  26.480  27.412  1.00  0.00    -0.248 NA
ATOM     56  C   UNL A   1      39.643  26.037  28.713  1.00  0.00     0.031 C 
ATOM     57  C   UNL A   1      43.707  29.415  29.305  1.00  0.00     0.029 A 
ATOM     58  N   UNL A   1      42.313  30.636  30.499  1.00  0.00    -0.354 N 
ATOM     59  C   UNL A   1      41.506  25.129  27.613  1.00  0.00     0.074 A 
ATOM     60  C   UNL A   1      40.173  24.903  28.209  1.00  0.00     0.031 C 
ATOM     61  C   UNL A   1      44.445  30.445  29.652  1.00  0.00     0.029 A 
ATOM     62  C   UNL A   1      43.657  31.009  30.662  1.00  0.00     0.049 A 
ATOM     63  H   UNL A   1      41.588  31.136  30.939  1.00  0.00     0.167 HD
ATOM     64  C   UNL A   1      42.678  24.414  27.926  1.00  0.00     0.037 A 
ATOM     65  C   UNL A   1      44.279  31.146  31.849  1.00  0.00     0.037 A 
ATOM     66  C   UNL A   1      43.935  25.056  28.548  1.00  0.00     0.049 A 
ATOM     67  C   UNL A   1      44.964  29.818  32.279  1.00  0.00     0.074 A 
ATOM     68  C   UNL A   1      45.008  25.803  28.056  1.00  0.00     0.029 A 
ATOM     69  N   UNL A   1      44.331  24.895  29.923  1.00  0.00    -0.354 N 
ATOM     70  N   UNL A   1      44.953  28.699  31.558  1.00  0.00    -0.248 NA
ATOM     71  C   UNL A   1      45.736  29.625  33.495  1.00  0.00     0.031 C 
ATOM     72  C   UNL A   1      45.801  26.335  29.139  1.00  0.00     0.029 A 
ATOM     73  C   UNL A   1      45.283  25.898  30.350  1.00  0.00     0.049 A 
ATOM     74  H   UNL A   1      43.991  24.180  30.508  1.00  0.00     0.167 HD
ATOM     75  C   UNL A   1      45.555  27.645  32.206  1.00  0.00     0.074 A 
ATOM     76  C   UNL A   1      46.079  28.322  33.402  1.00  0.00     0.031 C 
ATOM     77  C   UNL A   1      45.528  26.303  31.805  1.00  0.00     0.037 A 
BRANCH  64  78
ATOM     78  C   UNL A   1      42.822  23.143  27.089  1.00  0.00     0.064 A 
ATOM     79  C   UNL A   1      42.207  21.939  27.498  1.00  0.00     0.173 A 
ATOM     80  C   UNL A   1      43.627  23.030  25.937  1.00  0.00     0.173 A 
ATOM     81  F   UNL A   1      41.394  21.886  28.560  1.00  0.00    -0.203 F 
ATOM     82  C   UNL A   1      42.422  20.724  26.845  1.00  0.00     0.198 A 
ATOM     83  C   UNL A   1      43.860  21.809  25.298  1.00  0.00     0.198 A 
ATOM     84  F   UNL A   1      44.207  24.094  25.372  1.00  0.00    -0.203 F 
ATOM     85  F   UNL A   1      41.815  19.615  27.292  1.00  0.00    -0.200 F 
ATOM     86  C   UNL A   1      43.263  20.654  25.755  1.00  0.00     0.200 A 
ATOM     87  F   UNL A   1      44.670  21.765  24.230  1.00  0.00    -0.200 F 
ATOM     88  F   UNL A   1      43.489  19.485  25.144  1.00  0.00    -0.200 F 
ENDBRANCH  64  78
BRANCH  65  89
ATOM     89  C   UNL A   1      43.887  32.510  32.304  1.00  0.00     0.064 A 
ATOM     90  C   UNL A   1      43.265  32.560  33.598  1.00  0.00     0.173 A 
ATOM     91  C   UNL A   1      44.613  33.643  31.936  1.00  0.00     0.173 A 
ATOM     92  F   UNL A   1      42.553  31.506  34.036  1.00  0.00    -0.203 F 
ATOM     93  C   UNL A   1      43.569  33.551  34.533  1.00  0.00     0.198 A 
ATOM     94  C   UNL A   1      44.827  34.689  32.852  1.00  0.00     0.198 A 
ATOM     95  F   UNL A   1      45.241  33.675  30.754  1.00  0.00    -0.203 F 
ATOM     96  F   UNL A   1      43.181  33.418  35.812  1.00  0.00    -0.200 F 
ATOM     97  C   UNL A   1      44.373  34.608  34.163  1.00  0.00     0.200 A 
ATOM     98  F   UNL A   1      45.560  35.749  32.494  1.00  0.00    -0.200 F 
ATOM     99  F   UNL A   1      44.754  35.514  35.077  1.00  0.00    -0.200 F 
ENDBRANCH  65  89
BRANCH  77 100
ATOM    100  C   UNL A   1      45.751  25.214  32.843  1.00  0.00     0.064 A 
ATOM    101  C   UNL A   1      44.731  24.368  33.335  1.00  0.00     0.173 A 
ATOM    102  C   UNL A   1      47.050  24.903  33.289  1.00  0.00     0.173 A 
ATOM    103  F   UNL A   1      43.477  24.430  32.866  1.00  0.00    -0.203 F 
ATOM    104  C   UNL A   1      44.975  23.387  34.299  1.00  0.00     0.198 A 
ATOM    105  C   UNL A   1      47.303  23.863  34.184  1.00  0.00     0.198 A 
ATOM    106  F   UNL A   1      48.119  25.579  32.845  1.00  0.00    -0.203 F 
ATOM    107  F   UNL A   1      43.952  22.681  34.801  1.00  0.00    -0.200 F 
ATOM    108  C   UNL A   1      46.263  23.130  34.718  1.00  0.00     0.200 A 
ATOM    109  F   UNL A   1      48.568  23.570  34.517  1.00  0.00    -0.200 F 
ATOM    110  F   UNL A   1      46.504  22.161  35.612  1.00  0.00    -0.200 F 
ENDBRANCH  77 100
ENDBRANCH  51  52
ENDBRANCH  44  46
ENDBRANCH  43  44
ENDBRANCH  42  43
ENDBRANCH  41  42
ENDBRANCH  40  41
ENDBRANCH  39  40
ENDBRANCH   1  39
TORSDOF 22
ENDMDL
MODEL 2
REMARK VINA RESULT:     -10.3      5.995     11.799
REMARK SMILES Cc1ccc(N2C(=O)N=C(OCCOCCOCCOC(=O)c3ccc(-c4c5nc(c(-c6c(F)c(F)c(F)c(F)c6F)c6ccc([nH]6)c(-c6c(F)c(F)c(F)c(F)c6F)c6nc(c(-c7c(F)c(F)c(F)c(F)c7F)c7ccc4[nH]7)C=C6)C=C5)cc3)/C(=C/c3ccccc3OCc3cccc(C(=O)[O-])c3)C2=O)cc1
REMARK SMILES IDX 15 1 14 2 13 3 12 4 11 5 10 6 6 7 7 8 105 9 8 10 9 11 86 12
REMARK SMILES IDX 106 13 87 14 5 15 1 16 2 17 3 18 108 19 4 20 107 21 88 22
REMARK SMILES IDX 89 23 93 24 90 25 92 26 91 27 94 28 95 29 96 30 97 31 104 32
REMARK SMILES IDX 98 33 100 34 99 35 101 36 102 37 103 38 16 39 17 40 18 41
REMARK SMILES IDX 19 42 20 43 21 44 22 45 23 46 24 47 85 48 25 49 84 50 26 51
REMARK SMILES IDX 27 52 28 53 78 54 29 55 83 56 77 57 79 58 30 59 82 60 76 61
REMARK SMILES IDX 75 62 31 64 63 65 43 66 62 67 44 68 47 69 61 70 80 71 45 72
REMARK SMILES IDX 46 73 60 75 81 76 48 77 32 78 33 79 41 80 34 81 35 82 39 83
REMARK SMILES IDX 42 84 36 85 37 86 40 87 38 88 64 89 65 90 73 91 66 92 67 93
REMARK SMILES IDX 71 94 74 95 68 96 69 97 72 98 70 99 49 100 50 101 58 102
REMARK SMILES IDX 51 103 52 104 56 105 59 106 53 107 54 108 57 109 55 110
REMARK H PARENT 79 63 47 74
REMARK Flexibility Score: inf
ROOT
ATOM      1  C   UNL A   1      41.042  40.644  29.336  1.00  0.00     0.188 C 
ENDROOT
BRANCH   1   2
ATOM      2  O   UNL A   1      41.834  40.749  28.150  1.00  0.00    -0.376 OA
BRANCH   2   3
ATOM      3  C   UNL A   1      41.062  40.657  26.947  1.00  0.00     0.201 C 
BRANCH   3   4
ATOM      4  C   UNL A   1      41.258  39.333  26.211  1.00  0.00     0.260 C 
BRANCH   4   5
ATOM      5  O   UNL A   1      42.483  38.672  26.672  1.00  0.00    -0.475 OA
BRANCH   5   6
ATOM      6  C   UNL A   1      42.970  37.479  27.047  1.00  0.00     0.231 C 
ATOM      7  N   UNL A   1      44.021  34.912  27.263  1.00  0.00    -0.226 N 
ATOM      8  C   UNL A   1      43.147  35.280  26.258  1.00  0.00     0.358 C 
ATOM      9  C   UNL A   1      44.714  35.936  27.870  1.00  0.00     0.272 C 
ATOM     10  O   UNL A   1      42.964  34.567  25.274  1.00  0.00    -0.245 OA
ATOM     11  N   UNL A   1      42.581  36.519  26.287  1.00  0.00    -0.156 NA
ATOM     12  C   UNL A   1      43.993  37.365  28.111  1.00  0.00     0.103 C 
ATOM     13  O   UNL A   1      45.875  35.693  28.206  1.00  0.00    -0.268 OA
ATOM     14  C   UNL A   1      44.181  38.609  28.739  1.00  0.00     0.031 C 
BRANCH   7  15
ATOM     15  C   UNL A   1      44.468  33.494  27.347  1.00  0.00     0.054 A 
ATOM     16  C   UNL A   1      45.740  29.324  27.937  1.00  0.00     0.044 C 
ATOM     17  C   UNL A   1      45.316  30.753  27.740  1.00  0.00    -0.051 A 
ATOM     18  C   UNL A   1      45.978  31.585  26.843  1.00  0.00     0.005 A 
ATOM     19  C   UNL A   1      44.221  31.281  28.421  1.00  0.00     0.005 A 
ATOM     20  C   UNL A   1      45.569  32.928  26.659  1.00  0.00     0.027 A 
ATOM     21  C   UNL A   1      43.811  32.616  28.227  1.00  0.00     0.027 A 
ENDBRANCH   7  15
BRANCH  14  22
ATOM     22  C   UNL A   1      45.092  39.839  29.513  1.00  0.00     0.018 A 
ATOM     23  C   UNL A   1      46.093  39.210  30.297  1.00  0.00     0.012 A 
ATOM     24  C   UNL A   1      45.032  41.389  29.707  1.00  0.00     0.127 A 
ATOM     25  C   UNL A   1      46.838  39.888  31.274  1.00  0.00     0.001 A 
ATOM     26  C   UNL A   1      45.762  41.993  30.756  1.00  0.00     0.047 A 
ATOM     27  C   UNL A   1      46.630  41.239  31.540  1.00  0.00     0.004 A 
BRANCH  24  28
ATOM     28  O   UNL A   1      44.720  42.676  28.667  1.00  0.00    -0.488 OA
BRANCH  28  29
ATOM     29  C   UNL A   1      45.332  43.509  27.279  1.00  0.00     0.265 C 
BRANCH  29  30
ATOM     30  C   UNL A   1      44.952  43.766  25.761  1.00  0.00    -0.010 A 
ATOM     31  C   UNL A   1      45.443  44.937  25.139  1.00  0.00     0.007 A 
ATOM     32  C   UNL A   1      43.927  43.121  25.066  1.00  0.00     0.017 A 
ATOM     33  C   UNL A   1      44.905  45.427  23.932  1.00  0.00     0.001 A 
ATOM     34  C   UNL A   1      43.387  43.579  23.853  1.00  0.00    -0.002 A 
ATOM     35  C   UNL A   1      43.863  44.756  23.295  1.00  0.00     0.010 A 
BRANCH  34  36
ATOM     36  C   UNL A   1      42.239  42.873  23.232  1.00  0.00     0.071 C 
ATOM     37  O   UNL A   1      41.438  43.355  22.459  1.00  0.00    -0.545 OA
ATOM     38  O   UNL A   1      42.152  41.590  23.634  1.00  0.00    -0.545 OA
ENDBRANCH  34  36
ENDBRANCH  29  30
ENDBRANCH  28  29
ENDBRANCH  24  28
ENDBRANCH  14  22
ENDBRANCH   5   6
ENDBRANCH   4   5
ENDBRANCH   3   4
ENDBRANCH   2   3
ENDBRANCH   1   2
BRANCH   1  39
ATOM     39  C   UNL A   1      41.487  41.613  30.449  1.00  0.00     0.188 C 
BRANCH  39  40
ATOM     40  O   UNL A   1      41.647  41.089  31.763  1.00  0.00    -0.376 OA
BRANCH  40  41
ATOM     41  C   UNL A   1      42.615  41.717  32.594  1.00  0.00     0.202 C 
BRANCH  41  42
ATOM     42  C   UNL A   1      42.993  40.724  33.705  1.00  0.00     0.261 C 
BRANCH  42  43
ATOM     43  O   UNL A   1      43.214  39.415  33.127  1.00  0.00    -0.460 OA
BRANCH  43  44
ATOM     44  C   UNL A   1      44.210  38.639  33.646  1.00  0.00     0.338 C 
ATOM     45  O   UNL A   1      45.176  39.029  34.277  1.00  0.00    -0.246 OA
BRANCH  44  46
ATOM     46  C   UNL A   1      44.008  37.214  33.210  1.00  0.00     0.060 A 
ATOM     47  C   UNL A   1      43.924  36.869  31.849  1.00  0.00     0.016 A 
ATOM     48  C   UNL A   1      43.724  36.230  34.144  1.00  0.00     0.016 A 
ATOM     49  C   UNL A   1      43.375  35.622  31.432  1.00  0.00     0.010 A 
ATOM     50  C   UNL A   1      43.106  35.047  33.727  1.00  0.00     0.010 A 
ATOM     51  C   UNL A   1      42.799  34.757  32.365  1.00  0.00    -0.014 A 
BRANCH  51  52
ATOM     52  C   UNL A   1      42.015  33.410  32.160  1.00  0.00     0.031 A 
ATOM     53  C   UNL A   1      43.452  32.380  32.512  1.00  0.00     0.074 A 
ATOM     54  C   UNL A   1      40.439  33.053  32.047  1.00  0.00     0.049 A 
ATOM     55  N   UNL A   1      43.606  31.382  33.360  1.00  0.00    -0.248 NA
ATOM     56  C   UNL A   1      44.710  32.539  31.766  1.00  0.00     0.031 C 
ATOM     57  C   UNL A   1      39.524  31.707  32.592  1.00  0.00     0.029 A 
ATOM     58  N   UNL A   1      39.213  33.640  31.579  1.00  0.00    -0.354 N 
ATOM     59  C   UNL A   1      44.470  30.462  32.831  1.00  0.00     0.074 A 
ATOM     60  C   UNL A   1      45.321  31.365  32.029  1.00  0.00     0.031 C 
ATOM     61  C   UNL A   1      38.217  31.845  32.619  1.00  0.00     0.029 A 
ATOM     62  C   UNL A   1      38.038  32.878  31.693  1.00  0.00     0.049 A 
ATOM     63  H   UNL A   1      39.198  34.545  31.191  1.00  0.00     0.167 HD
ATOM     64  C   UNL A   1      44.143  29.133  32.502  1.00  0.00     0.037 A 
ATOM     65  C   UNL A   1      37.211  32.581  30.672  1.00  0.00     0.037 A 
ATOM     66  C   UNL A   1      42.704  28.644  32.233  1.00  0.00     0.049 A 
ATOM     67  C   UNL A   1      37.602  31.230  30.010  1.00  0.00     0.074 A 
ATOM     68  C   UNL A   1      41.618  28.285  33.036  1.00  0.00     0.029 A 
ATOM     69  N   UNL A   1      42.184  28.338  30.927  1.00  0.00    -0.354 N 
ATOM     70  N   UNL A   1      38.609  30.458  30.413  1.00  0.00    -0.248 NA
ATOM     71  C   UNL A   1      36.907  30.607  28.897  1.00  0.00     0.031 C 
ATOM     72  C   UNL A   1      40.429  28.108  32.237  1.00  0.00     0.029 A 
ATOM     73  C   UNL A   1      40.736  28.301  30.898  1.00  0.00     0.049 A 
ATOM     74  H   UNL A   1      42.749  28.171  30.139  1.00  0.00     0.167 HD
ATOM     75  C   UNL A   1      38.797  29.363  29.602  1.00  0.00     0.074 A 
ATOM     76  C   UNL A   1      37.644  29.493  28.698  1.00  0.00     0.031 C 
ATOM     77  C   UNL A   1      39.885  28.482  29.640  1.00  0.00     0.037 A 
BRANCH  64  78
ATOM     78  C   UNL A   1      45.192  28.138  32.998  1.00  0.00     0.064 A 
ATOM     79  C   UNL A   1      46.062  27.498  32.088  1.00  0.00     0.173 A 
ATOM     80  C   UNL A   1      45.317  27.707  34.335  1.00  0.00     0.173 A 
ATOM     81  F   UNL A   1      46.080  27.813  30.787  1.00  0.00    -0.203 F 
ATOM     82  C   UNL A   1      46.940  26.483  32.473  1.00  0.00     0.198 A 
ATOM     83  C   UNL A   1      46.180  26.675  34.714  1.00  0.00     0.198 A 
ATOM     84  F   UNL A   1      44.628  28.275  35.328  1.00  0.00    -0.203 F 
ATOM     85  F   UNL A   1      47.733  25.910  31.557  1.00  0.00    -0.200 F 
ATOM     86  C   UNL A   1      46.986  26.058  33.783  1.00  0.00     0.200 A 
ATOM     87  F   UNL A   1      46.221  26.285  35.997  1.00  0.00    -0.200 F 
ATOM     88  F   UNL A   1      47.810  25.068  34.148  1.00  0.00    -0.200 F 
ENDBRANCH  64  78
BRANCH  65  89
ATOM     89  C   UNL A   1      36.361  33.798  30.534  1.00  0.00     0.064 A 
ATOM     90  C   UNL A   1      36.072  34.182  29.180  1.00  0.00     0.173 A 
ATOM     91  C   UNL A   1      35.387  34.123  31.478  1.00  0.00     0.173 A 
ATOM     92  F   UNL A   1      36.954  33.899  28.204  1.00  0.00    -0.203 F 
ATOM     93  C   UNL A   1      34.806  34.615  28.783  1.00  0.00     0.198 A 
ATOM     94  C   UNL A   1      34.149  34.659  31.079  1.00  0.00     0.198 A 
ATOM     95  F   UNL A   1      35.566  33.785  32.762  1.00  0.00    -0.203 F 
ATOM     96  F   UNL A   1      34.499  34.706  27.478  1.00  0.00    -0.200 F 
ATOM     97  C   UNL A   1      33.834  34.831  29.736  1.00  0.00     0.200 A 
ATOM     98  F   UNL A   1      33.213  34.927  31.995  1.00  0.00    -0.200 F 
ATOM     99  F   UNL A   1      32.586  35.152  29.362  1.00  0.00    -0.200 F 
ENDBRANCH  65  89
BRANCH  77 100
ATOM    100  C   UNL A   1      40.232  27.678  28.396  1.00  0.00     0.064 A 
ATOM    101  C   UNL A   1      41.026  28.166  27.334  1.00  0.00     0.173 A 
ATOM    102  C   UNL A   1      39.870  26.321  28.294  1.00  0.00     0.173 A 
ATOM    103  F   UNL A   1      41.591  29.381  27.377  1.00  0.00    -0.203 F 
ATOM    104  C   UNL A   1      41.312  27.400  26.201  1.00  0.00     0.198 A 
ATOM    105  C   UNL A   1      40.233  25.531  27.203  1.00  0.00     0.198 A 
ATOM    106  F   UNL A   1      39.179  25.711  29.267  1.00  0.00    -0.203 F 
ATOM    107  F   UNL A   1      41.987  27.949  25.182  1.00  0.00    -0.200 F 
ATOM    108  C   UNL A   1      40.922  26.079  26.140  1.00  0.00     0.200 A 
ATOM    109  F   UNL A   1      39.920  24.228  27.197  1.00  0.00    -0.200 F 
ATOM    110  F   UNL A   1      41.230  25.330  25.073  1.00  0.00    -0.200 F 
ENDBRANCH  77 100
ENDBRANCH  51  52
ENDBRANCH  44  46
ENDBRANCH  43  44
ENDBRANCH  42  43
ENDBRANCH  41  42
ENDBRANCH  40  41
ENDBRANCH  39  40
ENDBRANCH   1  39
TORSDOF 22
ENDMDL
MODEL 3
REMARK VINA RESULT:      -9.7      4.790     12.058
REMARK SMILES Cc1ccc(N2C(=O)N=C(OCCOCCOCCOC(=O)c3ccc(-c4c5nc(c(-c6c(F)c(F)c(F)c(F)c6F)c6ccc([nH]6)c(-c6c(F)c(F)c(F)c(F)c6F)c6nc(c(-c7c(F)c(F)c(F)c(F)c7F)c7ccc4[nH]7)C=C6)C=C5)cc3)/C(=C/c3ccccc3OCc3cccc(C(=O)[O-])c3)C2=O)cc1
REMARK SMILES IDX 15 1 14 2 13 3 12 4 11 5 10 6 6 7 7 8 105 9 8 10 9 11 86 12
REMARK SMILES IDX 106 13 87 14 5 15 1 16 2 17 3 18 108 19 4 20 107 21 88 22
REMARK SMILES IDX 89 23 93 24 90 25 92 26 91 27 94 28 95 29 96 30 97 31 104 32
REMARK SMILES IDX 98 33 100 34 99 35 101 36 102 37 103 38 16 39 17 40 18 41
REMARK SMILES IDX 19 42 20 43 21 44 22 45 23 46 24 47 85 48 25 49 84 50 26 51
REMARK SMILES IDX 27 52 28 53 78 54 29 55 83 56 77 57 79 58 30 59 82 60 76 61
REMARK SMILES IDX 75 62 31 64 63 65 43 66 62 67 44 68 47 69 61 70 80 71 45 72
REMARK SMILES IDX 46 73 60 75 81 76 48 77 32 78 33 79 41 80 34 81 35 82 39 83
REMARK SMILES IDX 42 84 36 85 37 86 40 87 38 88 64 89 65 90 73 91 66 92 67 93
REMARK SMILES IDX 71 94 74 95 68 96 69 97 72 98 70 99 49 100 50 101 58 102
REMARK SMILES IDX 51 103 52 104 56 105 59 106 53 107 54 108 57 109 55 110
REMARK H PARENT 79 63 47 74
REMARK Flexibility Score: inf
ROOT
ATOM      1  C   UNL A   1      50.178  27.683  29.254  1.00  0.00     0.188 C 
ENDROOT
BRANCH   1   2
ATOM      2  O   UNL A   1      49.828  28.318  28.021  1.00  0.00    -0.376 OA
BRANCH   2   3
ATOM      3  C   UNL A   1      50.001  27.469  26.881  1.00  0.00     0.201 C 
BRANCH   3   4
ATOM      4  C   UNL A   1      49.064  27.820  25.727  1.00  0.00     0.260 C 
BRANCH   4   5
ATOM      5  O   UNL A   1      47.697  28.011  26.222  1.00  0.00    -0.475 OA
BRANCH   5   6
ATOM      6  C   UNL A   1      46.806  28.962  26.542  1.00  0.00     0.231 C 
ATOM      7  N   UNL A   1      45.224  31.235  26.800  1.00  0.00    -0.226 N 
ATOM      8  C   UNL A   1      46.573  31.293  26.505  1.00  0.00     0.358 C 
ATOM      9  C   UNL A   1      44.589  30.049  26.509  1.00  0.00     0.272 C 
ATOM     10  O   UNL A   1      47.099  32.332  26.113  1.00  0.00    -0.245 OA
ATOM     11  N   UNL A   1      47.306  30.145  26.514  1.00  0.00    -0.156 NA
ATOM     12  C   UNL A   1      45.370  28.646  26.712  1.00  0.00     0.103 C 
ATOM     13  O   UNL A   1      43.428  30.129  26.102  1.00  0.00    -0.268 OA
ATOM     14  C   UNL A   1      45.174  27.254  26.686  1.00  0.00     0.031 C 
BRANCH   7  15
ATOM     15  C   UNL A   1      44.474  32.507  26.999  1.00  0.00     0.054 A 
ATOM     16  C   UNL A   1      42.457  36.402  27.336  1.00  0.00     0.044 C 
ATOM     17  C   UNL A   1      43.156  35.076  27.226  1.00  0.00    -0.051 A 
ATOM     18  C   UNL A   1      43.476  34.333  28.358  1.00  0.00     0.005 A 
ATOM     19  C   UNL A   1      43.472  34.528  25.984  1.00  0.00     0.005 A 
ATOM     20  C   UNL A   1      44.130  33.082  28.246  1.00  0.00     0.027 A 
ATOM     21  C   UNL A   1      44.114  33.277  25.878  1.00  0.00     0.027 A 
ENDBRANCH   7  15
BRANCH  14  22
ATOM     22  C   UNL A   1      44.324  25.809  26.321  1.00  0.00     0.018 A 
ATOM     23  C   UNL A   1      45.280  24.775  26.145  1.00  0.00     0.012 A 
ATOM     24  C   UNL A   1      42.861  25.367  25.993  1.00  0.00     0.127 A 
ATOM     25  C   UNL A   1      44.966  23.534  25.571  1.00  0.00     0.001 A 
ATOM     26  C   UNL A   1      42.630  24.127  25.355  1.00  0.00     0.047 A 
ATOM     27  C   UNL A   1      43.679  23.242  25.127  1.00  0.00     0.004 A 
BRANCH  24  28
ATOM     28  O   UNL A   1      41.361  25.741  26.659  1.00  0.00    -0.488 OA
BRANCH  28  29
ATOM     29  C   UNL A   1      40.531  25.948  28.163  1.00  0.00     0.265 C 
BRANCH  29  30
ATOM     30  C   UNL A   1      39.614  27.012  28.899  1.00  0.00    -0.010 A 
ATOM     31  C   UNL A   1      39.463  28.288  28.307  1.00  0.00     0.007 A 
ATOM     32  C   UNL A   1      39.192  26.933  30.228  1.00  0.00     0.017 A 
ATOM     33  C   UNL A   1      38.964  29.394  29.023  1.00  0.00     0.001 A 
ATOM     34  C   UNL A   1      38.674  28.015  30.957  1.00  0.00    -0.002 A 
ATOM     35  C   UNL A   1      38.583  29.263  30.357  1.00  0.00     0.010 A 
BRANCH  34  36
ATOM     36  C   UNL A   1      38.334  27.855  32.393  1.00  0.00     0.071 C 
ATOM     37  O   UNL A   1      37.318  28.240  32.933  1.00  0.00    -0.545 OA
ATOM     38  O   UNL A   1      39.307  27.225  33.079  1.00  0.00    -0.545 OA
ENDBRANCH  34  36
ENDBRANCH  29  30
ENDBRANCH  28  29
ENDBRANCH  24  28
ENDBRANCH  14  22
ENDBRANCH   5   6
ENDBRANCH   4   5
ENDBRANCH   3   4
ENDBRANCH   2   3
ENDBRANCH   1   2
BRANCH   1  39
ATOM     39  C   UNL A   1      48.971  27.048  29.972  1.00  0.00     0.188 C 
BRANCH  39  40
ATOM     40  O   UNL A   1      48.514  25.781  29.510  1.00  0.00    -0.376 OA
BRANCH  40  41
ATOM     41  C   UNL A   1      47.107  25.604  29.400  1.00  0.00     0.202 C 
BRANCH  41  42
ATOM     42  C   UNL A   1      46.446  26.370  30.557  1.00  0.00     0.261 C 
BRANCH  42  43
ATOM     43  O   UNL A   1      45.396  27.220  30.036  1.00  0.00    -0.460 OA
BRANCH  43  44
ATOM     44  C   UNL A   1      44.125  26.723  29.993  1.00  0.00     0.338 C 
ATOM     45  O   UNL A   1      43.798  25.602  29.648  1.00  0.00    -0.246 OA
BRANCH  44  46
ATOM     46  C   UNL A   1      43.152  27.823  30.317  1.00  0.00     0.060 A 
ATOM     47  C   UNL A   1      43.106  29.008  29.561  1.00  0.00     0.016 A 
ATOM     48  C   UNL A   1      42.394  27.767  31.477  1.00  0.00     0.016 A 
ATOM     49  C   UNL A   1      42.473  30.183  30.061  1.00  0.00     0.010 A 
ATOM     50  C   UNL A   1      41.853  28.946  31.998  1.00  0.00     0.010 A 
ATOM     51  C   UNL A   1      41.980  30.218  31.367  1.00  0.00    -0.014 A 
BRANCH  51  52
ATOM     52  C   UNL A   1      41.374  31.407  32.197  1.00  0.00     0.031 A 
ATOM     53  C   UNL A   1      42.893  31.693  33.125  1.00  0.00     0.074 A 
ATOM     54  C   UNL A   1      40.030  32.297  32.036  1.00  0.00     0.049 A 
ATOM     55  N   UNL A   1      43.588  32.797  33.316  1.00  0.00    -0.248 NA
ATOM     56  C   UNL A   1      43.542  30.613  33.884  1.00  0.00     0.031 C 
ATOM     57  C   UNL A   1      39.707  33.956  32.337  1.00  0.00     0.029 A 
ATOM     58  N   UNL A   1      38.681  32.168  31.557  1.00  0.00    -0.354 N 
ATOM     59  C   UNL A   1      44.148  32.775  34.564  1.00  0.00     0.074 A 
ATOM     60  C   UNL A   1      44.336  31.317  34.717  1.00  0.00     0.031 C 
ATOM     61  C   UNL A   1      38.604  34.453  31.824  1.00  0.00     0.029 A 
ATOM     62  C   UNL A   1      37.843  33.291  31.653  1.00  0.00     0.049 A 
ATOM     63  H   UNL A   1      38.355  31.321  31.175  1.00  0.00     0.167 HD
ATOM     64  C   UNL A   1      43.860  33.681  35.602  1.00  0.00     0.037 A 
ATOM     65  C   UNL A   1      36.646  33.308  32.269  1.00  0.00     0.037 A 
ATOM     66  C   UNL A   1      42.565  34.518  35.675  1.00  0.00     0.049 A 
ATOM     67  C   UNL A   1      36.789  33.729  33.759  1.00  0.00     0.074 A 
ATOM     68  C   UNL A   1      42.116  35.695  35.071  1.00  0.00     0.029 A 
ATOM     69  N   UNL A   1      41.477  34.249  36.578  1.00  0.00    -0.354 N 
ATOM     70  N   UNL A   1      37.942  34.050  34.342  1.00  0.00    -0.248 NA
ATOM     71  C   UNL A   1      35.694  33.868  34.703  1.00  0.00     0.031 C 
ATOM     72  C   UNL A   1      40.715  35.909  35.349  1.00  0.00     0.029 A 
ATOM     73  C   UNL A   1      40.247  34.901  36.179  1.00  0.00     0.049 A 
ATOM     74  H   UNL A   1      41.560  33.684  37.380  1.00  0.00     0.167 HD
ATOM     75  C   UNL A   1      37.805  34.297  35.688  1.00  0.00     0.074 A 
ATOM     76  C   UNL A   1      36.343  34.220  35.833  1.00  0.00     0.031 C 
ATOM     77  C   UNL A   1      38.848  34.459  36.610  1.00  0.00     0.037 A 
BRANCH  64  78
ATOM     78  C   UNL A   1      45.123  34.193  36.293  1.00  0.00     0.064 A 
ATOM     79  C   UNL A   1      45.526  33.663  37.538  1.00  0.00     0.173 A 
ATOM     80  C   UNL A   1      45.914  35.263  35.825  1.00  0.00     0.173 A 
ATOM     81  F   UNL A   1      44.892  32.630  38.105  1.00  0.00    -0.203 F 
ATOM     82  C   UNL A   1      46.590  34.190  38.272  1.00  0.00     0.198 A 
ATOM     83  C   UNL A   1      46.963  35.805  36.571  1.00  0.00     0.198 A 
ATOM     84  F   UNL A   1      45.716  35.816  34.625  1.00  0.00    -0.203 F 
ATOM     85  F   UNL A   1      46.915  33.646  39.453  1.00  0.00    -0.200 F 
ATOM     86  C   UNL A   1      47.298  35.274  37.798  1.00  0.00     0.200 A 
ATOM     87  F   UNL A   1      47.650  36.850  36.086  1.00  0.00    -0.200 F 
ATOM     88  F   UNL A   1      48.302  35.795  38.513  1.00  0.00    -0.200 F 
ENDBRANCH  64  78
BRANCH  65  89
ATOM     89  C   UNL A   1      35.711  32.747  31.253  1.00  0.00     0.064 A 
ATOM     90  C   UNL A   1      35.338  33.658  30.207  1.00  0.00     0.173 A 
ATOM     91  C   UNL A   1      35.734  31.397  30.902  1.00  0.00     0.173 A 
ATOM     92  F   UNL A   1      35.298  34.980  30.458  1.00  0.00    -0.203 F 
ATOM     93  C   UNL A   1      35.254  33.265  28.870  1.00  0.00     0.198 A 
ATOM     94  C   UNL A   1      35.544  30.998  29.566  1.00  0.00     0.198 A 
ATOM     95  F   UNL A   1      36.090  30.480  31.810  1.00  0.00    -0.203 F 
ATOM     96  F   UNL A   1      35.168  34.186  27.897  1.00  0.00    -0.200 F 
ATOM     97  C   UNL A   1      35.381  31.931  28.548  1.00  0.00     0.200 A 
ATOM     98  F   UNL A   1      35.609  29.702  29.242  1.00  0.00    -0.200 F 
ATOM     99  F   UNL A   1      35.401  31.549  27.262  1.00  0.00    -0.200 F 
ENDBRANCH  65  89
BRANCH  77 100
ATOM    100  C   UNL A   1      38.582  34.192  38.084  1.00  0.00     0.064 A 
ATOM    101  C   UNL A   1      38.197  32.936  38.604  1.00  0.00     0.173 A 
ATOM    102  C   UNL A   1      38.836  35.184  39.051  1.00  0.00     0.173 A 
ATOM    103  F   UNL A   1      38.093  31.851  37.822  1.00  0.00    -0.203 F 
ATOM    104  C   UNL A   1      37.951  32.734  39.964  1.00  0.00     0.198 A 
ATOM    105  C   UNL A   1      38.676  34.954  40.417  1.00  0.00     0.198 A 
ATOM    106  F   UNL A   1      39.279  36.401  38.700  1.00  0.00    -0.203 F 
ATOM    107  F   UNL A   1      37.492  31.547  40.386  1.00  0.00    -0.200 F 
ATOM    108  C   UNL A   1      38.198  33.742  40.872  1.00  0.00     0.200 A 
ATOM    109  F   UNL A   1      39.001  35.916  41.292  1.00  0.00    -0.200 F 
ATOM    110  F   UNL A   1      38.002  33.538  42.181  1.00  0.00    -0.200 F 
ENDBRANCH  77 100
ENDBRANCH  51  52
ENDBRANCH  44  46
ENDBRANCH  43  44
ENDBRANCH  42  43
ENDBRANCH  41  42
ENDBRANCH  40  41
ENDBRANCH  39  40
ENDBRANCH   1  39
TORSDOF 22
ENDMDL
