MODEL 1
REMARK VINA RESULT:     -11.5      0.000      0.000
REMARK SMILES COc1ccc(-c2nc3ccc(C)cc3[nH]2)c(C(=O)OCCOCCOCCOC(=O)c2ccc(-c3c4nc(c(-c5c(F)c(F)c(F)c(F)c5F)c5ccc([nH]5)c(-c5c(F)c(F)c(F)c(F)c5F)c5nc(c(-c6c(F)c(F)c(F)c(F)c6F)c6ccc3[nH]6)C=C5)C=C4)cc2)c1OC
REMARK SMILES IDX 25 1 24 2 23 3 22 4 21 5 20 6 18 7 19 8 17 9 3 10 4 11 95 12
REMARK SMILES IDX 5 13 6 14 2 15 1 16 96 17 97 18 7 19 8 20 16 21 9 22 15 23
REMARK SMILES IDX 10 25 14 26 11 27 12 28 13 29 26 30 27 31 28 32 29 33 30 34
REMARK SMILES IDX 31 35 32 36 33 37 94 38 34 39 93 40 35 41 36 42 37 43 87 44
REMARK SMILES IDX 38 45 92 46 86 47 88 48 39 49 91 50 85 51 84 52 40 54 72 55
REMARK SMILES IDX 52 56 71 57 53 58 56 59 70 60 89 61 54 62 55 63 69 65 90 66
REMARK SMILES IDX 57 67 41 68 42 69 50 70 43 71 44 72 48 73 51 74 45 75 46 76
REMARK SMILES IDX 49 77 47 78 73 79 74 80 82 81 75 82 76 83 80 84 83 85 77 86
REMARK SMILES IDX 78 87 81 88 79 89 58 90 59 91 67 92 60 93 61 94 65 95 68 96
REMARK SMILES IDX 62 97 63 98 66 99 64 100
REMARK H PARENT 16 24 88 53 56 64
REMARK Flexibility Score: inf
ROOT
ATOM      1  C   UNL A   1      31.863  30.648  26.619  1.00  0.00     0.188 C 
ENDROOT
BRANCH   1   2
ATOM      2  C   UNL A   1      31.918  29.566  25.533  1.00  0.00     0.188 C 
BRANCH   2   3
ATOM      3  O   UNL A   1      33.212  29.410  24.946  1.00  0.00    -0.376 OA
BRANCH   3   4
ATOM      4  C   UNL A   1      33.620  28.042  24.854  1.00  0.00     0.202 C 
BRANCH   4   5
ATOM      5  C   UNL A   1      33.097  27.259  26.055  1.00  0.00     0.261 C 
BRANCH   5   6
ATOM      6  O   UNL A   1      33.332  25.849  25.897  1.00  0.00    -0.460 OA
BRANCH   6   7
ATOM      7  C   UNL A   1      32.282  25.017  26.067  1.00  0.00     0.342 C 
ATOM      8  O   UNL A   1      31.292  25.214  26.754  1.00  0.00    -0.246 OA
BRANCH   7   9
ATOM      9  C   UNL A   1      32.460  23.835  25.189  1.00  0.00     0.116 A 
ATOM     10  C   UNL A   1      33.532  21.728  24.667  1.00  0.00     0.161 A 
ATOM     11  C   UNL A   1      32.791  21.644  23.486  1.00  0.00     0.051 A 
ATOM     12  C   UNL A   1      33.382  22.827  25.525  1.00  0.00     0.176 A 
ATOM     13  C   UNL A   1      31.886  22.652  23.146  1.00  0.00     0.017 A 
ATOM     14  C   UNL A   1      31.725  23.763  23.983  1.00  0.00     0.036 A 
BRANCH  10  15
ATOM     15  O   UNL A   1      34.471  20.752  24.863  1.00  0.00    -0.493 OA
ATOM     16  C   UNL A   1      33.915  19.440  24.834  1.00  0.00     0.278 C 
ENDBRANCH  10  15
BRANCH  12  17
ATOM     17  O   UNL A   1      34.051  22.913  26.719  1.00  0.00    -0.492 OA
ATOM     18  C   UNL A   1      33.435  22.179  27.780  1.00  0.00     0.278 C 
ENDBRANCH  12  17
BRANCH  14  19
ATOM     19  C   UNL A   1      30.995  24.926  23.491  1.00  0.00     0.139 A 
ATOM     20  N   UNL A   1      31.541  25.849  22.729  1.00  0.00    -0.228 NA
ATOM     21  N   UNL A   1      29.722  25.296  23.858  1.00  0.00    -0.338 N 
ATOM     22  C   UNL A   1      30.700  26.922  22.785  1.00  0.00     0.089 A 
ATOM     23  C   UNL A   1      29.522  26.594  23.440  1.00  0.00     0.066 A 
ATOM     24  H   UNL A   1      29.069  24.734  24.335  1.00  0.00     0.168 HD
ATOM     25  C   UNL A   1      30.891  28.217  22.289  1.00  0.00     0.031 A 
ATOM     26  C   UNL A   1      28.464  27.496  23.588  1.00  0.00     0.031 A 
ATOM     27  C   UNL A   1      29.852  29.140  22.425  1.00  0.00     0.006 A 
ATOM     28  C   UNL A   1      28.643  28.783  23.041  1.00  0.00    -0.049 A 
ATOM     29  C   UNL A   1      27.532  29.796  23.073  1.00  0.00     0.044 C 
ENDBRANCH  14  19
ENDBRANCH   7   9
ENDBRANCH   6   7
ENDBRANCH   5   6
ENDBRANCH   4   5
ENDBRANCH   3   4
ENDBRANCH   2   3
ENDBRANCH   1   2
BRANCH   1  30
ATOM     30  O   UNL A   1      32.933  30.765  27.554  1.00  0.00    -0.376 OA
BRANCH  30  31
ATOM     31  C   UNL A   1      33.631  31.998  27.626  1.00  0.00     0.202 C 
BRANCH  31  32
ATOM     32  C   UNL A   1      32.798  33.251  27.341  1.00  0.00     0.261 C 
BRANCH  32  33
ATOM     33  O   UNL A   1      32.297  33.904  28.523  1.00  0.00    -0.460 OA
BRANCH  33  34
ATOM     34  C   UNL A   1      32.992  34.998  28.918  1.00  0.00     0.338 C 
ATOM     35  O   UNL A   1      32.689  36.168  28.748  1.00  0.00    -0.246 OA
BRANCH  34  36
ATOM     36  C   UNL A   1      34.199  34.606  29.675  1.00  0.00     0.060 A 
ATOM     37  C   UNL A   1      35.441  34.709  29.040  1.00  0.00     0.016 A 
ATOM     38  C   UNL A   1      34.107  34.015  30.938  1.00  0.00     0.016 A 
ATOM     39  C   UNL A   1      36.590  34.191  29.648  1.00  0.00     0.010 A 
ATOM     40  C   UNL A   1      35.259  33.487  31.541  1.00  0.00     0.010 A 
ATOM     41  C   UNL A   1      36.505  33.544  30.889  1.00  0.00    -0.014 A 
BRANCH  41  42
ATOM     42  C   UNL A   1      37.697  32.864  31.470  1.00  0.00     0.031 A 
ATOM     43  C   UNL A   1      38.288  31.665  30.790  1.00  0.00     0.074 A 
ATOM     44  C   UNL A   1      38.269  33.303  32.605  1.00  0.00     0.049 A 
ATOM     45  N   UNL A   1      39.266  30.890  31.191  1.00  0.00    -0.248 NA
ATOM     46  C   UNL A   1      37.718  31.295  29.487  1.00  0.00     0.031 C 
ATOM     47  C   UNL A   1      37.845  34.480  33.342  1.00  0.00     0.029 A 
ATOM     48  N   UNL A   1      39.315  32.805  33.346  1.00  0.00    -0.354 N 
ATOM     49  C   UNL A   1      39.427  29.940  30.195  1.00  0.00     0.074 A 
ATOM     50  C   UNL A   1      38.436  30.224  29.177  1.00  0.00     0.031 C 
ATOM     51  C   UNL A   1      38.588  34.599  34.454  1.00  0.00     0.029 A 
ATOM     52  C   UNL A   1      39.528  33.490  34.517  1.00  0.00     0.049 A 
ATOM     53  H   UNL A   1      39.858  32.034  33.065  1.00  0.00     0.167 HD
ATOM     54  C   UNL A   1      40.326  28.929  30.136  1.00  0.00     0.037 A 
ATOM     55  C   UNL A   1      40.356  33.246  35.549  1.00  0.00     0.037 A 
ATOM     56  C   UNL A   1      41.325  28.645  31.134  1.00  0.00     0.049 A 
ATOM     57  C   UNL A   1      41.272  32.063  35.501  1.00  0.00     0.074 A 
ATOM     58  C   UNL A   1      42.316  27.678  31.109  1.00  0.00     0.029 A 
ATOM     59  N   UNL A   1      41.453  29.311  32.343  1.00  0.00    -0.354 N 
ATOM     60  N   UNL A   1      41.415  31.171  34.556  1.00  0.00    -0.248 NA
ATOM     61  C   UNL A   1      42.139  31.851  36.670  1.00  0.00     0.031 C 
ATOM     62  C   UNL A   1      43.011  27.724  32.324  1.00  0.00     0.029 A 
ATOM     63  C   UNL A   1      42.482  28.750  33.086  1.00  0.00     0.049 A 
ATOM     64  H   UNL A   1      40.897  30.071  32.630  1.00  0.00     0.167 HD
ATOM     65  C   UNL A   1      42.384  30.292  35.011  1.00  0.00     0.074 A 
ATOM     66  C   UNL A   1      42.811  30.768  36.311  1.00  0.00     0.031 C 
ATOM     67  C   UNL A   1      42.873  29.190  34.398  1.00  0.00     0.037 A 
BRANCH  54  68
ATOM     68  C   UNL A   1      40.267  28.024  28.945  1.00  0.00     0.064 A 
ATOM     69  C   UNL A   1      40.973  28.311  27.768  1.00  0.00     0.173 A 
ATOM     70  C   UNL A   1      39.558  26.817  29.015  1.00  0.00     0.173 A 
ATOM     71  F   UNL A   1      41.657  29.459  27.654  1.00  0.00    -0.203 F 
ATOM     72  C   UNL A   1      40.966  27.420  26.700  1.00  0.00     0.198 A 
ATOM     73  C   UNL A   1      39.570  25.920  27.953  1.00  0.00     0.198 A 
ATOM     74  F   UNL A   1      38.871  26.500  30.124  1.00  0.00    -0.203 F 
ATOM     75  F   UNL A   1      41.632  27.719  25.576  1.00  0.00    -0.200 F 
ATOM     76  C   UNL A   1      40.273  26.221  26.796  1.00  0.00     0.200 A 
ATOM     77  F   UNL A   1      38.909  24.758  28.051  1.00  0.00    -0.200 F 
ATOM     78  F   UNL A   1      40.282  25.357  25.772  1.00  0.00    -0.200 F 
ENDBRANCH  54  68
BRANCH  55  79
ATOM     79  C   UNL A   1      40.318  34.099  36.761  1.00  0.00     0.064 A 
ATOM     80  C   UNL A   1      39.432  33.830  37.810  1.00  0.00     0.173 A 
ATOM     81  C   UNL A   1      41.125  35.240  36.853  1.00  0.00     0.173 A 
ATOM     82  F   UNL A   1      38.619  32.767  37.746  1.00  0.00    -0.203 F 
ATOM     83  C   UNL A   1      39.345  34.684  38.907  1.00  0.00     0.198 A 
ATOM     84  C   UNL A   1      41.046  36.086  37.955  1.00  0.00     0.198 A 
ATOM     85  F   UNL A   1      41.981  35.539  35.865  1.00  0.00    -0.203 F 
ATOM     86  F   UNL A   1      38.463  34.430  39.884  1.00  0.00    -0.200 F 
ATOM     87  C   UNL A   1      40.152  35.811  38.979  1.00  0.00     0.200 A 
ATOM     88  F   UNL A   1      41.833  37.168  38.026  1.00  0.00    -0.200 F 
ATOM     89  F   UNL A   1      40.062  36.636  40.031  1.00  0.00    -0.200 F 
ENDBRANCH  55  79
BRANCH  67  90
ATOM     90  C   UNL A   1      43.918  28.415  35.140  1.00  0.00     0.064 A 
ATOM     91  C   UNL A   1      45.280  28.720  35.009  1.00  0.00     0.173 A 
ATOM     92  C   UNL A   1      43.558  27.348  35.976  1.00  0.00     0.173 A 
ATOM     93  F   UNL A   1      45.675  29.712  34.198  1.00  0.00    -0.203 F 
ATOM     94  C   UNL A   1      46.248  27.969  35.671  1.00  0.00     0.198 A 
ATOM     95  C   UNL A   1      44.526  26.615  36.656  1.00  0.00     0.198 A 
ATOM     96  F   UNL A   1      42.268  27.014  36.128  1.00  0.00    -0.203 F 
ATOM     97  F   UNL A   1      47.547  28.244  35.491  1.00  0.00    -0.200 F 
ATOM     98  C   UNL A   1      45.870  26.920  36.498  1.00  0.00     0.200 A 
ATOM     99  F   UNL A   1      44.160  25.603  37.455  1.00  0.00    -0.200 F 
ATOM    100  F   UNL A   1      46.803  26.195  37.129  1.00  0.00    -0.200 F 
ENDBRANCH  67  90
ENDBRANCH  41  42
ENDBRANCH  34  36
ENDBRANCH  33  34
ENDBRANCH  32  33
ENDBRANCH  31  32
ENDBRANCH  30  31
ENDBRANCH   1  30
TORSDOF 20
ENDMDL
MODEL 2
REMARK VINA RESULT:     -11.4      0.750      2.029
REMARK SMILES COc1ccc(-c2nc3ccc(C)cc3[nH]2)c(C(=O)OCCOCCOCCOC(=O)c2ccc(-c3c4nc(c(-c5c(F)c(F)c(F)c(F)c5F)c5ccc([nH]5)c(-c5c(F)c(F)c(F)c(F)c5F)c5nc(c(-c6c(F)c(F)c(F)c(F)c6F)c6ccc3[nH]6)C=C5)C=C4)cc2)c1OC
REMARK SMILES IDX 25 1 24 2 23 3 22 4 21 5 20 6 18 7 19 8 17 9 3 10 4 11 95 12
REMARK SMILES IDX 5 13 6 14 2 15 1 16 96 17 97 18 7 19 8 20 16 21 9 22 15 23
REMARK SMILES IDX 10 25 14 26 11 27 12 28 13 29 26 30 27 31 28 32 29 33 30 34
REMARK SMILES IDX 31 35 32 36 33 37 94 38 34 39 93 40 35 41 36 42 37 43 87 44
REMARK SMILES IDX 38 45 92 46 86 47 88 48 39 49 91 50 85 51 84 52 40 54 72 55
REMARK SMILES IDX 52 56 71 57 53 58 56 59 70 60 89 61 54 62 55 63 69 65 90 66
REMARK SMILES IDX 57 67 41 68 42 69 50 70 43 71 44 72 48 73 51 74 45 75 46 76
REMARK SMILES IDX 49 77 47 78 73 79 74 80 82 81 75 82 76 83 80 84 83 85 77 86
REMARK SMILES IDX 78 87 81 88 79 89 58 90 59 91 67 92 60 93 61 94 65 95 68 96
REMARK SMILES IDX 62 97 63 98 66 99 64 100
REMARK H PARENT 16 24 88 53 56 64
REMARK Flexibility Score: inf
ROOT
ATOM      1  C   UNL A   1      31.868  30.108  25.728  1.00  0.00     0.188 C 
ENDROOT
BRANCH   1   2
ATOM      2  C   UNL A   1      32.183  28.625  25.965  1.00  0.00     0.188 C 
BRANCH   2   3
ATOM      3  O   UNL A   1      33.565  28.299  25.800  1.00  0.00    -0.376 OA
BRANCH   3   4
ATOM      4  C   UNL A   1      33.798  26.892  25.709  1.00  0.00     0.202 C 
BRANCH   4   5
ATOM      5  C   UNL A   1      32.586  26.125  26.231  1.00  0.00     0.261 C 
BRANCH   5   6
ATOM      6  O   UNL A   1      32.846  24.712  26.278  1.00  0.00    -0.460 OA
BRANCH   6   7
ATOM      7  C   UNL A   1      31.783  23.882  26.331  1.00  0.00     0.342 C 
ATOM      8  O   UNL A   1      30.759  24.039  26.977  1.00  0.00    -0.246 OA
BRANCH   7   9
ATOM      9  C   UNL A   1      31.999  22.764  25.381  1.00  0.00     0.116 A 
ATOM     10  C   UNL A   1      32.884  20.572  24.856  1.00  0.00     0.161 A 
ATOM     11  C   UNL A   1      32.419  20.698  23.545  1.00  0.00     0.051 A 
ATOM     12  C   UNL A   1      32.688  21.605  25.784  1.00  0.00     0.176 A 
ATOM     13  C   UNL A   1      31.748  21.855  23.141  1.00  0.00     0.017 A 
ATOM     14  C   UNL A   1      31.548  22.903  24.048  1.00  0.00     0.036 A 
BRANCH  10  15
ATOM     15  O   UNL A   1      33.623  19.454  25.131  1.00  0.00    -0.493 OA
ATOM     16  C   UNL A   1      32.815  18.326  25.456  1.00  0.00     0.278 C 
ENDBRANCH  10  15
BRANCH  12  17
ATOM     17  O   UNL A   1      33.081  21.490  27.093  1.00  0.00    -0.492 OA
ATOM     18  C   UNL A   1      34.466  21.775  27.306  1.00  0.00     0.278 C 
ENDBRANCH  12  17
BRANCH  14  19
ATOM     19  C   UNL A   1      31.099  24.199  23.551  1.00  0.00     0.139 A 
ATOM     20  N   UNL A   1      31.853  24.988  22.814  1.00  0.00    -0.228 NA
ATOM     21  N   UNL A   1      29.926  24.833  23.887  1.00  0.00    -0.338 N 
ATOM     22  C   UNL A   1      31.262  26.217  22.861  1.00  0.00     0.089 A 
ATOM     23  C   UNL A   1      30.022  26.146  23.480  1.00  0.00     0.066 A 
ATOM     24  H   UNL A   1      29.154  24.422  24.339  1.00  0.00     0.168 HD
ATOM     25  C   UNL A   1      31.741  27.443  22.386  1.00  0.00     0.031 A 
ATOM     26  C   UNL A   1      29.179  27.253  23.610  1.00  0.00     0.031 A 
ATOM     27  C   UNL A   1      30.921  28.567  22.505  1.00  0.00     0.006 A 
ATOM     28  C   UNL A   1      29.646  28.475  23.084  1.00  0.00    -0.049 A 
ATOM     29  C   UNL A   1      28.779  29.703  23.098  1.00  0.00     0.044 C 
ENDBRANCH  14  19
ENDBRANCH   7   9
ENDBRANCH   6   7
ENDBRANCH   5   6
ENDBRANCH   4   5
ENDBRANCH   3   4
ENDBRANCH   2   3
ENDBRANCH   1   2
BRANCH   1  30
ATOM     30  O   UNL A   1      31.387  30.908  26.804  1.00  0.00    -0.376 OA
BRANCH  30  31
ATOM     31  C   UNL A   1      31.619  32.307  26.757  1.00  0.00     0.202 C 
BRANCH  31  32
ATOM     32  C   UNL A   1      32.657  32.841  27.748  1.00  0.00     0.261 C 
BRANCH  32  33
ATOM     33  O   UNL A   1      33.054  34.205  27.505  1.00  0.00    -0.460 OA
BRANCH  33  34
ATOM     34  C   UNL A   1      33.138  34.987  28.608  1.00  0.00     0.338 C 
ATOM     35  O   UNL A   1      32.360  35.859  28.958  1.00  0.00    -0.246 OA
BRANCH  34  36
ATOM     36  C   UNL A   1      34.311  34.613  29.427  1.00  0.00     0.060 A 
ATOM     37  C   UNL A   1      35.567  34.593  28.813  1.00  0.00     0.016 A 
ATOM     38  C   UNL A   1      34.166  34.154  30.738  1.00  0.00     0.016 A 
ATOM     39  C   UNL A   1      36.677  34.082  29.494  1.00  0.00     0.010 A 
ATOM     40  C   UNL A   1      35.279  33.632  31.416  1.00  0.00     0.010 A 
ATOM     41  C   UNL A   1      36.538  33.565  30.790  1.00  0.00    -0.014 A 
BRANCH  41  42
ATOM     42  C   UNL A   1      37.683  32.888  31.461  1.00  0.00     0.031 A 
ATOM     43  C   UNL A   1      38.315  31.679  30.839  1.00  0.00     0.074 A 
ATOM     44  C   UNL A   1      38.176  33.339  32.628  1.00  0.00     0.049 A 
ATOM     45  N   UNL A   1      39.259  30.906  31.318  1.00  0.00    -0.248 NA
ATOM     46  C   UNL A   1      37.836  31.295  29.505  1.00  0.00     0.031 C 
ATOM     47  C   UNL A   1      37.707  34.528  33.319  1.00  0.00     0.029 A 
ATOM     48  N   UNL A   1      39.166  32.848  33.446  1.00  0.00    -0.354 N 
ATOM     49  C   UNL A   1      39.486  29.942  30.347  1.00  0.00     0.074 A 
ATOM     50  C   UNL A   1      38.569  30.217  29.259  1.00  0.00     0.031 C 
ATOM     51  C   UNL A   1      38.371  34.658  34.479  1.00  0.00     0.029 A 
ATOM     52  C   UNL A   1      39.300  33.547  34.621  1.00  0.00     0.049 A 
ATOM     53  H   UNL A   1      39.724  32.071  33.214  1.00  0.00     0.167 HD
ATOM     54  C   UNL A   1      40.383  28.928  30.363  1.00  0.00     0.037 A 
ATOM     55  C   UNL A   1      40.053  33.313  35.711  1.00  0.00     0.037 A 
ATOM     56  C   UNL A   1      41.308  28.653  31.433  1.00  0.00     0.049 A 
ATOM     57  C   UNL A   1      40.964  32.126  35.742  1.00  0.00     0.074 A 
ATOM     58  C   UNL A   1      42.294  27.683  31.489  1.00  0.00     0.029 A 
ATOM     59  N   UNL A   1      41.354  29.334  32.639  1.00  0.00    -0.354 N 
ATOM     60  N   UNL A   1      41.169  31.222  34.821  1.00  0.00    -0.248 NA
ATOM     61  C   UNL A   1      41.747  31.927  36.972  1.00  0.00     0.031 C 
ATOM     62  C   UNL A   1      42.902  27.742  32.748  1.00  0.00     0.029 A 
ATOM     63  C   UNL A   1      42.326  28.779  33.459  1.00  0.00     0.049 A 
ATOM     64  H   UNL A   1      40.782  30.099  32.877  1.00  0.00     0.167 HD
ATOM     65  C   UNL A   1      42.100  30.345  35.354  1.00  0.00     0.074 A 
ATOM     66  C   UNL A   1      42.437  30.836  36.674  1.00  0.00     0.031 C 
ATOM     67  C   UNL A   1      42.626  29.234  34.790  1.00  0.00     0.037 A 
BRANCH  54  68
ATOM     68  C   UNL A   1      40.403  28.008  29.183  1.00  0.00     0.064 A 
ATOM     69  C   UNL A   1      39.619  26.846  29.144  1.00  0.00     0.173 A 
ATOM     70  C   UNL A   1      41.155  28.338  28.047  1.00  0.00     0.173 A 
ATOM     71  F   UNL A   1      38.891  26.486  30.212  1.00  0.00    -0.203 F 
ATOM     72  C   UNL A   1      39.593  26.043  28.008  1.00  0.00     0.198 A 
ATOM     73  C   UNL A   1      41.111  27.545  26.906  1.00  0.00     0.198 A 
ATOM     74  F   UNL A   1      41.916  29.444  28.039  1.00  0.00    -0.203 F 
ATOM     75  F   UNL A   1      38.853  24.926  27.995  1.00  0.00    -0.200 F 
ATOM     76  C   UNL A   1      40.331  26.398  26.887  1.00  0.00     0.200 A 
ATOM     77  F   UNL A   1      41.816  27.894  25.820  1.00  0.00    -0.200 F 
ATOM     78  F   UNL A   1      40.291  25.633  25.787  1.00  0.00    -0.200 F 
ENDBRANCH  54  68
BRANCH  55  79
ATOM     79  C   UNL A   1      39.933  34.181  36.907  1.00  0.00     0.064 A 
ATOM     80  C   UNL A   1      40.756  35.301  37.076  1.00  0.00     0.173 A 
ATOM     81  C   UNL A   1      39.036  33.860  37.933  1.00  0.00     0.173 A 
ATOM     82  F   UNL A   1      41.651  35.624  36.133  1.00  0.00    -0.203 F 
ATOM     83  C   UNL A   1      40.693  36.063  38.240  1.00  0.00     0.198 A 
ATOM     84  C   UNL A   1      38.965  34.628  39.090  1.00  0.00     0.198 A 
ATOM     85  F   UNL A   1      38.236  32.789  37.814  1.00  0.00    -0.203 F 
ATOM     86  F   UNL A   1      41.515  37.109  38.400  1.00  0.00    -0.200 F 
ATOM     87  C   UNL A   1      39.798  35.727  39.246  1.00  0.00     0.200 A 
ATOM     88  F   UNL A   1      38.093  34.306  40.056  1.00  0.00    -0.200 F 
ATOM     89  F   UNL A   1      39.744  36.455  40.369  1.00  0.00    -0.200 F 
ENDBRANCH  55  79
BRANCH  67  90
ATOM     90  C   UNL A   1      43.613  28.464  35.612  1.00  0.00     0.064 A 
ATOM     91  C   UNL A   1      43.193  27.494  36.533  1.00  0.00     0.173 A 
ATOM     92  C   UNL A   1      44.989  28.709  35.493  1.00  0.00     0.173 A 
ATOM     93  F   UNL A   1      41.886  27.245  36.703  1.00  0.00    -0.203 F 
ATOM     94  C   UNL A   1      44.115  26.810  37.322  1.00  0.00     0.198 A 
ATOM     95  C   UNL A   1      45.909  28.007  36.265  1.00  0.00     0.198 A 
ATOM     96  F   UNL A   1      45.439  29.633  34.631  1.00  0.00    -0.203 F 
ATOM     97  F   UNL A   1      43.688  25.924  38.232  1.00  0.00    -0.200 F 
ATOM     98  C   UNL A   1      45.472  27.064  37.184  1.00  0.00     0.200 A 
ATOM     99  F   UNL A   1      47.220  28.251  36.131  1.00  0.00    -0.200 F 
ATOM    100  F   UNL A   1      46.357  26.410  37.949  1.00  0.00    -0.200 F 
ENDBRANCH  67  90
ENDBRANCH  41  42
ENDBRANCH  34  36
ENDBRANCH  33  34
ENDBRANCH  32  33
ENDBRANCH  31  32
ENDBRANCH  30  31
ENDBRANCH   1  30
TORSDOF 20
ENDMDL
MODEL 3
REMARK VINA RESULT:     -11.2      0.678      6.971
REMARK SMILES COc1ccc(-c2nc3ccc(C)cc3[nH]2)c(C(=O)OCCOCCOCCOC(=O)c2ccc(-c3c4nc(c(-c5c(F)c(F)c(F)c(F)c5F)c5ccc([nH]5)c(-c5c(F)c(F)c(F)c(F)c5F)c5nc(c(-c6c(F)c(F)c(F)c(F)c6F)c6ccc3[nH]6)C=C5)C=C4)cc2)c1OC
REMARK SMILES IDX 25 1 24 2 23 3 22 4 21 5 20 6 18 7 19 8 17 9 3 10 4 11 95 12
REMARK SMILES IDX 5 13 6 14 2 15 1 16 96 17 97 18 7 19 8 20 16 21 9 22 15 23
REMARK SMILES IDX 10 25 14 26 11 27 12 28 13 29 26 30 27 31 28 32 29 33 30 34
REMARK SMILES IDX 31 35 32 36 33 37 94 38 34 39 93 40 35 41 36 42 37 43 87 44
REMARK SMILES IDX 38 45 92 46 86 47 88 48 39 49 91 50 85 51 84 52 40 54 72 55
REMARK SMILES IDX 52 56 71 57 53 58 56 59 70 60 89 61 54 62 55 63 69 65 90 66
REMARK SMILES IDX 57 67 41 68 42 69 50 70 43 71 44 72 48 73 51 74 45 75 46 76
REMARK SMILES IDX 49 77 47 78 73 79 74 80 82 81 75 82 76 83 80 84 83 85 77 86
REMARK SMILES IDX 78 87 81 88 79 89 58 90 59 91 67 92 60 93 61 94 65 95 68 96
REMARK SMILES IDX 62 97 63 98 66 99 64 100
REMARK H PARENT 16 24 88 53 56 64
REMARK Flexibility Score: inf
ROOT
ATOM      1  C   UNL A   1      31.776  30.832  26.504  1.00  0.00     0.188 C 
ENDROOT
BRANCH   1   2
ATOM      2  C   UNL A   1      31.906  29.667  25.514  1.00  0.00     0.188 C 
BRANCH   2   3
ATOM      3  O   UNL A   1      33.238  29.469  25.034  1.00  0.00    -0.376 OA
BRANCH   3   4
ATOM      4  C   UNL A   1      33.653  28.102  25.091  1.00  0.00     0.202 C 
BRANCH   4   5
ATOM      5  C   UNL A   1      32.691  27.299  25.963  1.00  0.00     0.261 C 
BRANCH   5   6
ATOM      6  O   UNL A   1      33.133  25.938  26.106  1.00  0.00    -0.460 OA
BRANCH   6   7
ATOM      7  C   UNL A   1      32.187  24.982  26.219  1.00  0.00     0.342 C 
ATOM      8  O   UNL A   1      31.165  25.034  26.885  1.00  0.00    -0.246 OA
BRANCH   7   9
ATOM      9  C   UNL A   1      32.525  23.863  25.307  1.00  0.00     0.116 A 
ATOM     10  C   UNL A   1      33.807  21.880  24.774  1.00  0.00     0.161 A 
ATOM     11  C   UNL A   1      33.159  21.792  23.540  1.00  0.00     0.051 A 
ATOM     12  C   UNL A   1      33.504  22.919  25.665  1.00  0.00     0.176 A 
ATOM     13  C   UNL A   1      32.196  22.737  23.179  1.00  0.00     0.017 A 
ATOM     14  C   UNL A   1      31.884  23.789  24.049  1.00  0.00     0.036 A 
BRANCH  10  15
ATOM     15  O   UNL A   1      34.810  20.976  24.996  1.00  0.00    -0.493 OA
ATOM     16  C   UNL A   1      36.093  21.474  24.626  1.00  0.00     0.278 C 
ENDBRANCH  10  15
BRANCH  12  17
ATOM     17  O   UNL A   1      34.081  23.002  26.907  1.00  0.00    -0.492 OA
ATOM     18  C   UNL A   1      33.430  22.203  27.899  1.00  0.00     0.278 C 
ENDBRANCH  12  17
BRANCH  14  19
ATOM     19  C   UNL A   1      31.092  24.911  23.556  1.00  0.00     0.139 A 
ATOM     20  N   UNL A   1      31.592  25.871  22.807  1.00  0.00    -0.228 NA
ATOM     21  N   UNL A   1      29.794  25.201  23.907  1.00  0.00    -0.338 N 
ATOM     22  C   UNL A   1      30.688  26.892  22.860  1.00  0.00     0.089 A 
ATOM     23  C   UNL A   1      29.522  26.488  23.496  1.00  0.00     0.066 A 
ATOM     24  H   UNL A   1      29.170  24.598  24.370  1.00  0.00     0.168 HD
ATOM     25  C   UNL A   1      30.808  28.200  22.377  1.00  0.00     0.031 A 
ATOM     26  C   UNL A   1      28.411  27.324  23.636  1.00  0.00     0.031 A 
ATOM     27  C   UNL A   1      29.714  29.058  22.505  1.00  0.00     0.006 A 
ATOM     28  C   UNL A   1      28.520  28.624  23.101  1.00  0.00    -0.049 A 
ATOM     29  C   UNL A   1      27.351  29.569  23.125  1.00  0.00     0.044 C 
ENDBRANCH  14  19
ENDBRANCH   7   9
ENDBRANCH   6   7
ENDBRANCH   5   6
ENDBRANCH   4   5
ENDBRANCH   3   4
ENDBRANCH   2   3
ENDBRANCH   1   2
BRANCH   1  30
ATOM     30  O   UNL A   1      32.719  30.965  27.565  1.00  0.00    -0.376 OA
BRANCH  30  31
ATOM     31  C   UNL A   1      33.504  32.145  27.622  1.00  0.00     0.202 C 
BRANCH  31  32
ATOM     32  C   UNL A   1      32.768  33.449  27.303  1.00  0.00     0.261 C 
BRANCH  32  33
ATOM     33  O   UNL A   1      32.316  34.169  28.465  1.00  0.00    -0.460 OA
BRANCH  33  34
ATOM     34  C   UNL A   1      33.150  35.145  28.901  1.00  0.00     0.338 C 
ATOM     35  O   UNL A   1      33.024  36.348  28.746  1.00  0.00    -0.246 OA
BRANCH  34  36
ATOM     36  C   UNL A   1      34.265  34.571  29.683  1.00  0.00     0.060 A 
ATOM     37  C   UNL A   1      35.551  34.618  29.134  1.00  0.00     0.016 A 
ATOM     38  C   UNL A   1      34.037  33.872  30.871  1.00  0.00     0.016 A 
ATOM     39  C   UNL A   1      36.607  33.938  29.751  1.00  0.00     0.010 A 
ATOM     40  C   UNL A   1      35.096  33.182  31.483  1.00  0.00     0.010 A 
ATOM     41  C   UNL A   1      36.384  33.186  30.913  1.00  0.00    -0.014 A 
BRANCH  41  42
ATOM     42  C   UNL A   1      37.470  32.344  31.489  1.00  0.00     0.031 A 
ATOM     43  C   UNL A   1      38.032  32.660  32.843  1.00  0.00     0.074 A 
ATOM     44  C   UNL A   1      37.967  31.290  30.820  1.00  0.00     0.049 A 
ATOM     45  N   UNL A   1      39.038  32.098  33.468  1.00  0.00    -0.248 NA
ATOM     46  C   UNL A   1      37.376  33.737  33.597  1.00  0.00     0.031 C 
ATOM     47  C   UNL A   1      37.486  30.828  29.529  1.00  0.00     0.029 A 
ATOM     48  N   UNL A   1      38.994  30.426  31.120  1.00  0.00    -0.354 N 
ATOM     49  C   UNL A   1      39.138  32.751  34.686  1.00  0.00     0.074 A 
ATOM     50  C   UNL A   1      38.102  33.765  34.707  1.00  0.00     0.031 C 
ATOM     51  C   UNL A   1      38.238  29.794  29.119  1.00  0.00     0.029 A 
ATOM     52  C   UNL A   1      39.269  29.534  30.112  1.00  0.00     0.049 A 
ATOM     53  H   UNL A   1      39.484  30.444  31.973  1.00  0.00     0.167 HD
ATOM     54  C   UNL A   1      40.010  32.519  35.695  1.00  0.00     0.037 A 
ATOM     55  C   UNL A   1      40.255  28.630  29.973  1.00  0.00     0.037 A 
ATOM     56  C   UNL A   1      41.034  31.506  35.692  1.00  0.00     0.049 A 
ATOM     57  C   UNL A   1      41.267  28.462  31.063  1.00  0.00     0.074 A 
ATOM     58  C   UNL A   1      41.912  31.167  36.708  1.00  0.00     0.029 A 
ATOM     59  N   UNL A   1      41.332  30.680  34.620  1.00  0.00    -0.354 N 
ATOM     60  N   UNL A   1      41.353  29.086  32.208  1.00  0.00    -0.248 NA
ATOM     61  C   UNL A   1      42.324  27.464  30.836  1.00  0.00     0.031 C 
ATOM     62  C   UNL A   1      42.775  30.172  36.235  1.00  0.00     0.029 A 
ATOM     63  C   UNL A   1      42.405  29.860  34.938  1.00  0.00     0.049 A 
ATOM     64  H   UNL A   1      40.853  30.676  33.760  1.00  0.00     0.167 HD
ATOM     65  C   UNL A   1      42.469  28.562  32.840  1.00  0.00     0.074 A 
ATOM     66  C   UNL A   1      43.019  27.552  31.959  1.00  0.00     0.031 C 
ATOM     67  C   UNL A   1      42.984  28.892  34.046  1.00  0.00     0.037 A 
BRANCH  54  68
ATOM     68  C   UNL A   1      39.914  33.397  36.904  1.00  0.00     0.064 A 
ATOM     69  C   UNL A   1      40.662  34.577  37.016  1.00  0.00     0.173 A 
ATOM     70  C   UNL A   1      39.002  33.091  37.924  1.00  0.00     0.173 A 
ATOM     71  F   UNL A   1      41.553  34.904  36.068  1.00  0.00    -0.203 F 
ATOM     72  C   UNL A   1      40.503  35.419  38.112  1.00  0.00     0.198 A 
ATOM     73  C   UNL A   1      38.831  33.944  39.008  1.00  0.00     0.198 A 
ATOM     74  F   UNL A   1      38.262  31.973  37.856  1.00  0.00    -0.203 F 
ATOM     75  F   UNL A   1      41.240  36.534  38.212  1.00  0.00    -0.200 F 
ATOM     76  C   UNL A   1      39.582  35.107  39.103  1.00  0.00     0.200 A 
ATOM     77  F   UNL A   1      37.933  33.648  39.958  1.00  0.00    -0.200 F 
ATOM     78  F   UNL A   1      39.418  35.928  40.149  1.00  0.00    -0.200 F 
ENDBRANCH  54  68
BRANCH  55  79
ATOM     79  C   UNL A   1      40.387  27.849  28.719  1.00  0.00     0.064 A 
ATOM     80  C   UNL A   1      39.765  26.604  28.570  1.00  0.00     0.173 A 
ATOM     81  C   UNL A   1      41.198  28.312  27.675  1.00  0.00     0.173 A 
ATOM     82  F   UNL A   1      39.007  26.110  29.559  1.00  0.00    -0.203 F 
ATOM     83  C   UNL A   1      39.962  25.841  27.421  1.00  0.00     0.198 A 
ATOM     84  C   UNL A   1      41.385  27.555  26.523  1.00  0.00     0.198 A 
ATOM     85  F   UNL A   1      41.820  29.496  27.782  1.00  0.00    -0.203 F 
ATOM     86  F   UNL A   1      39.389  24.635  27.313  1.00  0.00    -0.200 F 
ATOM     87  C   UNL A   1      40.771  26.317  26.399  1.00  0.00     0.200 A 
ATOM     88  F   UNL A   1      42.160  28.021  25.534  1.00  0.00    -0.200 F 
ATOM     89  F   UNL A   1      40.967  25.579  25.298  1.00  0.00    -0.200 F 
ENDBRANCH  55  79
BRANCH  67  90
ATOM     90  C   UNL A   1      44.219  28.161  34.474  1.00  0.00     0.064 A 
ATOM     91  C   UNL A   1      44.142  26.920  35.123  1.00  0.00     0.173 A 
ATOM     92  C   UNL A   1      45.490  28.710  34.249  1.00  0.00     0.173 A 
ATOM     93  F   UNL A   1      42.948  26.369  35.386  1.00  0.00    -0.203 F 
ATOM     94  C   UNL A   1      45.293  26.265  35.553  1.00  0.00     0.198 A 
ATOM     95  C   UNL A   1      46.640  28.042  34.658  1.00  0.00     0.198 A 
ATOM     96  F   UNL A   1      45.614  29.898  33.639  1.00  0.00    -0.203 F 
ATOM     97  F   UNL A   1      45.194  25.106  36.217  1.00  0.00    -0.200 F 
ATOM     98  C   UNL A   1      46.541  26.824  35.316  1.00  0.00     0.200 A 
ATOM     99  F   UNL A   1      47.845  28.581  34.428  1.00  0.00    -0.200 F 
ATOM    100  F   UNL A   1      47.647  26.196  35.736  1.00  0.00    -0.200 F 
ENDBRANCH  67  90
ENDBRANCH  41  42
ENDBRANCH  34  36
ENDBRANCH  33  34
ENDBRANCH  32  33
ENDBRANCH  31  32
ENDBRANCH  30  31
ENDBRANCH   1  30
TORSDOF 20
ENDMDL
