MODEL 1
REMARK VINA RESULT:     -12.3      0.000      0.000
REMARK SMILES O=C(CSc1nnc2sc3ccccc3n12)N[C@H](Cc1c[nH]c2ccccc12)C(=O)OCCOCCOCCOC(=O)c1ccc(-c2c3nc(c(-c4c(F)c(F)c(F)c(F)c4F)c4ccc([nH]4)c(-c4c(F)c(F)c(F)c(F)c4F)c4nc(c(-c5c(F)c(F)c(F)c(F)c5F)c5ccc2[nH]5)C=C4)C=C3)cc1
REMARK SMILES IDX 35 1 34 2 33 3 32 4 31 5 29 6 30 7 18 8 17 9 1 10 2 11 3 13
REMARK SMILES IDX 4 14 5 15 6 16 16 17 7 18 8 19 15 20 9 21 10 22 14 23 11 24
REMARK SMILES IDX 13 25 12 26 19 27 20 28 21 29 28 30 22 31 23 32 27 33 24 35
REMARK SMILES IDX 26 36 25 37 36 38 37 39 38 40 39 41 40 42 41 43 42 44 43 45
REMARK SMILES IDX 44 46 105 47 45 48 104 49 46 50 47 51 48 52 98 53 49 54
REMARK SMILES IDX 103 55 97 56 99 57 50 58 102 59 96 60 95 61 51 63 83 64
REMARK SMILES IDX 63 65 82 66 64 67 67 68 81 69 100 70 65 71 66 72 80 74
REMARK SMILES IDX 101 75 68 76 52 77 53 78 61 79 54 80 55 81 59 82 62 83 56 84
REMARK SMILES IDX 57 85 60 86 58 87 84 88 85 89 93 90 86 91 87 92 91 93 94 94
REMARK SMILES IDX 88 95 89 96 92 97 90 98 69 99 70 100 78 101 71 102 72 103
REMARK SMILES IDX 76 104 79 105 73 106 74 107 77 108 75 109
REMARK H PARENT 17 12 22 34 99 62 67 73
REMARK Flexibility Score: inf
ROOT
ATOM      1  C   UNL A   1      33.512  28.237  24.477  1.00  0.00     0.188 C 
ENDROOT
BRANCH   1   2
ATOM      2  O   UNL A   1      33.598  27.060  23.701  1.00  0.00    -0.376 OA
BRANCH   2   3
ATOM      3  C   UNL A   1      33.532  27.192  22.288  1.00  0.00     0.202 C 
BRANCH   3   4
ATOM      4  C   UNL A   1      32.885  26.038  21.517  1.00  0.00     0.261 C 
BRANCH   4   5
ATOM      5  O   UNL A   1      33.324  24.733  21.993  1.00  0.00    -0.462 OA
BRANCH   5   6
ATOM      6  C   UNL A   1      32.414  24.075  22.747  1.00  0.00     0.329 C 
ATOM      7  O   UNL A   1      31.228  24.418  22.777  1.00  0.00    -0.250 OA
BRANCH   6   8
ATOM      8  C   UNL A   1      32.856  22.747  23.478  1.00  0.00     0.196 C 
BRANCH   8   9
ATOM      9  N   UNL A   1      34.313  22.890  23.420  1.00  0.00    -0.342 N 
ATOM     10  O   UNL A   1      34.603  23.426  25.624  1.00  0.00    -0.274 OA
ATOM     11  C   UNL A   1      35.054  23.000  24.568  1.00  0.00     0.231 C 
ATOM     12  H   UNL A   1      34.765  22.908  22.546  1.00  0.00     0.164 HD
BRANCH  11  13
ATOM     13  C   UNL A   1      36.458  22.455  24.445  1.00  0.00     0.178 C 
BRANCH  13  14
ATOM     14  S   UNL A   1      37.447  22.735  25.951  1.00  0.00    -0.076 SA
BRANCH  14  15
ATOM     15  C   UNL A   1      38.691  21.533  25.882  1.00  0.00     0.197 A 
ATOM     16  N   UNL A   1      38.555  20.334  25.336  1.00  0.00    -0.122 NA
ATOM     17  N   UNL A   1      39.941  21.631  26.422  1.00  0.00    -0.260 N 
ATOM     18  N   UNL A   1      39.713  19.600  25.589  1.00  0.00    -0.118 NA
ATOM     19  C   UNL A   1      40.499  20.398  26.260  1.00  0.00     0.217 A 
ATOM     20  C   UNL A   1      40.714  22.554  27.121  1.00  0.00     0.068 A 
ATOM     21  S   UNL A   1      42.053  20.243  27.004  1.00  0.00    -0.094 S 
ATOM     22  C   UNL A   1      41.891  21.939  27.574  1.00  0.00     0.055 A 
ATOM     23  C   UNL A   1      40.413  23.872  27.410  1.00  0.00     0.028 A 
ATOM     24  C   UNL A   1      42.761  22.633  28.396  1.00  0.00     0.021 A 
ATOM     25  C   UNL A   1      41.268  24.559  28.268  1.00  0.00     0.002 A 
ATOM     26  C   UNL A   1      42.429  23.943  28.763  1.00  0.00     0.002 A 
ENDBRANCH  14  15
ENDBRANCH  13  14
ENDBRANCH  11  13
ENDBRANCH   8   9
BRANCH   8  27
ATOM     27  C   UNL A   1      32.384  21.320  23.135  1.00  0.00     0.074 C 
BRANCH  27  28
ATOM     28  C   UNL A   1      32.657  20.250  24.207  1.00  0.00    -0.020 A 
ATOM     29  C   UNL A   1      32.507  20.454  25.568  1.00  0.00     0.087 A 
ATOM     30  C   UNL A   1      32.970  18.839  24.063  1.00  0.00     0.003 A 
ATOM     31  N   UNL A   1      32.787  19.293  26.238  1.00  0.00    -0.361 N 
ATOM     32  C   UNL A   1      33.080  18.291  25.349  1.00  0.00     0.046 A 
ATOM     33  C   UNL A   1      33.144  17.955  22.977  1.00  0.00     0.010 A 
ATOM     34  H   UNL A   1      32.777  19.191  27.217  1.00  0.00     0.166 HD
ATOM     35  C   UNL A   1      33.390  16.946  25.603  1.00  0.00     0.026 A 
ATOM     36  C   UNL A   1      33.393  16.589  23.212  1.00  0.00     0.001 A 
ATOM     37  C   UNL A   1      33.524  16.095  24.508  1.00  0.00     0.002 A 
ENDBRANCH  27  28
ENDBRANCH   8  27
ENDBRANCH   6   8
ENDBRANCH   5   6
ENDBRANCH   4   5
ENDBRANCH   3   4
ENDBRANCH   2   3
ENDBRANCH   1   2
BRANCH   1  38
ATOM     38  C   UNL A   1      32.351  29.217  24.227  1.00  0.00     0.188 C 
BRANCH  38  39
ATOM     39  O   UNL A   1      31.396  29.450  25.235  1.00  0.00    -0.376 OA
BRANCH  39  40
ATOM     40  C   UNL A   1      31.891  29.345  26.564  1.00  0.00     0.202 C 
BRANCH  40  41
ATOM     41  C   UNL A   1      32.674  30.560  27.124  1.00  0.00     0.261 C 
BRANCH  41  42
ATOM     42  O   UNL A   1      34.046  30.243  27.503  1.00  0.00    -0.460 OA
BRANCH  42  43
ATOM     43  C   UNL A   1      34.711  31.165  28.263  1.00  0.00     0.338 C 
ATOM     44  O   UNL A   1      34.180  32.025  28.957  1.00  0.00    -0.246 OA
BRANCH  43  45
ATOM     45  C   UNL A   1      36.126  30.705  28.495  1.00  0.00     0.060 A 
ATOM     46  C   UNL A   1      37.158  31.462  29.048  1.00  0.00     0.016 A 
ATOM     47  C   UNL A   1      36.460  29.493  27.886  1.00  0.00     0.016 A 
ATOM     48  C   UNL A   1      38.507  31.046  28.883  1.00  0.00     0.010 A 
ATOM     49  C   UNL A   1      37.789  29.127  27.646  1.00  0.00     0.010 A 
ATOM     50  C   UNL A   1      38.846  29.905  28.123  1.00  0.00    -0.014 A 
BRANCH  50  51
ATOM     51  C   UNL A   1      40.170  29.232  28.249  1.00  0.00     0.031 A 
ATOM     52  C   UNL A   1      40.421  28.948  29.668  1.00  0.00     0.074 A 
ATOM     53  C   UNL A   1      41.123  28.798  27.382  1.00  0.00     0.049 A 
ATOM     54  N   UNL A   1      41.183  29.687  30.399  1.00  0.00    -0.248 NA
ATOM     55  C   UNL A   1      39.660  27.929  30.395  1.00  0.00     0.031 C 
ATOM     56  C   UNL A   1      41.169  28.980  25.948  1.00  0.00     0.029 A 
ATOM     57  N   UNL A   1      42.287  28.070  27.600  1.00  0.00    -0.354 N 
ATOM     58  C   UNL A   1      41.214  29.056  31.621  1.00  0.00     0.074 A 
ATOM     59  C   UNL A   1      40.094  28.149  31.641  1.00  0.00     0.031 C 
ATOM     60  C   UNL A   1      42.126  28.196  25.388  1.00  0.00     0.029 A 
ATOM     61  C   UNL A   1      42.867  27.531  26.445  1.00  0.00     0.049 A 
ATOM     62  H   UNL A   1      42.674  27.944  28.496  1.00  0.00     0.167 HD
ATOM     63  C   UNL A   1      42.369  29.083  32.332  1.00  0.00     0.037 A 
ATOM     64  C   UNL A   1      44.058  26.894  26.259  1.00  0.00     0.037 A 
ATOM     65  C   UNL A   1      43.296  30.053  31.797  1.00  0.00     0.049 A 
ATOM     66  C   UNL A   1      45.008  27.469  27.222  1.00  0.00     0.074 A 
ATOM     67  C   UNL A   1      43.456  31.422  31.824  1.00  0.00     0.029 A 
ATOM     68  N   UNL A   1      44.054  29.587  30.757  1.00  0.00    -0.354 N 
ATOM     69  N   UNL A   1      45.481  28.677  27.120  1.00  0.00    -0.248 NA
ATOM     70  C   UNL A   1      45.247  26.789  28.490  1.00  0.00     0.031 C 
ATOM     71  C   UNL A   1      44.319  31.763  30.739  1.00  0.00     0.029 A 
ATOM     72  C   UNL A   1      44.686  30.597  30.082  1.00  0.00     0.049 A 
ATOM     73  H   UNL A   1      44.135  28.635  30.521  1.00  0.00     0.167 HD
ATOM     74  C   UNL A   1      45.641  29.059  28.431  1.00  0.00     0.074 A 
ATOM     75  C   UNL A   1      45.673  27.829  29.207  1.00  0.00     0.031 C 
ATOM     76  C   UNL A   1      45.323  30.322  28.816  1.00  0.00     0.037 A 
BRANCH  63  77
ATOM     77  C   UNL A   1      42.856  27.939  33.176  1.00  0.00     0.064 A 
ATOM     78  C   UNL A   1      43.031  28.146  34.556  1.00  0.00     0.173 A 
ATOM     79  C   UNL A   1      43.415  26.751  32.658  1.00  0.00     0.173 A 
ATOM     80  F   UNL A   1      42.592  29.271  35.139  1.00  0.00    -0.203 F 
ATOM     81  C   UNL A   1      43.733  27.239  35.351  1.00  0.00     0.198 A 
ATOM     82  C   UNL A   1      44.059  25.819  33.465  1.00  0.00     0.198 A 
ATOM     83  F   UNL A   1      43.474  26.501  31.344  1.00  0.00    -0.203 F 
ATOM     84  F   UNL A   1      43.968  27.527  36.638  1.00  0.00    -0.200 F 
ATOM     85  C   UNL A   1      44.237  26.071  34.807  1.00  0.00     0.200 A 
ATOM     86  F   UNL A   1      44.575  24.712  32.910  1.00  0.00    -0.200 F 
ATOM     87  F   UNL A   1      44.939  25.215  35.561  1.00  0.00    -0.200 F 
ENDBRANCH  63  77
BRANCH  64  88
ATOM     88  C   UNL A   1      44.436  25.708  25.433  1.00  0.00     0.064 A 
ATOM     89  C   UNL A   1      45.793  25.397  25.189  1.00  0.00     0.173 A 
ATOM     90  C   UNL A   1      43.513  24.693  25.130  1.00  0.00     0.173 A 
ATOM     91  F   UNL A   1      46.752  26.300  25.441  1.00  0.00    -0.203 F 
ATOM     92  C   UNL A   1      46.205  24.130  24.757  1.00  0.00     0.198 A 
ATOM     93  C   UNL A   1      43.926  23.424  24.696  1.00  0.00     0.198 A 
ATOM     94  F   UNL A   1      42.200  24.891  25.318  1.00  0.00    -0.203 F 
ATOM     95  F   UNL A   1      47.511  23.860  24.618  1.00  0.00    -0.200 F 
ATOM     96  C   UNL A   1      45.272  23.135  24.535  1.00  0.00     0.200 A 
ATOM     97  F   UNL A   1      43.016  22.461  24.490  1.00  0.00    -0.200 F 
ATOM     98  F   UNL A   1      45.666  21.899  24.196  1.00  0.00    -0.200 F 
ENDBRANCH  64  88
BRANCH  76  99
ATOM     99  C   UNL A   1      45.504  31.430  27.832  1.00  0.00     0.064 A 
ATOM    100  C   UNL A   1      44.556  31.827  26.879  1.00  0.00     0.173 A 
ATOM    101  C   UNL A   1      46.683  32.182  27.933  1.00  0.00     0.173 A 
ATOM    102  F   UNL A   1      43.393  31.176  26.748  1.00  0.00    -0.203 F 
ATOM    103  C   UNL A   1      44.782  32.942  26.069  1.00  0.00     0.198 A 
ATOM    104  C   UNL A   1      46.892  33.309  27.147  1.00  0.00     0.198 A 
ATOM    105  F   UNL A   1      47.621  31.840  28.831  1.00  0.00    -0.203 F 
ATOM    106  F   UNL A   1      43.864  33.313  25.164  1.00  0.00    -0.200 F 
ATOM    107  C   UNL A   1      45.941  33.690  26.216  1.00  0.00     0.200 A 
ATOM    108  F   UNL A   1      48.003  34.039  27.314  1.00  0.00    -0.200 F 
ATOM    109  F   UNL A   1      46.134  34.790  25.475  1.00  0.00    -0.200 F 
ENDBRANCH  76  99
ENDBRANCH  50  51
ENDBRANCH  43  45
ENDBRANCH  42  43
ENDBRANCH  41  42
ENDBRANCH  40  41
ENDBRANCH  39  40
ENDBRANCH  38  39
ENDBRANCH   1  38
TORSDOF 23
ENDMDL
MODEL 2
REMARK VINA RESULT:     -11.2      3.719      9.381
REMARK SMILES O=C(CSc1nnc2sc3ccccc3n12)N[C@H](Cc1c[nH]c2ccccc12)C(=O)OCCOCCOCCOC(=O)c1ccc(-c2c3nc(c(-c4c(F)c(F)c(F)c(F)c4F)c4ccc([nH]4)c(-c4c(F)c(F)c(F)c(F)c4F)c4nc(c(-c5c(F)c(F)c(F)c(F)c5F)c5ccc2[nH]5)C=C4)C=C3)cc1
REMARK SMILES IDX 35 1 34 2 33 3 32 4 31 5 29 6 30 7 18 8 17 9 1 10 2 11 3 13
REMARK SMILES IDX 4 14 5 15 6 16 16 17 7 18 8 19 15 20 9 21 10 22 14 23 11 24
REMARK SMILES IDX 13 25 12 26 19 27 20 28 21 29 28 30 22 31 23 32 27 33 24 35
REMARK SMILES IDX 26 36 25 37 36 38 37 39 38 40 39 41 40 42 41 43 42 44 43 45
REMARK SMILES IDX 44 46 105 47 45 48 104 49 46 50 47 51 48 52 98 53 49 54
REMARK SMILES IDX 103 55 97 56 99 57 50 58 102 59 96 60 95 61 51 63 83 64
REMARK SMILES IDX 63 65 82 66 64 67 67 68 81 69 100 70 65 71 66 72 80 74
REMARK SMILES IDX 101 75 68 76 52 77 53 78 61 79 54 80 55 81 59 82 62 83 56 84
REMARK SMILES IDX 57 85 60 86 58 87 84 88 85 89 93 90 86 91 87 92 91 93 94 94
REMARK SMILES IDX 88 95 89 96 92 97 90 98 69 99 70 100 78 101 71 102 72 103
REMARK SMILES IDX 76 104 79 105 73 106 74 107 77 108 75 109
REMARK H PARENT 17 12 22 34 99 62 67 73
REMARK Flexibility Score: inf
ROOT
ATOM      1  C   UNL A   1      39.460  23.269  26.960  1.00  0.00     0.188 C 
ENDROOT
BRANCH   1   2
ATOM      2  O   UNL A   1      38.565  23.893  26.063  1.00  0.00    -0.376 OA
BRANCH   2   3
ATOM      3  C   UNL A   1      37.323  23.250  25.813  1.00  0.00     0.202 C 
BRANCH   3   4
ATOM      4  C   UNL A   1      37.195  22.489  24.491  1.00  0.00     0.261 C 
BRANCH   4   5
ATOM      5  O   UNL A   1      35.809  22.218  24.135  1.00  0.00    -0.462 OA
BRANCH   5   6
ATOM      6  C   UNL A   1      35.266  21.149  24.761  1.00  0.00     0.329 C 
ATOM      7  O   UNL A   1      35.929  20.136  25.002  1.00  0.00    -0.250 OA
BRANCH   6   8
ATOM      8  C   UNL A   1      33.798  21.270  25.330  1.00  0.00     0.196 C 
BRANCH   8   9
ATOM      9  N   UNL A   1      33.135  21.927  24.201  1.00  0.00    -0.342 N 
ATOM     10  O   UNL A   1      32.766  20.026  22.983  1.00  0.00    -0.274 OA
ATOM     11  C   UNL A   1      32.488  21.192  23.241  1.00  0.00     0.231 C 
ATOM     12  H   UNL A   1      33.154  22.909  24.130  1.00  0.00     0.164 HD
BRANCH  11  13
ATOM     13  C   UNL A   1      31.330  21.914  22.593  1.00  0.00     0.178 C 
BRANCH  13  14
ATOM     14  S   UNL A   1      30.962  23.505  23.402  1.00  0.00    -0.076 SA
BRANCH  14  15
ATOM     15  C   UNL A   1      32.123  24.606  22.739  1.00  0.00     0.197 A 
ATOM     16  N   UNL A   1      33.343  24.273  22.346  1.00  0.00    -0.122 NA
ATOM     17  N   UNL A   1      31.965  25.953  22.587  1.00  0.00    -0.260 N 
ATOM     18  N   UNL A   1      34.029  25.436  22.001  1.00  0.00    -0.118 NA
ATOM     19  C   UNL A   1      33.183  26.414  22.183  1.00  0.00     0.217 A 
ATOM     20  C   UNL A   1      30.994  26.928  22.800  1.00  0.00     0.068 A 
ATOM     21  S   UNL A   1      33.261  28.137  22.061  1.00  0.00    -0.094 S 
ATOM     22  C   UNL A   1      31.554  28.202  22.616  1.00  0.00     0.055 A 
ATOM     23  C   UNL A   1      29.678  26.749  23.184  1.00  0.00     0.028 A 
ATOM     24  C   UNL A   1      30.803  29.331  22.891  1.00  0.00     0.021 A 
ATOM     25  C   UNL A   1      28.935  27.885  23.497  1.00  0.00     0.002 A 
ATOM     26  C   UNL A   1      29.494  29.166  23.358  1.00  0.00     0.002 A 
ENDBRANCH  14  15
ENDBRANCH  13  14
ENDBRANCH  11  13
ENDBRANCH   8   9
BRANCH   8  27
ATOM     27  C   UNL A   1      33.398  21.876  26.690  1.00  0.00     0.074 C 
BRANCH  27  28
ATOM     28  C   UNL A   1      32.514  23.135  26.626  1.00  0.00    -0.020 A 
ATOM     29  C   UNL A   1      31.186  23.175  27.017  1.00  0.00     0.087 A 
ATOM     30  C   UNL A   1      32.861  24.508  26.307  1.00  0.00     0.003 A 
ATOM     31  N   UNL A   1      30.705  24.449  26.876  1.00  0.00    -0.361 N 
ATOM     32  C   UNL A   1      31.701  25.285  26.437  1.00  0.00     0.046 A 
ATOM     33  C   UNL A   1      34.046  25.187  25.950  1.00  0.00     0.010 A 
ATOM     34  H   UNL A   1      29.780  24.727  27.062  1.00  0.00     0.166 HD
ATOM     35  C   UNL A   1      31.652  26.666  26.193  1.00  0.00     0.026 A 
ATOM     36  C   UNL A   1      34.029  26.582  25.763  1.00  0.00     0.001 A 
ATOM     37  C   UNL A   1      32.846  27.309  25.873  1.00  0.00     0.002 A 
ENDBRANCH  27  28
ENDBRANCH   8  27
ENDBRANCH   6   8
ENDBRANCH   5   6
ENDBRANCH   4   5
ENDBRANCH   3   4
ENDBRANCH   2   3
ENDBRANCH   1   2
BRANCH   1  38
ATOM     38  C   UNL A   1      39.978  21.854  26.641  1.00  0.00     0.188 C 
BRANCH  38  39
ATOM     39  O   UNL A   1      40.481  21.039  27.673  1.00  0.00    -0.376 OA
BRANCH  39  40
ATOM     40  C   UNL A   1      41.673  20.334  27.353  1.00  0.00     0.202 C 
BRANCH  40  41
ATOM     41  C   UNL A   1      42.455  20.801  26.098  1.00  0.00     0.261 C 
BRANCH  41  42
ATOM     42  O   UNL A   1      43.367  21.908  26.360  1.00  0.00    -0.460 OA
BRANCH  42  43
ATOM     43  C   UNL A   1      43.285  22.992  25.530  1.00  0.00     0.338 C 
ATOM     44  O   UNL A   1      43.037  22.947  24.330  1.00  0.00    -0.246 OA
BRANCH  43  45
ATOM     45  C   UNL A   1      43.084  24.241  26.346  1.00  0.00     0.060 A 
ATOM     46  C   UNL A   1      43.437  24.416  27.684  1.00  0.00     0.016 A 
ATOM     47  C   UNL A   1      42.266  25.208  25.755  1.00  0.00     0.016 A 
ATOM     48  C   UNL A   1      42.879  25.491  28.428  1.00  0.00     0.010 A 
ATOM     49  C   UNL A   1      41.647  26.213  26.507  1.00  0.00     0.010 A 
ATOM     50  C   UNL A   1      41.925  26.367  27.866  1.00  0.00    -0.014 A 
BRANCH  50  51
ATOM     51  C   UNL A   1      41.620  27.697  28.466  1.00  0.00     0.031 A 
ATOM     52  C   UNL A   1      42.662  28.649  28.056  1.00  0.00     0.074 A 
ATOM     53  C   UNL A   1      40.616  28.213  29.223  1.00  0.00     0.049 A 
ATOM     54  N   UNL A   1      43.641  28.980  28.826  1.00  0.00    -0.248 NA
ATOM     55  C   UNL A   1      42.773  29.122  26.674  1.00  0.00     0.031 C 
ATOM     56  C   UNL A   1      39.495  27.511  29.809  1.00  0.00     0.029 A 
ATOM     57  N   UNL A   1      40.368  29.516  29.640  1.00  0.00    -0.354 N 
ATOM     58  C   UNL A   1      44.342  29.926  28.115  1.00  0.00     0.074 A 
ATOM     59  C   UNL A   1      43.927  29.795  26.742  1.00  0.00     0.031 C 
ATOM     60  C   UNL A   1      38.565  28.383  30.277  1.00  0.00     0.029 A 
ATOM     61  C   UNL A   1      39.079  29.735  30.143  1.00  0.00     0.049 A 
ATOM     62  H   UNL A   1      41.044  30.228  29.587  1.00  0.00     0.167 HD
ATOM     63  C   UNL A   1      44.910  30.953  28.795  1.00  0.00     0.037 A 
ATOM     64  C   UNL A   1      38.534  30.823  30.757  1.00  0.00     0.037 A 
ATOM     65  C   UNL A   1      44.931  30.699  30.217  1.00  0.00     0.049 A 
ATOM     66  C   UNL A   1      39.615  31.479  31.507  1.00  0.00     0.074 A 
ATOM     67  C   UNL A   1      45.672  29.941  31.099  1.00  0.00     0.029 A 
ATOM     68  N   UNL A   1      43.772  31.035  30.861  1.00  0.00    -0.354 N 
ATOM     69  N   UNL A   1      40.148  30.968  32.580  1.00  0.00    -0.248 NA
ATOM     70  C   UNL A   1      40.320  32.609  30.914  1.00  0.00     0.031 C 
ATOM     71  C   UNL A   1      44.896  29.811  32.290  1.00  0.00     0.029 A 
ATOM     72  C   UNL A   1      43.707  30.507  32.123  1.00  0.00     0.049 A 
ATOM     73  H   UNL A   1      43.065  31.592  30.463  1.00  0.00     0.167 HD
ATOM     74  C   UNL A   1      41.454  31.389  32.508  1.00  0.00     0.074 A 
ATOM     75  C   UNL A   1      41.460  32.527  31.601  1.00  0.00     0.031 C 
ATOM     76  C   UNL A   1      42.462  30.547  32.852  1.00  0.00     0.037 A 
BRANCH  63  77
ATOM     77  C   UNL A   1      45.001  32.356  28.263  1.00  0.00     0.064 A 
ATOM     78  C   UNL A   1      43.824  33.121  28.177  1.00  0.00     0.173 A 
ATOM     79  C   UNL A   1      46.123  32.877  27.584  1.00  0.00     0.173 A 
ATOM     80  F   UNL A   1      42.684  32.687  28.735  1.00  0.00    -0.203 F 
ATOM     81  C   UNL A   1      43.774  34.310  27.448  1.00  0.00     0.198 A 
ATOM     82  C   UNL A   1      46.085  34.094  26.910  1.00  0.00     0.198 A 
ATOM     83  F   UNL A   1      47.258  32.182  27.437  1.00  0.00    -0.203 F 
ATOM     84  F   UNL A   1      42.607  34.953  27.304  1.00  0.00    -0.200 F 
ATOM     85  C   UNL A   1      44.907  34.801  26.824  1.00  0.00     0.200 A 
ATOM     86  F   UNL A   1      47.185  34.531  26.280  1.00  0.00    -0.200 F 
ATOM     87  F   UNL A   1      44.853  35.923  26.096  1.00  0.00    -0.200 F 
ENDBRANCH  63  77
BRANCH  64  88
ATOM     88  C   UNL A   1      37.191  31.466  30.639  1.00  0.00     0.064 A 
ATOM     89  C   UNL A   1      36.347  31.594  31.767  1.00  0.00     0.173 A 
ATOM     90  C   UNL A   1      36.834  32.236  29.519  1.00  0.00     0.173 A 
ATOM     91  F   UNL A   1      36.598  30.898  32.884  1.00  0.00    -0.203 F 
ATOM     92  C   UNL A   1      35.275  32.495  31.801  1.00  0.00     0.198 A 
ATOM     93  C   UNL A   1      35.760  33.138  29.554  1.00  0.00     0.198 A 
ATOM     94  F   UNL A   1      37.566  32.180  28.397  1.00  0.00    -0.203 F 
ATOM     95  F   UNL A   1      34.553  32.637  32.922  1.00  0.00    -0.200 F 
ATOM     96  C   UNL A   1      34.997  33.285  30.702  1.00  0.00     0.200 A 
ATOM     97  F   UNL A   1      35.501  33.907  28.487  1.00  0.00    -0.200 F 
ATOM     98  F   UNL A   1      34.021  34.203  30.756  1.00  0.00    -0.200 F 
ENDBRANCH  64  88
BRANCH  76  99
ATOM     99  C   UNL A   1      42.206  29.535  33.919  1.00  0.00     0.064 A 
ATOM    100  C   UNL A   1      41.638  28.270  33.714  1.00  0.00     0.173 A 
ATOM    101  C   UNL A   1      42.651  29.849  35.211  1.00  0.00     0.173 A 
ATOM    102  F   UNL A   1      41.220  27.888  32.500  1.00  0.00    -0.203 F 
ATOM    103  C   UNL A   1      41.532  27.355  34.764  1.00  0.00     0.198 A 
ATOM    104  C   UNL A   1      42.572  28.926  36.247  1.00  0.00     0.198 A 
ATOM    105  F   UNL A   1      43.202  31.048  35.457  1.00  0.00    -0.203 F 
ATOM    106  F   UNL A   1      40.990  26.147  34.552  1.00  0.00    -0.200 F 
ATOM    107  C   UNL A   1      42.014  27.678  36.024  1.00  0.00     0.200 A 
ATOM    108  F   UNL A   1      43.064  29.238  37.454  1.00  0.00    -0.200 F 
ATOM    109  F   UNL A   1      41.960  26.782  37.019  1.00  0.00    -0.200 F 
ENDBRANCH  76  99
ENDBRANCH  50  51
ENDBRANCH  43  45
ENDBRANCH  42  43
ENDBRANCH  41  42
ENDBRANCH  40  41
ENDBRANCH  39  40
ENDBRANCH  38  39
ENDBRANCH   1  38
TORSDOF 23
ENDMDL
MODEL 3
REMARK VINA RESULT:     -11.1      2.590      5.400
REMARK SMILES O=C(CSc1nnc2sc3ccccc3n12)N[C@H](Cc1c[nH]c2ccccc12)C(=O)OCCOCCOCCOC(=O)c1ccc(-c2c3nc(c(-c4c(F)c(F)c(F)c(F)c4F)c4ccc([nH]4)c(-c4c(F)c(F)c(F)c(F)c4F)c4nc(c(-c5c(F)c(F)c(F)c(F)c5F)c5ccc2[nH]5)C=C4)C=C3)cc1
REMARK SMILES IDX 35 1 34 2 33 3 32 4 31 5 29 6 30 7 18 8 17 9 1 10 2 11 3 13
REMARK SMILES IDX 4 14 5 15 6 16 16 17 7 18 8 19 15 20 9 21 10 22 14 23 11 24
REMARK SMILES IDX 13 25 12 26 19 27 20 28 21 29 28 30 22 31 23 32 27 33 24 35
REMARK SMILES IDX 26 36 25 37 36 38 37 39 38 40 39 41 40 42 41 43 42 44 43 45
REMARK SMILES IDX 44 46 105 47 45 48 104 49 46 50 47 51 48 52 98 53 49 54
REMARK SMILES IDX 103 55 97 56 99 57 50 58 102 59 96 60 95 61 51 63 83 64
REMARK SMILES IDX 63 65 82 66 64 67 67 68 81 69 100 70 65 71 66 72 80 74
REMARK SMILES IDX 101 75 68 76 52 77 53 78 61 79 54 80 55 81 59 82 62 83 56 84
REMARK SMILES IDX 57 85 60 86 58 87 84 88 85 89 93 90 86 91 87 92 91 93 94 94
REMARK SMILES IDX 88 95 89 96 92 97 90 98 69 99 70 100 78 101 71 102 72 103
REMARK SMILES IDX 76 104 79 105 73 106 74 107 77 108 75 109
REMARK H PARENT 17 12 22 34 99 62 67 73
REMARK Flexibility Score: inf
ROOT
ATOM      1  C   UNL A   1      35.128  32.091  28.297  1.00  0.00     0.188 C 
ENDROOT
BRANCH   1   2
ATOM      2  O   UNL A   1      34.443  31.446  27.244  1.00  0.00    -0.376 OA
BRANCH   2   3
ATOM      3  C   UNL A   1      33.417  30.526  27.587  1.00  0.00     0.202 C 
BRANCH   3   4
ATOM      4  C   UNL A   1      32.627  29.910  26.429  1.00  0.00     0.261 C 
BRANCH   4   5
ATOM      5  O   UNL A   1      31.968  28.666  26.802  1.00  0.00    -0.462 OA
BRANCH   5   6
ATOM      6  C   UNL A   1      32.468  27.562  26.202  1.00  0.00     0.329 C 
ATOM      7  O   UNL A   1      33.674  27.299  26.235  1.00  0.00    -0.250 OA
BRANCH   6   8
ATOM      8  C   UNL A   1      31.461  26.516  25.582  1.00  0.00     0.196 C 
BRANCH   8   9
ATOM      9  N   UNL A   1      32.005  25.273  26.135  1.00  0.00    -0.342 N 
ATOM     10  O   UNL A   1      30.026  24.474  26.958  1.00  0.00    -0.274 OA
ATOM     11  C   UNL A   1      31.173  24.275  26.573  1.00  0.00     0.231 C 
ATOM     12  H   UNL A   1      32.981  25.152  26.192  1.00  0.00     0.164 HD
BRANCH  11  13
ATOM     13  C   UNL A   1      31.760  22.888  26.449  1.00  0.00     0.178 C 
BRANCH  13  14
ATOM     14  S   UNL A   1      31.500  22.169  24.795  1.00  0.00    -0.076 SA
BRANCH  14  15
ATOM     15  C   UNL A   1      32.599  20.832  24.726  1.00  0.00     0.197 A 
ATOM     16  N   UNL A   1      32.242  19.558  24.768  1.00  0.00    -0.122 NA
ATOM     17  N   UNL A   1      33.960  20.907  24.679  1.00  0.00    -0.260 N 
ATOM     18  N   UNL A   1      33.396  18.779  24.827  1.00  0.00    -0.118 NA
ATOM     19  C   UNL A   1      34.394  19.620  24.799  1.00  0.00     0.217 A 
ATOM     20  C   UNL A   1      34.958  21.876  24.632  1.00  0.00     0.068 A 
ATOM     21  S   UNL A   1      36.115  19.481  24.906  1.00  0.00    -0.094 S 
ATOM     22  C   UNL A   1      36.213  21.272  24.808  1.00  0.00     0.055 A 
ATOM     23  C   UNL A   1      34.812  23.244  24.490  1.00  0.00     0.028 A 
ATOM     24  C   UNL A   1      37.348  22.057  24.916  1.00  0.00     0.021 A 
ATOM     25  C   UNL A   1      35.949  24.036  24.637  1.00  0.00     0.002 A 
ATOM     26  C   UNL A   1      37.205  23.448  24.855  1.00  0.00     0.002 A 
ENDBRANCH  14  15
ENDBRANCH  13  14
ENDBRANCH  11  13
ENDBRANCH   8   9
BRANCH   8  27
ATOM     27  C   UNL A   1      31.084  26.390  24.093  1.00  0.00     0.074 C 
BRANCH  27  28
ATOM     28  C   UNL A   1      30.933  27.717  23.327  1.00  0.00    -0.020 A 
ATOM     29  C   UNL A   1      31.971  28.362  22.674  1.00  0.00     0.087 A 
ATOM     30  C   UNL A   1      29.743  28.482  23.003  1.00  0.00     0.003 A 
ATOM     31  N   UNL A   1      31.494  29.489  22.059  1.00  0.00    -0.361 N 
ATOM     32  C   UNL A   1      30.139  29.595  22.248  1.00  0.00     0.046 A 
ATOM     33  C   UNL A   1      28.359  28.336  23.244  1.00  0.00     0.010 A 
ATOM     34  H   UNL A   1      32.043  30.130  21.554  1.00  0.00     0.166 HD
ATOM     35  C   UNL A   1      29.253  30.571  21.767  1.00  0.00     0.026 A 
ATOM     36  C   UNL A   1      27.449  29.271  22.716  1.00  0.00     0.001 A 
ATOM     37  C   UNL A   1      27.892  30.378  21.996  1.00  0.00     0.002 A 
ENDBRANCH  27  28
ENDBRANCH   8  27
ENDBRANCH   6   8
ENDBRANCH   5   6
ENDBRANCH   4   5
ENDBRANCH   3   4
ENDBRANCH   2   3
ENDBRANCH   1   2
BRANCH   1  38
ATOM     38  C   UNL A   1      34.382  33.138  29.147  1.00  0.00     0.188 C 
BRANCH  38  39
ATOM     39  O   UNL A   1      34.136  32.891  30.511  1.00  0.00    -0.376 OA
BRANCH  39  40
ATOM     40  C   UNL A   1      35.301  32.776  31.319  1.00  0.00     0.202 C 
BRANCH  40  41
ATOM     41  C   UNL A   1      36.092  34.078  31.607  1.00  0.00     0.261 C 
BRANCH  41  42
ATOM     42  O   UNL A   1      37.538  33.910  31.524  1.00  0.00    -0.460 OA
BRANCH  42  43
ATOM     43  C   UNL A   1      38.086  33.840  30.273  1.00  0.00     0.338 C 
ATOM     44  O   UNL A   1      38.281  34.797  29.531  1.00  0.00    -0.246 OA
BRANCH  43  45
ATOM     45  C   UNL A   1      38.823  32.537  30.115  1.00  0.00     0.060 A 
ATOM     46  C   UNL A   1      38.277  31.329  29.683  1.00  0.00     0.016 A 
ATOM     47  C   UNL A   1      40.103  32.512  30.675  1.00  0.00     0.016 A 
ATOM     48  C   UNL A   1      38.974  30.113  29.918  1.00  0.00     0.010 A 
ATOM     49  C   UNL A   1      40.751  31.310  30.986  1.00  0.00     0.010 A 
ATOM     50  C   UNL A   1      40.192  30.081  30.632  1.00  0.00    -0.014 A 
BRANCH  50  51
ATOM     51  C   UNL A   1      41.122  28.918  30.561  1.00  0.00     0.031 A 
ATOM     52  C   UNL A   1      41.483  28.519  31.928  1.00  0.00     0.074 A 
ATOM     53  C   UNL A   1      41.641  28.151  29.566  1.00  0.00     0.049 A 
ATOM     54  N   UNL A   1      42.598  28.858  32.479  1.00  0.00    -0.248 NA
ATOM     55  C   UNL A   1      40.513  27.888  32.827  1.00  0.00     0.031 C 
ATOM     56  C   UNL A   1      41.503  28.335  28.138  1.00  0.00     0.029 A 
ATOM     57  N   UNL A   1      42.423  27.002  29.616  1.00  0.00    -0.354 N 
ATOM     58  C   UNL A   1      42.584  28.240  33.707  1.00  0.00     0.074 A 
ATOM     59  C   UNL A   1      41.214  27.877  33.966  1.00  0.00     0.031 C 
ATOM     60  C   UNL A   1      41.936  27.240  27.462  1.00  0.00     0.029 A 
ATOM     61  C   UNL A   1      42.514  26.301  28.407  1.00  0.00     0.049 A 
ATOM     62  H   UNL A   1      42.876  26.704  30.437  1.00  0.00     0.167 HD
ATOM     63  C   UNL A   1      43.755  27.769  34.205  1.00  0.00     0.037 A 
ATOM     64  C   UNL A   1      43.283  25.234  28.051  1.00  0.00     0.037 A 
ATOM     65  C   UNL A   1      44.887  28.282  33.469  1.00  0.00     0.049 A 
ATOM     66  C   UNL A   1      44.540  25.340  28.805  1.00  0.00     0.074 A 
ATOM     67  C   UNL A   1      45.598  29.462  33.399  1.00  0.00     0.029 A 
ATOM     68  N   UNL A   1      45.188  27.572  32.339  1.00  0.00    -0.354 N 
ATOM     69  N   UNL A   1      45.442  26.247  28.562  1.00  0.00    -0.248 NA
ATOM     70  C   UNL A   1      44.701  24.590  30.045  1.00  0.00     0.031 C 
ATOM     71  C   UNL A   1      46.316  29.443  32.166  1.00  0.00     0.029 A 
ATOM     72  C   UNL A   1      46.048  28.247  31.515  1.00  0.00     0.049 A 
ATOM     73  H   UNL A   1      44.827  26.678  32.142  1.00  0.00     0.167 HD
ATOM     74  C   UNL A   1      45.976  26.495  29.804  1.00  0.00     0.074 A 
ATOM     75  C   UNL A   1      45.637  25.342  30.625  1.00  0.00     0.031 C 
ATOM     76  C   UNL A   1      46.279  27.766  30.174  1.00  0.00     0.037 A 
BRANCH  63  77
ATOM     77  C   UNL A   1      43.870  26.504  35.010  1.00  0.00     0.064 A 
ATOM     78  C   UNL A   1      44.368  26.584  36.323  1.00  0.00     0.173 A 
ATOM     79  C   UNL A   1      43.781  25.206  34.465  1.00  0.00     0.173 A 
ATOM     80  F   UNL A   1      44.551  27.774  36.913  1.00  0.00    -0.203 F 
ATOM     81  C   UNL A   1      44.764  25.446  37.028  1.00  0.00     0.198 A 
ATOM     82  C   UNL A   1      44.117  24.069  35.193  1.00  0.00     0.198 A 
ATOM     83  F   UNL A   1      43.486  24.988  33.177  1.00  0.00    -0.203 F 
ATOM     84  F   UNL A   1      45.331  25.576  38.235  1.00  0.00    -0.200 F 
ATOM     85  C   UNL A   1      44.628  24.189  36.466  1.00  0.00     0.200 A 
ATOM     86  F   UNL A   1      44.015  22.863  34.615  1.00  0.00    -0.200 F 
ATOM     87  F   UNL A   1      45.039  23.099  37.127  1.00  0.00    -0.200 F 
ENDBRANCH  63  77
BRANCH  64  88
ATOM     88  C   UNL A   1      42.987  24.019  27.233  1.00  0.00     0.064 A 
ATOM     89  C   UNL A   1      43.472  23.899  25.911  1.00  0.00     0.173 A 
ATOM     90  C   UNL A   1      42.499  22.837  27.814  1.00  0.00     0.173 A 
ATOM     91  F   UNL A   1      43.955  24.970  25.265  1.00  0.00    -0.203 F 
ATOM     92  C   UNL A   1      43.547  22.666  25.250  1.00  0.00     0.198 A 
ATOM     93  C   UNL A   1      42.574  21.602  27.151  1.00  0.00     0.198 A 
ATOM     94  F   UNL A   1      42.009  22.846  29.062  1.00  0.00    -0.203 F 
ATOM     95  F   UNL A   1      44.090  22.593  24.026  1.00  0.00    -0.200 F 
ATOM     96  C   UNL A   1      43.121  21.514  25.881  1.00  0.00     0.200 A 
ATOM     97  F   UNL A   1      42.165  20.487  27.772  1.00  0.00    -0.200 F 
ATOM     98  F   UNL A   1      43.260  20.321  25.283  1.00  0.00    -0.200 F 
ENDBRANCH  64  88
BRANCH  76  99
ATOM     99  C   UNL A   1      46.720  28.725  29.119  1.00  0.00     0.064 A 
ATOM    100  C   UNL A   1      45.883  29.619  28.437  1.00  0.00     0.173 A 
ATOM    101  C   UNL A   1      48.096  28.789  28.855  1.00  0.00     0.173 A 
ATOM    102  F   UNL A   1      44.563  29.637  28.661  1.00  0.00    -0.203 F 
ATOM    103  C   UNL A   1      46.411  30.546  27.536  1.00  0.00     0.198 A 
ATOM    104  C   UNL A   1      48.622  29.734  27.982  1.00  0.00     0.198 A 
ATOM    105  F   UNL A   1      48.939  27.954  29.484  1.00  0.00    -0.203 F 
ATOM    106  F   UNL A   1      45.598  31.399  26.895  1.00  0.00    -0.200 F 
ATOM    107  C   UNL A   1      47.780  30.613  27.323  1.00  0.00     0.200 A 
ATOM    108  F   UNL A   1      49.948  29.807  27.802  1.00  0.00    -0.200 F 
ATOM    109  F   UNL A   1      48.291  31.538  26.499  1.00  0.00    -0.200 F 
ENDBRANCH  76  99
ENDBRANCH  50  51
ENDBRANCH  43  45
ENDBRANCH  42  43
ENDBRANCH  41  42
ENDBRANCH  40  41
ENDBRANCH  39  40
ENDBRANCH  38  39
ENDBRANCH   1  38
TORSDOF 23
ENDMDL
