MODEL 1
REMARK VINA RESULT:     -10.8      0.000      0.000
REMARK SMILES COc1ccc(OCc2nc(C)no2)c(/C=C/C(=O)OCCOCCOCCOC(=O)c2ccc(-c3c4nc(c(-c5c(F)c(F)c(F)c(F)c5F)c5ccc([nH]5)c(-c5c(F)c(F)c(F)c(F)c5F)c5nc(c(-c6c(F)c(F)c(F)c(F)c6F)c6ccc3[nH]6)C=C5)C=C4)cc2)c1
REMARK SMILES IDX 24 1 23 2 22 3 21 4 20 5 18 6 19 7 17 8 16 9 15 10 3 11 4 12
REMARK SMILES IDX 95 13 5 14 6 15 2 16 1 17 7 18 8 19 9 20 10 21 14 22 11 23
REMARK SMILES IDX 13 24 12 25 25 26 26 27 27 28 28 29 29 30 30 31 31 32 32 33
REMARK SMILES IDX 33 34 94 35 34 36 93 37 35 38 36 39 37 40 87 41 38 42 92 43
REMARK SMILES IDX 86 44 88 45 39 46 91 47 85 48 84 49 40 51 72 52 52 53 71 54
REMARK SMILES IDX 53 55 56 56 70 57 89 58 54 59 55 60 69 62 90 63 57 64 41 65
REMARK SMILES IDX 42 66 50 67 43 68 44 69 48 70 51 71 45 72 46 73 49 74 47 75
REMARK SMILES IDX 73 76 74 77 82 78 75 79 76 80 80 81 83 82 77 83 78 84 81 85
REMARK SMILES IDX 79 86 58 87 59 88 67 89 60 90 61 91 65 92 68 93 62 94 63 95
REMARK SMILES IDX 66 96 64 97
REMARK H PARENT 88 50 56 61
REMARK Flexibility Score: inf
ROOT
ATOM      1  C   UNL A   1      33.379  28.595  26.069  1.00  0.00     0.188 C 
ENDROOT
BRANCH   1   2
ATOM      2  O   UNL A   1      33.831  28.105  24.818  1.00  0.00    -0.376 OA
BRANCH   2   3
ATOM      3  C   UNL A   1      33.494  28.805  23.618  1.00  0.00     0.202 C 
BRANCH   3   4
ATOM      4  C   UNL A   1      32.888  28.076  22.415  1.00  0.00     0.261 C 
BRANCH   4   5
ATOM      5  O   UNL A   1      33.758  27.044  21.945  1.00  0.00    -0.460 OA
BRANCH   5   6
ATOM      6  C   UNL A   1      33.133  25.867  21.712  1.00  0.00     0.330 C 
ATOM      7  O   UNL A   1      32.545  25.535  20.699  1.00  0.00    -0.247 OA
BRANCH   6   8
ATOM      8  C   UNL A   1      33.552  24.932  22.764  1.00  0.00     0.094 C 
ATOM      9  C   UNL A   1      33.711  23.620  22.566  1.00  0.00     0.019 C 
BRANCH   9  10
ATOM     10  C   UNL A   1      34.298  22.661  23.536  1.00  0.00     0.020 A 
ATOM     11  C   UNL A   1      36.381  21.890  24.556  1.00  0.00     0.119 A 
ATOM     12  C   UNL A   1      35.659  21.182  25.515  1.00  0.00     0.050 A 
ATOM     13  C   UNL A   1      35.703  22.597  23.561  1.00  0.00     0.058 A 
ATOM     14  C   UNL A   1      34.266  21.191  25.493  1.00  0.00     0.051 A 
ATOM     15  C   UNL A   1      33.588  21.939  24.522  1.00  0.00     0.127 A 
BRANCH  11  16
ATOM     16  O   UNL A   1      37.744  21.817  24.671  1.00  0.00    -0.497 OA
ATOM     17  C   UNL A   1      38.278  22.309  25.897  1.00  0.00     0.278 C 
ENDBRANCH  11  16
BRANCH  15  18
ATOM     18  O   UNL A   1      32.215  21.924  24.509  1.00  0.00    -0.483 OA
BRANCH  18  19
ATOM     19  C   UNL A   1      31.587  22.322  25.745  1.00  0.00     0.329 C 
BRANCH  19  20
ATOM     20  C   UNL A   1      31.134  23.738  25.704  1.00  0.00     0.264 A 
ATOM     21  N   UNL A   1      30.908  24.525  24.671  1.00  0.00    -0.193 NA
ATOM     22  O   UNL A   1      30.856  24.332  26.901  1.00  0.00    -0.336 OA
ATOM     23  C   UNL A   1      30.498  25.685  25.284  1.00  0.00     0.169 A 
ATOM     24  N   UNL A   1      30.453  25.633  26.620  1.00  0.00    -0.063 NA
ATOM     25  C   UNL A   1      30.053  26.878  24.542  1.00  0.00     0.093 C 
ENDBRANCH  19  20
ENDBRANCH  18  19
ENDBRANCH  15  18
ENDBRANCH   9  10
ENDBRANCH   6   8
ENDBRANCH   5   6
ENDBRANCH   4   5
ENDBRANCH   3   4
ENDBRANCH   2   3
ENDBRANCH   1   2
BRANCH   1  26
ATOM     26  C   UNL A   1      33.123  30.110  26.237  1.00  0.00     0.188 C 
BRANCH  26  27
ATOM     27  O   UNL A   1      31.907  30.705  25.834  1.00  0.00    -0.376 OA
BRANCH  27  28
ATOM     28  C   UNL A   1      31.338  31.736  26.625  1.00  0.00     0.202 C 
BRANCH  28  29
ATOM     29  C   UNL A   1      32.054  33.073  26.875  1.00  0.00     0.261 C 
BRANCH  29  30
ATOM     30  O   UNL A   1      32.784  33.168  28.105  1.00  0.00    -0.460 OA
BRANCH  30  31
ATOM     31  C   UNL A   1      33.901  33.935  28.038  1.00  0.00     0.338 C 
ATOM     32  O   UNL A   1      33.970  35.142  27.893  1.00  0.00    -0.246 OA
BRANCH  31  33
ATOM     33  C   UNL A   1      35.084  33.114  28.352  1.00  0.00     0.060 A 
ATOM     34  C   UNL A   1      34.875  31.801  28.796  1.00  0.00     0.016 A 
ATOM     35  C   UNL A   1      36.368  33.656  28.307  1.00  0.00     0.016 A 
ATOM     36  C   UNL A   1      35.952  31.031  29.228  1.00  0.00     0.010 A 
ATOM     37  C   UNL A   1      37.445  32.890  28.765  1.00  0.00     0.010 A 
ATOM     38  C   UNL A   1      37.236  31.589  29.257  1.00  0.00    -0.014 A 
BRANCH  38  39
ATOM     39  C   UNL A   1      38.318  30.876  29.976  1.00  0.00     0.031 A 
ATOM     40  C   UNL A   1      38.545  31.188  31.429  1.00  0.00     0.074 A 
ATOM     41  C   UNL A   1      39.063  29.943  29.359  1.00  0.00     0.049 A 
ATOM     42  N   UNL A   1      39.441  30.707  32.254  1.00  0.00    -0.248 NA
ATOM     43  C   UNL A   1      37.637  32.176  32.033  1.00  0.00     0.031 C 
ATOM     44  C   UNL A   1      38.911  29.523  27.968  1.00  0.00     0.029 A 
ATOM     45  N   UNL A   1      40.106  29.186  29.831  1.00  0.00    -0.354 N 
ATOM     46  C   UNL A   1      39.208  31.337  33.468  1.00  0.00     0.074 A 
ATOM     47  C   UNL A   1      38.105  32.252  33.270  1.00  0.00     0.031 C 
ATOM     48  C   UNL A   1      39.837  28.588  27.693  1.00  0.00     0.029 A 
ATOM     49  C   UNL A   1      40.663  28.366  28.881  1.00  0.00     0.049 A 
ATOM     50  H   UNL A   1      40.424  29.226  30.762  1.00  0.00     0.167 HD
ATOM     51  C   UNL A   1      39.853  31.163  34.647  1.00  0.00     0.037 A 
ATOM     52  C   UNL A   1      41.730  27.547  28.960  1.00  0.00     0.037 A 
ATOM     53  C   UNL A   1      40.950  30.254  34.844  1.00  0.00     0.049 A 
ATOM     54  C   UNL A   1      42.475  27.426  30.266  1.00  0.00     0.074 A 
ATOM     55  C   UNL A   1      41.654  29.990  36.007  1.00  0.00     0.029 A 
ATOM     56  N   UNL A   1      41.510  29.466  33.850  1.00  0.00    -0.354 N 
ATOM     57  N   UNL A   1      42.230  27.999  31.419  1.00  0.00    -0.248 NA
ATOM     58  C   UNL A   1      43.647  26.538  30.277  1.00  0.00     0.031 C 
ATOM     59  C   UNL A   1      42.673  29.081  35.703  1.00  0.00     0.029 A 
ATOM     60  C   UNL A   1      42.569  28.736  34.365  1.00  0.00     0.049 A 
ATOM     61  H   UNL A   1      41.201  29.430  32.916  1.00  0.00     0.167 HD
ATOM     62  C   UNL A   1      43.193  27.519  32.298  1.00  0.00     0.074 A 
ATOM     63  C   UNL A   1      44.019  26.598  31.548  1.00  0.00     0.031 C 
ATOM     64  C   UNL A   1      43.377  27.815  33.609  1.00  0.00     0.037 A 
BRANCH  51  65
ATOM     65  C   UNL A   1      39.402  31.996  35.810  1.00  0.00     0.064 A 
ATOM     66  C   UNL A   1      38.433  31.538  36.715  1.00  0.00     0.173 A 
ATOM     67  C   UNL A   1      39.972  33.258  36.040  1.00  0.00     0.173 A 
ATOM     68  F   UNL A   1      37.847  30.345  36.531  1.00  0.00    -0.203 F 
ATOM     69  C   UNL A   1      38.034  32.322  37.794  1.00  0.00     0.198 A 
ATOM     70  C   UNL A   1      39.591  34.026  37.135  1.00  0.00     0.198 A 
ATOM     71  F   UNL A   1      40.904  33.740  35.205  1.00  0.00    -0.203 F 
ATOM     72  F   UNL A   1      37.076  31.884  38.622  1.00  0.00    -0.200 F 
ATOM     73  C   UNL A   1      38.618  33.562  38.008  1.00  0.00     0.200 A 
ATOM     74  F   UNL A   1      40.165  35.219  37.347  1.00  0.00    -0.200 F 
ATOM     75  F   UNL A   1      38.240  34.312  39.051  1.00  0.00    -0.200 F 
ENDBRANCH  51  65
BRANCH  52  76
ATOM     76  C   UNL A   1      42.169  26.776  27.768  1.00  0.00     0.064 A 
ATOM     77  C   UNL A   1      41.658  25.498  27.507  1.00  0.00     0.173 A 
ATOM     78  C   UNL A   1      43.133  27.288  26.887  1.00  0.00     0.173 A 
ATOM     79  F   UNL A   1      40.754  24.956  28.336  1.00  0.00    -0.203 F 
ATOM     80  C   UNL A   1      42.111  24.750  26.422  1.00  0.00     0.198 A 
ATOM     81  C   UNL A   1      43.565  26.551  25.786  1.00  0.00     0.198 A 
ATOM     82  F   UNL A   1      43.657  28.504  27.096  1.00  0.00    -0.203 F 
ATOM     83  F   UNL A   1      41.644  23.510  26.225  1.00  0.00    -0.200 F 
ATOM     84  C   UNL A   1      43.060  25.279  25.560  1.00  0.00     0.200 A 
ATOM     85  F   UNL A   1      44.475  27.068  24.951  1.00  0.00    -0.200 F 
ATOM     86  F   UNL A   1      43.496  24.559  24.518  1.00  0.00    -0.200 F 
ENDBRANCH  52  76
BRANCH  64  87
ATOM     87  C   UNL A   1      44.488  27.104  34.328  1.00  0.00     0.064 A 
ATOM     88  C   UNL A   1      45.769  27.664  34.444  1.00  0.00     0.173 A 
ATOM     89  C   UNL A   1      44.259  25.860  34.934  1.00  0.00     0.173 A 
ATOM     90  F   UNL A   1      46.045  28.844  33.870  1.00  0.00    -0.203 F 
ATOM     91  C   UNL A   1      46.786  26.991  35.117  1.00  0.00     0.198 A 
ATOM     92  C   UNL A   1      45.269  25.204  35.633  1.00  0.00     0.198 A 
ATOM     93  F   UNL A   1      43.049  25.283  34.859  1.00  0.00    -0.203 F 
ATOM     94  F   UNL A   1      48.016  27.521  35.172  1.00  0.00    -0.200 F 
ATOM     95  C   UNL A   1      46.533  25.766  35.716  1.00  0.00     0.200 A 
ATOM     96  F   UNL A   1      45.019  24.026  36.222  1.00  0.00    -0.200 F 
ATOM     97  F   UNL A   1      47.513  25.121  36.366  1.00  0.00    -0.200 F 
ENDBRANCH  64  87
ENDBRANCH  38  39
ENDBRANCH  31  33
ENDBRANCH  30  31
ENDBRANCH  29  30
ENDBRANCH  28  29
ENDBRANCH  27  28
ENDBRANCH  26  27
ENDBRANCH   1  26
TORSDOF 22
ENDMDL
MODEL 2
REMARK VINA RESULT:     -10.6      4.192     10.297
REMARK SMILES COc1ccc(OCc2nc(C)no2)c(/C=C/C(=O)OCCOCCOCCOC(=O)c2ccc(-c3c4nc(c(-c5c(F)c(F)c(F)c(F)c5F)c5ccc([nH]5)c(-c5c(F)c(F)c(F)c(F)c5F)c5nc(c(-c6c(F)c(F)c(F)c(F)c6F)c6ccc3[nH]6)C=C5)C=C4)cc2)c1
REMARK SMILES IDX 24 1 23 2 22 3 21 4 20 5 18 6 19 7 17 8 16 9 15 10 3 11 4 12
REMARK SMILES IDX 95 13 5 14 6 15 2 16 1 17 7 18 8 19 9 20 10 21 14 22 11 23
REMARK SMILES IDX 13 24 12 25 25 26 26 27 27 28 28 29 29 30 30 31 31 32 32 33
REMARK SMILES IDX 33 34 94 35 34 36 93 37 35 38 36 39 37 40 87 41 38 42 92 43
REMARK SMILES IDX 86 44 88 45 39 46 91 47 85 48 84 49 40 51 72 52 52 53 71 54
REMARK SMILES IDX 53 55 56 56 70 57 89 58 54 59 55 60 69 62 90 63 57 64 41 65
REMARK SMILES IDX 42 66 50 67 43 68 44 69 48 70 51 71 45 72 46 73 49 74 47 75
REMARK SMILES IDX 73 76 74 77 82 78 75 79 76 80 80 81 83 82 77 83 78 84 81 85
REMARK SMILES IDX 79 86 58 87 59 88 67 89 60 90 61 91 65 92 68 93 62 94 63 95
REMARK SMILES IDX 66 96 64 97
REMARK H PARENT 88 50 56 61
REMARK Flexibility Score: inf
ROOT
ATOM      1  C   UNL A   1      36.966  23.260  25.408  1.00  0.00     0.188 C 
ENDROOT
BRANCH   1   2
ATOM      2  O   UNL A   1      36.598  23.766  24.136  1.00  0.00    -0.376 OA
BRANCH   2   3
ATOM      3  C   UNL A   1      35.247  23.636  23.684  1.00  0.00     0.202 C 
BRANCH   3   4
ATOM      4  C   UNL A   1      34.178  24.665  24.062  1.00  0.00     0.261 C 
BRANCH   4   5
ATOM      5  O   UNL A   1      33.274  24.890  22.978  1.00  0.00    -0.460 OA
BRANCH   5   6
ATOM      6  C   UNL A   1      33.313  26.150  22.487  1.00  0.00     0.330 C 
ATOM      7  O   UNL A   1      34.024  26.568  21.592  1.00  0.00    -0.247 OA
BRANCH   6   8
ATOM      8  C   UNL A   1      32.130  26.856  22.997  1.00  0.00     0.094 C 
ATOM      9  C   UNL A   1      31.141  27.300  22.216  1.00  0.00     0.019 C 
BRANCH   9  10
ATOM     10  C   UNL A   1      29.848  27.858  22.688  1.00  0.00     0.020 A 
ATOM     11  C   UNL A   1      28.234  29.669  22.379  1.00  0.00     0.119 A 
ATOM     12  C   UNL A   1      27.302  28.980  23.153  1.00  0.00     0.050 A 
ATOM     13  C   UNL A   1      29.504  29.123  22.176  1.00  0.00     0.058 A 
ATOM     14  C   UNL A   1      27.626  27.744  23.709  1.00  0.00     0.051 A 
ATOM     15  C   UNL A   1      28.883  27.177  23.465  1.00  0.00     0.127 A 
BRANCH  11  16
ATOM     16  O   UNL A   1      27.813  30.872  21.879  1.00  0.00    -0.497 OA
ATOM     17  C   UNL A   1      28.767  31.928  21.953  1.00  0.00     0.278 C 
ENDBRANCH  11  16
BRANCH  15  18
ATOM     18  O   UNL A   1      29.188  25.964  24.032  1.00  0.00    -0.483 OA
BRANCH  18  19
ATOM     19  C   UNL A   1      29.669  26.027  25.390  1.00  0.00     0.329 C 
BRANCH  19  20
ATOM     20  C   UNL A   1      30.454  24.817  25.755  1.00  0.00     0.264 A 
ATOM     21  N   UNL A   1      30.748  23.752  25.038  1.00  0.00    -0.193 NA
ATOM     22  O   UNL A   1      31.009  24.795  27.002  1.00  0.00    -0.336 OA
ATOM     23  C   UNL A   1      31.503  23.017  25.920  1.00  0.00     0.169 A 
ATOM     24  N   UNL A   1      31.689  23.588  27.116  1.00  0.00    -0.063 NA
ATOM     25  C   UNL A   1      32.143  21.737  25.567  1.00  0.00     0.093 C 
ENDBRANCH  19  20
ENDBRANCH  18  19
ENDBRANCH  15  18
ENDBRANCH   9  10
ENDBRANCH   6   8
ENDBRANCH   5   6
ENDBRANCH   4   5
ENDBRANCH   3   4
ENDBRANCH   2   3
ENDBRANCH   1   2
BRANCH   1  26
ATOM     26  C   UNL A   1      37.055  21.730  25.613  1.00  0.00     0.188 C 
BRANCH  26  27
ATOM     27  O   UNL A   1      37.633  20.885  24.641  1.00  0.00    -0.376 OA
BRANCH  27  28
ATOM     28  C   UNL A   1      38.075  19.590  25.014  1.00  0.00     0.202 C 
BRANCH  28  29
ATOM     29  C   UNL A   1      39.416  19.349  25.725  1.00  0.00     0.261 C 
BRANCH  29  30
ATOM     30  O   UNL A   1      40.254  20.502  25.884  1.00  0.00    -0.460 OA
BRANCH  30  31
ATOM     31  C   UNL A   1      40.955  20.532  27.044  1.00  0.00     0.338 C 
ATOM     32  O   UNL A   1      41.521  19.606  27.599  1.00  0.00    -0.246 OA
BRANCH  31  33
ATOM     33  C   UNL A   1      41.110  21.927  27.493  1.00  0.00     0.060 A 
ATOM     34  C   UNL A   1      40.420  22.924  26.791  1.00  0.00     0.016 A 
ATOM     35  C   UNL A   1      41.994  22.258  28.519  1.00  0.00     0.016 A 
ATOM     36  C   UNL A   1      40.635  24.266  27.093  1.00  0.00     0.010 A 
ATOM     37  C   UNL A   1      42.227  23.607  28.805  1.00  0.00     0.010 A 
ATOM     38  C   UNL A   1      41.575  24.615  28.071  1.00  0.00    -0.014 A 
BRANCH  38  39
ATOM     39  C   UNL A   1      42.005  26.028  28.190  1.00  0.00     0.031 A 
ATOM     40  C   UNL A   1      43.332  26.429  27.605  1.00  0.00     0.074 A 
ATOM     41  C   UNL A   1      41.218  26.946  28.775  1.00  0.00     0.049 A 
ATOM     42  N   UNL A   1      43.923  27.596  27.605  1.00  0.00    -0.248 NA
ATOM     43  C   UNL A   1      44.093  25.367  26.927  1.00  0.00     0.031 C 
ATOM     44  C   UNL A   1      39.896  26.690  29.340  1.00  0.00     0.029 A 
ATOM     45  N   UNL A   1      41.429  28.285  28.995  1.00  0.00    -0.354 N 
ATOM     46  C   UNL A   1      45.124  27.407  26.935  1.00  0.00     0.074 A 
ATOM     47  C   UNL A   1      45.191  26.010  26.564  1.00  0.00     0.031 C 
ATOM     48  C   UNL A   1      39.414  27.836  29.855  1.00  0.00     0.029 A 
ATOM     49  C   UNL A   1      40.407  28.896  29.679  1.00  0.00     0.049 A 
ATOM     50  H   UNL A   1      42.235  28.761  28.690  1.00  0.00     0.167 HD
ATOM     51  C   UNL A   1      46.083  28.320  26.649  1.00  0.00     0.037 A 
ATOM     52  C   UNL A   1      40.300  30.162  30.127  1.00  0.00     0.037 A 
ATOM     53  C   UNL A   1      46.018  29.709  27.019  1.00  0.00     0.049 A 
ATOM     54  C   UNL A   1      41.415  31.140  29.858  1.00  0.00     0.074 A 
ATOM     55  C   UNL A   1      46.929  30.717  26.754  1.00  0.00     0.029 A 
ATOM     56  N   UNL A   1      44.983  30.284  27.741  1.00  0.00    -0.354 N 
ATOM     57  N   UNL A   1      42.533  30.965  29.196  1.00  0.00    -0.248 NA
ATOM     58  C   UNL A   1      41.248  32.497  30.398  1.00  0.00     0.031 C 
ATOM     59  C   UNL A   1      46.471  31.890  27.363  1.00  0.00     0.029 A 
ATOM     60  C   UNL A   1      45.247  31.628  27.957  1.00  0.00     0.049 A 
ATOM     61  H   UNL A   1      44.181  29.809  28.056  1.00  0.00     0.167 HD
ATOM     62  C   UNL A   1      43.186  32.191  29.213  1.00  0.00     0.074 A 
ATOM     63  C   UNL A   1      42.333  33.106  29.940  1.00  0.00     0.031 C 
ATOM     64  C   UNL A   1      44.384  32.529  28.675  1.00  0.00     0.037 A 
BRANCH  51  65
ATOM     65  C   UNL A   1      47.302  27.835  25.921  1.00  0.00     0.064 A 
ATOM     66  C   UNL A   1      48.465  27.450  26.604  1.00  0.00     0.173 A 
ATOM     67  C   UNL A   1      47.293  27.725  24.522  1.00  0.00     0.173 A 
ATOM     68  F   UNL A   1      48.529  27.552  27.940  1.00  0.00    -0.203 F 
ATOM     69  C   UNL A   1      49.583  26.993  25.911  1.00  0.00     0.198 A 
ATOM     70  C   UNL A   1      48.403  27.241  23.836  1.00  0.00     0.198 A 
ATOM     71  F   UNL A   1      46.205  28.078  23.823  1.00  0.00    -0.203 F 
ATOM     72  F   UNL A   1      50.699  26.670  26.580  1.00  0.00    -0.200 F 
ATOM     73  C   UNL A   1      49.549  26.882  24.529  1.00  0.00     0.200 A 
ATOM     74  F   UNL A   1      48.365  27.123  22.501  1.00  0.00    -0.200 F 
ATOM     75  F   UNL A   1      50.623  26.435  23.865  1.00  0.00    -0.200 F 
ENDBRANCH  51  65
BRANCH  52  76
ATOM     76  C   UNL A   1      39.094  30.585  30.884  1.00  0.00     0.064 A 
ATOM     77  C   UNL A   1      39.029  30.445  32.276  1.00  0.00     0.173 A 
ATOM     78  C   UNL A   1      37.968  31.104  30.227  1.00  0.00     0.173 A 
ATOM     79  F   UNL A   1      40.070  29.928  32.946  1.00  0.00    -0.203 F 
ATOM     80  C   UNL A   1      37.878  30.788  32.983  1.00  0.00     0.198 A 
ATOM     81  C   UNL A   1      36.827  31.473  30.936  1.00  0.00     0.198 A 
ATOM     82  F   UNL A   1      37.977  31.253  28.894  1.00  0.00    -0.203 F 
ATOM     83  F   UNL A   1      37.825  30.595  34.307  1.00  0.00    -0.200 F 
ATOM     84  C   UNL A   1      36.780  31.306  32.312  1.00  0.00     0.200 A 
ATOM     85  F   UNL A   1      35.772  31.982  30.287  1.00  0.00    -0.200 F 
ATOM     86  F   UNL A   1      35.672  31.634  32.991  1.00  0.00    -0.200 F 
ENDBRANCH  52  76
BRANCH  64  87
ATOM     87  C   UNL A   1      44.825  33.959  28.815  1.00  0.00     0.064 A 
ATOM     88  C   UNL A   1      45.608  34.387  29.898  1.00  0.00     0.173 A 
ATOM     89  C   UNL A   1      44.485  34.905  27.836  1.00  0.00     0.173 A 
ATOM     90  F   UNL A   1      45.948  33.525  30.868  1.00  0.00    -0.203 F 
ATOM     91  C   UNL A   1      46.009  35.716  30.009  1.00  0.00     0.198 A 
ATOM     92  C   UNL A   1      44.915  36.225  27.935  1.00  0.00     0.198 A 
ATOM     93  F   UNL A   1      43.745  34.546  26.777  1.00  0.00    -0.203 F 
ATOM     94  F   UNL A   1      46.713  36.113  31.078  1.00  0.00    -0.200 F 
ATOM     95  C   UNL A   1      45.668  36.632  29.025  1.00  0.00     0.200 A 
ATOM     96  F   UNL A   1      44.596  37.106  26.976  1.00  0.00    -0.200 F 
ATOM     97  F   UNL A   1      46.059  37.910  29.132  1.00  0.00    -0.200 F 
ENDBRANCH  64  87
ENDBRANCH  38  39
ENDBRANCH  31  33
ENDBRANCH  30  31
ENDBRANCH  29  30
ENDBRANCH  28  29
ENDBRANCH  27  28
ENDBRANCH  26  27
ENDBRANCH   1  26
TORSDOF 22
ENDMDL
MODEL 3
REMARK VINA RESULT:     -10.5      4.247     10.472
REMARK SMILES COc1ccc(OCc2nc(C)no2)c(/C=C/C(=O)OCCOCCOCCOC(=O)c2ccc(-c3c4nc(c(-c5c(F)c(F)c(F)c(F)c5F)c5ccc([nH]5)c(-c5c(F)c(F)c(F)c(F)c5F)c5nc(c(-c6c(F)c(F)c(F)c(F)c6F)c6ccc3[nH]6)C=C5)C=C4)cc2)c1
REMARK SMILES IDX 24 1 23 2 22 3 21 4 20 5 18 6 19 7 17 8 16 9 15 10 3 11 4 12
REMARK SMILES IDX 95 13 5 14 6 15 2 16 1 17 7 18 8 19 9 20 10 21 14 22 11 23
REMARK SMILES IDX 13 24 12 25 25 26 26 27 27 28 28 29 29 30 30 31 31 32 32 33
REMARK SMILES IDX 33 34 94 35 34 36 93 37 35 38 36 39 37 40 87 41 38 42 92 43
REMARK SMILES IDX 86 44 88 45 39 46 91 47 85 48 84 49 40 51 72 52 52 53 71 54
REMARK SMILES IDX 53 55 56 56 70 57 89 58 54 59 55 60 69 62 90 63 57 64 41 65
REMARK SMILES IDX 42 66 50 67 43 68 44 69 48 70 51 71 45 72 46 73 49 74 47 75
REMARK SMILES IDX 73 76 74 77 82 78 75 79 76 80 80 81 83 82 77 83 78 84 81 85
REMARK SMILES IDX 79 86 58 87 59 88 67 89 60 90 61 91 65 92 68 93 62 94 63 95
REMARK SMILES IDX 66 96 64 97
REMARK H PARENT 88 50 56 61
REMARK Flexibility Score: inf
ROOT
ATOM      1  C   UNL A   1      36.642  23.354  25.156  1.00  0.00     0.188 C 
ENDROOT
BRANCH   1   2
ATOM      2  O   UNL A   1      36.040  23.691  23.918  1.00  0.00    -0.376 OA
BRANCH   2   3
ATOM      3  C   UNL A   1      34.616  23.677  23.794  1.00  0.00     0.202 C 
BRANCH   3   4
ATOM      4  C   UNL A   1      33.795  24.967  23.890  1.00  0.00     0.261 C 
BRANCH   4   5
ATOM      5  O   UNL A   1      32.703  24.953  22.968  1.00  0.00    -0.460 OA
BRANCH   5   6
ATOM      6  C   UNL A   1      32.934  25.657  21.837  1.00  0.00     0.330 C 
ATOM      7  O   UNL A   1      33.269  25.216  20.752  1.00  0.00    -0.247 OA
BRANCH   6   8
ATOM      8  C   UNL A   1      32.407  27.011  22.048  1.00  0.00     0.094 C 
ATOM      9  C   UNL A   1      31.144  27.266  22.402  1.00  0.00     0.019 C 
BRANCH   9  10
ATOM     10  C   UNL A   1      30.604  28.591  22.799  1.00  0.00     0.020 A 
ATOM     11  C   UNL A   1      28.857  30.242  22.351  1.00  0.00     0.119 A 
ATOM     12  C   UNL A   1      29.181  30.915  23.527  1.00  0.00     0.050 A 
ATOM     13  C   UNL A   1      29.584  29.108  21.979  1.00  0.00     0.058 A 
ATOM     14  C   UNL A   1      30.214  30.453  24.340  1.00  0.00     0.051 A 
ATOM     15  C   UNL A   1      30.910  29.289  23.989  1.00  0.00     0.127 A 
BRANCH  11  16
ATOM     16  O   UNL A   1      27.825  30.778  21.628  1.00  0.00    -0.497 OA
ATOM     17  C   UNL A   1      28.031  32.115  21.177  1.00  0.00     0.278 C 
ENDBRANCH  11  16
BRANCH  15  18
ATOM     18  O   UNL A   1      31.933  28.857  24.797  1.00  0.00    -0.483 OA
BRANCH  18  19
ATOM     19  C   UNL A   1      31.793  29.189  26.193  1.00  0.00     0.329 C 
BRANCH  19  20
ATOM     20  C   UNL A   1      33.099  29.542  26.811  1.00  0.00     0.264 A 
ATOM     21  N   UNL A   1      34.125  28.775  27.118  1.00  0.00    -0.193 NA
ATOM     22  O   UNL A   1      33.322  30.864  27.069  1.00  0.00    -0.336 OA
ATOM     23  C   UNL A   1      35.018  29.686  27.630  1.00  0.00     0.169 A 
ATOM     24  N   UNL A   1      34.590  30.954  27.633  1.00  0.00    -0.063 NA
ATOM     25  C   UNL A   1      36.379  29.329  28.065  1.00  0.00     0.093 C 
ENDBRANCH  19  20
ENDBRANCH  18  19
ENDBRANCH  15  18
ENDBRANCH   9  10
ENDBRANCH   6   8
ENDBRANCH   5   6
ENDBRANCH   4   5
ENDBRANCH   3   4
ENDBRANCH   2   3
ENDBRANCH   1   2
BRANCH   1  26
ATOM     26  C   UNL A   1      36.931  21.869  25.474  1.00  0.00     0.188 C 
BRANCH  26  27
ATOM     27  O   UNL A   1      37.376  20.972  24.479  1.00  0.00    -0.376 OA
BRANCH  27  28
ATOM     28  C   UNL A   1      37.834  19.683  24.855  1.00  0.00     0.202 C 
BRANCH  28  29
ATOM     29  C   UNL A   1      39.067  19.474  25.748  1.00  0.00     0.261 C 
BRANCH  29  30
ATOM     30  O   UNL A   1      39.953  20.595  25.861  1.00  0.00    -0.460 OA
BRANCH  30  31
ATOM     31  C   UNL A   1      40.716  20.598  26.982  1.00  0.00     0.338 C 
ATOM     32  O   UNL A   1      41.296  19.656  27.492  1.00  0.00    -0.246 OA
BRANCH  31  33
ATOM     33  C   UNL A   1      40.917  21.984  27.440  1.00  0.00     0.060 A 
ATOM     34  C   UNL A   1      40.192  22.999  26.802  1.00  0.00     0.016 A 
ATOM     35  C   UNL A   1      41.873  22.290  28.408  1.00  0.00     0.016 A 
ATOM     36  C   UNL A   1      40.443  24.334  27.109  1.00  0.00     0.010 A 
ATOM     37  C   UNL A   1      42.141  23.632  28.698  1.00  0.00     0.010 A 
ATOM     38  C   UNL A   1      41.451  24.658  28.026  1.00  0.00    -0.014 A 
BRANCH  38  39
ATOM     39  C   UNL A   1      41.905  26.064  28.135  1.00  0.00     0.031 A 
ATOM     40  C   UNL A   1      43.228  26.444  27.530  1.00  0.00     0.074 A 
ATOM     41  C   UNL A   1      41.140  26.995  28.731  1.00  0.00     0.049 A 
ATOM     42  N   UNL A   1      43.836  27.602  27.520  1.00  0.00    -0.248 NA
ATOM     43  C   UNL A   1      43.962  25.370  26.842  1.00  0.00     0.031 C 
ATOM     44  C   UNL A   1      39.823  26.759  29.317  1.00  0.00     0.029 A 
ATOM     45  N   UNL A   1      41.374  28.330  28.946  1.00  0.00    -0.354 N 
ATOM     46  C   UNL A   1      45.024  27.395  26.832  1.00  0.00     0.074 A 
ATOM     47  C   UNL A   1      45.065  25.997  26.462  1.00  0.00     0.031 C 
ATOM     48  C   UNL A   1      39.366  27.913  29.837  1.00  0.00     0.029 A 
ATOM     49  C   UNL A   1      40.373  28.957  29.644  1.00  0.00     0.049 A 
ATOM     50  H   UNL A   1      42.183  28.794  28.629  1.00  0.00     0.167 HD
ATOM     51  C   UNL A   1      45.993  28.293  26.530  1.00  0.00     0.037 A 
ATOM     52  C   UNL A   1      40.291  30.225  30.092  1.00  0.00     0.037 A 
ATOM     53  C   UNL A   1      45.954  29.683  26.899  1.00  0.00     0.049 A 
ATOM     54  C   UNL A   1      41.417  31.187  29.805  1.00  0.00     0.074 A 
ATOM     55  C   UNL A   1      46.877  30.676  26.620  1.00  0.00     0.029 A 
ATOM     56  N   UNL A   1      44.939  30.274  27.637  1.00  0.00    -0.354 N 
ATOM     57  N   UNL A   1      42.522  30.993  29.127  1.00  0.00    -0.248 NA
ATOM     58  C   UNL A   1      41.279  32.547  30.347  1.00  0.00     0.031 C 
ATOM     59  C   UNL A   1      46.445  31.857  27.234  1.00  0.00     0.029 A 
ATOM     60  C   UNL A   1      45.227  31.614  27.847  1.00  0.00     0.049 A 
ATOM     61  H   UNL A   1      44.134  29.811  27.964  1.00  0.00     0.167 HD
ATOM     62  C   UNL A   1      43.193  32.209  29.133  1.00  0.00     0.074 A 
ATOM     63  C   UNL A   1      42.365  33.139  29.871  1.00  0.00     0.031 C 
ATOM     64  C   UNL A   1      44.388  32.529  28.576  1.00  0.00     0.037 A 
BRANCH  51  65
ATOM     65  C   UNL A   1      47.193  27.789  25.785  1.00  0.00     0.064 A 
ATOM     66  C   UNL A   1      48.297  27.235  26.451  1.00  0.00     0.173 A 
ATOM     67  C   UNL A   1      47.224  27.830  24.383  1.00  0.00     0.173 A 
ATOM     68  F   UNL A   1      48.322  27.187  27.791  1.00  0.00    -0.203 F 
ATOM     69  C   UNL A   1      49.398  26.764  25.741  1.00  0.00     0.198 A 
ATOM     70  C   UNL A   1      48.314  27.332  23.676  1.00  0.00     0.198 A 
ATOM     71  F   UNL A   1      46.192  28.347  23.699  1.00  0.00    -0.203 F 
ATOM     72  F   UNL A   1      50.460  26.279  26.398  1.00  0.00    -0.200 F 
ATOM     73  C   UNL A   1      49.403  26.806  24.354  1.00  0.00     0.200 A 
ATOM     74  F   UNL A   1      48.313  27.362  22.335  1.00  0.00    -0.200 F 
ATOM     75  F   UNL A   1      50.460  26.344  23.672  1.00  0.00    -0.200 F 
ENDBRANCH  51  65
BRANCH  52  76
ATOM     76  C   UNL A   1      39.103  30.667  30.867  1.00  0.00     0.064 A 
ATOM     77  C   UNL A   1      38.087  31.421  30.265  1.00  0.00     0.173 A 
ATOM     78  C   UNL A   1      38.977  30.375  32.234  1.00  0.00     0.173 A 
ATOM     79  F   UNL A   1      38.177  31.749  28.968  1.00  0.00    -0.203 F 
ATOM     80  C   UNL A   1      37.001  31.886  31.004  1.00  0.00     0.198 A 
ATOM     81  C   UNL A   1      37.876  30.816  32.966  1.00  0.00     0.198 A 
ATOM     82  F   UNL A   1      39.924  29.661  32.859  1.00  0.00    -0.203 F 
ATOM     83  F   UNL A   1      36.070  32.649  30.415  1.00  0.00    -0.200 F 
ATOM     84  C   UNL A   1      36.894  31.578  32.352  1.00  0.00     0.200 A 
ATOM     85  F   UNL A   1      37.771  30.509  34.265  1.00  0.00    -0.200 F 
ATOM     86  F   UNL A   1      35.850  32.027  33.062  1.00  0.00    -0.200 F 
ENDBRANCH  52  76
BRANCH  64  87
ATOM     87  C   UNL A   1      44.853  33.952  28.708  1.00  0.00     0.064 A 
ATOM     88  C   UNL A   1      45.689  34.361  29.758  1.00  0.00     0.173 A 
ATOM     89  C   UNL A   1      44.481  34.910  27.753  1.00  0.00     0.173 A 
ATOM     90  F   UNL A   1      46.061  33.487  30.705  1.00  0.00    -0.203 F 
ATOM     91  C   UNL A   1      46.111  35.685  29.862  1.00  0.00     0.198 A 
ATOM     92  C   UNL A   1      44.931  36.225  27.843  1.00  0.00     0.198 A 
ATOM     93  F   UNL A   1      43.690  34.570  26.725  1.00  0.00    -0.203 F 
ATOM     94  F   UNL A   1      46.868  36.064  30.901  1.00  0.00    -0.200 F 
ATOM     95  C   UNL A   1      45.738  36.612  28.901  1.00  0.00     0.200 A 
ATOM     96  F   UNL A   1      44.581  37.117  26.906  1.00  0.00    -0.200 F 
ATOM     97  F   UNL A   1      46.149  37.885  29.001  1.00  0.00    -0.200 F 
ENDBRANCH  64  87
ENDBRANCH  38  39
ENDBRANCH  31  33
ENDBRANCH  30  31
ENDBRANCH  29  30
ENDBRANCH  28  29
ENDBRANCH  27  28
ENDBRANCH  26  27
ENDBRANCH   1  26
TORSDOF 22
ENDMDL
