MODEL 1
REMARK VINA RESULT:     -11.6      0.000      0.000
REMARK SMILES CCCc1cc(S(F)(F)(F)(F)F)cc2c1O[C@@H](C(F)(F)F)C(C(=O)OCCOCCOCCOC(=O)c1ccc(-c3c4nc(c(-c5c(F)c(F)c(F)c(F)c5F)c5ccc([nH]5)c(-c5c(F)c(F)c(F)c(F)c5F)c5nc(c(-c6c(F)c(F)c(F)c(F)c6F)c6ccc3[nH]6)C=C5)C=C4)cc1)=C2
REMARK SMILES IDX 29 1 28 2 27 3 26 4 25 5 23 6 24 7 22 8 4 9 5 10 15 11 6 12
REMARK SMILES IDX 14 13 16 14 13 15 100 16 17 17 3 18 2 19 1 20 7 21 8 22 9 23
REMARK SMILES IDX 10 24 11 25 12 26 18 27 19 28 20 29 21 30 30 31 31 32 32 33
REMARK SMILES IDX 33 34 34 35 35 36 36 37 37 38 38 39 99 40 39 41 98 42 40 43
REMARK SMILES IDX 41 44 42 45 92 46 43 47 97 48 91 49 93 50 44 51 96 52 90 53
REMARK SMILES IDX 89 54 45 56 77 57 57 58 76 59 58 60 61 61 75 62 94 63 59 64
REMARK SMILES IDX 60 65 74 67 95 68 62 69 46 70 47 71 55 72 48 73 49 74 53 75
REMARK SMILES IDX 56 76 50 77 51 78 54 79 52 80 78 81 79 82 87 83 80 84 81 85
REMARK SMILES IDX 85 86 88 87 82 88 83 89 86 90 84 91 63 92 64 93 72 94 65 95
REMARK SMILES IDX 66 96 70 97 73 98 67 99 68 100 71 101 69 102
REMARK H PARENT 93 55 61 66
REMARK Flexibility Score: inf
ROOT
ATOM      1  C   UNL A   1      40.084  21.829  26.623  1.00  0.00     0.188 C 
ENDROOT
BRANCH   1   2
ATOM      2  O   UNL A   1      39.123  21.077  25.896  1.00  0.00    -0.376 OA
BRANCH   2   3
ATOM      3  C   UNL A   1      38.132  21.951  25.375  1.00  0.00     0.202 C 
BRANCH   3   4
ATOM      4  C   UNL A   1      36.799  21.225  25.311  1.00  0.00     0.261 C 
BRANCH   4   5
ATOM      5  O   UNL A   1      35.780  22.138  24.931  1.00  0.00    -0.460 OA
BRANCH   5   6
ATOM      6  C   UNL A   1      34.550  22.166  25.639  1.00  0.00     0.338 C 
ATOM      7  O   UNL A   1      34.248  21.213  26.425  1.00  0.00    -0.246 OA
BRANCH   6   8
ATOM      8  C   UNL A   1      33.595  23.333  25.458  1.00  0.00     0.087 C 
ATOM      9  C   UNL A   1      31.165  26.590  24.488  1.00  0.00    -0.004 A 
ATOM     10  C   UNL A   1      31.340  27.799  25.137  1.00  0.00     0.032 A 
ATOM     11  C   UNL A   1      32.012  25.551  24.788  1.00  0.00     0.131 A 
ATOM     12  C   UNL A   1      32.340  27.965  26.059  1.00  0.00     0.108 A 
ATOM     13  C   UNL A   1      33.020  25.677  25.726  1.00  0.00     0.019 A 
ATOM     14  O   UNL A   1      31.900  24.395  24.054  1.00  0.00    -0.475 OA
ATOM     15  C   UNL A   1      33.172  26.907  26.358  1.00  0.00     0.036 A 
ATOM     16  C   UNL A   1      33.889  24.533  25.945  1.00  0.00     0.027 C 
ATOM     17  C   UNL A   1      32.279  23.154  24.712  1.00  0.00     0.316 C 
BRANCH   9  18
ATOM     18  C   UNL A   1      30.131  26.547  23.375  1.00  0.00     0.039 C 
BRANCH  18  19
ATOM     19  C   UNL A   1      29.954  27.940  22.794  1.00  0.00     0.001 C 
ATOM     20  C   UNL A   1      28.528  28.411  23.035  1.00  0.00     0.004 C 
ENDBRANCH  18  19
ENDBRANCH   9  18
BRANCH  12  21
ATOM     21  S   UNL A   1      32.565  29.563  26.880  1.00  0.00     0.310 S 
ATOM     22  F   UNL A   1      31.509  30.364  26.011  1.00  0.00    -0.094 F 
ATOM     23  F   UNL A   1      33.621  29.867  25.751  1.00  0.00    -0.094 F 
ATOM     24  F   UNL A   1      32.902  30.902  27.595  1.00  0.00    -0.094 F 
ATOM     25  F   UNL A   1      31.407  29.306  27.922  1.00  0.00    -0.094 F 
ATOM     26  F   UNL A   1      32.135  28.255  26.103  1.00  0.00    -0.094 F 
ENDBRANCH  12  21
BRANCH  17  27
ATOM     27  C   UNL A   1      32.448  22.068  23.661  1.00  0.00     0.430 C 
ATOM     28  F   UNL A   1      32.376  20.874  24.242  1.00  0.00    -0.167 F 
ATOM     29  F   UNL A   1      31.484  22.177  22.751  1.00  0.00    -0.167 F 
ATOM     30  F   UNL A   1      33.632  22.204  23.070  1.00  0.00    -0.167 F 
ENDBRANCH  17  27
ENDBRANCH   6   8
ENDBRANCH   5   6
ENDBRANCH   4   5
ENDBRANCH   3   4
ENDBRANCH   2   3
ENDBRANCH   1   2
BRANCH   1  31
ATOM     31  C   UNL A   1      41.480  21.454  26.155  1.00  0.00     0.188 C 
BRANCH  31  32
ATOM     32  O   UNL A   1      41.480  20.112  25.692  1.00  0.00    -0.376 OA
BRANCH  32  33
ATOM     33  C   UNL A   1      42.251  19.307  26.573  1.00  0.00     0.202 C 
BRANCH  33  34
ATOM     34  C   UNL A   1      43.085  18.326  25.766  1.00  0.00     0.261 C 
BRANCH  34  35
ATOM     35  O   UNL A   1      43.398  18.897  24.505  1.00  0.00    -0.460 OA
BRANCH  35  36
ATOM     36  C   UNL A   1      44.648  19.543  24.309  1.00  0.00     0.338 C 
ATOM     37  O   UNL A   1      45.584  18.943  23.693  1.00  0.00    -0.246 OA
BRANCH  36  38
ATOM     38  C   UNL A   1      44.866  20.952  24.834  1.00  0.00     0.060 A 
ATOM     39  C   UNL A   1      45.398  21.167  26.095  1.00  0.00     0.016 A 
ATOM     40  C   UNL A   1      44.543  21.967  24.041  1.00  0.00     0.016 A 
ATOM     41  C   UNL A   1      45.281  22.503  26.546  1.00  0.00     0.010 A 
ATOM     42  C   UNL A   1      44.582  23.259  24.507  1.00  0.00     0.010 A 
ATOM     43  C   UNL A   1      45.040  23.540  25.764  1.00  0.00    -0.014 A 
BRANCH  43  44
ATOM     44  C   UNL A   1      45.260  24.968  26.236  1.00  0.00     0.031 A 
ATOM     45  C   UNL A   1      44.141  25.672  26.683  1.00  0.00     0.074 A 
ATOM     46  C   UNL A   1      46.528  25.514  26.133  1.00  0.00     0.049 A 
ATOM     47  N   UNL A   1      44.090  26.935  27.109  1.00  0.00    -0.248 NA
ATOM     48  C   UNL A   1      42.787  25.103  26.761  1.00  0.00     0.031 C 
ATOM     49  C   UNL A   1      47.664  24.809  25.692  1.00  0.00     0.029 A 
ATOM     50  N   UNL A   1      46.920  26.802  26.427  1.00  0.00    -0.354 N 
ATOM     51  C   UNL A   1      42.845  27.249  27.473  1.00  0.00     0.074 A 
ATOM     52  C   UNL A   1      41.988  26.078  27.249  1.00  0.00     0.031 C 
ATOM     53  C   UNL A   1      48.722  25.661  25.708  1.00  0.00     0.029 A 
ATOM     54  C   UNL A   1      48.267  26.913  26.161  1.00  0.00     0.049 A 
ATOM     55  H   UNL A   1      46.338  27.518  26.770  1.00  0.00     0.167 HD
ATOM     56  C   UNL A   1      42.393  28.466  27.986  1.00  0.00     0.037 A 
ATOM     57  C   UNL A   1      49.069  28.034  26.297  1.00  0.00     0.037 A 
ATOM     58  C   UNL A   1      43.204  29.574  28.163  1.00  0.00     0.049 A 
ATOM     59  C   UNL A   1      48.603  29.270  26.755  1.00  0.00     0.074 A 
ATOM     60  C   UNL A   1      42.766  30.807  28.685  1.00  0.00     0.029 A 
ATOM     61  N   UNL A   1      44.545  29.694  27.873  1.00  0.00    -0.354 N 
ATOM     62  N   UNL A   1      47.367  29.572  27.157  1.00  0.00    -0.248 NA
ATOM     63  C   UNL A   1      49.436  30.474  26.872  1.00  0.00     0.031 C 
ATOM     64  C   UNL A   1      43.825  31.659  28.702  1.00  0.00     0.029 A 
ATOM     65  C   UNL A   1      44.942  30.974  28.188  1.00  0.00     0.049 A 
ATOM     66  H   UNL A   1      45.122  28.985  27.504  1.00  0.00     0.167 HD
ATOM     67  C   UNL A   1      47.309  30.848  27.543  1.00  0.00     0.074 A 
ATOM     68  C   UNL A   1      48.637  31.448  27.358  1.00  0.00     0.031 C 
ATOM     69  C   UNL A   1      46.202  31.534  28.045  1.00  0.00     0.037 A 
BRANCH  56  70
ATOM     70  C   UNL A   1      40.927  28.581  28.371  1.00  0.00     0.064 A 
ATOM     71  C   UNL A   1      40.037  29.023  27.405  1.00  0.00     0.173 A 
ATOM     72  C   UNL A   1      40.509  28.217  29.576  1.00  0.00     0.173 A 
ATOM     73  F   UNL A   1      40.364  29.155  26.122  1.00  0.00    -0.203 F 
ATOM     74  C   UNL A   1      38.748  29.322  27.906  1.00  0.00     0.198 A 
ATOM     75  C   UNL A   1      39.202  28.414  29.954  1.00  0.00     0.198 A 
ATOM     76  F   UNL A   1      41.363  27.657  30.428  1.00  0.00    -0.203 F 
ATOM     77  F   UNL A   1      37.952  30.077  27.155  1.00  0.00    -0.200 F 
ATOM     78  C   UNL A   1      38.281  28.903  29.068  1.00  0.00     0.200 A 
ATOM     79  F   UNL A   1      38.828  28.125  31.196  1.00  0.00    -0.200 F 
ATOM     80  F   UNL A   1      36.985  28.954  29.362  1.00  0.00    -0.200 F 
ENDBRANCH  56  70
BRANCH  57  81
ATOM     81  C   UNL A   1      50.538  27.914  25.927  1.00  0.00     0.064 A 
ATOM     82  C   UNL A   1      50.882  27.932  24.586  1.00  0.00     0.173 A 
ATOM     83  C   UNL A   1      51.456  27.741  26.871  1.00  0.00     0.173 A 
ATOM     84  F   UNL A   1      50.055  28.349  23.630  1.00  0.00    -0.203 F 
ATOM     85  C   UNL A   1      52.192  27.467  24.323  1.00  0.00     0.198 A 
ATOM     86  C   UNL A   1      52.749  27.420  26.538  1.00  0.00     0.198 A 
ATOM     87  F   UNL A   1      51.119  27.878  28.151  1.00  0.00    -0.203 F 
ATOM     88  F   UNL A   1      52.483  27.108  23.076  1.00  0.00    -0.200 F 
ATOM     89  C   UNL A   1      53.146  27.362  25.230  1.00  0.00     0.200 A 
ATOM     90  F   UNL A   1      53.630  27.162  27.501  1.00  0.00    -0.200 F 
ATOM     91  F   UNL A   1      54.423  27.208  24.891  1.00  0.00    -0.200 F 
ENDBRANCH  57  81
BRANCH  69  92
ATOM     92  C   UNL A   1      46.390  32.985  28.460  1.00  0.00     0.064 A 
ATOM     93  C   UNL A   1      46.820  33.348  29.726  1.00  0.00     0.173 A 
ATOM     94  C   UNL A   1      46.173  33.895  27.518  1.00  0.00     0.173 A 
ATOM     95  F   UNL A   1      47.290  32.474  30.611  1.00  0.00    -0.203 F 
ATOM     96  C   UNL A   1      46.713  34.734  29.991  1.00  0.00     0.198 A 
ATOM     97  C   UNL A   1      46.218  35.235  27.818  1.00  0.00     0.198 A 
ATOM     98  F   UNL A   1      45.908  33.507  26.274  1.00  0.00    -0.203 F 
ATOM     99  F   UNL A   1      46.753  35.125  31.262  1.00  0.00    -0.200 F 
ATOM    100  C   UNL A   1      46.578  35.666  29.065  1.00  0.00     0.200 A 
ATOM    101  F   UNL A   1      45.908  36.127  26.881  1.00  0.00    -0.200 F 
ATOM    102  F   UNL A   1      46.778  36.953  29.332  1.00  0.00    -0.200 F 
ENDBRANCH  69  92
ENDBRANCH  43  44
ENDBRANCH  36  38
ENDBRANCH  35  36
ENDBRANCH  34  35
ENDBRANCH  33  34
ENDBRANCH  32  33
ENDBRANCH  31  32
ENDBRANCH   1  31
TORSDOF 21
ENDMDL
MODEL 2
REMARK VINA RESULT:     -11.4      0.480      6.921
REMARK SMILES CCCc1cc(S(F)(F)(F)(F)F)cc2c1O[C@@H](C(F)(F)F)C(C(=O)OCCOCCOCCOC(=O)c1ccc(-c3c4nc(c(-c5c(F)c(F)c(F)c(F)c5F)c5ccc([nH]5)c(-c5c(F)c(F)c(F)c(F)c5F)c5nc(c(-c6c(F)c(F)c(F)c(F)c6F)c6ccc3[nH]6)C=C5)C=C4)cc1)=C2
REMARK SMILES IDX 29 1 28 2 27 3 26 4 25 5 23 6 24 7 22 8 4 9 5 10 15 11 6 12
REMARK SMILES IDX 14 13 16 14 13 15 100 16 17 17 3 18 2 19 1 20 7 21 8 22 9 23
REMARK SMILES IDX 10 24 11 25 12 26 18 27 19 28 20 29 21 30 30 31 31 32 32 33
REMARK SMILES IDX 33 34 34 35 35 36 36 37 37 38 38 39 99 40 39 41 98 42 40 43
REMARK SMILES IDX 41 44 42 45 92 46 43 47 97 48 91 49 93 50 44 51 96 52 90 53
REMARK SMILES IDX 89 54 45 56 77 57 57 58 76 59 58 60 61 61 75 62 94 63 59 64
REMARK SMILES IDX 60 65 74 67 95 68 62 69 46 70 47 71 55 72 48 73 49 74 53 75
REMARK SMILES IDX 56 76 50 77 51 78 54 79 52 80 78 81 79 82 87 83 80 84 81 85
REMARK SMILES IDX 85 86 88 87 82 88 83 89 86 90 84 91 63 92 64 93 72 94 65 95
REMARK SMILES IDX 66 96 70 97 73 98 67 99 68 100 71 101 69 102
REMARK H PARENT 93 55 61 66
REMARK Flexibility Score: inf
ROOT
ATOM      1  C   UNL A   1      40.042  21.866  26.571  1.00  0.00     0.188 C 
ENDROOT
BRANCH   1   2
ATOM      2  O   UNL A   1      39.106  21.055  25.875  1.00  0.00    -0.376 OA
BRANCH   2   3
ATOM      3  C   UNL A   1      38.176  21.884  25.194  1.00  0.00     0.202 C 
BRANCH   3   4
ATOM      4  C   UNL A   1      36.790  21.263  25.274  1.00  0.00     0.261 C 
BRANCH   4   5
ATOM      5  O   UNL A   1      35.812  22.251  24.987  1.00  0.00    -0.460 OA
BRANCH   5   6
ATOM      6  C   UNL A   1      34.612  22.303  25.745  1.00  0.00     0.338 C 
ATOM      7  O   UNL A   1      34.359  21.394  26.597  1.00  0.00    -0.246 OA
BRANCH   6   8
ATOM      8  C   UNL A   1      33.631  23.444  25.536  1.00  0.00     0.087 C 
ATOM      9  C   UNL A   1      31.121  26.614  24.488  1.00  0.00    -0.004 A 
ATOM     10  C   UNL A   1      31.281  27.849  25.090  1.00  0.00     0.032 A 
ATOM     11  C   UNL A   1      31.993  25.604  24.812  1.00  0.00     0.131 A 
ATOM     12  C   UNL A   1      32.291  28.069  25.988  1.00  0.00     0.108 A 
ATOM     13  C   UNL A   1      33.013  25.784  25.728  1.00  0.00     0.019 A 
ATOM     14  O   UNL A   1      31.892  24.420  24.123  1.00  0.00    -0.475 OA
ATOM     15  C   UNL A   1      33.149  27.039  26.312  1.00  0.00     0.036 A 
ATOM     16  C   UNL A   1      33.908  24.666  25.974  1.00  0.00     0.027 C 
ATOM     17  C   UNL A   1      32.307  23.211  24.820  1.00  0.00     0.316 C 
BRANCH   9  18
ATOM     18  C   UNL A   1      30.070  26.510  23.394  1.00  0.00     0.039 C 
BRANCH  18  19
ATOM     19  C   UNL A   1      29.536  27.895  23.070  1.00  0.00     0.001 C 
ATOM     20  C   UNL A   1      28.032  27.923  23.295  1.00  0.00     0.004 C 
ENDBRANCH  18  19
ENDBRANCH   9  18
BRANCH  12  21
ATOM     21  S   UNL A   1      32.497  29.700  26.747  1.00  0.00     0.310 S 
ATOM     22  F   UNL A   1      31.401  30.445  25.875  1.00  0.00    -0.094 F 
ATOM     23  F   UNL A   1      33.519  29.988  25.582  1.00  0.00    -0.094 F 
ATOM     24  F   UNL A   1      32.818  31.071  27.405  1.00  0.00    -0.094 F 
ATOM     25  F   UNL A   1      31.371  29.454  27.825  1.00  0.00    -0.094 F 
ATOM     26  F   UNL A   1      32.081  28.356  26.027  1.00  0.00    -0.094 F 
ENDBRANCH  12  21
BRANCH  17  27
ATOM     27  C   UNL A   1      32.481  22.090  23.807  1.00  0.00     0.430 C 
ATOM     28  F   UNL A   1      33.673  22.197  23.228  1.00  0.00    -0.167 F 
ATOM     29  F   UNL A   1      32.391  20.916  24.425  1.00  0.00    -0.167 F 
ATOM     30  F   UNL A   1      31.529  22.178  22.881  1.00  0.00    -0.167 F 
ENDBRANCH  17  27
ENDBRANCH   6   8
ENDBRANCH   5   6
ENDBRANCH   4   5
ENDBRANCH   3   4
ENDBRANCH   2   3
ENDBRANCH   1   2
BRANCH   1  31
ATOM     31  C   UNL A   1      41.452  21.495  26.142  1.00  0.00     0.188 C 
BRANCH  31  32
ATOM     32  O   UNL A   1      41.469  20.150  25.688  1.00  0.00    -0.376 OA
BRANCH  32  33
ATOM     33  C   UNL A   1      42.235  19.358  26.585  1.00  0.00     0.202 C 
BRANCH  33  34
ATOM     34  C   UNL A   1      43.116  18.404  25.795  1.00  0.00     0.261 C 
BRANCH  34  35
ATOM     35  O   UNL A   1      43.461  18.999  24.552  1.00  0.00    -0.460 OA
BRANCH  35  36
ATOM     36  C   UNL A   1      44.712  19.656  24.402  1.00  0.00     0.338 C 
ATOM     37  O   UNL A   1      45.708  19.023  23.929  1.00  0.00    -0.246 OA
BRANCH  36  38
ATOM     38  C   UNL A   1      44.859  21.113  24.806  1.00  0.00     0.060 A 
ATOM     39  C   UNL A   1      44.534  22.131  23.925  1.00  0.00     0.016 A 
ATOM     40  C   UNL A   1      45.294  21.376  26.032  1.00  0.00     0.016 A 
ATOM     41  C   UNL A   1      44.982  23.409  24.336  1.00  0.00     0.010 A 
ATOM     42  C   UNL A   1      45.583  22.665  26.411  1.00  0.00     0.010 A 
ATOM     43  C   UNL A   1      45.344  23.715  25.569  1.00  0.00    -0.014 A 
BRANCH  43  44
ATOM     44  C   UNL A   1      45.486  25.157  26.028  1.00  0.00     0.031 A 
ATOM     45  C   UNL A   1      46.765  25.716  25.988  1.00  0.00     0.074 A 
ATOM     46  C   UNL A   1      44.371  25.811  26.522  1.00  0.00     0.049 A 
ATOM     47  N   UNL A   1      47.130  26.941  26.369  1.00  0.00    -0.248 NA
ATOM     48  C   UNL A   1      47.958  25.011  25.495  1.00  0.00     0.031 C 
ATOM     49  C   UNL A   1      43.076  25.258  26.558  1.00  0.00     0.029 A 
ATOM     50  N   UNL A   1      44.302  27.079  27.057  1.00  0.00    -0.354 N 
ATOM     51  C   UNL A   1      48.436  27.118  26.161  1.00  0.00     0.074 A 
ATOM     52  C   UNL A   1      48.988  25.878  25.602  1.00  0.00     0.031 C 
ATOM     53  C   UNL A   1      42.242  26.173  27.117  1.00  0.00     0.029 A 
ATOM     54  C   UNL A   1      43.000  27.315  27.438  1.00  0.00     0.049 A 
ATOM     55  H   UNL A   1      45.054  27.708  27.150  1.00  0.00     0.167 HD
ATOM     56  C   UNL A   1      49.188  28.267  26.414  1.00  0.00     0.037 A 
ATOM     57  C   UNL A   1      42.484  28.453  28.036  1.00  0.00     0.037 A 
ATOM     58  C   UNL A   1      48.663  29.421  26.972  1.00  0.00     0.049 A 
ATOM     59  C   UNL A   1      43.248  29.582  28.343  1.00  0.00     0.074 A 
ATOM     60  C   UNL A   1      49.404  30.591  27.228  1.00  0.00     0.029 A 
ATOM     61  N   UNL A   1      47.366  29.649  27.377  1.00  0.00    -0.354 N 
ATOM     62  N   UNL A   1      44.546  29.773  28.099  1.00  0.00    -0.248 NA
ATOM     63  C   UNL A   1      42.719  30.781  29.007  1.00  0.00     0.031 C 
ATOM     64  C   UNL A   1      48.569  31.507  27.786  1.00  0.00     0.029 A 
ATOM     65  C   UNL A   1      47.292  30.924  27.890  1.00  0.00     0.049 A 
ATOM     66  H   UNL A   1      46.620  29.009  27.311  1.00  0.00     0.167 HD
ATOM     67  C   UNL A   1      44.918  30.984  28.519  1.00  0.00     0.074 A 
ATOM     68  C   UNL A   1      43.750  31.647  29.116  1.00  0.00     0.031 C 
ATOM     69  C   UNL A   1      46.185  31.564  28.426  1.00  0.00     0.037 A 
BRANCH  56  70
ATOM     70  C   UNL A   1      50.665  28.250  26.059  1.00  0.00     0.064 A 
ATOM     71  C   UNL A   1      51.575  28.046  27.083  1.00  0.00     0.173 A 
ATOM     72  C   UNL A   1      51.064  28.373  24.799  1.00  0.00     0.173 A 
ATOM     73  F   UNL A   1      51.217  27.668  28.308  1.00  0.00    -0.203 F 
ATOM     74  C   UNL A   1      52.921  28.276  26.710  1.00  0.00     0.198 A 
ATOM     75  C   UNL A   1      52.401  28.456  24.492  1.00  0.00     0.198 A 
ATOM     76  F   UNL A   1      50.160  28.417  23.824  1.00  0.00    -0.203 F 
ATOM     77  F   UNL A   1      53.810  28.457  27.682  1.00  0.00    -0.200 F 
ATOM     78  C   UNL A   1      53.354  28.322  25.464  1.00  0.00     0.200 A 
ATOM     79  F   UNL A   1      52.773  28.670  23.234  1.00  0.00    -0.200 F 
ATOM     80  F   UNL A   1      54.649  28.241  25.169  1.00  0.00    -0.200 F 
ENDBRANCH  56  70
BRANCH  57  81
ATOM     81  C   UNL A   1      41.003  28.476  28.377  1.00  0.00     0.064 A 
ATOM     82  C   UNL A   1      40.121  28.994  27.443  1.00  0.00     0.173 A 
ATOM     83  C   UNL A   1      40.581  28.058  29.564  1.00  0.00     0.173 A 
ATOM     84  F   UNL A   1      40.445  29.187  26.168  1.00  0.00    -0.203 F 
ATOM     85  C   UNL A   1      38.843  29.300  27.969  1.00  0.00     0.198 A 
ATOM     86  C   UNL A   1      39.283  28.270  29.960  1.00  0.00     0.198 A 
ATOM     87  F   UNL A   1      41.424  27.429  30.380  1.00  0.00    -0.203 F 
ATOM     88  F   UNL A   1      38.064  30.118  27.266  1.00  0.00    -0.200 F 
ATOM     89  C   UNL A   1      38.371  28.832  29.110  1.00  0.00     0.200 A 
ATOM     90  F   UNL A   1      38.907  27.925  31.188  1.00  0.00    -0.200 F 
ATOM     91  F   UNL A   1      37.078  28.903  29.415  1.00  0.00    -0.200 F 
ENDBRANCH  57  81
BRANCH  69  92
ATOM     92  C   UNL A   1      46.359  32.983  28.941  1.00  0.00     0.064 A 
ATOM     93  C   UNL A   1      46.100  34.097  28.159  1.00  0.00     0.173 A 
ATOM     94  C   UNL A   1      46.724  33.103  30.212  1.00  0.00     0.173 A 
ATOM     95  F   UNL A   1      45.496  34.029  26.976  1.00  0.00    -0.203 F 
ATOM     96  C   UNL A   1      46.538  35.314  28.733  1.00  0.00     0.198 A 
ATOM     97  C   UNL A   1      47.005  34.338  30.745  1.00  0.00     0.198 A 
ATOM     98  F   UNL A   1      46.818  32.019  30.976  1.00  0.00    -0.203 F 
ATOM     99  F   UNL A   1      46.664  36.367  27.930  1.00  0.00    -0.200 F 
ATOM    100  C   UNL A   1      46.829  35.478  30.011  1.00  0.00     0.200 A 
ATOM    101  F   UNL A   1      47.456  34.425  31.994  1.00  0.00    -0.200 F 
ATOM    102  F   UNL A   1      46.945  36.687  30.555  1.00  0.00    -0.200 F 
ENDBRANCH  69  92
ENDBRANCH  43  44
ENDBRANCH  36  38
ENDBRANCH  35  36
ENDBRANCH  34  35
ENDBRANCH  33  34
ENDBRANCH  32  33
ENDBRANCH  31  32
ENDBRANCH   1  31
TORSDOF 21
ENDMDL
MODEL 3
REMARK VINA RESULT:     -11.4      6.690     11.982
REMARK SMILES CCCc1cc(S(F)(F)(F)(F)F)cc2c1O[C@@H](C(F)(F)F)C(C(=O)OCCOCCOCCOC(=O)c1ccc(-c3c4nc(c(-c5c(F)c(F)c(F)c(F)c5F)c5ccc([nH]5)c(-c5c(F)c(F)c(F)c(F)c5F)c5nc(c(-c6c(F)c(F)c(F)c(F)c6F)c6ccc3[nH]6)C=C5)C=C4)cc1)=C2
REMARK SMILES IDX 29 1 28 2 27 3 26 4 25 5 23 6 24 7 22 8 4 9 5 10 15 11 6 12
REMARK SMILES IDX 14 13 16 14 13 15 100 16 17 17 3 18 2 19 1 20 7 21 8 22 9 23
REMARK SMILES IDX 10 24 11 25 12 26 18 27 19 28 20 29 21 30 30 31 31 32 32 33
REMARK SMILES IDX 33 34 34 35 35 36 36 37 37 38 38 39 99 40 39 41 98 42 40 43
REMARK SMILES IDX 41 44 42 45 92 46 43 47 97 48 91 49 93 50 44 51 96 52 90 53
REMARK SMILES IDX 89 54 45 56 77 57 57 58 76 59 58 60 61 61 75 62 94 63 59 64
REMARK SMILES IDX 60 65 74 67 95 68 62 69 46 70 47 71 55 72 48 73 49 74 53 75
REMARK SMILES IDX 56 76 50 77 51 78 54 79 52 80 78 81 79 82 87 83 80 84 81 85
REMARK SMILES IDX 85 86 88 87 82 88 83 89 86 90 84 91 63 92 64 93 72 94 65 95
REMARK SMILES IDX 66 96 70 97 73 98 67 99 68 100 71 101 69 102
REMARK H PARENT 93 55 61 66
REMARK Flexibility Score: inf
ROOT
ATOM      1  C   UNL A   1      34.440  32.670  28.959  1.00  0.00     0.188 C 
ENDROOT
BRANCH   1   2
ATOM      2  O   UNL A   1      34.452  31.908  27.759  1.00  0.00    -0.376 OA
BRANCH   2   3
ATOM      3  C   UNL A   1      35.533  30.988  27.794  1.00  0.00     0.202 C 
BRANCH   3   4
ATOM      4  C   UNL A   1      35.034  29.606  27.405  1.00  0.00     0.261 C 
BRANCH   4   5
ATOM      5  O   UNL A   1      33.629  29.647  27.209  1.00  0.00    -0.460 OA
BRANCH   5   6
ATOM      6  C   UNL A   1      32.891  28.439  27.098  1.00  0.00     0.338 C 
ATOM      7  O   UNL A   1      31.988  28.166  27.950  1.00  0.00    -0.246 OA
BRANCH   6   8
ATOM      8  C   UNL A   1      33.180  27.474  25.961  1.00  0.00     0.087 C 
ATOM      9  C   UNL A   1      33.520  24.608  22.941  1.00  0.00    -0.004 A 
ATOM     10  C   UNL A   1      34.478  23.615  23.036  1.00  0.00     0.032 A 
ATOM     11  C   UNL A   1      33.394  25.505  23.973  1.00  0.00     0.131 A 
ATOM     12  C   UNL A   1      35.287  23.521  24.138  1.00  0.00     0.108 A 
ATOM     13  C   UNL A   1      34.205  25.452  25.092  1.00  0.00     0.019 A 
ATOM     14  O   UNL A   1      32.365  26.413  23.917  1.00  0.00    -0.475 OA
ATOM     15  C   UNL A   1      35.156  24.439  25.159  1.00  0.00     0.036 A 
ATOM     16  C   UNL A   1      33.968  26.422  26.148  1.00  0.00     0.027 C 
ATOM     17  C   UNL A   1      32.570  27.691  24.582  1.00  0.00     0.316 C 
BRANCH   9  18
ATOM     18  C   UNL A   1      32.571  24.540  21.756  1.00  0.00     0.039 C 
BRANCH  18  19
ATOM     19  C   UNL A   1      32.796  25.746  20.858  1.00  0.00     0.001 C 
ATOM     20  C   UNL A   1      32.423  25.388  19.428  1.00  0.00     0.004 C 
ENDBRANCH  18  19
ENDBRANCH   9  18
BRANCH  12  21
ATOM     21  S   UNL A   1      36.519  22.199  24.253  1.00  0.00     0.310 S 
ATOM     22  F   UNL A   1      37.624  23.048  25.012  1.00  0.00    -0.094 F 
ATOM     23  F   UNL A   1      37.099  22.777  22.907  1.00  0.00    -0.094 F 
ATOM     24  F   UNL A   1      37.534  21.022  24.218  1.00  0.00    -0.094 F 
ATOM     25  F   UNL A   1      36.019  21.716  25.671  1.00  0.00    -0.094 F 
ATOM     26  F   UNL A   1      35.560  23.452  24.358  1.00  0.00    -0.094 F 
ENDBRANCH  12  21
BRANCH  17  27
ATOM     27  C   UNL A   1      31.230  28.391  24.737  1.00  0.00     0.430 C 
ATOM     28  F   UNL A   1      31.419  29.606  25.243  1.00  0.00    -0.167 F 
ATOM     29  F   UNL A   1      30.642  28.492  23.548  1.00  0.00    -0.167 F 
ATOM     30  F   UNL A   1      30.454  27.686  25.556  1.00  0.00    -0.167 F 
ENDBRANCH  17  27
ENDBRANCH   6   8
ENDBRANCH   5   6
ENDBRANCH   4   5
ENDBRANCH   3   4
ENDBRANCH   2   3
ENDBRANCH   1   2
BRANCH   1  31
ATOM     31  C   UNL A   1      35.135  34.000  28.720  1.00  0.00     0.188 C 
BRANCH  31  32
ATOM     32  O   UNL A   1      34.285  34.851  27.966  1.00  0.00    -0.376 OA
BRANCH  32  33
ATOM     33  C   UNL A   1      33.980  36.011  28.728  1.00  0.00     0.202 C 
BRANCH  33  34
ATOM     34  C   UNL A   1      32.647  35.820  29.432  1.00  0.00     0.261 C 
BRANCH  34  35
ATOM     35  O   UNL A   1      32.721  36.367  30.740  1.00  0.00    -0.460 OA
BRANCH  35  36
ATOM     36  C   UNL A   1      32.733  35.508  31.871  1.00  0.00     0.338 C 
ATOM     37  O   UNL A   1      31.682  35.365  32.571  1.00  0.00    -0.246 OA
BRANCH  36  38
ATOM     38  C   UNL A   1      34.001  34.759  32.243  1.00  0.00     0.060 A 
ATOM     39  C   UNL A   1      33.945  33.460  32.724  1.00  0.00     0.016 A 
ATOM     40  C   UNL A   1      35.161  35.383  32.080  1.00  0.00     0.016 A 
ATOM     41  C   UNL A   1      35.163  33.004  33.282  1.00  0.00     0.010 A 
ATOM     42  C   UNL A   1      36.330  34.817  32.529  1.00  0.00     0.010 A 
ATOM     43  C   UNL A   1      36.341  33.561  33.069  1.00  0.00    -0.014 A 
BRANCH  43  44
ATOM     44  C   UNL A   1      37.639  32.846  33.407  1.00  0.00     0.031 A 
ATOM     45  C   UNL A   1      38.065  31.850  32.528  1.00  0.00     0.074 A 
ATOM     46  C   UNL A   1      38.285  33.163  34.588  1.00  0.00     0.049 A 
ATOM     47  N   UNL A   1      39.146  31.075  32.637  1.00  0.00    -0.248 NA
ATOM     48  C   UNL A   1      37.361  31.487  31.288  1.00  0.00     0.031 C 
ATOM     49  C   UNL A   1      37.867  34.173  35.477  1.00  0.00     0.029 A 
ATOM     50  N   UNL A   1      39.418  32.583  35.115  1.00  0.00    -0.354 N 
ATOM     51  C   UNL A   1      39.232  30.252  31.590  1.00  0.00     0.074 A 
ATOM     52  C   UNL A   1      38.083  30.502  30.710  1.00  0.00     0.031 C 
ATOM     53  C   UNL A   1      38.727  34.193  36.529  1.00  0.00     0.029 A 
ATOM     54  C   UNL A   1      39.699  33.198  36.315  1.00  0.00     0.049 A 
ATOM     55  H   UNL A   1      39.939  31.855  34.704  1.00  0.00     0.167 HD
ATOM     56  C   UNL A   1      40.226  29.307  31.333  1.00  0.00     0.037 A 
ATOM     57  C   UNL A   1      40.738  32.920  37.189  1.00  0.00     0.037 A 
ATOM     58  C   UNL A   1      41.289  29.058  32.186  1.00  0.00     0.049 A 
ATOM     59  C   UNL A   1      41.700  31.932  36.960  1.00  0.00     0.074 A 
ATOM     60  C   UNL A   1      42.303  28.113  31.939  1.00  0.00     0.029 A 
ATOM     61  N   UNL A   1      41.556  29.655  33.398  1.00  0.00    -0.354 N 
ATOM     62  N   UNL A   1      41.808  31.137  35.894  1.00  0.00    -0.248 NA
ATOM     63  C   UNL A   1      42.785  31.605  37.894  1.00  0.00     0.031 C 
ATOM     64  C   UNL A   1      43.165  28.133  32.990  1.00  0.00     0.029 A 
ATOM     65  C   UNL A   1      42.701  29.091  33.913  1.00  0.00     0.049 A 
ATOM     66  H   UNL A   1      41.020  30.363  33.823  1.00  0.00     0.167 HD
ATOM     67  C   UNL A   1      42.865  30.335  36.025  1.00  0.00     0.074 A 
ATOM     68  C   UNL A   1      43.505  30.619  37.317  1.00  0.00     0.031 C 
ATOM     69  C   UNL A   1      43.324  29.378  35.117  1.00  0.00     0.037 A 
BRANCH  56  70
ATOM     70  C   UNL A   1      40.136  28.504  30.045  1.00  0.00     0.064 A 
ATOM     71  C   UNL A   1      39.391  27.336  30.061  1.00  0.00     0.173 A 
ATOM     72  C   UNL A   1      40.710  28.939  28.930  1.00  0.00     0.173 A 
ATOM     73  F   UNL A   1      38.597  26.995  31.073  1.00  0.00    -0.203 F 
ATOM     74  C   UNL A   1      39.550  26.538  28.903  1.00  0.00     0.198 A 
ATOM     75  C   UNL A   1      40.711  28.165  27.795  1.00  0.00     0.198 A 
ATOM     76  F   UNL A   1      41.290  30.136  28.912  1.00  0.00    -0.203 F 
ATOM     77  F   UNL A   1      39.176  25.264  28.974  1.00  0.00    -0.200 F 
ATOM     78  C   UNL A   1      40.044  26.971  27.758  1.00  0.00     0.200 A 
ATOM     79  F   UNL A   1      41.369  28.582  26.718  1.00  0.00    -0.200 F 
ATOM     80  F   UNL A   1      39.900  26.284  26.628  1.00  0.00    -0.200 F 
ENDBRANCH  56  70
BRANCH  57  81
ATOM     81  C   UNL A   1      40.836  33.733  38.469  1.00  0.00     0.064 A 
ATOM     82  C   UNL A   1      41.684  34.828  38.488  1.00  0.00     0.173 A 
ATOM     83  C   UNL A   1      40.164  33.363  39.552  1.00  0.00     0.173 A 
ATOM     84  F   UNL A   1      42.176  35.385  37.385  1.00  0.00    -0.203 F 
ATOM     85  C   UNL A   1      41.980  35.300  39.789  1.00  0.00     0.198 A 
ATOM     86  C   UNL A   1      40.408  33.961  40.765  1.00  0.00     0.198 A 
ATOM     87  F   UNL A   1      39.247  32.403  39.464  1.00  0.00    -0.203 F 
ATOM     88  F   UNL A   1      43.041  36.091  39.934  1.00  0.00    -0.200 F 
ATOM     89  C   UNL A   1      41.279  35.011  40.869  1.00  0.00     0.200 A 
ATOM     90  F   UNL A   1      39.790  33.512  41.854  1.00  0.00    -0.200 F 
ATOM     91  F   UNL A   1      41.411  35.702  41.998  1.00  0.00    -0.200 F 
ENDBRANCH  57  81
BRANCH  69  92
ATOM     92  C   UNL A   1      44.586  28.606  35.471  1.00  0.00     0.064 A 
ATOM     93  C   UNL A   1      45.854  29.071  35.163  1.00  0.00     0.173 A 
ATOM     94  C   UNL A   1      44.410  27.479  36.149  1.00  0.00     0.173 A 
ATOM     95  F   UNL A   1      46.089  30.302  34.718  1.00  0.00    -0.203 F 
ATOM     96  C   UNL A   1      46.878  28.114  35.364  1.00  0.00     0.198 A 
ATOM     97  C   UNL A   1      45.476  26.658  36.429  1.00  0.00     0.198 A 
ATOM     98  F   UNL A   1      43.192  27.139  36.559  1.00  0.00    -0.203 F 
ATOM     99  F   UNL A   1      48.049  28.328  34.771  1.00  0.00    -0.200 F 
ATOM    100  C   UNL A   1      46.752  27.025  36.101  1.00  0.00     0.200 A 
ATOM    101  F   UNL A   1      45.264  25.490  37.029  1.00  0.00    -0.200 F 
ATOM    102  F   UNL A   1      47.808  26.322  36.500  1.00  0.00    -0.200 F 
ENDBRANCH  69  92
ENDBRANCH  43  44
ENDBRANCH  36  38
ENDBRANCH  35  36
ENDBRANCH  34  35
ENDBRANCH  33  34
ENDBRANCH  32  33
ENDBRANCH  31  32
ENDBRANCH   1  31
TORSDOF 21
ENDMDL
