MODEL 1
REMARK VINA RESULT:     -11.4      0.000      0.000
REMARK SMILES O=C(C[C@@H](NS(=O)(=O)c1ccc2c(c1)OCCO2)c1ccccc1)OCCOCCOCCOC(=O)c1ccc(-c2c3nc(c(-c4c(F)c(F)c(F)c(F)c4F)c4ccc([nH]4)c(-c4c(F)c(F)c(F)c(F)c4F)c4nc(c(-c5c(F)c(F)c(F)c(F)c5F)c5ccc2[nH]5)C=C4)C=C3)cc1
REMARK SMILES IDX 29 1 28 2 27 3 26 4 25 5 2 6 1 7 3 8 4 9 5 10 6 12 7 13 8 14
REMARK SMILES IDX 9 15 10 16 14 17 11 18 13 19 12 20 15 21 18 22 16 23 17 24
REMARK SMILES IDX 19 25 20 26 24 27 21 28 23 29 22 30 30 31 31 32 32 33 33 34
REMARK SMILES IDX 34 35 35 36 36 37 37 38 38 39 99 40 39 41 98 42 40 43 41 44
REMARK SMILES IDX 42 45 92 46 43 47 97 48 91 49 93 50 44 51 96 52 90 53 89 54
REMARK SMILES IDX 45 56 77 57 57 58 76 59 58 60 61 61 75 62 94 63 59 64 60 65
REMARK SMILES IDX 74 67 95 68 62 69 46 70 47 71 55 72 48 73 49 74 53 75 56 76
REMARK SMILES IDX 50 77 51 78 54 79 52 80 78 81 79 82 87 83 80 84 81 85 85 86
REMARK SMILES IDX 88 87 82 88 83 89 86 90 84 91 63 92 64 93 72 94 65 95 66 96
REMARK SMILES IDX 70 97 73 98 67 99 68 100 71 101 69 102
REMARK H PARENT 5 11 93 55 61 66
REMARK Flexibility Score: inf
ROOT
ATOM      1  C   UNL A   1      32.497  29.159  24.898  1.00  0.00     0.188 C 
ENDROOT
BRANCH   1   2
ATOM      2  O   UNL A   1      32.584  27.764  25.116  1.00  0.00    -0.376 OA
BRANCH   2   3
ATOM      3  C   UNL A   1      31.593  27.120  25.912  1.00  0.00     0.202 C 
BRANCH   3   4
ATOM      4  C   UNL A   1      31.256  25.649  25.646  1.00  0.00     0.261 C 
BRANCH   4   5
ATOM      5  O   UNL A   1      31.126  24.736  26.787  1.00  0.00    -0.463 OA
BRANCH   5   6
ATOM      6  C   UNL A   1      31.656  23.491  26.887  1.00  0.00     0.307 C 
ATOM      7  O   UNL A   1      32.259  23.128  27.891  1.00  0.00    -0.252 OA
BRANCH   6   8
ATOM      8  C   UNL A   1      31.382  22.557  25.740  1.00  0.00     0.147 C 
BRANCH   8   9
ATOM      9  C   UNL A   1      32.591  22.279  24.834  1.00  0.00     0.111 C 
BRANCH   9  10
ATOM     10  N   UNL A   1      33.835  22.756  25.487  1.00  0.00    -0.203 NA
ATOM     11  H   UNL A   1      34.162  21.989  26.074  1.00  0.00     0.142 HD
BRANCH  10  12
ATOM     12  S   UNL A   1      35.162  23.268  24.600  1.00  0.00     0.241 S 
ATOM     13  O   UNL A   1      34.803  23.136  23.209  1.00  0.00    -0.207 OA
ATOM     14  O   UNL A   1      35.521  24.552  25.168  1.00  0.00    -0.207 OA
BRANCH  12  15
ATOM     15  C   UNL A   1      36.410  22.110  25.019  1.00  0.00     0.086 A 
ATOM     16  C   UNL A   1      36.270  20.765  24.660  1.00  0.00     0.026 A 
ATOM     17  C   UNL A   1      37.566  22.586  25.631  1.00  0.00     0.072 A 
ATOM     18  C   UNL A   1      37.338  19.895  24.869  1.00  0.00     0.052 A 
ATOM     19  C   UNL A   1      38.633  21.721  25.806  1.00  0.00     0.162 A 
ATOM     20  C   UNL A   1      38.522  20.375  25.434  1.00  0.00     0.161 A 
ATOM     21  O   UNL A   1      39.777  22.278  26.315  1.00  0.00    -0.486 OA
ATOM     22  O   UNL A   1      39.553  19.482  25.560  1.00  0.00    -0.486 OA
ATOM     23  C   UNL A   1      40.908  21.445  26.060  1.00  0.00     0.271 C 
ATOM     24  C   UNL A   1      40.593  19.998  26.399  1.00  0.00     0.271 C 
ENDBRANCH  12  15
ENDBRANCH  10  12
ENDBRANCH   9  10
BRANCH   9  25
ATOM     25  C   UNL A   1      32.585  20.774  24.580  1.00  0.00    -0.029 A 
ATOM     26  C   UNL A   1      32.381  20.240  23.293  1.00  0.00     0.005 A 
ATOM     27  C   UNL A   1      32.818  19.884  25.635  1.00  0.00     0.005 A 
ATOM     28  C   UNL A   1      32.352  18.861  23.077  1.00  0.00     0.000 A 
ATOM     29  C   UNL A   1      32.780  18.506  25.417  1.00  0.00     0.000 A 
ATOM     30  C   UNL A   1      32.535  17.993  24.144  1.00  0.00     0.000 A 
ENDBRANCH   9  25
ENDBRANCH   8   9
ENDBRANCH   6   8
ENDBRANCH   5   6
ENDBRANCH   4   5
ENDBRANCH   3   4
ENDBRANCH   2   3
ENDBRANCH   1   2
BRANCH   1  31
ATOM     31  C   UNL A   1      31.652  29.948  25.899  1.00  0.00     0.188 C 
BRANCH  31  32
ATOM     32  O   UNL A   1      32.319  30.869  26.743  1.00  0.00    -0.376 OA
BRANCH  32  33
ATOM     33  C   UNL A   1      31.748  32.168  26.898  1.00  0.00     0.202 C 
BRANCH  33  34
ATOM     34  C   UNL A   1      32.656  33.373  27.212  1.00  0.00     0.261 C 
BRANCH  34  35
ATOM     35  O   UNL A   1      32.152  34.288  28.211  1.00  0.00    -0.460 OA
BRANCH  35  36
ATOM     36  C   UNL A   1      33.064  35.126  28.763  1.00  0.00     0.338 C 
ATOM     37  O   UNL A   1      32.964  36.333  28.915  1.00  0.00    -0.246 OA
BRANCH  36  38
ATOM     38  C   UNL A   1      34.220  34.369  29.283  1.00  0.00     0.060 A 
ATOM     39  C   UNL A   1      34.068  33.564  30.420  1.00  0.00     0.016 A 
ATOM     40  C   UNL A   1      35.485  34.573  28.734  1.00  0.00     0.016 A 
ATOM     41  C   UNL A   1      35.181  32.941  30.999  1.00  0.00     0.010 A 
ATOM     42  C   UNL A   1      36.599  33.970  29.329  1.00  0.00     0.010 A 
ATOM     43  C   UNL A   1      36.459  33.160  30.472  1.00  0.00    -0.014 A 
BRANCH  43  44
ATOM     44  C   UNL A   1      37.674  32.626  31.144  1.00  0.00     0.031 A 
ATOM     45  C   UNL A   1      38.386  31.438  30.558  1.00  0.00     0.074 A 
ATOM     46  C   UNL A   1      38.113  33.159  32.300  1.00  0.00     0.049 A 
ATOM     47  N   UNL A   1      39.346  30.710  31.070  1.00  0.00    -0.248 NA
ATOM     48  C   UNL A   1      37.958  31.012  29.217  1.00  0.00     0.031 C 
ATOM     49  C   UNL A   1      37.553  34.340  32.951  1.00  0.00     0.029 A 
ATOM     50  N   UNL A   1      39.117  32.751  33.147  1.00  0.00    -0.354 N 
ATOM     51  C   UNL A   1      39.620  29.727  30.127  1.00  0.00     0.074 A 
ATOM     52  C   UNL A   1      38.724  29.949  29.012  1.00  0.00     0.031 C 
ATOM     53  C   UNL A   1      38.199  34.541  34.112  1.00  0.00     0.029 A 
ATOM     54  C   UNL A   1      39.170  33.470  34.317  1.00  0.00     0.049 A 
ATOM     55  H   UNL A   1      39.737  32.016  32.936  1.00  0.00     0.167 HD
ATOM     56  C   UNL A   1      40.533  28.728  30.193  1.00  0.00     0.037 A 
ATOM     57  C   UNL A   1      39.877  33.262  35.446  1.00  0.00     0.037 A 
ATOM     58  C   UNL A   1      41.436  28.517  31.296  1.00  0.00     0.049 A 
ATOM     59  C   UNL A   1      40.822  32.090  35.526  1.00  0.00     0.074 A 
ATOM     60  C   UNL A   1      42.435  27.566  31.419  1.00  0.00     0.029 A 
ATOM     61  N   UNL A   1      41.440  29.253  32.469  1.00  0.00    -0.354 N 
ATOM     62  N   UNL A   1      41.106  31.191  34.615  1.00  0.00    -0.248 NA
ATOM     63  C   UNL A   1      41.542  31.899  36.795  1.00  0.00     0.031 C 
ATOM     64  C   UNL A   1      42.993  27.679  32.695  1.00  0.00     0.029 A 
ATOM     65  C   UNL A   1      42.389  28.743  33.342  1.00  0.00     0.049 A 
ATOM     66  H   UNL A   1      40.856  30.023  32.656  1.00  0.00     0.167 HD
ATOM     67  C   UNL A   1      42.050  30.349  35.191  1.00  0.00     0.074 A 
ATOM     68  C   UNL A   1      42.310  30.854  36.520  1.00  0.00     0.031 C 
ATOM     69  C   UNL A   1      42.645  29.252  34.664  1.00  0.00     0.037 A 
BRANCH  56  70
ATOM     70  C   UNL A   1      40.597  27.748  29.059  1.00  0.00     0.064 A 
ATOM     71  C   UNL A   1      39.757  26.627  29.001  1.00  0.00     0.173 A 
ATOM     72  C   UNL A   1      41.439  27.998  27.964  1.00  0.00     0.173 A 
ATOM     73  F   UNL A   1      38.939  26.340  30.025  1.00  0.00    -0.203 F 
ATOM     74  C   UNL A   1      39.763  25.788  27.889  1.00  0.00     0.198 A 
ATOM     75  C   UNL A   1      41.421  27.174  26.843  1.00  0.00     0.198 A 
ATOM     76  F   UNL A   1      42.255  29.063  27.968  1.00  0.00    -0.203 F 
ATOM     77  F   UNL A   1      38.967  24.710  27.860  1.00  0.00    -0.200 F 
ATOM     78  C   UNL A   1      40.584  26.069  26.806  1.00  0.00     0.200 A 
ATOM     79  F   UNL A   1      42.202  27.458  25.791  1.00  0.00    -0.200 F 
ATOM     80  F   UNL A   1      40.568  25.276  25.726  1.00  0.00    -0.200 F 
ENDBRANCH  56  70
BRANCH  57  81
ATOM     81  C   UNL A   1      39.676  34.133  36.636  1.00  0.00     0.064 A 
ATOM     82  C   UNL A   1      40.355  35.353  36.770  1.00  0.00     0.173 A 
ATOM     83  C   UNL A   1      38.861  33.723  37.702  1.00  0.00     0.173 A 
ATOM     84  F   UNL A   1      41.176  35.771  35.796  1.00  0.00    -0.203 F 
ATOM     85  C   UNL A   1      40.249  36.112  37.935  1.00  0.00     0.198 A 
ATOM     86  C   UNL A   1      38.729  34.501  38.850  1.00  0.00     0.198 A 
ATOM     87  F   UNL A   1      38.191  32.563  37.632  1.00  0.00    -0.203 F 
ATOM     88  F   UNL A   1      40.964  37.238  38.064  1.00  0.00    -0.200 F 
ATOM     89  C   UNL A   1      39.432  35.689  38.971  1.00  0.00     0.200 A 
ATOM     90  F   UNL A   1      37.923  34.097  39.842  1.00  0.00    -0.200 F 
ATOM     91  F   UNL A   1      39.329  36.418  40.090  1.00  0.00    -0.200 F 
ENDBRANCH  57  81
BRANCH  69  92
ATOM     92  C   UNL A   1      43.653  28.531  35.512  1.00  0.00     0.064 A 
ATOM     93  C   UNL A   1      43.276  27.502  36.387  1.00  0.00     0.173 A 
ATOM     94  C   UNL A   1      45.019  28.837  35.411  1.00  0.00     0.173 A 
ATOM     95  F   UNL A   1      41.982  27.182  36.534  1.00  0.00    -0.203 F 
ATOM     96  C   UNL A   1      44.226  26.821  37.145  1.00  0.00     0.198 A 
ATOM     97  C   UNL A   1      45.969  28.133  36.144  1.00  0.00     0.198 A 
ATOM     98  F   UNL A   1      45.435  29.810  34.586  1.00  0.00    -0.203 F 
ATOM     99  F   UNL A   1      43.837  25.872  38.008  1.00  0.00    -0.200 F 
ATOM    100  C   UNL A   1      45.572  27.129  37.015  1.00  0.00     0.200 A 
ATOM    101  F   UNL A   1      47.271  28.422  36.005  1.00  0.00    -0.200 F 
ATOM    102  F   UNL A   1      46.485  26.463  37.734  1.00  0.00    -0.200 F 
ENDBRANCH  69  92
ENDBRANCH  43  44
ENDBRANCH  36  38
ENDBRANCH  35  36
ENDBRANCH  34  35
ENDBRANCH  33  34
ENDBRANCH  32  33
ENDBRANCH  31  32
ENDBRANCH   1  31
TORSDOF 22
ENDMDL
MODEL 2
REMARK VINA RESULT:     -11.4      2.253      7.869
REMARK SMILES O=C(C[C@@H](NS(=O)(=O)c1ccc2c(c1)OCCO2)c1ccccc1)OCCOCCOCCOC(=O)c1ccc(-c2c3nc(c(-c4c(F)c(F)c(F)c(F)c4F)c4ccc([nH]4)c(-c4c(F)c(F)c(F)c(F)c4F)c4nc(c(-c5c(F)c(F)c(F)c(F)c5F)c5ccc2[nH]5)C=C4)C=C3)cc1
REMARK SMILES IDX 29 1 28 2 27 3 26 4 25 5 2 6 1 7 3 8 4 9 5 10 6 12 7 13 8 14
REMARK SMILES IDX 9 15 10 16 14 17 11 18 13 19 12 20 15 21 18 22 16 23 17 24
REMARK SMILES IDX 19 25 20 26 24 27 21 28 23 29 22 30 30 31 31 32 32 33 33 34
REMARK SMILES IDX 34 35 35 36 36 37 37 38 38 39 99 40 39 41 98 42 40 43 41 44
REMARK SMILES IDX 42 45 92 46 43 47 97 48 91 49 93 50 44 51 96 52 90 53 89 54
REMARK SMILES IDX 45 56 77 57 57 58 76 59 58 60 61 61 75 62 94 63 59 64 60 65
REMARK SMILES IDX 74 67 95 68 62 69 46 70 47 71 55 72 48 73 49 74 53 75 56 76
REMARK SMILES IDX 50 77 51 78 54 79 52 80 78 81 79 82 87 83 80 84 81 85 85 86
REMARK SMILES IDX 88 87 82 88 83 89 86 90 84 91 63 92 64 93 72 94 65 95 66 96
REMARK SMILES IDX 70 97 73 98 67 99 68 100 71 101 69 102
REMARK H PARENT 5 11 93 55 61 66
REMARK Flexibility Score: inf
ROOT
ATOM      1  C   UNL A   1      34.174  31.316  27.668  1.00  0.00     0.188 C 
ENDROOT
BRANCH   1   2
ATOM      2  O   UNL A   1      32.834  31.483  27.246  1.00  0.00    -0.376 OA
BRANCH   2   3
ATOM      3  C   UNL A   1      32.114  30.357  26.754  1.00  0.00     0.202 C 
BRANCH   3   4
ATOM      4  C   UNL A   1      31.402  30.454  25.399  1.00  0.00     0.261 C 
BRANCH   4   5
ATOM      5  O   UNL A   1      31.029  29.216  24.707  1.00  0.00    -0.463 OA
BRANCH   5   6
ATOM      6  C   UNL A   1      30.125  29.097  23.702  1.00  0.00     0.307 C 
ATOM      7  O   UNL A   1      29.845  30.043  22.973  1.00  0.00    -0.252 OA
BRANCH   6   8
ATOM      8  C   UNL A   1      29.560  27.721  23.475  1.00  0.00     0.147 C 
BRANCH   8   9
ATOM      9  C   UNL A   1      30.561  26.701  22.913  1.00  0.00     0.111 C 
BRANCH   9  10
ATOM     10  N   UNL A   1      31.876  27.350  22.687  1.00  0.00    -0.203 NA
ATOM     11  H   UNL A   1      32.205  27.656  23.602  1.00  0.00     0.142 HD
BRANCH  10  12
ATOM     12  S   UNL A   1      33.156  26.537  21.974  1.00  0.00     0.241 S 
ATOM     13  O   UNL A   1      32.586  25.676  20.966  1.00  0.00    -0.207 OA
ATOM     14  O   UNL A   1      34.114  27.568  21.630  1.00  0.00    -0.207 OA
BRANCH  12  15
ATOM     15  C   UNL A   1      33.819  25.581  23.286  1.00  0.00     0.086 A 
ATOM     16  C   UNL A   1      34.027  26.161  24.542  1.00  0.00     0.026 A 
ATOM     17  C   UNL A   1      34.041  24.226  23.061  1.00  0.00     0.072 A 
ATOM     18  C   UNL A   1      34.412  25.348  25.606  1.00  0.00     0.052 A 
ATOM     19  C   UNL A   1      34.393  23.420  24.131  1.00  0.00     0.162 A 
ATOM     20  C   UNL A   1      34.586  23.977  25.402  1.00  0.00     0.161 A 
ATOM     21  O   UNL A   1      34.492  22.080  23.864  1.00  0.00    -0.486 OA
ATOM     22  O   UNL A   1      34.909  23.225  26.501  1.00  0.00    -0.486 OA
ATOM     23  C   UNL A   1      34.431  21.313  25.067  1.00  0.00     0.271 C 
ATOM     24  C   UNL A   1      35.338  21.910  26.129  1.00  0.00     0.271 C 
ENDBRANCH  12  15
ENDBRANCH  10  12
ENDBRANCH   9  10
BRANCH   9  25
ATOM     25  C   UNL A   1      30.619  25.568  23.934  1.00  0.00    -0.029 A 
ATOM     26  C   UNL A   1      30.622  25.817  25.320  1.00  0.00     0.005 A 
ATOM     27  C   UNL A   1      30.640  24.236  23.503  1.00  0.00     0.005 A 
ATOM     28  C   UNL A   1      30.701  24.775  26.244  1.00  0.00     0.000 A 
ATOM     29  C   UNL A   1      30.728  23.195  24.430  1.00  0.00     0.000 A 
ATOM     30  C   UNL A   1      30.771  23.463  25.798  1.00  0.00     0.000 A 
ENDBRANCH   9  25
ENDBRANCH   8   9
ENDBRANCH   6   8
ENDBRANCH   5   6
ENDBRANCH   4   5
ENDBRANCH   3   4
ENDBRANCH   2   3
ENDBRANCH   1   2
BRANCH   1  31
ATOM     31  C   UNL A   1      34.720  32.378  28.623  1.00  0.00     0.188 C 
BRANCH  31  32
ATOM     32  O   UNL A   1      33.798  33.288  29.196  1.00  0.00    -0.376 OA
BRANCH  32  33
ATOM     33  C   UNL A   1      33.723  34.600  28.642  1.00  0.00     0.202 C 
BRANCH  33  34
ATOM     34  C   UNL A   1      33.071  35.739  29.451  1.00  0.00     0.261 C 
BRANCH  34  35
ATOM     35  O   UNL A   1      32.307  35.324  30.605  1.00  0.00    -0.460 OA
BRANCH  35  36
ATOM     36  C   UNL A   1      32.659  35.892  31.786  1.00  0.00     0.338 C 
ATOM     37  O   UNL A   1      32.117  36.828  32.349  1.00  0.00    -0.246 OA
BRANCH  36  38
ATOM     38  C   UNL A   1      33.774  35.150  32.408  1.00  0.00     0.060 A 
ATOM     39  C   UNL A   1      35.069  35.684  32.373  1.00  0.00     0.016 A 
ATOM     40  C   UNL A   1      33.562  33.862  32.895  1.00  0.00     0.016 A 
ATOM     41  C   UNL A   1      36.155  34.937  32.845  1.00  0.00     0.010 A 
ATOM     42  C   UNL A   1      34.652  33.106  33.343  1.00  0.00     0.010 A 
ATOM     43  C   UNL A   1      35.958  33.631  33.311  1.00  0.00    -0.014 A 
BRANCH  43  44
ATOM     44  C   UNL A   1      37.105  32.764  33.690  1.00  0.00     0.031 A 
ATOM     45  C   UNL A   1      37.859  33.042  34.960  1.00  0.00     0.074 A 
ATOM     46  C   UNL A   1      37.511  31.767  32.882  1.00  0.00     0.049 A 
ATOM     47  N   UNL A   1      38.986  32.529  35.386  1.00  0.00    -0.248 NA
ATOM     48  C   UNL A   1      37.266  34.032  35.872  1.00  0.00     0.031 C 
ATOM     49  C   UNL A   1      36.844  31.354  31.650  1.00  0.00     0.029 A 
ATOM     50  N   UNL A   1      38.607  30.939  32.966  1.00  0.00    -0.354 N 
ATOM     51  C   UNL A   1      39.250  33.149  36.601  1.00  0.00     0.074 A 
ATOM     52  C   UNL A   1      38.168  34.079  36.845  1.00  0.00     0.031 C 
ATOM     53  C   UNL A   1      37.563  30.373  31.077  1.00  0.00     0.029 A 
ATOM     54  C   UNL A   1      38.769  30.135  31.863  1.00  0.00     0.049 A 
ATOM     55  H   UNL A   1      39.214  30.923  33.740  1.00  0.00     0.167 HD
ATOM     56  C   UNL A   1      40.304  32.961  37.431  1.00  0.00     0.037 A 
ATOM     57  C   UNL A   1      39.796  29.340  31.497  1.00  0.00     0.037 A 
ATOM     58  C   UNL A   1      41.372  32.024  37.196  1.00  0.00     0.049 A 
ATOM     59  C   UNL A   1      40.998  29.218  32.399  1.00  0.00     0.074 A 
ATOM     60  C   UNL A   1      42.449  31.725  38.015  1.00  0.00     0.029 A 
ATOM     61  N   UNL A   1      41.511  31.248  36.057  1.00  0.00    -0.354 N 
ATOM     62  N   UNL A   1      41.220  29.774  33.564  1.00  0.00    -0.248 NA
ATOM     63  C   UNL A   1      42.097  28.359  31.930  1.00  0.00     0.031 C 
ATOM     64  C   UNL A   1      43.277  30.826  37.339  1.00  0.00     0.029 A 
ATOM     65  C   UNL A   1      42.683  30.511  36.128  1.00  0.00     0.049 A 
ATOM     66  H   UNL A   1      40.873  31.225  35.307  1.00  0.00     0.167 HD
ATOM     67  C   UNL A   1      42.466  29.315  33.976  1.00  0.00     0.074 A 
ATOM     68  C   UNL A   1      42.944  28.417  32.949  1.00  0.00     0.031 C 
ATOM     69  C   UNL A   1      43.153  29.616  35.104  1.00  0.00     0.037 A 
BRANCH  56  70
ATOM     70  C   UNL A   1      40.392  33.804  38.669  1.00  0.00     0.064 A 
ATOM     71  C   UNL A   1      41.124  35.000  38.700  1.00  0.00     0.173 A 
ATOM     72  C   UNL A   1      39.644  33.459  39.806  1.00  0.00     0.173 A 
ATOM     73  F   UNL A   1      41.860  35.370  37.642  1.00  0.00    -0.203 F 
ATOM     74  C   UNL A   1      41.106  35.817  39.828  1.00  0.00     0.198 A 
ATOM     75  C   UNL A   1      39.607  34.292  40.920  1.00  0.00     0.198 A 
ATOM     76  F   UNL A   1      38.921  32.329  39.822  1.00  0.00    -0.203 F 
ATOM     77  F   UNL A   1      41.827  36.947  39.846  1.00  0.00    -0.200 F 
ATOM     78  C   UNL A   1      40.339  35.470  40.931  1.00  0.00     0.200 A 
ATOM     79  F   UNL A   1      38.851  33.963  41.977  1.00  0.00    -0.200 F 
ATOM     80  F   UNL A   1      40.303  36.272  42.004  1.00  0.00    -0.200 F 
ENDBRANCH  56  70
BRANCH  57  81
ATOM     81  C   UNL A   1      39.784  28.646  30.181  1.00  0.00     0.064 A 
ATOM     82  C   UNL A   1      39.259  27.352  30.044  1.00  0.00     0.173 A 
ATOM     83  C   UNL A   1      40.371  29.232  29.049  1.00  0.00     0.173 A 
ATOM     84  F   UNL A   1      38.722  26.734  31.105  1.00  0.00    -0.203 F 
ATOM     85  C   UNL A   1      39.349  26.663  28.835  1.00  0.00     0.198 A 
ATOM     86  C   UNL A   1      40.428  28.555  27.833  1.00  0.00     0.198 A 
ATOM     87  F   UNL A   1      40.893  30.465  29.122  1.00  0.00    -0.203 F 
ATOM     88  F   UNL A   1      38.903  25.402  28.752  1.00  0.00    -0.200 F 
ATOM     89  C   UNL A   1      39.928  27.266  27.730  1.00  0.00     0.200 A 
ATOM     90  F   UNL A   1      40.972  29.149  26.762  1.00  0.00    -0.200 F 
ATOM     91  F   UNL A   1      40.015  26.605  26.568  1.00  0.00    -0.200 F 
ENDBRANCH  57  81
BRANCH  69  92
ATOM     92  C   UNL A   1      44.486  28.955  35.305  1.00  0.00     0.064 A 
ATOM     93  C   UNL A   1      45.679  29.566  34.890  1.00  0.00     0.173 A 
ATOM     94  C   UNL A   1      44.578  27.720  35.965  1.00  0.00     0.173 A 
ATOM     95  F   UNL A   1      45.646  30.738  34.239  1.00  0.00    -0.203 F 
ATOM     96  C   UNL A   1      46.912  28.954  35.111  1.00  0.00     0.198 A 
ATOM     97  C   UNL A   1      45.812  27.128  36.214  1.00  0.00     0.198 A 
ATOM     98  F   UNL A   1      43.468  27.094  36.386  1.00  0.00    -0.203 F 
ATOM     99  F   UNL A   1      48.034  29.535  34.666  1.00  0.00    -0.200 F 
ATOM    100  C   UNL A   1      46.978  27.742  35.781  1.00  0.00     0.200 A 
ATOM    101  F   UNL A   1      45.875  25.964  36.876  1.00  0.00    -0.200 F 
ATOM    102  F   UNL A   1      48.166  27.164  36.005  1.00  0.00    -0.200 F 
ENDBRANCH  69  92
ENDBRANCH  43  44
ENDBRANCH  36  38
ENDBRANCH  35  36
ENDBRANCH  34  35
ENDBRANCH  33  34
ENDBRANCH  32  33
ENDBRANCH  31  32
ENDBRANCH   1  31
TORSDOF 22
ENDMDL
MODEL 3
REMARK VINA RESULT:     -11.2      1.778      7.753
REMARK SMILES O=C(C[C@@H](NS(=O)(=O)c1ccc2c(c1)OCCO2)c1ccccc1)OCCOCCOCCOC(=O)c1ccc(-c2c3nc(c(-c4c(F)c(F)c(F)c(F)c4F)c4ccc([nH]4)c(-c4c(F)c(F)c(F)c(F)c4F)c4nc(c(-c5c(F)c(F)c(F)c(F)c5F)c5ccc2[nH]5)C=C4)C=C3)cc1
REMARK SMILES IDX 29 1 28 2 27 3 26 4 25 5 2 6 1 7 3 8 4 9 5 10 6 12 7 13 8 14
REMARK SMILES IDX 9 15 10 16 14 17 11 18 13 19 12 20 15 21 18 22 16 23 17 24
REMARK SMILES IDX 19 25 20 26 24 27 21 28 23 29 22 30 30 31 31 32 32 33 33 34
REMARK SMILES IDX 34 35 35 36 36 37 37 38 38 39 99 40 39 41 98 42 40 43 41 44
REMARK SMILES IDX 42 45 92 46 43 47 97 48 91 49 93 50 44 51 96 52 90 53 89 54
REMARK SMILES IDX 45 56 77 57 57 58 76 59 58 60 61 61 75 62 94 63 59 64 60 65
REMARK SMILES IDX 74 67 95 68 62 69 46 70 47 71 55 72 48 73 49 74 53 75 56 76
REMARK SMILES IDX 50 77 51 78 54 79 52 80 78 81 79 82 87 83 80 84 81 85 85 86
REMARK SMILES IDX 88 87 82 88 83 89 86 90 84 91 63 92 64 93 72 94 65 95 66 96
REMARK SMILES IDX 70 97 73 98 67 99 68 100 71 101 69 102
REMARK H PARENT 5 11 93 55 61 66
REMARK Flexibility Score: inf
ROOT
ATOM      1  C   UNL A   1      33.379  29.100  27.125  1.00  0.00     0.188 C 
ENDROOT
BRANCH   1   2
ATOM      2  O   UNL A   1      32.366  28.477  27.891  1.00  0.00    -0.376 OA
BRANCH   2   3
ATOM      3  C   UNL A   1      31.452  27.592  27.248  1.00  0.00     0.202 C 
BRANCH   3   4
ATOM      4  C   UNL A   1      31.989  26.349  26.531  1.00  0.00     0.261 C 
BRANCH   4   5
ATOM      5  O   UNL A   1      31.071  25.238  26.259  1.00  0.00    -0.463 OA
BRANCH   5   6
ATOM      6  C   UNL A   1      30.563  24.891  25.049  1.00  0.00     0.307 C 
ATOM      7  O   UNL A   1      30.644  23.744  24.623  1.00  0.00    -0.252 OA
BRANCH   6   8
ATOM      8  C   UNL A   1      29.818  25.967  24.307  1.00  0.00     0.147 C 
BRANCH   8   9
ATOM      9  C   UNL A   1      30.705  26.912  23.484  1.00  0.00     0.111 C 
BRANCH   9  10
ATOM     10  N   UNL A   1      31.348  26.168  22.373  1.00  0.00    -0.203 NA
ATOM     11  H   UNL A   1      30.947  26.537  21.511  1.00  0.00     0.142 HD
BRANCH  10  12
ATOM     12  S   UNL A   1      33.009  26.161  22.154  1.00  0.00     0.241 S 
ATOM     13  O   UNL A   1      33.237  26.027  20.736  1.00  0.00    -0.207 OA
ATOM     14  O   UNL A   1      33.491  27.312  22.890  1.00  0.00    -0.207 OA
BRANCH  12  15
ATOM     15  C   UNL A   1      33.529  24.712  22.993  1.00  0.00     0.086 A 
ATOM     16  C   UNL A   1      33.108  23.454  22.550  1.00  0.00     0.026 A 
ATOM     17  C   UNL A   1      34.434  24.852  24.042  1.00  0.00     0.072 A 
ATOM     18  C   UNL A   1      33.653  22.313  23.137  1.00  0.00     0.052 A 
ATOM     19  C   UNL A   1      34.994  23.713  24.597  1.00  0.00     0.162 A 
ATOM     20  C   UNL A   1      34.601  22.444  24.154  1.00  0.00     0.161 A 
ATOM     21  O   UNL A   1      35.955  23.924  25.551  1.00  0.00    -0.486 OA
ATOM     22  O   UNL A   1      35.140  21.285  24.650  1.00  0.00    -0.486 OA
ATOM     23  C   UNL A   1      36.750  22.753  25.742  1.00  0.00     0.271 C 
ATOM     24  C   UNL A   1      35.869  21.521  25.860  1.00  0.00     0.271 C 
ENDBRANCH  12  15
ENDBRANCH  10  12
ENDBRANCH   9  10
BRANCH   9  25
ATOM     25  C   UNL A   1      29.787  28.033  23.003  1.00  0.00    -0.029 A 
ATOM     26  C   UNL A   1      28.401  28.016  23.255  1.00  0.00     0.005 A 
ATOM     27  C   UNL A   1      30.320  29.132  22.319  1.00  0.00     0.005 A 
ATOM     28  C   UNL A   1      27.567  29.033  22.788  1.00  0.00     0.000 A 
ATOM     29  C   UNL A   1      29.483  30.143  21.846  1.00  0.00     0.000 A 
ATOM     30  C   UNL A   1      28.107  30.090  22.068  1.00  0.00     0.000 A 
ENDBRANCH   9  25
ENDBRANCH   8   9
ENDBRANCH   6   8
ENDBRANCH   5   6
ENDBRANCH   4   5
ENDBRANCH   3   4
ENDBRANCH   2   3
ENDBRANCH   1   2
BRANCH   1  31
ATOM     31  C   UNL A   1      33.205  30.597  26.864  1.00  0.00     0.188 C 
BRANCH  31  32
ATOM     32  O   UNL A   1      31.886  31.107  26.803  1.00  0.00    -0.376 OA
BRANCH  32  33
ATOM     33  C   UNL A   1      31.714  32.523  26.859  1.00  0.00     0.202 C 
BRANCH  33  34
ATOM     34  C   UNL A   1      32.817  33.407  27.474  1.00  0.00     0.261 C 
BRANCH  34  35
ATOM     35  O   UNL A   1      32.359  34.429  28.387  1.00  0.00    -0.460 OA
BRANCH  35  36
ATOM     36  C   UNL A   1      33.285  35.345  28.767  1.00  0.00     0.338 C 
ATOM     37  O   UNL A   1      33.244  36.552  28.600  1.00  0.00    -0.246 OA
BRANCH  36  38
ATOM     38  C   UNL A   1      34.367  34.702  29.540  1.00  0.00     0.060 A 
ATOM     39  C   UNL A   1      35.661  34.642  29.005  1.00  0.00     0.016 A 
ATOM     40  C   UNL A   1      34.067  34.032  30.724  1.00  0.00     0.016 A 
ATOM     41  C   UNL A   1      36.666  33.927  29.667  1.00  0.00     0.010 A 
ATOM     42  C   UNL A   1      35.067  33.296  31.371  1.00  0.00     0.010 A 
ATOM     43  C   UNL A   1      36.371  33.228  30.844  1.00  0.00    -0.014 A 
BRANCH  43  44
ATOM     44  C   UNL A   1      37.378  32.349  31.494  1.00  0.00     0.031 A 
ATOM     45  C   UNL A   1      37.906  32.705  32.856  1.00  0.00     0.074 A 
ATOM     46  C   UNL A   1      37.865  31.267  30.856  1.00  0.00     0.049 A 
ATOM     47  N   UNL A   1      38.905  32.184  33.523  1.00  0.00    -0.248 NA
ATOM     48  C   UNL A   1      37.217  33.796  33.562  1.00  0.00     0.031 C 
ATOM     49  C   UNL A   1      37.408  30.777  29.559  1.00  0.00     0.029 A 
ATOM     50  N   UNL A   1      38.877  30.404  31.206  1.00  0.00    -0.354 N 
ATOM     51  C   UNL A   1      38.981  32.897  34.712  1.00  0.00     0.074 A 
ATOM     52  C   UNL A   1      37.929  33.890  34.678  1.00  0.00     0.031 C 
ATOM     53  C   UNL A   1      38.160  29.720  29.207  1.00  0.00     0.029 A 
ATOM     54  C   UNL A   1      39.189  29.500  30.219  1.00  0.00     0.049 A 
ATOM     55  H   UNL A   1      39.333  30.431  32.078  1.00  0.00     0.167 HD
ATOM     56  C   UNL A   1      39.855  32.737  35.735  1.00  0.00     0.037 A 
ATOM     57  C   UNL A   1      40.217  28.633  30.113  1.00  0.00     0.037 A 
ATOM     58  C   UNL A   1      40.892  31.738  35.776  1.00  0.00     0.049 A 
ATOM     59  C   UNL A   1      41.227  28.539  31.228  1.00  0.00     0.074 A 
ATOM     60  C   UNL A   1      41.784  31.467  36.801  1.00  0.00     0.029 A 
ATOM     61  N   UNL A   1      41.189  30.860  34.747  1.00  0.00    -0.354 N 
ATOM     62  N   UNL A   1      41.268  29.186  32.367  1.00  0.00    -0.248 NA
ATOM     63  C   UNL A   1      42.341  27.596  31.040  1.00  0.00     0.031 C 
ATOM     64  C   UNL A   1      42.667  30.477  36.362  1.00  0.00     0.029 A 
ATOM     65  C   UNL A   1      42.284  30.083  35.091  1.00  0.00     0.049 A 
ATOM     66  H   UNL A   1      40.697  30.798  33.896  1.00  0.00     0.167 HD
ATOM     67  C   UNL A   1      42.389  28.712  33.037  1.00  0.00     0.074 A 
ATOM     68  C   UNL A   1      42.992  27.707  32.189  1.00  0.00     0.031 C 
ATOM     69  C   UNL A   1      42.878  29.082  34.245  1.00  0.00     0.037 A 
BRANCH  56  70
ATOM     70  C   UNL A   1      39.768  33.681  36.898  1.00  0.00     0.064 A 
ATOM     71  C   UNL A   1      40.411  34.927  36.891  1.00  0.00     0.173 A 
ATOM     72  C   UNL A   1      38.938  33.374  37.988  1.00  0.00     0.173 A 
ATOM     73  F   UNL A   1      41.220  35.265  35.875  1.00  0.00    -0.203 F 
ATOM     74  C   UNL A   1      40.231  35.829  37.937  1.00  0.00     0.198 A 
ATOM     75  C   UNL A   1      38.739  34.289  39.018  1.00  0.00     0.198 A 
ATOM     76  F   UNL A   1      38.295  32.198  38.037  1.00  0.00    -0.203 F 
ATOM     77  F   UNL A   1      40.870  37.007  37.921  1.00  0.00    -0.200 F 
ATOM     78  C   UNL A   1      39.386  35.515  38.992  1.00  0.00     0.200 A 
ATOM     79  F   UNL A   1      37.908  33.991  40.026  1.00  0.00    -0.200 F 
ATOM     80  F   UNL A   1      39.193  36.396  39.984  1.00  0.00    -0.200 F 
ENDBRANCH  56  70
BRANCH  57  81
ATOM     81  C   UNL A   1      40.402  27.827  28.876  1.00  0.00     0.064 A 
ATOM     82  C   UNL A   1      41.155  28.311  27.796  1.00  0.00     0.173 A 
ATOM     83  C   UNL A   1      39.762  26.589  28.717  1.00  0.00     0.173 A 
ATOM     84  F   UNL A   1      41.755  29.507  27.883  1.00  0.00    -0.203 F 
ATOM     85  C   UNL A   1      41.234  27.603  26.598  1.00  0.00     0.198 A 
ATOM     86  C   UNL A   1      39.871  25.866  27.532  1.00  0.00     0.198 A 
ATOM     87  F   UNL A   1      39.024  26.078  29.715  1.00  0.00    -0.203 F 
ATOM     88  F   UNL A   1      41.902  28.122  25.559  1.00  0.00    -0.200 F 
ATOM     89  C   UNL A   1      40.598  26.378  26.469  1.00  0.00     0.200 A 
ATOM     90  F   UNL A   1      39.270  24.673  27.418  1.00  0.00    -0.200 F 
ATOM     91  F   UNL A   1      40.673  25.696  25.318  1.00  0.00    -0.200 F 
ENDBRANCH  57  81
BRANCH  69  92
ATOM     92  C   UNL A   1      44.113  28.384  34.740  1.00  0.00     0.064 A 
ATOM     93  C   UNL A   1      45.394  28.905  34.507  1.00  0.00     0.173 A 
ATOM     94  C   UNL A   1      44.011  27.208  35.499  1.00  0.00     0.173 A 
ATOM     95  F   UNL A   1      45.548  30.016  33.772  1.00  0.00    -0.203 F 
ATOM     96  C   UNL A   1      46.529  28.263  35.000  1.00  0.00     0.198 A 
ATOM     97  C   UNL A   1      45.144  26.588  36.018  1.00  0.00     0.198 A 
ATOM     98  F   UNL A   1      42.809  26.670  35.755  1.00  0.00    -0.203 F 
ATOM     99  F   UNL A   1      47.745  28.755  34.726  1.00  0.00    -0.200 F 
ATOM    100  C   UNL A   1      46.402  27.113  35.763  1.00  0.00     0.200 A 
ATOM    101  F   UNL A   1      45.018  25.485  36.769  1.00  0.00    -0.200 F 
ATOM    102  F   UNL A   1      47.494  26.506  36.247  1.00  0.00    -0.200 F 
ENDBRANCH  69  92
ENDBRANCH  43  44
ENDBRANCH  36  38
ENDBRANCH  35  36
ENDBRANCH  34  35
ENDBRANCH  33  34
ENDBRANCH  32  33
ENDBRANCH  31  32
ENDBRANCH   1  31
TORSDOF 22
ENDMDL
