MODEL 1
REMARK VINA RESULT:     -12.3      0.000      0.000
REMARK SMILES Cc1ccc(Cl)c(Nc2ccccc2C(=O)N[C@@H](C)C(=O)OCCOCCOCCOC(=O)c2ccc(-c3c4nc(c(-c5c(F)c(F)c(F)c(F)c5F)c5ccc([nH]5)c(-c5c(F)c(F)c(F)c(F)c5F)c5nc(c(-c6c(F)c(F)c(F)c(F)c6F)c6ccc3[nH]6)C=C5)C=C4)cc2)c1Cl
REMARK SMILES IDX 26 1 25 2 24 3 23 4 22 5 20 6 21 7 18 8 19 9 17 10 15 11
REMARK SMILES IDX 16 12 14 14 9 15 10 16 11 17 13 18 12 19 8 20 7 22 1 23 2 24
REMARK SMILES IDX 3 25 97 26 4 27 98 28 5 29 6 30 27 31 28 32 29 33 30 34
REMARK SMILES IDX 31 35 32 36 33 37 34 38 35 39 96 40 36 41 95 42 37 43 38 44
REMARK SMILES IDX 39 45 89 46 40 47 94 48 88 49 90 50 41 51 93 52 87 53 86 54
REMARK SMILES IDX 42 56 74 57 54 58 73 59 55 60 58 61 72 62 91 63 56 64 57 65
REMARK SMILES IDX 71 67 92 68 59 69 43 70 44 71 52 72 45 73 46 74 50 75 53 76
REMARK SMILES IDX 47 77 48 78 51 79 49 80 75 81 76 82 84 83 77 84 78 85 82 86
REMARK SMILES IDX 85 87 79 88 80 89 83 90 81 91 60 92 61 93 69 94 62 95 63 96
REMARK SMILES IDX 67 97 70 98 64 99 65 100 68 101 66 102
REMARK H PARENT 17 13 8 21 90 55 58 66
REMARK Flexibility Score: inf
ROOT
ATOM      1  C   UNL A   1      38.962  22.006  26.078  1.00  0.00     0.188 C 
ENDROOT
BRANCH   1   2
ATOM      2  O   UNL A   1      37.758  22.182  25.264  1.00  0.00    -0.376 OA
BRANCH   2   3
ATOM      3  C   UNL A   1      36.618  22.965  25.695  1.00  0.00     0.202 C 
BRANCH   3   4
ATOM      4  C   UNL A   1      35.208  22.229  26.248  1.00  0.00     0.261 C 
BRANCH   4   5
ATOM      5  O   UNL A   1      34.032  23.051  26.714  1.00  0.00    -0.462 OA
BRANCH   5   6
ATOM      6  C   UNL A   1      32.815  22.526  27.154  1.00  0.00     0.328 C 
ATOM      7  O   UNL A   1      32.655  22.207  28.333  1.00  0.00    -0.250 OA
BRANCH   6   8
ATOM      8  C   UNL A   1      31.485  22.562  26.084  1.00  0.00     0.189 C 
ATOM      9  C   UNL A   1      31.659  21.528  24.972  1.00  0.00     0.043 C 
BRANCH   8  10
ATOM     10  N   UNL A   1      30.795  23.734  25.457  1.00  0.00    -0.339 N 
ATOM     11  C   UNL A   1      30.827  25.135  25.514  1.00  0.00     0.254 C 
ATOM     12  O   UNL A   1      29.818  25.605  24.954  1.00  0.00    -0.269 OA
ATOM     13  H   UNL A   1      30.115  23.431  24.812  1.00  0.00     0.164 HD
BRANCH  11  14
ATOM     14  C   UNL A   1      31.842  26.199  26.031  1.00  0.00     0.063 A 
ATOM     15  C   UNL A   1      33.205  26.490  25.759  1.00  0.00     0.051 A 
ATOM     16  C   UNL A   1      33.815  27.687  26.273  1.00  0.00     0.027 A 
ATOM     17  C   UNL A   1      33.136  28.608  27.052  1.00  0.00     0.002 A 
ATOM     18  C   UNL A   1      31.220  27.148  26.915  1.00  0.00     0.016 A 
ATOM     19  C   UNL A   1      31.835  28.322  27.401  1.00  0.00     0.001 A 
BRANCH  15  20
ATOM     20  N   UNL A   1      34.024  25.888  24.781  1.00  0.00    -0.352 N 
ATOM     21  H   UNL A   1      34.823  25.393  25.075  1.00  0.00     0.167 HD
BRANCH  20  22
ATOM     22  C   UNL A   1      33.746  25.964  23.384  1.00  0.00     0.077 A 
ATOM     23  C   UNL A   1      31.111  28.191  22.769  1.00  0.00     0.046 C 
ATOM     24  C   UNL A   1      32.052  27.123  22.284  1.00  0.00    -0.030 A 
ATOM     25  C   UNL A   1      31.829  26.013  21.458  1.00  0.00     0.006 A 
ATOM     26  C   UNL A   1      33.282  27.157  22.862  1.00  0.00     0.069 A 
ATOM     27  C   UNL A   1      32.597  24.855  21.594  1.00  0.00     0.023 A 
ATOM     28  Cl  UNL A   1      34.090  28.662  23.005  1.00  0.00    -0.082 Cl
ATOM     29  C   UNL A   1      33.474  24.799  22.662  1.00  0.00     0.066 A 
ATOM     30  Cl  UNL A   1      34.137  23.287  23.143  1.00  0.00    -0.082 Cl
ENDBRANCH  20  22
ENDBRANCH  15  20
ENDBRANCH  11  14
ENDBRANCH   8  10
ENDBRANCH   6   8
ENDBRANCH   5   6
ENDBRANCH   4   5
ENDBRANCH   3   4
ENDBRANCH   2   3
ENDBRANCH   1   2
BRANCH   1  31
ATOM     31  C   UNL A   1      39.744  20.639  26.159  1.00  0.00     0.188 C 
BRANCH  31  32
ATOM     32  O   UNL A   1      40.884  20.559  27.002  1.00  0.00    -0.376 OA
BRANCH  32  33
ATOM     33  C   UNL A   1      42.080  20.226  26.321  1.00  0.00     0.202 C 
BRANCH  33  34
ATOM     34  C   UNL A   1      42.927  21.403  25.768  1.00  0.00     0.261 C 
BRANCH  34  35
ATOM     35  O   UNL A   1      42.204  22.595  25.361  1.00  0.00    -0.460 OA
BRANCH  35  36
ATOM     36  C   UNL A   1      42.905  23.764  25.367  1.00  0.00     0.338 C 
ATOM     37  O   UNL A   1      43.844  24.048  24.615  1.00  0.00    -0.246 OA
BRANCH  36  38
ATOM     38  C   UNL A   1      42.280  24.791  26.248  1.00  0.00     0.060 A 
ATOM     39  C   UNL A   1      42.558  26.146  25.997  1.00  0.00     0.016 A 
ATOM     40  C   UNL A   1      41.487  24.456  27.347  1.00  0.00     0.016 A 
ATOM     41  C   UNL A   1      42.038  27.155  26.818  1.00  0.00     0.010 A 
ATOM     42  C   UNL A   1      40.999  25.473  28.195  1.00  0.00     0.010 A 
ATOM     43  C   UNL A   1      41.272  26.831  27.939  1.00  0.00    -0.014 A 
BRANCH  43  44
ATOM     44  C   UNL A   1      41.013  27.876  28.969  1.00  0.00     0.031 A 
ATOM     45  C   UNL A   1      41.911  27.884  30.173  1.00  0.00     0.074 A 
ATOM     46  C   UNL A   1      40.098  28.856  28.835  1.00  0.00     0.049 A 
ATOM     47  N   UNL A   1      41.766  28.473  31.330  1.00  0.00    -0.248 NA
ATOM     48  C   UNL A   1      43.163  27.122  30.036  1.00  0.00     0.031 C 
ATOM     49  C   UNL A   1      39.310  29.130  27.637  1.00  0.00     0.029 A 
ATOM     50  N   UNL A   1      39.675  29.807  29.738  1.00  0.00    -0.354 N 
ATOM     51  C   UNL A   1      42.877  28.103  32.077  1.00  0.00     0.074 A 
ATOM     52  C   UNL A   1      43.701  27.266  31.235  1.00  0.00     0.031 C 
ATOM     53  C   UNL A   1      38.475  30.156  27.889  1.00  0.00     0.029 A 
ATOM     54  C   UNL A   1      38.609  30.553  29.290  1.00  0.00     0.049 A 
ATOM     55  H   UNL A   1      40.096  29.941  30.618  1.00  0.00     0.167 HD
ATOM     56  C   UNL A   1      43.162  28.412  33.363  1.00  0.00     0.037 A 
ATOM     57  C   UNL A   1      37.794  31.395  29.962  1.00  0.00     0.037 A 
ATOM     58  C   UNL A   1      42.340  29.267  34.175  1.00  0.00     0.049 A 
ATOM     59  C   UNL A   1      38.024  31.604  31.443  1.00  0.00     0.074 A 
ATOM     60  C   UNL A   1      42.494  29.610  35.505  1.00  0.00     0.029 A 
ATOM     61  N   UNL A   1      41.204  29.920  33.719  1.00  0.00    -0.354 N 
ATOM     62  N   UNL A   1      38.993  31.156  32.205  1.00  0.00    -0.248 NA
ATOM     63  C   UNL A   1      37.027  32.411  32.166  1.00  0.00     0.031 C 
ATOM     64  C   UNL A   1      41.416  30.424  35.870  1.00  0.00     0.029 A 
ATOM     65  C   UNL A   1      40.626  30.639  34.750  1.00  0.00     0.049 A 
ATOM     66  H   UNL A   1      40.858  29.877  32.798  1.00  0.00     0.167 HD
ATOM     67  C   UNL A   1      38.735  31.635  33.484  1.00  0.00     0.074 A 
ATOM     68  C   UNL A   1      37.527  32.429  33.393  1.00  0.00     0.031 C 
ATOM     69  C   UNL A   1      39.428  31.432  34.632  1.00  0.00     0.037 A 
BRANCH  56  70
ATOM     70  C   UNL A   1      44.349  27.737  33.986  1.00  0.00     0.064 A 
ATOM     71  C   UNL A   1      44.248  26.524  34.682  1.00  0.00     0.173 A 
ATOM     72  C   UNL A   1      45.614  28.341  33.899  1.00  0.00     0.173 A 
ATOM     73  F   UNL A   1      43.058  25.920  34.820  1.00  0.00    -0.203 F 
ATOM     74  C   UNL A   1      45.365  25.959  35.296  1.00  0.00     0.198 A 
ATOM     75  C   UNL A   1      46.733  27.755  34.483  1.00  0.00     0.198 A 
ATOM     76  F   UNL A   1      45.764  29.505  33.248  1.00  0.00    -0.203 F 
ATOM     77  F   UNL A   1      45.234  24.833  36.012  1.00  0.00    -0.200 F 
ATOM     78  C   UNL A   1      46.605  26.570  35.191  1.00  0.00     0.200 A 
ATOM     79  F   UNL A   1      47.930  28.344  34.372  1.00  0.00    -0.200 F 
ATOM     80  F   UNL A   1      47.677  26.025  35.782  1.00  0.00    -0.200 F 
ENDBRANCH  56  70
BRANCH  57  81
ATOM     81  C   UNL A   1      36.617  32.018  29.287  1.00  0.00     0.064 A 
ATOM     82  C   UNL A   1      36.560  33.396  29.037  1.00  0.00     0.173 A 
ATOM     83  C   UNL A   1      35.493  31.253  28.932  1.00  0.00     0.173 A 
ATOM     84  F   UNL A   1      37.584  34.184  29.394  1.00  0.00    -0.203 F 
ATOM     85  C   UNL A   1      35.427  33.984  28.471  1.00  0.00     0.198 A 
ATOM     86  C   UNL A   1      34.376  31.836  28.334  1.00  0.00     0.198 A 
ATOM     87  F   UNL A   1      35.475  29.933  29.168  1.00  0.00    -0.203 F 
ATOM     88  F   UNL A   1      35.379  35.312  28.297  1.00  0.00    -0.200 F 
ATOM     89  C   UNL A   1      34.340  33.202  28.113  1.00  0.00     0.200 A 
ATOM     90  F   UNL A   1      33.331  31.072  27.985  1.00  0.00    -0.200 F 
ATOM     91  F   UNL A   1      33.252  33.766  27.569  1.00  0.00    -0.200 F 
ENDBRANCH  57  81
BRANCH  69  92
ATOM     92  C   UNL A   1      38.923  32.101  35.878  1.00  0.00     0.064 A 
ATOM     93  C   UNL A   1      38.152  31.411  36.825  1.00  0.00     0.173 A 
ATOM     94  C   UNL A   1      39.278  33.430  36.163  1.00  0.00     0.173 A 
ATOM     95  F   UNL A   1      37.776  30.144  36.594  1.00  0.00    -0.203 F 
ATOM     96  C   UNL A   1      37.741  32.032  38.002  1.00  0.00     0.198 A 
ATOM     97  C   UNL A   1      38.894  34.035  37.354  1.00  0.00     0.198 A 
ATOM     98  F   UNL A   1      40.022  34.131  35.294  1.00  0.00    -0.203 F 
ATOM     99  F   UNL A   1      36.972  31.366  38.874  1.00  0.00    -0.200 F 
ATOM    100  C   UNL A   1      38.122  33.338  38.271  1.00  0.00     0.200 A 
ATOM    101  F   UNL A   1      39.279  35.292  37.621  1.00  0.00    -0.200 F 
ATOM    102  F   UNL A   1      37.740  33.927  39.412  1.00  0.00    -0.200 F 
ENDBRANCH  69  92
ENDBRANCH  43  44
ENDBRANCH  36  38
ENDBRANCH  35  36
ENDBRANCH  34  35
ENDBRANCH  33  34
ENDBRANCH  32  33
ENDBRANCH  31  32
ENDBRANCH   1  31
TORSDOF 21
ENDMDL
MODEL 2
REMARK VINA RESULT:     -11.8      4.987      7.449
REMARK SMILES Cc1ccc(Cl)c(Nc2ccccc2C(=O)N[C@@H](C)C(=O)OCCOCCOCCOC(=O)c2ccc(-c3c4nc(c(-c5c(F)c(F)c(F)c(F)c5F)c5ccc([nH]5)c(-c5c(F)c(F)c(F)c(F)c5F)c5nc(c(-c6c(F)c(F)c(F)c(F)c6F)c6ccc3[nH]6)C=C5)C=C4)cc2)c1Cl
REMARK SMILES IDX 26 1 25 2 24 3 23 4 22 5 20 6 21 7 18 8 19 9 17 10 15 11
REMARK SMILES IDX 16 12 14 14 9 15 10 16 11 17 13 18 12 19 8 20 7 22 1 23 2 24
REMARK SMILES IDX 3 25 97 26 4 27 98 28 5 29 6 30 27 31 28 32 29 33 30 34
REMARK SMILES IDX 31 35 32 36 33 37 34 38 35 39 96 40 36 41 95 42 37 43 38 44
REMARK SMILES IDX 39 45 89 46 40 47 94 48 88 49 90 50 41 51 93 52 87 53 86 54
REMARK SMILES IDX 42 56 74 57 54 58 73 59 55 60 58 61 72 62 91 63 56 64 57 65
REMARK SMILES IDX 71 67 92 68 59 69 43 70 44 71 52 72 45 73 46 74 50 75 53 76
REMARK SMILES IDX 47 77 48 78 51 79 49 80 75 81 76 82 84 83 77 84 78 85 82 86
REMARK SMILES IDX 85 87 79 88 80 89 83 90 81 91 60 92 61 93 69 94 62 95 63 96
REMARK SMILES IDX 67 97 70 98 64 99 65 100 68 101 66 102
REMARK H PARENT 17 13 8 21 90 55 58 66
REMARK Flexibility Score: inf
ROOT
ATOM      1  C   UNL A   1      39.319  23.171  26.488  1.00  0.00     0.188 C 
ENDROOT
BRANCH   1   2
ATOM      2  O   UNL A   1      38.041  22.628  26.025  1.00  0.00    -0.376 OA
BRANCH   2   3
ATOM      3  C   UNL A   1      36.800  23.373  26.075  1.00  0.00     0.202 C 
BRANCH   3   4
ATOM      4  C   UNL A   1      35.319  22.597  26.281  1.00  0.00     0.261 C 
BRANCH   4   5
ATOM      5  O   UNL A   1      34.092  23.363  26.709  1.00  0.00    -0.462 OA
BRANCH   5   6
ATOM      6  C   UNL A   1      32.923  22.785  27.208  1.00  0.00     0.328 C 
ATOM      7  O   UNL A   1      32.862  22.390  28.373  1.00  0.00    -0.250 OA
BRANCH   6   8
ATOM      8  C   UNL A   1      31.512  22.855  26.248  1.00  0.00     0.189 C 
ATOM      9  C   UNL A   1      31.527  21.755  25.186  1.00  0.00     0.043 C 
BRANCH   8  10
ATOM     10  N   UNL A   1      30.848  24.038  25.612  1.00  0.00    -0.339 N 
ATOM     11  C   UNL A   1      30.922  25.437  25.648  1.00  0.00     0.254 C 
ATOM     12  O   UNL A   1      29.919  25.928  25.094  1.00  0.00    -0.269 OA
ATOM     13  H   UNL A   1      30.150  23.745  24.982  1.00  0.00     0.164 HD
BRANCH  11  14
ATOM     14  C   UNL A   1      31.974  26.479  26.134  1.00  0.00     0.063 A 
ATOM     15  C   UNL A   1      33.336  26.737  25.825  1.00  0.00     0.051 A 
ATOM     16  C   UNL A   1      33.987  27.920  26.318  1.00  0.00     0.027 A 
ATOM     17  C   UNL A   1      33.351  28.860  27.111  1.00  0.00     0.002 A 
ATOM     18  C   UNL A   1      31.398  27.445  27.030  1.00  0.00     0.016 A 
ATOM     19  C   UNL A   1      32.053  28.605  27.495  1.00  0.00     0.001 A 
BRANCH  15  20
ATOM     20  N   UNL A   1      34.115  26.112  24.828  1.00  0.00    -0.352 N 
ATOM     21  H   UNL A   1      34.936  25.642  25.098  1.00  0.00     0.167 HD
BRANCH  20  22
ATOM     22  C   UNL A   1      33.764  26.133  23.446  1.00  0.00     0.077 A 
ATOM     23  C   UNL A   1      31.161  28.405  22.865  1.00  0.00     0.046 C 
ATOM     24  C   UNL A   1      32.046  27.289  22.382  1.00  0.00    -0.030 A 
ATOM     25  C   UNL A   1      31.749  26.149  21.622  1.00  0.00     0.006 A 
ATOM     26  C   UNL A   1      33.305  27.314  22.893  1.00  0.00     0.069 A 
ATOM     27  C   UNL A   1      32.491  24.977  21.773  1.00  0.00     0.023 A 
ATOM     28  Cl  UNL A   1      34.160  28.799  22.922  1.00  0.00    -0.082 Cl
ATOM     29  C   UNL A   1      33.423  24.944  22.796  1.00  0.00     0.066 A 
ATOM     30  Cl  UNL A   1      34.070  23.437  23.312  1.00  0.00    -0.082 Cl
ENDBRANCH  20  22
ENDBRANCH  15  20
ENDBRANCH  11  14
ENDBRANCH   8  10
ENDBRANCH   6   8
ENDBRANCH   5   6
ENDBRANCH   4   5
ENDBRANCH   3   4
ENDBRANCH   2   3
ENDBRANCH   1   2
BRANCH   1  31
ATOM     31  C   UNL A   1      40.392  22.297  27.244  1.00  0.00     0.188 C 
BRANCH  31  32
ATOM     32  O   UNL A   1      41.341  21.573  26.475  1.00  0.00    -0.376 OA
BRANCH  32  33
ATOM     33  C   UNL A   1      41.006  20.210  26.285  1.00  0.00     0.202 C 
BRANCH  33  34
ATOM     34  C   UNL A   1      42.182  19.208  26.145  1.00  0.00     0.261 C 
BRANCH  34  35
ATOM     35  O   UNL A   1      42.828  19.134  24.846  1.00  0.00    -0.460 OA
BRANCH  35  36
ATOM     36  C   UNL A   1      44.179  19.312  24.826  1.00  0.00     0.338 C 
ATOM     37  O   UNL A   1      45.019  18.444  24.563  1.00  0.00    -0.246 OA
BRANCH  36  38
ATOM     38  C   UNL A   1      44.560  20.748  24.946  1.00  0.00     0.060 A 
ATOM     39  C   UNL A   1      45.222  21.170  26.112  1.00  0.00     0.016 A 
ATOM     40  C   UNL A   1      44.225  21.696  23.978  1.00  0.00     0.016 A 
ATOM     41  C   UNL A   1      45.565  22.515  26.303  1.00  0.00     0.010 A 
ATOM     42  C   UNL A   1      44.535  23.056  24.193  1.00  0.00     0.010 A 
ATOM     43  C   UNL A   1      45.206  23.477  25.359  1.00  0.00    -0.014 A 
BRANCH  43  44
ATOM     44  C   UNL A   1      45.279  24.919  25.727  1.00  0.00     0.031 A 
ATOM     45  C   UNL A   1      46.593  25.613  25.512  1.00  0.00     0.074 A 
ATOM     46  C   UNL A   1      44.222  25.644  26.142  1.00  0.00     0.049 A 
ATOM     47  N   UNL A   1      47.032  26.752  25.979  1.00  0.00    -0.248 NA
ATOM     48  C   UNL A   1      47.541  24.918  24.626  1.00  0.00     0.031 C 
ATOM     49  C   UNL A   1      42.836  25.187  26.182  1.00  0.00     0.029 A 
ATOM     50  N   UNL A   1      44.161  26.936  26.618  1.00  0.00    -0.354 N 
ATOM     51  C   UNL A   1      48.327  26.877  25.493  1.00  0.00     0.074 A 
ATOM     52  C   UNL A   1      48.592  25.719  24.672  1.00  0.00     0.031 C 
ATOM     53  C   UNL A   1      42.067  26.170  26.688  1.00  0.00     0.029 A 
ATOM     54  C   UNL A   1      42.917  27.290  27.089  1.00  0.00     0.049 A 
ATOM     55  H   UNL A   1      44.933  27.547  26.621  1.00  0.00     0.167 HD
ATOM     56  C   UNL A   1      49.222  27.862  25.739  1.00  0.00     0.037 A 
ATOM     57  C   UNL A   1      42.537  28.358  27.824  1.00  0.00     0.037 A 
ATOM     58  C   UNL A   1      48.930  29.019  26.540  1.00  0.00     0.049 A 
ATOM     59  C   UNL A   1      43.585  29.369  28.235  1.00  0.00     0.074 A 
ATOM     60  C   UNL A   1      49.768  30.055  26.906  1.00  0.00     0.029 A 
ATOM     61  N   UNL A   1      47.687  29.291  27.094  1.00  0.00    -0.354 N 
ATOM     62  N   UNL A   1      44.851  29.437  27.898  1.00  0.00    -0.248 NA
ATOM     63  C   UNL A   1      43.159  30.434  29.157  1.00  0.00     0.031 C 
ATOM     64  C   UNL A   1      49.047  30.924  27.732  1.00  0.00     0.029 A 
ATOM     65  C   UNL A   1      47.742  30.462  27.827  1.00  0.00     0.049 A 
ATOM     66  H   UNL A   1      46.883  28.732  26.981  1.00  0.00     0.167 HD
ATOM     67  C   UNL A   1      45.366  30.553  28.547  1.00  0.00     0.074 A 
ATOM     68  C   UNL A   1      44.270  31.147  29.283  1.00  0.00     0.031 C 
ATOM     69  C   UNL A   1      46.632  31.040  28.544  1.00  0.00     0.037 A 
BRANCH  56  70
ATOM     70  C   UNL A   1      50.618  27.667  25.225  1.00  0.00     0.064 A 
ATOM     71  C   UNL A   1      50.971  27.900  23.888  1.00  0.00     0.173 A 
ATOM     72  C   UNL A   1      51.620  27.210  26.098  1.00  0.00     0.173 A 
ATOM     73  F   UNL A   1      50.046  28.309  23.007  1.00  0.00    -0.203 F 
ATOM     74  C   UNL A   1      52.266  27.651  23.437  1.00  0.00     0.198 A 
ATOM     75  C   UNL A   1      52.921  26.997  25.651  1.00  0.00     0.198 A 
ATOM     76  F   UNL A   1      51.335  26.967  27.386  1.00  0.00    -0.203 F 
ATOM     77  F   UNL A   1      52.565  27.818  22.141  1.00  0.00    -0.200 F 
ATOM     78  C   UNL A   1      53.240  27.207  24.318  1.00  0.00     0.200 A 
ATOM     79  F   UNL A   1      53.861  26.576  26.508  1.00  0.00    -0.200 F 
ATOM     80  F   UNL A   1      54.485  26.968  23.883  1.00  0.00    -0.200 F 
ENDBRANCH  56  70
BRANCH  57  81
ATOM     81  C   UNL A   1      41.135  28.480  28.322  1.00  0.00     0.064 A 
ATOM     82  C   UNL A   1      40.765  28.020  29.593  1.00  0.00     0.173 A 
ATOM     83  C   UNL A   1      40.118  29.008  27.508  1.00  0.00     0.173 A 
ATOM     84  F   UNL A   1      41.684  27.467  30.398  1.00  0.00    -0.203 F 
ATOM     85  C   UNL A   1      39.439  28.071  30.026  1.00  0.00     0.198 A 
ATOM     86  C   UNL A   1      38.799  29.091  27.954  1.00  0.00     0.198 A 
ATOM     87  F   UNL A   1      40.403  29.441  26.271  1.00  0.00    -0.203 F 
ATOM     88  F   UNL A   1      39.106  27.571  31.223  1.00  0.00    -0.200 F 
ATOM     89  C   UNL A   1      38.459  28.614  29.209  1.00  0.00     0.200 A 
ATOM     90  F   UNL A   1      37.859  29.623  27.161  1.00  0.00    -0.200 F 
ATOM     91  F   UNL A   1      37.186  28.664  29.624  1.00  0.00    -0.200 F 
ENDBRANCH  57  81
BRANCH  69  92
ATOM     92  C   UNL A   1      46.899  32.292  29.329  1.00  0.00     0.064 A 
ATOM     93  C   UNL A   1      46.714  33.565  28.771  1.00  0.00     0.173 A 
ATOM     94  C   UNL A   1      47.273  32.215  30.680  1.00  0.00     0.173 A 
ATOM     95  F   UNL A   1      46.368  33.692  27.481  1.00  0.00    -0.203 F 
ATOM     96  C   UNL A   1      46.910  34.715  29.531  1.00  0.00     0.198 A 
ATOM     97  C   UNL A   1      47.436  33.365  31.445  1.00  0.00     0.198 A 
ATOM     98  F   UNL A   1      47.455  31.021  31.264  1.00  0.00    -0.203 F 
ATOM     99  F   UNL A   1      46.766  35.922  28.966  1.00  0.00    -0.200 F 
ATOM    100  C   UNL A   1      47.259  34.614  30.870  1.00  0.00     0.200 A 
ATOM    101  F   UNL A   1      47.755  33.265  32.744  1.00  0.00    -0.200 F 
ATOM    102  F   UNL A   1      47.430  35.722  31.604  1.00  0.00    -0.200 F 
ENDBRANCH  69  92
ENDBRANCH  43  44
ENDBRANCH  36  38
ENDBRANCH  35  36
ENDBRANCH  34  35
ENDBRANCH  33  34
ENDBRANCH  32  33
ENDBRANCH  31  32
ENDBRANCH   1  31
TORSDOF 21
ENDMDL
MODEL 3
REMARK VINA RESULT:     -11.4      5.037      7.620
REMARK SMILES Cc1ccc(Cl)c(Nc2ccccc2C(=O)N[C@@H](C)C(=O)OCCOCCOCCOC(=O)c2ccc(-c3c4nc(c(-c5c(F)c(F)c(F)c(F)c5F)c5ccc([nH]5)c(-c5c(F)c(F)c(F)c(F)c5F)c5nc(c(-c6c(F)c(F)c(F)c(F)c6F)c6ccc3[nH]6)C=C5)C=C4)cc2)c1Cl
REMARK SMILES IDX 26 1 25 2 24 3 23 4 22 5 20 6 21 7 18 8 19 9 17 10 15 11
REMARK SMILES IDX 16 12 14 14 9 15 10 16 11 17 13 18 12 19 8 20 7 22 1 23 2 24
REMARK SMILES IDX 3 25 97 26 4 27 98 28 5 29 6 30 27 31 28 32 29 33 30 34
REMARK SMILES IDX 31 35 32 36 33 37 34 38 35 39 96 40 36 41 95 42 37 43 38 44
REMARK SMILES IDX 39 45 89 46 40 47 94 48 88 49 90 50 41 51 93 52 87 53 86 54
REMARK SMILES IDX 42 56 74 57 54 58 73 59 55 60 58 61 72 62 91 63 56 64 57 65
REMARK SMILES IDX 71 67 92 68 59 69 43 70 44 71 52 72 45 73 46 74 50 75 53 76
REMARK SMILES IDX 47 77 48 78 51 79 49 80 75 81 76 82 84 83 77 84 78 85 82 86
REMARK SMILES IDX 85 87 79 88 80 89 83 90 81 91 60 92 61 93 69 94 62 95 63 96
REMARK SMILES IDX 67 97 70 98 64 99 65 100 68 101 66 102
REMARK H PARENT 17 13 8 21 90 55 58 66
REMARK Flexibility Score: inf
ROOT
ATOM      1  C   UNL A   1      40.736  21.818  26.449  1.00  0.00     0.188 C 
ENDROOT
BRANCH   1   2
ATOM      2  O   UNL A   1      39.517  22.287  25.788  1.00  0.00    -0.376 OA
BRANCH   2   3
ATOM      3  C   UNL A   1      38.307  21.495  25.705  1.00  0.00     0.202 C 
BRANCH   3   4
ATOM      4  C   UNL A   1      37.168  21.759  24.492  1.00  0.00     0.261 C 
BRANCH   4   5
ATOM      5  O   UNL A   1      35.700  21.516  24.738  1.00  0.00    -0.462 OA
BRANCH   5   6
ATOM      6  C   UNL A   1      35.118  20.260  24.921  1.00  0.00     0.328 C 
ATOM      7  O   UNL A   1      35.794  19.233  24.842  1.00  0.00    -0.250 OA
BRANCH   6   8
ATOM      8  C   UNL A   1      33.509  20.189  25.490  1.00  0.00     0.189 C 
ATOM      9  C   UNL A   1      32.636  19.370  24.540  1.00  0.00     0.043 C 
BRANCH   8  10
ATOM     10  N   UNL A   1      32.634  21.285  26.018  1.00  0.00    -0.339 N 
ATOM     11  C   UNL A   1      32.383  22.644  25.781  1.00  0.00     0.254 C 
ATOM     12  O   UNL A   1      31.726  23.124  26.725  1.00  0.00    -0.269 OA
ATOM     13  H   UNL A   1      32.068  20.952  26.751  1.00  0.00     0.164 HD
BRANCH  11  14
ATOM     14  C   UNL A   1      32.660  23.634  24.610  1.00  0.00     0.063 A 
ATOM     15  C   UNL A   1      32.914  25.030  24.525  1.00  0.00     0.051 A 
ATOM     16  C   UNL A   1      33.328  25.624  23.283  1.00  0.00     0.027 A 
ATOM     17  C   UNL A   1      33.496  24.899  22.115  1.00  0.00     0.002 A 
ATOM     18  C   UNL A   1      32.768  22.955  23.347  1.00  0.00     0.016 A 
ATOM     19  C   UNL A   1      33.185  23.557  22.141  1.00  0.00     0.001 A 
BRANCH  15  20
ATOM     20  N   UNL A   1      33.095  25.927  25.598  1.00  0.00    -0.352 N 
ATOM     21  H   UNL A   1      33.821  25.753  26.240  1.00  0.00     0.167 HD
BRANCH  20  22
ATOM     22  C   UNL A   1      32.273  27.076  25.794  1.00  0.00     0.077 A 
ATOM     23  C   UNL A   1      29.958  27.398  23.184  1.00  0.00     0.046 C 
ATOM     24  C   UNL A   1      30.638  27.969  24.397  1.00  0.00    -0.030 A 
ATOM     25  C   UNL A   1      31.124  29.258  24.652  1.00  0.00     0.006 A 
ATOM     26  C   UNL A   1      30.968  27.046  25.339  1.00  0.00     0.069 A 
ATOM     27  C   UNL A   1      32.205  29.457  25.512  1.00  0.00     0.023 A 
ATOM     28  Cl  UNL A   1      29.806  25.868  25.789  1.00  0.00    -0.082 Cl
ATOM     29  C   UNL A   1      32.860  28.331  25.978  1.00  0.00     0.066 A 
ATOM     30  Cl  UNL A   1      34.420  28.481  26.685  1.00  0.00    -0.082 Cl
ENDBRANCH  20  22
ENDBRANCH  15  20
ENDBRANCH  11  14
ENDBRANCH   8  10
ENDBRANCH   6   8
ENDBRANCH   5   6
ENDBRANCH   4   5
ENDBRANCH   3   4
ENDBRANCH   2   3
ENDBRANCH   1   2
BRANCH   1  31
ATOM     31  C   UNL A   1      40.827  20.422  27.178  1.00  0.00     0.188 C 
BRANCH  31  32
ATOM     32  O   UNL A   1      42.078  19.751  27.203  1.00  0.00    -0.376 OA
BRANCH  32  33
ATOM     33  C   UNL A   1      42.267  18.845  26.131  1.00  0.00     0.202 C 
BRANCH  33  34
ATOM     34  C   UNL A   1      43.721  18.385  25.845  1.00  0.00     0.261 C 
BRANCH  34  35
ATOM     35  O   UNL A   1      44.163  18.436  24.462  1.00  0.00    -0.460 OA
BRANCH  35  36
ATOM     36  C   UNL A   1      45.217  19.256  24.190  1.00  0.00     0.338 C 
ATOM     37  O   UNL A   1      46.174  18.983  23.456  1.00  0.00    -0.246 OA
BRANCH  36  38
ATOM     38  C   UNL A   1      45.002  20.639  24.701  1.00  0.00     0.060 A 
ATOM     39  C   UNL A   1      44.516  21.613  23.812  1.00  0.00     0.016 A 
ATOM     40  C   UNL A   1      45.328  21.016  26.005  1.00  0.00     0.016 A 
ATOM     41  C   UNL A   1      44.337  22.942  24.221  1.00  0.00     0.010 A 
ATOM     42  C   UNL A   1      45.185  22.363  26.401  1.00  0.00     0.010 A 
ATOM     43  C   UNL A   1      44.690  23.338  25.511  1.00  0.00    -0.014 A 
BRANCH  43  44
ATOM     44  C   UNL A   1      44.808  24.791  25.819  1.00  0.00     0.031 A 
ATOM     45  C   UNL A   1      46.145  25.432  25.582  1.00  0.00     0.074 A 
ATOM     46  C   UNL A   1      43.773  25.567  26.197  1.00  0.00     0.049 A 
ATOM     47  N   UNL A   1      46.618  26.575  26.003  1.00  0.00    -0.248 NA
ATOM     48  C   UNL A   1      47.073  24.670  24.732  1.00  0.00     0.031 C 
ATOM     49  C   UNL A   1      42.373  25.157  26.249  1.00  0.00     0.029 A 
ATOM     50  N   UNL A   1      43.752  26.879  26.619  1.00  0.00    -0.354 N 
ATOM     51  C   UNL A   1      47.919  26.638  25.520  1.00  0.00     0.074 A 
ATOM     52  C   UNL A   1      48.150  25.438  24.750  1.00  0.00     0.031 C 
ATOM     53  C   UNL A   1      41.634  26.184  26.709  1.00  0.00     0.029 A 
ATOM     54  C   UNL A   1      42.519  27.293  27.067  1.00  0.00     0.049 A 
ATOM     55  H   UNL A   1      44.544  27.464  26.600  1.00  0.00     0.167 HD
ATOM     56  C   UNL A   1      48.845  27.603  25.729  1.00  0.00     0.037 A 
ATOM     57  C   UNL A   1      42.170  28.402  27.754  1.00  0.00     0.037 A 
ATOM     58  C   UNL A   1      48.586  28.802  26.479  1.00  0.00     0.049 A 
ATOM     59  C   UNL A   1      43.249  29.395  28.128  1.00  0.00     0.074 A 
ATOM     60  C   UNL A   1      49.456  29.825  26.806  1.00  0.00     0.029 A 
ATOM     61  N   UNL A   1      47.351  29.137  27.014  1.00  0.00    -0.354 N 
ATOM     62  N   UNL A   1      44.518  29.408  27.796  1.00  0.00    -0.248 NA
ATOM     63  C   UNL A   1      42.853  30.512  29.002  1.00  0.00     0.031 C 
ATOM     64  C   UNL A   1      48.760  30.750  27.591  1.00  0.00     0.029 A 
ATOM     65  C   UNL A   1      47.441  30.336  27.698  1.00  0.00     0.049 A 
ATOM     66  H   UNL A   1      46.530  28.600  26.921  1.00  0.00     0.167 HD
ATOM     67  C   UNL A   1      45.066  30.533  28.400  1.00  0.00     0.074 A 
ATOM     68  C   UNL A   1      43.986  31.193  29.105  1.00  0.00     0.031 C 
ATOM     69  C   UNL A   1      46.348  30.978  28.383  1.00  0.00     0.037 A 
BRANCH  56  70
ATOM     70  C   UNL A   1      50.236  27.341  25.232  1.00  0.00     0.064 A 
ATOM     71  C   UNL A   1      51.259  26.866  26.065  1.00  0.00     0.173 A 
ATOM     72  C   UNL A   1      50.551  27.598  23.887  1.00  0.00     0.173 A 
ATOM     73  F   UNL A   1      51.019  26.631  27.364  1.00  0.00    -0.203 F 
ATOM     74  C   UNL A   1      52.553  26.690  25.577  1.00  0.00     0.198 A 
ATOM     75  C   UNL A   1      51.836  27.388  23.396  1.00  0.00     0.198 A 
ATOM     76  F   UNL A   1      49.610  28.059  23.049  1.00  0.00    -0.203 F 
ATOM     77  F   UNL A   1      53.531  26.298  26.406  1.00  0.00    -0.200 F 
ATOM     78  C   UNL A   1      52.838  26.945  24.245  1.00  0.00     0.200 A 
ATOM     79  F   UNL A   1      52.105  27.627  22.106  1.00  0.00    -0.200 F 
ATOM     80  F   UNL A   1      54.083  26.776  23.778  1.00  0.00    -0.200 F 
ENDBRANCH  56  70
BRANCH  57  81
ATOM     81  C   UNL A   1      40.771  28.591  28.238  1.00  0.00     0.064 A 
ATOM     82  C   UNL A   1      40.382  28.202  29.528  1.00  0.00     0.173 A 
ATOM     83  C   UNL A   1      39.773  29.111  27.396  1.00  0.00     0.173 A 
ATOM     84  F   UNL A   1      41.281  27.658  30.362  1.00  0.00    -0.203 F 
ATOM     85  C   UNL A   1      39.057  28.313  29.951  1.00  0.00     0.198 A 
ATOM     86  C   UNL A   1      38.457  29.255  27.831  1.00  0.00     0.198 A 
ATOM     87  F   UNL A   1      40.076  29.477  26.142  1.00  0.00    -0.203 F 
ATOM     88  F   UNL A   1      38.704  27.880  31.169  1.00  0.00    -0.200 F 
ATOM     89  C   UNL A   1      38.097  28.848  29.105  1.00  0.00     0.200 A 
ATOM     90  F   UNL A   1      37.536  29.779  27.010  1.00  0.00    -0.200 F 
ATOM     91  F   UNL A   1      36.824  28.956  29.511  1.00  0.00    -0.200 F 
ENDBRANCH  57  81
BRANCH  69  92
ATOM     92  C   UNL A   1      46.652  32.254  29.116  1.00  0.00     0.064 A 
ATOM     93  C   UNL A   1      46.505  33.508  28.506  1.00  0.00     0.173 A 
ATOM     94  C   UNL A   1      47.023  32.221  30.470  1.00  0.00     0.173 A 
ATOM     95  F   UNL A   1      46.164  33.592  27.211  1.00  0.00    -0.203 F 
ATOM     96  C   UNL A   1      46.735  34.681  29.219  1.00  0.00     0.198 A 
ATOM     97  C   UNL A   1      47.219  33.397  31.188  1.00  0.00     0.198 A 
ATOM     98  F   UNL A   1      47.168  31.047  31.104  1.00  0.00    -0.203 F 
ATOM     99  F   UNL A   1      46.628  35.867  28.604  1.00  0.00    -0.200 F 
ATOM    100  C   UNL A   1      47.081  34.625  30.561  1.00  0.00     0.200 A 
ATOM    101  F   UNL A   1      47.535  33.340  32.490  1.00  0.00    -0.200 F 
ATOM    102  F   UNL A   1      47.284  35.757  31.249  1.00  0.00    -0.200 F 
ENDBRANCH  69  92
ENDBRANCH  43  44
ENDBRANCH  36  38
ENDBRANCH  35  36
ENDBRANCH  34  35
ENDBRANCH  33  34
ENDBRANCH  32  33
ENDBRANCH  31  32
ENDBRANCH   1  31
TORSDOF 21
ENDMDL
