MODEL 1
REMARK VINA RESULT:      -9.1      0.000      0.000
REMARK SMILES COc1cccc([C@@H]2CN(C(=O)CCSC)C[C@H]2C(=O)OCCOCCOCCOC(=O)c2ccc(-c3c4nc(c(-c5c(F)c(F)c(F)c(F)c5F)c5ccc([nH]5)c(-c5c(F)c(F)c(F)c(F)c5F)c5nc(c(-c6c(F)c(F)c(F)c(F)c6F)c6ccc3[nH]6)C=C5)C=C4)cc2)c1OC
REMARK SMILES IDX 25 1 24 2 23 3 22 4 21 5 19 6 20 7 18 8 8 9 9 10 10 11 17 12
REMARK SMILES IDX 7 13 3 14 4 15 96 16 5 17 6 18 2 19 1 20 97 21 98 22 11 23
REMARK SMILES IDX 12 24 13 25 14 26 15 27 16 28 26 29 27 30 28 31 29 32 30 33
REMARK SMILES IDX 31 34 32 35 33 36 34 37 95 38 35 39 94 40 36 41 37 42 38 43
REMARK SMILES IDX 88 44 39 45 93 46 87 47 89 48 40 49 92 50 86 51 85 52 41 54
REMARK SMILES IDX 73 55 53 56 72 57 54 58 57 59 71 60 90 61 55 62 56 63 70 65
REMARK SMILES IDX 91 66 58 67 42 68 43 69 51 70 44 71 45 72 49 73 52 74 46 75
REMARK SMILES IDX 47 76 50 77 48 78 74 79 75 80 83 81 76 82 77 83 81 84 84 85
REMARK SMILES IDX 78 86 79 87 82 88 80 89 59 90 60 91 68 92 61 93 62 94 66 95
REMARK SMILES IDX 69 96 63 97 64 98 67 99 65 100
REMARK H PARENT 89 53 57 64
REMARK Flexibility Score: inf
ROOT
ATOM      1  C   UNL A   1      35.030  31.254  28.837  1.00  0.00     0.188 C 
ENDROOT
BRANCH   1   2
ATOM      2  O   UNL A   1      34.991  30.644  27.554  1.00  0.00    -0.376 OA
BRANCH   2   3
ATOM      3  C   UNL A   1      33.785  30.057  27.089  1.00  0.00     0.202 C 
BRANCH   3   4
ATOM      4  C   UNL A   1      33.883  29.192  25.831  1.00  0.00     0.261 C 
BRANCH   4   5
ATOM      5  O   UNL A   1      32.940  29.519  24.783  1.00  0.00    -0.463 OA
BRANCH   5   6
ATOM      6  C   UNL A   1      33.126  28.888  23.594  1.00  0.00     0.311 C 
ATOM      7  O   UNL A   1      34.121  29.029  22.889  1.00  0.00    -0.252 OA
BRANCH   6   8
ATOM      8  C   UNL A   1      31.942  28.066  23.129  1.00  0.00     0.128 C 
ATOM      9  C   UNL A   1      31.461  26.833  23.936  1.00  0.00     0.059 C 
ATOM     10  C   UNL A   1      29.927  26.862  23.811  1.00  0.00     0.129 C 
ATOM     11  N   UNL A   1      29.576  28.160  23.277  1.00  0.00    -0.341 N 
ATOM     12  C   UNL A   1      30.737  28.997  23.082  1.00  0.00     0.135 C 
BRANCH   9  13
ATOM     13  C   UNL A   1      31.921  25.414  23.556  1.00  0.00     0.004 A 
ATOM     14  C   UNL A   1      32.691  23.140  24.073  1.00  0.00     0.161 A 
ATOM     15  C   UNL A   1      33.125  22.978  22.754  1.00  0.00     0.050 A 
ATOM     16  C   UNL A   1      32.097  24.353  24.484  1.00  0.00     0.164 A 
ATOM     17  C   UNL A   1      32.979  24.020  21.840  1.00  0.00     0.004 A 
ATOM     18  C   UNL A   1      32.390  25.223  22.237  1.00  0.00     0.008 A 
BRANCH  14  19
ATOM     19  O   UNL A   1      33.085  22.195  24.987  1.00  0.00    -0.493 OA
ATOM     20  C   UNL A   1      33.408  20.935  24.405  1.00  0.00     0.278 C 
ENDBRANCH  14  19
BRANCH  16  21
ATOM     21  O   UNL A   1      31.800  24.660  25.784  1.00  0.00    -0.493 OA
ATOM     22  C   UNL A   1      30.609  24.138  26.356  1.00  0.00     0.278 C 
ENDBRANCH  16  21
ENDBRANCH   9  13
BRANCH  11  23
ATOM     23  C   UNL A   1      28.320  28.594  22.929  1.00  0.00     0.223 C 
ATOM     24  O   UNL A   1      27.305  28.108  23.431  1.00  0.00    -0.275 OA
BRANCH  23  25
ATOM     25  C   UNL A   1      28.205  29.716  21.918  1.00  0.00     0.111 C 
BRANCH  25  26
ATOM     26  C   UNL A   1      27.765  31.017  22.580  1.00  0.00     0.079 C 
BRANCH  26  27
ATOM     27  S   UNL A   1      28.371  32.516  21.729  1.00  0.00    -0.165 SA
ATOM     28  C   UNL A   1      29.037  33.426  23.143  1.00  0.00     0.085 C 
ENDBRANCH  26  27
ENDBRANCH  25  26
ENDBRANCH  23  25
ENDBRANCH  11  23
ENDBRANCH   6   8
ENDBRANCH   5   6
ENDBRANCH   4   5
ENDBRANCH   3   4
ENDBRANCH   2   3
ENDBRANCH   1   2
BRANCH   1  29
ATOM     29  C   UNL A   1      36.297  31.978  29.297  1.00  0.00     0.188 C 
BRANCH  29  30
ATOM     30  O   UNL A   1      36.141  32.751  30.473  1.00  0.00    -0.376 OA
BRANCH  30  31
ATOM     31  C   UNL A   1      35.943  31.988  31.656  1.00  0.00     0.202 C 
BRANCH  31  32
ATOM     32  C   UNL A   1      37.130  32.172  32.603  1.00  0.00     0.261 C 
BRANCH  32  33
ATOM     33  O   UNL A   1      37.385  31.018  33.431  1.00  0.00    -0.460 OA
BRANCH  33  34
ATOM     34  C   UNL A   1      37.784  29.904  32.791  1.00  0.00     0.338 C 
ATOM     35  O   UNL A   1      37.182  28.834  32.714  1.00  0.00    -0.246 OA
BRANCH  34  36
ATOM     36  C   UNL A   1      38.995  30.218  32.018  1.00  0.00     0.060 A 
ATOM     37  C   UNL A   1      40.120  30.674  32.704  1.00  0.00     0.016 A 
ATOM     38  C   UNL A   1      39.025  30.111  30.630  1.00  0.00     0.016 A 
ATOM     39  C   UNL A   1      41.262  31.058  32.014  1.00  0.00     0.010 A 
ATOM     40  C   UNL A   1      40.176  30.512  29.933  1.00  0.00     0.010 A 
ATOM     41  C   UNL A   1      41.295  31.021  30.620  1.00  0.00    -0.014 A 
BRANCH  41  42
ATOM     42  C   UNL A   1      42.427  31.654  29.893  1.00  0.00     0.031 A 
ATOM     43  C   UNL A   1      43.547  30.784  29.389  1.00  0.00     0.074 A 
ATOM     44  C   UNL A   1      42.445  32.970  29.608  1.00  0.00     0.049 A 
ATOM     45  N   UNL A   1      44.712  31.123  28.898  1.00  0.00    -0.248 NA
ATOM     46  C   UNL A   1      43.311  29.332  29.430  1.00  0.00     0.031 C 
ATOM     47  C   UNL A   1      41.376  33.920  29.907  1.00  0.00     0.029 A 
ATOM     48  N   UNL A   1      43.413  33.735  29.000  1.00  0.00    -0.354 N 
ATOM     49  C   UNL A   1      45.369  29.930  28.626  1.00  0.00     0.074 A 
ATOM     50  C   UNL A   1      44.468  28.858  28.991  1.00  0.00     0.031 C 
ATOM     51  C   UNL A   1      41.750  35.143  29.494  1.00  0.00     0.029 A 
ATOM     52  C   UNL A   1      43.113  35.075  28.971  1.00  0.00     0.049 A 
ATOM     53  H   UNL A   1      44.241  33.359  28.622  1.00  0.00     0.167 HD
ATOM     54  C   UNL A   1      46.613  29.747  28.126  1.00  0.00     0.037 A 
ATOM     55  C   UNL A   1      43.872  36.134  28.621  1.00  0.00     0.037 A 
ATOM     56  C   UNL A   1      47.496  30.810  27.726  1.00  0.00     0.049 A 
ATOM     57  C   UNL A   1      45.294  35.916  28.171  1.00  0.00     0.074 A 
ATOM     58  C   UNL A   1      48.779  30.722  27.211  1.00  0.00     0.029 A 
ATOM     59  N   UNL A   1      47.184  32.160  27.786  1.00  0.00    -0.354 N 
ATOM     60  N   UNL A   1      45.944  34.792  27.993  1.00  0.00    -0.248 NA
ATOM     61  C   UNL A   1      46.095  37.119  27.898  1.00  0.00     0.031 C 
ATOM     62  C   UNL A   1      49.258  32.019  27.003  1.00  0.00     0.029 A 
ATOM     63  C   UNL A   1      48.258  32.915  27.340  1.00  0.00     0.049 A 
ATOM     64  H   UNL A   1      46.326  32.527  28.099  1.00  0.00     0.167 HD
ATOM     65  C   UNL A   1      47.219  35.151  27.572  1.00  0.00     0.074 A 
ATOM     66  C   UNL A   1      47.247  36.596  27.504  1.00  0.00     0.031 C 
ATOM     67  C   UNL A   1      48.274  34.353  27.274  1.00  0.00     0.037 A 
BRANCH  54  68
ATOM     68  C   UNL A   1      47.122  28.339  28.034  1.00  0.00     0.064 A 
ATOM     69  C   UNL A   1      47.773  27.711  29.103  1.00  0.00     0.173 A 
ATOM     70  C   UNL A   1      46.922  27.599  26.857  1.00  0.00     0.173 A 
ATOM     71  F   UNL A   1      48.004  28.382  30.241  1.00  0.00    -0.203 F 
ATOM     72  C   UNL A   1      48.226  26.398  28.992  1.00  0.00     0.198 A 
ATOM     73  C   UNL A   1      47.353  26.279  26.758  1.00  0.00     0.198 A 
ATOM     74  F   UNL A   1      46.303  28.155  25.806  1.00  0.00    -0.203 F 
ATOM     75  F   UNL A   1      48.887  25.830  30.010  1.00  0.00    -0.200 F 
ATOM     76  C   UNL A   1      48.010  25.682  27.823  1.00  0.00     0.200 A 
ATOM     77  F   UNL A   1      47.133  25.587  25.632  1.00  0.00    -0.200 F 
ATOM     78  F   UNL A   1      48.443  24.417  27.719  1.00  0.00    -0.200 F 
ENDBRANCH  54  68
BRANCH  55  79
ATOM     79  C   UNL A   1      43.330  37.513  28.752  1.00  0.00     0.064 A 
ATOM     80  C   UNL A   1      43.617  38.301  29.875  1.00  0.00     0.173 A 
ATOM     81  C   UNL A   1      42.486  38.056  27.771  1.00  0.00     0.173 A 
ATOM     82  F   UNL A   1      44.390  37.812  30.855  1.00  0.00    -0.203 F 
ATOM     83  C   UNL A   1      43.071  39.576  30.017  1.00  0.00     0.198 A 
ATOM     84  C   UNL A   1      41.965  39.341  27.900  1.00  0.00     0.198 A 
ATOM     85  F   UNL A   1      42.169  37.337  26.684  1.00  0.00    -0.203 F 
ATOM     86  F   UNL A   1      43.320  40.289  31.123  1.00  0.00    -0.200 F 
ATOM     87  C   UNL A   1      42.251  40.097  29.026  1.00  0.00     0.200 A 
ATOM     88  F   UNL A   1      41.180  39.843  26.938  1.00  0.00    -0.200 F 
ATOM     89  F   UNL A   1      41.727  41.323  29.164  1.00  0.00    -0.200 F 
ENDBRANCH  55  79
BRANCH  67  90
ATOM     90  C   UNL A   1      49.540  35.019  26.817  1.00  0.00     0.064 A 
ATOM     91  C   UNL A   1      49.724  35.413  25.484  1.00  0.00     0.173 A 
ATOM     92  C   UNL A   1      50.565  35.303  27.734  1.00  0.00     0.173 A 
ATOM     93  F   UNL A   1      48.781  35.151  24.567  1.00  0.00    -0.203 F 
ATOM     94  C   UNL A   1      50.897  36.047  25.081  1.00  0.00     0.198 A 
ATOM     95  C   UNL A   1      51.723  35.963  27.332  1.00  0.00     0.198 A 
ATOM     96  F   UNL A   1      50.436  34.954  29.022  1.00  0.00    -0.203 F 
ATOM     97  F   UNL A   1      51.069  36.377  23.792  1.00  0.00    -0.200 F 
ATOM     98  C   UNL A   1      51.891  36.328  26.005  1.00  0.00     0.200 A 
ATOM     99  F   UNL A   1      52.678  36.244  28.229  1.00  0.00    -0.200 F 
ATOM    100  F   UNL A   1      53.016  36.945  25.615  1.00  0.00    -0.200 F 
ENDBRANCH  67  90
ENDBRANCH  41  42
ENDBRANCH  34  36
ENDBRANCH  33  34
ENDBRANCH  32  33
ENDBRANCH  31  32
ENDBRANCH  30  31
ENDBRANCH  29  30
ENDBRANCH   1  29
TORSDOF 24
ENDMDL
MODEL 2
REMARK VINA RESULT:      -8.9      1.982      2.979
REMARK SMILES COc1cccc([C@@H]2CN(C(=O)CCSC)C[C@H]2C(=O)OCCOCCOCCOC(=O)c2ccc(-c3c4nc(c(-c5c(F)c(F)c(F)c(F)c5F)c5ccc([nH]5)c(-c5c(F)c(F)c(F)c(F)c5F)c5nc(c(-c6c(F)c(F)c(F)c(F)c6F)c6ccc3[nH]6)C=C5)C=C4)cc2)c1OC
REMARK SMILES IDX 25 1 24 2 23 3 22 4 21 5 19 6 20 7 18 8 8 9 9 10 10 11 17 12
REMARK SMILES IDX 7 13 3 14 4 15 96 16 5 17 6 18 2 19 1 20 97 21 98 22 11 23
REMARK SMILES IDX 12 24 13 25 14 26 15 27 16 28 26 29 27 30 28 31 29 32 30 33
REMARK SMILES IDX 31 34 32 35 33 36 34 37 95 38 35 39 94 40 36 41 37 42 38 43
REMARK SMILES IDX 88 44 39 45 93 46 87 47 89 48 40 49 92 50 86 51 85 52 41 54
REMARK SMILES IDX 73 55 53 56 72 57 54 58 57 59 71 60 90 61 55 62 56 63 70 65
REMARK SMILES IDX 91 66 58 67 42 68 43 69 51 70 44 71 45 72 49 73 52 74 46 75
REMARK SMILES IDX 47 76 50 77 48 78 74 79 75 80 83 81 76 82 77 83 81 84 84 85
REMARK SMILES IDX 78 86 79 87 82 88 80 89 59 90 60 91 68 92 61 93 62 94 66 95
REMARK SMILES IDX 69 96 63 97 64 98 67 99 65 100
REMARK H PARENT 89 53 57 64
REMARK Flexibility Score: inf
ROOT
ATOM      1  C   UNL A   1      35.467  30.998  28.487  1.00  0.00     0.188 C 
ENDROOT
BRANCH   1   2
ATOM      2  O   UNL A   1      34.778  30.988  27.243  1.00  0.00    -0.376 OA
BRANCH   2   3
ATOM      3  C   UNL A   1      33.598  30.214  27.099  1.00  0.00     0.202 C 
BRANCH   3   4
ATOM      4  C   UNL A   1      33.634  29.096  26.054  1.00  0.00     0.261 C 
BRANCH   4   5
ATOM      5  O   UNL A   1      33.199  29.478  24.728  1.00  0.00    -0.463 OA
BRANCH   5   6
ATOM      6  C   UNL A   1      33.502  28.610  23.727  1.00  0.00     0.311 C 
ATOM      7  O   UNL A   1      34.560  28.618  23.106  1.00  0.00    -0.252 OA
BRANCH   6   8
ATOM      8  C   UNL A   1      32.371  27.678  23.343  1.00  0.00     0.128 C 
ATOM      9  C   UNL A   1      32.017  26.449  24.219  1.00  0.00     0.059 C 
ATOM     10  C   UNL A   1      30.483  26.354  24.151  1.00  0.00     0.129 C 
ATOM     11  N   UNL A   1      30.011  27.595  23.577  1.00  0.00    -0.341 N 
ATOM     12  C   UNL A   1      31.095  28.510  23.302  1.00  0.00     0.135 C 
BRANCH   9  13
ATOM     13  C   UNL A   1      32.574  25.054  23.883  1.00  0.00     0.004 A 
ATOM     14  C   UNL A   1      33.617  22.906  24.457  1.00  0.00     0.161 A 
ATOM     15  C   UNL A   1      33.925  22.687  23.111  1.00  0.00     0.050 A 
ATOM     16  C   UNL A   1      32.951  24.087  24.853  1.00  0.00     0.164 A 
ATOM     17  C   UNL A   1      33.581  23.639  22.154  1.00  0.00     0.004 A 
ATOM     18  C   UNL A   1      32.920  24.809  22.536  1.00  0.00     0.008 A 
BRANCH  14  19
ATOM     19  O   UNL A   1      34.197  22.073  25.381  1.00  0.00    -0.493 OA
ATOM     20  C   UNL A   1      35.452  22.542  25.866  1.00  0.00     0.278 C 
ENDBRANCH  14  19
BRANCH  16  21
ATOM     21  O   UNL A   1      32.762  24.461  26.155  1.00  0.00    -0.493 OA
ATOM     22  C   UNL A   1      31.678  23.897  26.879  1.00  0.00     0.278 C 
ENDBRANCH  16  21
ENDBRANCH   9  13
BRANCH  11  23
ATOM     23  C   UNL A   1      28.714  27.914  23.258  1.00  0.00     0.223 C 
ATOM     24  O   UNL A   1      27.767  27.215  23.624  1.00  0.00    -0.275 OA
BRANCH  23  25
ATOM     25  C   UNL A   1      28.463  29.175  22.458  1.00  0.00     0.111 C 
BRANCH  25  26
ATOM     26  C   UNL A   1      27.380  30.036  23.102  1.00  0.00     0.079 C 
BRANCH  26  27
ATOM     27  S   UNL A   1      27.848  31.793  23.280  1.00  0.00    -0.165 SA
ATOM     28  C   UNL A   1      28.568  32.086  21.646  1.00  0.00     0.085 C 
ENDBRANCH  26  27
ENDBRANCH  25  26
ENDBRANCH  23  25
ENDBRANCH  11  23
ENDBRANCH   6   8
ENDBRANCH   5   6
ENDBRANCH   4   5
ENDBRANCH   3   4
ENDBRANCH   2   3
ENDBRANCH   1   2
BRANCH   1  29
ATOM     29  C   UNL A   1      36.437  29.864  28.827  1.00  0.00     0.188 C 
BRANCH  29  30
ATOM     30  O   UNL A   1      36.619  29.640  30.214  1.00  0.00    -0.376 OA
BRANCH  30  31
ATOM     31  C   UNL A   1      36.739  30.825  30.990  1.00  0.00     0.202 C 
BRANCH  31  32
ATOM     32  C   UNL A   1      38.214  31.118  31.275  1.00  0.00     0.261 C 
BRANCH  32  33
ATOM     33  O   UNL A   1      38.413  32.262  32.130  1.00  0.00    -0.460 OA
BRANCH  33  34
ATOM     34  C   UNL A   1      38.140  33.464  31.589  1.00  0.00     0.338 C 
ATOM     35  O   UNL A   1      37.079  34.084  31.654  1.00  0.00    -0.246 OA
BRANCH  34  36
ATOM     36  C   UNL A   1      39.385  34.029  31.050  1.00  0.00     0.060 A 
ATOM     37  C   UNL A   1      39.397  34.464  29.725  1.00  0.00     0.016 A 
ATOM     38  C   UNL A   1      40.548  34.098  31.813  1.00  0.00     0.016 A 
ATOM     39  C   UNL A   1      40.568  34.933  29.145  1.00  0.00     0.010 A 
ATOM     40  C   UNL A   1      41.734  34.560  31.221  1.00  0.00     0.010 A 
ATOM     41  C   UNL A   1      41.760  34.951  29.868  1.00  0.00    -0.014 A 
BRANCH  41  42
ATOM     42  C   UNL A   1      43.042  35.229  29.168  1.00  0.00     0.031 A 
ATOM     43  C   UNL A   1      43.936  34.076  28.799  1.00  0.00     0.074 A 
ATOM     44  C   UNL A   1      43.391  36.472  28.787  1.00  0.00     0.049 A 
ATOM     45  N   UNL A   1      45.168  34.083  28.358  1.00  0.00    -0.248 NA
ATOM     46  C   UNL A   1      43.353  32.732  28.934  1.00  0.00     0.031 C 
ATOM     47  C   UNL A   1      42.574  37.673  28.948  1.00  0.00     0.029 A 
ATOM     48  N   UNL A   1      44.541  36.928  28.184  1.00  0.00    -0.354 N 
ATOM     49  C   UNL A   1      45.525  32.749  28.216  1.00  0.00     0.074 A 
ATOM     50  C   UNL A   1      44.376  31.959  28.604  1.00  0.00     0.031 C 
ATOM     51  C   UNL A   1      43.251  38.731  28.468  1.00  0.00     0.029 A 
ATOM     52  C   UNL A   1      44.577  38.293  28.037  1.00  0.00     0.049 A 
ATOM     53  H   UNL A   1      45.267  36.334  27.887  1.00  0.00     0.167 HD
ATOM     54  C   UNL A   1      46.708  32.230  27.809  1.00  0.00     0.037 A 
ATOM     55  C   UNL A   1      45.585  39.105  27.656  1.00  0.00     0.037 A 
ATOM     56  C   UNL A   1      47.839  33.012  27.386  1.00  0.00     0.049 A 
ATOM     57  C   UNL A   1      46.929  38.515  27.313  1.00  0.00     0.074 A 
ATOM     58  C   UNL A   1      49.082  32.575  26.960  1.00  0.00     0.029 A 
ATOM     59  N   UNL A   1      47.863  34.397  27.326  1.00  0.00    -0.354 N 
ATOM     60  N   UNL A   1      47.292  37.258  27.259  1.00  0.00    -0.248 NA
ATOM     61  C   UNL A   1      48.009  39.463  27.000  1.00  0.00     0.031 C 
ATOM     62  C   UNL A   1      49.871  33.697  26.685  1.00  0.00     0.029 A 
ATOM     63  C   UNL A   1      49.105  34.832  26.892  1.00  0.00     0.049 A 
ATOM     64  H   UNL A   1      47.107  34.985  27.557  1.00  0.00     0.167 HD
ATOM     65  C   UNL A   1      48.633  37.263  26.892  1.00  0.00     0.074 A 
ATOM     66  C   UNL A   1      49.015  38.648  26.718  1.00  0.00     0.031 C 
ATOM     67  C   UNL A   1      49.474  36.213  26.720  1.00  0.00     0.037 A 
BRANCH  54  68
ATOM     68  C   UNL A   1      46.862  30.739  27.854  1.00  0.00     0.064 A 
ATOM     69  C   UNL A   1      47.243  30.064  29.021  1.00  0.00     0.173 A 
ATOM     70  C   UNL A   1      46.591  29.973  26.708  1.00  0.00     0.173 A 
ATOM     71  F   UNL A   1      47.530  30.752  30.135  1.00  0.00    -0.203 F 
ATOM     72  C   UNL A   1      47.369  28.677  29.035  1.00  0.00     0.198 A 
ATOM     73  C   UNL A   1      46.692  28.585  26.733  1.00  0.00     0.198 A 
ATOM     74  F   UNL A   1      46.222  30.572  25.567  1.00  0.00    -0.203 F 
ATOM     75  F   UNL A   1      47.778  28.054  30.148  1.00  0.00    -0.200 F 
ATOM     76  C   UNL A   1      47.087  27.939  27.894  1.00  0.00     0.200 A 
ATOM     77  F   UNL A   1      46.409  27.875  25.633  1.00  0.00    -0.200 F 
ATOM     78  F   UNL A   1      47.204  26.603  27.911  1.00  0.00    -0.200 F 
ENDBRANCH  54  68
BRANCH  55  79
ATOM     79  C   UNL A   1      45.390  40.580  27.650  1.00  0.00     0.064 A 
ATOM     80  C   UNL A   1      44.849  41.235  26.536  1.00  0.00     0.173 A 
ATOM     81  C   UNL A   1      45.774  41.366  28.747  1.00  0.00     0.173 A 
ATOM     82  F   UNL A   1      44.501  40.530  25.450  1.00  0.00    -0.203 F 
ATOM     83  C   UNL A   1      44.711  42.622  26.514  1.00  0.00     0.198 A 
ATOM     84  C   UNL A   1      45.607  42.748  28.737  1.00  0.00     0.198 A 
ATOM     85  F   UNL A   1      46.309  40.789  29.833  1.00  0.00    -0.203 F 
ATOM     86  F   UNL A   1      44.238  43.229  25.418  1.00  0.00    -0.200 F 
ATOM     87  C   UNL A   1      45.083  43.376  27.617  1.00  0.00     0.200 A 
ATOM     88  F   UNL A   1      45.962  43.472  29.807  1.00  0.00    -0.200 F 
ATOM     89  F   UNL A   1      44.949  44.710  27.596  1.00  0.00    -0.200 F 
ENDBRANCH  55  79
BRANCH  67  90
ATOM     90  C   UNL A   1      50.882  36.515  26.294  1.00  0.00     0.064 A 
ATOM     91  C   UNL A   1      51.224  36.671  24.942  1.00  0.00     0.173 A 
ATOM     92  C   UNL A   1      51.892  36.690  27.252  1.00  0.00     0.173 A 
ATOM     93  F   UNL A   1      50.297  36.497  23.988  1.00  0.00    -0.203 F 
ATOM     94  C   UNL A   1      52.531  36.969  24.565  1.00  0.00     0.198 A 
ATOM     95  C   UNL A   1      53.192  37.017  26.872  1.00  0.00     0.198 A 
ATOM     96  F   UNL A   1      51.617  36.560  28.558  1.00  0.00    -0.203 F 
ATOM     97  F   UNL A   1      52.844  37.071  23.266  1.00  0.00    -0.200 F 
ATOM     98  C   UNL A   1      53.511  37.149  25.529  1.00  0.00     0.200 A 
ATOM     99  F   UNL A   1      54.135  37.203  27.805  1.00  0.00    -0.200 F 
ATOM    100  F   UNL A   1      54.767  37.444  25.163  1.00  0.00    -0.200 F 
ENDBRANCH  67  90
ENDBRANCH  41  42
ENDBRANCH  34  36
ENDBRANCH  33  34
ENDBRANCH  32  33
ENDBRANCH  31  32
ENDBRANCH  30  31
ENDBRANCH  29  30
ENDBRANCH   1  29
TORSDOF 24
ENDMDL
MODEL 3
REMARK VINA RESULT:      -8.6      4.460      8.474
REMARK SMILES COc1cccc([C@@H]2CN(C(=O)CCSC)C[C@H]2C(=O)OCCOCCOCCOC(=O)c2ccc(-c3c4nc(c(-c5c(F)c(F)c(F)c(F)c5F)c5ccc([nH]5)c(-c5c(F)c(F)c(F)c(F)c5F)c5nc(c(-c6c(F)c(F)c(F)c(F)c6F)c6ccc3[nH]6)C=C5)C=C4)cc2)c1OC
REMARK SMILES IDX 25 1 24 2 23 3 22 4 21 5 19 6 20 7 18 8 8 9 9 10 10 11 17 12
REMARK SMILES IDX 7 13 3 14 4 15 96 16 5 17 6 18 2 19 1 20 97 21 98 22 11 23
REMARK SMILES IDX 12 24 13 25 14 26 15 27 16 28 26 29 27 30 28 31 29 32 30 33
REMARK SMILES IDX 31 34 32 35 33 36 34 37 95 38 35 39 94 40 36 41 37 42 38 43
REMARK SMILES IDX 88 44 39 45 93 46 87 47 89 48 40 49 92 50 86 51 85 52 41 54
REMARK SMILES IDX 73 55 53 56 72 57 54 58 57 59 71 60 90 61 55 62 56 63 70 65
REMARK SMILES IDX 91 66 58 67 42 68 43 69 51 70 44 71 45 72 49 73 52 74 46 75
REMARK SMILES IDX 47 76 50 77 48 78 74 79 75 80 83 81 76 82 77 83 81 84 84 85
REMARK SMILES IDX 78 86 79 87 82 88 80 89 59 90 60 91 68 92 61 93 62 94 66 95
REMARK SMILES IDX 69 96 63 97 64 98 67 99 65 100
REMARK H PARENT 89 53 57 64
REMARK Flexibility Score: inf
ROOT
ATOM      1  C   UNL A   1      41.095  23.129  27.819  1.00  0.00     0.188 C 
ENDROOT
BRANCH   1   2
ATOM      2  O   UNL A   1      39.867  22.502  27.474  1.00  0.00    -0.376 OA
BRANCH   2   3
ATOM      3  C   UNL A   1      39.252  22.796  26.229  1.00  0.00     0.202 C 
BRANCH   3   4
ATOM      4  C   UNL A   1      38.171  21.824  25.751  1.00  0.00     0.261 C 
BRANCH   4   5
ATOM      5  O   UNL A   1      36.810  22.286  25.917  1.00  0.00    -0.463 OA
BRANCH   5   6
ATOM      6  C   UNL A   1      36.235  22.855  24.826  1.00  0.00     0.311 C 
ATOM      7  O   UNL A   1      36.814  23.622  24.064  1.00  0.00    -0.252 OA
BRANCH   6   8
ATOM      8  C   UNL A   1      34.756  22.561  24.673  1.00  0.00     0.128 C 
ATOM      9  C   UNL A   1      33.969  23.059  23.433  1.00  0.00     0.059 C 
ATOM     10  C   UNL A   1      32.974  21.926  23.126  1.00  0.00     0.129 C 
ATOM     11  N   UNL A   1      33.394  20.779  23.900  1.00  0.00    -0.341 N 
ATOM     12  C   UNL A   1      34.597  21.046  24.655  1.00  0.00     0.135 C 
BRANCH   9  13
ATOM     13  C   UNL A   1      33.163  24.370  23.486  1.00  0.00     0.004 A 
ATOM     14  C   UNL A   1      31.177  25.709  24.028  1.00  0.00     0.161 A 
ATOM     15  C   UNL A   1      31.621  26.726  23.178  1.00  0.00     0.050 A 
ATOM     16  C   UNL A   1      31.934  24.527  24.182  1.00  0.00     0.164 A 
ATOM     17  C   UNL A   1      32.812  26.573  22.472  1.00  0.00     0.004 A 
ATOM     18  C   UNL A   1      33.569  25.409  22.620  1.00  0.00     0.008 A 
BRANCH  14  19
ATOM     19  O   UNL A   1      29.889  25.794  24.495  1.00  0.00    -0.493 OA
ATOM     20  C   UNL A   1      29.126  26.831  23.884  1.00  0.00     0.278 C 
ENDBRANCH  14  19
BRANCH  16  21
ATOM     21  O   UNL A   1      31.498  23.418  24.854  1.00  0.00    -0.493 OA
ATOM     22  C   UNL A   1      31.528  23.422  26.274  1.00  0.00     0.278 C 
ENDBRANCH  16  21
ENDBRANCH   9  13
BRANCH  11  23
ATOM     23  C   UNL A   1      32.750  19.569  23.995  1.00  0.00     0.223 C 
ATOM     24  O   UNL A   1      31.793  19.288  23.271  1.00  0.00    -0.275 OA
BRANCH  23  25
ATOM     25  C   UNL A   1      33.261  18.563  25.004  1.00  0.00     0.111 C 
BRANCH  25  26
ATOM     26  C   UNL A   1      32.464  17.264  24.946  1.00  0.00     0.079 C 
BRANCH  26  27
ATOM     27  S   UNL A   1      33.338  15.834  25.674  1.00  0.00    -0.165 SA
ATOM     28  C   UNL A   1      35.018  16.175  25.100  1.00  0.00     0.085 C 
ENDBRANCH  26  27
ENDBRANCH  25  26
ENDBRANCH  23  25
ENDBRANCH  11  23
ENDBRANCH   6   8
ENDBRANCH   5   6
ENDBRANCH   4   5
ENDBRANCH   3   4
ENDBRANCH   2   3
ENDBRANCH   1   2
BRANCH   1  29
ATOM     29  C   UNL A   1      42.273  22.279  28.302  1.00  0.00     0.188 C 
BRANCH  29  30
ATOM     30  O   UNL A   1      43.350  22.191  27.387  1.00  0.00    -0.376 OA
BRANCH  30  31
ATOM     31  C   UNL A   1      43.058  21.460  26.203  1.00  0.00     0.202 C 
BRANCH  31  32
ATOM     32  C   UNL A   1      43.687  22.152  24.992  1.00  0.00     0.261 C 
BRANCH  32  33
ATOM     33  O   UNL A   1      43.440  23.573  24.953  1.00  0.00    -0.460 OA
BRANCH  33  34
ATOM     34  C   UNL A   1      44.527  24.365  24.952  1.00  0.00     0.338 C 
ATOM     35  O   UNL A   1      45.553  24.219  24.288  1.00  0.00    -0.246 OA
BRANCH  34  36
ATOM     36  C   UNL A   1      44.230  25.568  25.743  1.00  0.00     0.060 A 
ATOM     37  C   UNL A   1      43.587  26.634  25.113  1.00  0.00     0.016 A 
ATOM     38  C   UNL A   1      44.610  25.679  27.078  1.00  0.00     0.016 A 
ATOM     39  C   UNL A   1      43.354  27.821  25.794  1.00  0.00     0.010 A 
ATOM     40  C   UNL A   1      44.385  26.884  27.761  1.00  0.00     0.010 A 
ATOM     41  C   UNL A   1      43.783  27.980  27.112  1.00  0.00    -0.014 A 
BRANCH  41  42
ATOM     42  C   UNL A   1      43.740  29.325  27.744  1.00  0.00     0.031 A 
ATOM     43  C   UNL A   1      44.922  30.243  27.586  1.00  0.00     0.074 A 
ATOM     44  C   UNL A   1      42.647  29.775  28.388  1.00  0.00     0.049 A 
ATOM     45  N   UNL A   1      45.188  31.373  28.190  1.00  0.00    -0.248 NA
ATOM     46  C   UNL A   1      45.934  29.836  26.599  1.00  0.00     0.031 C 
ATOM     47  C   UNL A   1      41.376  29.062  28.510  1.00  0.00     0.029 A 
ATOM     48  N   UNL A   1      42.437  30.951  29.070  1.00  0.00    -0.354 N 
ATOM     49  C   UNL A   1      46.421  31.782  27.700  1.00  0.00     0.074 A 
ATOM     50  C   UNL A   1      46.845  30.788  26.737  1.00  0.00     0.031 C 
ATOM     51  C   UNL A   1      40.524  29.809  29.232  1.00  0.00     0.029 A 
ATOM     52  C   UNL A   1      41.212  31.015  29.688  1.00  0.00     0.049 A 
ATOM     53  H   UNL A   1      43.101  31.677  29.112  1.00  0.00     0.167 HD
ATOM     54  C   UNL A   1      47.138  32.882  28.031  1.00  0.00     0.037 A 
ATOM     55  C   UNL A   1      40.722  31.911  30.569  1.00  0.00     0.037 A 
ATOM     56  C   UNL A   1      46.702  33.891  28.958  1.00  0.00     0.049 A 
ATOM     57  C   UNL A   1      41.580  33.070  31.009  1.00  0.00     0.074 A 
ATOM     58  C   UNL A   1      47.363  35.040  29.360  1.00  0.00     0.029 A 
ATOM     59  N   UNL A   1      45.486  33.879  29.624  1.00  0.00    -0.354 N 
ATOM     60  N   UNL A   1      42.780  33.412  30.608  1.00  0.00    -0.248 NA
ATOM     61  C   UNL A   1      41.021  33.954  32.043  1.00  0.00     0.031 C 
ATOM     62  C   UNL A   1      46.565  35.699  30.302  1.00  0.00     0.029 A 
ATOM     63  C   UNL A   1      45.387  34.987  30.450  1.00  0.00     0.049 A 
ATOM     64  H   UNL A   1      44.795  33.185  29.524  1.00  0.00     0.167 HD
ATOM     65  C   UNL A   1      43.111  34.555  31.326  1.00  0.00     0.074 A 
ATOM     66  C   UNL A   1      41.980  34.860  32.175  1.00  0.00     0.031 C 
ATOM     67  C   UNL A   1      44.254  35.283  31.289  1.00  0.00     0.037 A 
BRANCH  54  68
ATOM     68  C   UNL A   1      48.503  33.025  27.425  1.00  0.00     0.064 A 
ATOM     69  C   UNL A   1      48.734  33.806  26.285  1.00  0.00     0.173 A 
ATOM     70  C   UNL A   1      49.603  32.389  28.023  1.00  0.00     0.173 A 
ATOM     71  F   UNL A   1      47.713  34.418  25.668  1.00  0.00    -0.203 F 
ATOM     72  C   UNL A   1      50.015  33.927  25.751  1.00  0.00     0.198 A 
ATOM     73  C   UNL A   1      50.885  32.534  27.502  1.00  0.00     0.198 A 
ATOM     74  F   UNL A   1      49.433  31.631  29.116  1.00  0.00    -0.203 F 
ATOM     75  F   UNL A   1      50.209  34.642  24.634  1.00  0.00    -0.200 F 
ATOM     76  C   UNL A   1      51.089  33.298  26.363  1.00  0.00     0.200 A 
ATOM     77  F   UNL A   1      51.922  31.933  28.101  1.00  0.00    -0.200 F 
ATOM     78  F   UNL A   1      52.322  33.420  25.850  1.00  0.00    -0.200 F 
ENDBRANCH  54  68
BRANCH  55  79
ATOM     79  C   UNL A   1      39.371  31.712  31.159  1.00  0.00     0.064 A 
ATOM     80  C   UNL A   1      38.229  32.261  30.559  1.00  0.00     0.173 A 
ATOM     81  C   UNL A   1      39.201  30.998  32.355  1.00  0.00     0.173 A 
ATOM     82  F   UNL A   1      38.347  32.981  29.435  1.00  0.00    -0.203 F 
ATOM     83  C   UNL A   1      36.971  32.113  31.139  1.00  0.00     0.198 A 
ATOM     84  C   UNL A   1      37.939  30.825  32.918  1.00  0.00     0.198 A 
ATOM     85  F   UNL A   1      40.263  30.465  32.976  1.00  0.00    -0.203 F 
ATOM     86  F   UNL A   1      35.903  32.689  30.572  1.00  0.00    -0.200 F 
ATOM     87  C   UNL A   1      36.826  31.388  32.314  1.00  0.00     0.200 A 
ATOM     88  F   UNL A   1      37.803  30.120  34.048  1.00  0.00    -0.200 F 
ATOM     89  F   UNL A   1      35.615  31.246  32.870  1.00  0.00    -0.200 F 
ENDBRANCH  55  79
BRANCH  67  90
ATOM     90  C   UNL A   1      44.331  36.499  32.167  1.00  0.00     0.064 A 
ATOM     91  C   UNL A   1      44.777  36.420  33.495  1.00  0.00     0.173 A 
ATOM     92  C   UNL A   1      43.993  37.764  31.662  1.00  0.00     0.173 A 
ATOM     93  F   UNL A   1      45.097  35.232  34.029  1.00  0.00    -0.203 F 
ATOM     94  C   UNL A   1      44.860  37.560  34.290  1.00  0.00     0.198 A 
ATOM     95  C   UNL A   1      44.105  38.905  32.452  1.00  0.00     0.198 A 
ATOM     96  F   UNL A   1      43.568  37.896  30.397  1.00  0.00    -0.203 F 
ATOM     97  F   UNL A   1      45.248  37.455  35.569  1.00  0.00    -0.200 F 
ATOM     98  C   UNL A   1      44.532  38.801  33.767  1.00  0.00     0.200 A 
ATOM     99  F   UNL A   1      43.799  40.105  31.941  1.00  0.00    -0.200 F 
ATOM    100  F   UNL A   1      44.620  39.898  34.533  1.00  0.00    -0.200 F 
ENDBRANCH  67  90
ENDBRANCH  41  42
ENDBRANCH  34  36
ENDBRANCH  33  34
ENDBRANCH  32  33
ENDBRANCH  31  32
ENDBRANCH  30  31
ENDBRANCH  29  30
ENDBRANCH   1  29
TORSDOF 24
ENDMDL
