MODEL 1
REMARK VINA RESULT:      -9.8      0.000      0.000
REMARK SMILES CC(C)(Cn1ccnc1C(N)=S)C(=O)OCCOCCOCCOC(=O)c1ccc(-c2c3nc(c(-c4c(F)c(F)c(F)c(F)c4F)c4ccc([nH]4)c(-c4c(F)c(F)c(F)c(F)c4F)c4nc(c(-c5c(F)c(F)c(F)c(F)c5F)c5ccc2[nH]5)C=C4)C=C3)cc1
REMARK SMILES IDX 19 1 18 2 17 3 16 4 15 5 13 6 14 7 2 8 1 9 3 10 4 11 5 12
REMARK SMILES IDX 6 13 9 14 7 15 8 16 10 17 12 18 11 19 20 22 21 23 22 24
REMARK SMILES IDX 23 25 24 26 25 27 26 28 27 29 28 30 89 31 29 32 88 33 30 34
REMARK SMILES IDX 31 35 32 36 82 37 33 38 87 39 81 40 83 41 34 42 86 43 80 44
REMARK SMILES IDX 79 45 35 47 67 48 47 49 66 50 48 51 51 52 65 53 84 54 49 55
REMARK SMILES IDX 50 56 64 58 85 59 52 60 36 61 37 62 45 63 38 64 39 65 43 66
REMARK SMILES IDX 46 67 40 68 41 69 44 70 42 71 68 72 69 73 77 74 70 75 71 76
REMARK SMILES IDX 75 77 78 78 72 79 73 80 76 81 74 82 53 83 54 84 62 85 55 86
REMARK SMILES IDX 56 87 60 88 63 89 57 90 58 91 61 92 59 93
REMARK H PARENT 11 20 11 21 83 46 51 57
REMARK Flexibility Score: inf
ROOT
ATOM      1  C   UNL A   1      38.692  22.422  26.144  1.00  0.00     0.188 C 
ENDROOT
BRANCH   1   2
ATOM      2  O   UNL A   1      37.368  22.479  25.643  1.00  0.00    -0.376 OA
BRANCH   2   3
ATOM      3  C   UNL A   1      36.881  23.693  25.088  1.00  0.00     0.202 C 
BRANCH   3   4
ATOM      4  C   UNL A   1      35.401  23.811  24.665  1.00  0.00     0.261 C 
BRANCH   4   5
ATOM      5  O   UNL A   1      34.484  22.775  25.114  1.00  0.00    -0.463 OA
BRANCH   5   6
ATOM      6  C   UNL A   1      33.266  23.211  25.511  1.00  0.00     0.313 C 
ATOM      7  O   UNL A   1      33.120  23.993  26.449  1.00  0.00    -0.252 OA
BRANCH   6   8
ATOM      8  C   UNL A   1      32.040  22.630  24.762  1.00  0.00     0.080 C 
ATOM      9  C   UNL A   1      30.952  22.482  25.840  1.00  0.00     0.025 C 
ATOM     10  C   UNL A   1      32.535  21.223  24.338  1.00  0.00     0.025 C 
BRANCH   8  11
ATOM     11  C   UNL A   1      31.532  23.302  23.440  1.00  0.00     0.142 C 
BRANCH  11  12
ATOM     12  N   UNL A   1      31.986  24.617  22.992  1.00  0.00    -0.328 N 
ATOM     13  C   UNL A   1      33.010  24.756  22.077  1.00  0.00     0.108 A 
ATOM     14  C   UNL A   1      31.449  25.889  23.137  1.00  0.00     0.167 A 
ATOM     15  C   UNL A   1      33.252  26.098  21.980  1.00  0.00     0.131 A 
ATOM     16  N   UNL A   1      32.340  26.789  22.718  1.00  0.00    -0.235 NA
BRANCH  14  17
ATOM     17  C   UNL A   1      30.157  26.374  23.583  1.00  0.00     0.140 C 
ATOM     18  S   UNL A   1      29.541  27.872  23.207  1.00  0.00    -0.057 S 
BRANCH  17  19
ATOM     19  N   UNL A   1      29.510  25.564  24.478  1.00  0.00    -0.387 N 
ATOM     20  H   UNL A   1      29.902  24.698  24.732  1.00  0.00     0.157 HD
ATOM     21  H   UNL A   1      28.652  25.848  24.868  1.00  0.00     0.157 HD
ENDBRANCH  17  19
ENDBRANCH  14  17
ENDBRANCH  11  12
ENDBRANCH   8  11
ENDBRANCH   6   8
ENDBRANCH   5   6
ENDBRANCH   4   5
ENDBRANCH   3   4
ENDBRANCH   2   3
ENDBRANCH   1   2
BRANCH   1  22
ATOM     22  C   UNL A   1      39.484  21.106  26.088  1.00  0.00     0.188 C 
BRANCH  22  23
ATOM     23  O   UNL A   1      40.801  21.167  26.610  1.00  0.00    -0.376 OA
BRANCH  23  24
ATOM     24  C   UNL A   1      41.313  20.062  27.341  1.00  0.00     0.202 C 
BRANCH  24  25
ATOM     25  C   UNL A   1      42.217  19.140  26.526  1.00  0.00     0.261 C 
BRANCH  25  26
ATOM     26  O   UNL A   1      42.540  19.689  25.251  1.00  0.00    -0.460 OA
BRANCH  26  27
ATOM     27  C   UNL A   1      43.856  19.694  24.948  1.00  0.00     0.338 C 
ATOM     28  O   UNL A   1      44.556  18.753  24.623  1.00  0.00    -0.246 OA
BRANCH  27  29
ATOM     29  C   UNL A   1      44.330  21.075  25.014  1.00  0.00     0.060 A 
ATOM     30  C   UNL A   1      45.561  21.317  25.635  1.00  0.00     0.016 A 
ATOM     31  C   UNL A   1      43.455  22.105  24.659  1.00  0.00     0.016 A 
ATOM     32  C   UNL A   1      45.817  22.580  26.116  1.00  0.00     0.010 A 
ATOM     33  C   UNL A   1      43.699  23.361  25.154  1.00  0.00     0.010 A 
ATOM     34  C   UNL A   1      44.822  23.545  25.970  1.00  0.00    -0.014 A 
BRANCH  34  35
ATOM     35  C   UNL A   1      44.812  24.643  26.914  1.00  0.00     0.031 A 
ATOM     36  C   UNL A   1      45.954  25.576  26.899  1.00  0.00     0.074 A 
ATOM     37  C   UNL A   1      43.680  24.871  27.612  1.00  0.00     0.049 A 
ATOM     38  N   UNL A   1      46.649  25.999  27.905  1.00  0.00    -0.248 NA
ATOM     39  C   UNL A   1      46.401  26.088  25.594  1.00  0.00     0.031 C 
ATOM     40  C   UNL A   1      42.384  24.196  27.451  1.00  0.00     0.029 A 
ATOM     41  N   UNL A   1      43.405  25.860  28.503  1.00  0.00    -0.354 N 
ATOM     42  C   UNL A   1      47.521  26.946  27.385  1.00  0.00     0.074 A 
ATOM     43  C   UNL A   1      47.403  26.889  25.951  1.00  0.00     0.031 C 
ATOM     44  C   UNL A   1      41.423  24.943  28.034  1.00  0.00     0.029 A 
ATOM     45  C   UNL A   1      42.048  26.080  28.686  1.00  0.00     0.049 A 
ATOM     46  H   UNL A   1      44.102  26.371  28.975  1.00  0.00     0.167 HD
ATOM     47  C   UNL A   1      48.143  27.866  28.167  1.00  0.00     0.037 A 
ATOM     48  C   UNL A   1      41.479  27.180  29.237  1.00  0.00     0.037 A 
ATOM     49  C   UNL A   1      48.170  27.493  29.552  1.00  0.00     0.049 A 
ATOM     50  C   UNL A   1      42.532  27.905  29.992  1.00  0.00     0.074 A 
ATOM     51  C   UNL A   1      48.675  26.408  30.244  1.00  0.00     0.029 A 
ATOM     52  N   UNL A   1      47.328  28.129  30.430  1.00  0.00    -0.354 N 
ATOM     53  N   UNL A   1      43.070  27.485  31.104  1.00  0.00    -0.248 NA
ATOM     54  C   UNL A   1      43.288  28.928  29.283  1.00  0.00     0.031 C 
ATOM     55  C   UNL A   1      47.755  26.179  31.307  1.00  0.00     0.029 A 
ATOM     56  C   UNL A   1      46.758  27.149  31.205  1.00  0.00     0.049 A 
ATOM     57  H   UNL A   1      47.165  29.097  30.492  1.00  0.00     0.167 HD
ATOM     58  C   UNL A   1      44.398  27.878  31.024  1.00  0.00     0.074 A 
ATOM     59  C   UNL A   1      44.446  28.853  29.942  1.00  0.00     0.031 C 
ATOM     60  C   UNL A   1      45.385  27.170  31.645  1.00  0.00     0.037 A 
BRANCH  47  61
ATOM     61  C   UNL A   1      48.471  29.242  27.678  1.00  0.00     0.064 A 
ATOM     62  C   UNL A   1      49.784  29.731  27.759  1.00  0.00     0.173 A 
ATOM     63  C   UNL A   1      47.473  30.184  27.349  1.00  0.00     0.173 A 
ATOM     64  F   UNL A   1      50.789  28.923  28.126  1.00  0.00    -0.203 F 
ATOM     65  C   UNL A   1      50.074  31.078  27.532  1.00  0.00     0.198 A 
ATOM     66  C   UNL A   1      47.773  31.513  27.066  1.00  0.00     0.198 A 
ATOM     67  F   UNL A   1      46.170  29.867  27.386  1.00  0.00    -0.203 F 
ATOM     68  F   UNL A   1      51.324  31.527  27.707  1.00  0.00    -0.200 F 
ATOM     69  C   UNL A   1      49.071  31.965  27.177  1.00  0.00     0.200 A 
ATOM     70  F   UNL A   1      46.783  32.361  26.750  1.00  0.00    -0.200 F 
ATOM     71  F   UNL A   1      49.345  33.262  26.991  1.00  0.00    -0.200 F 
ENDBRANCH  47  61
BRANCH  48  72
ATOM     72  C   UNL A   1      40.160  27.775  28.922  1.00  0.00     0.064 A 
ATOM     73  C   UNL A   1      39.166  27.884  29.905  1.00  0.00     0.173 A 
ATOM     74  C   UNL A   1      39.919  28.459  27.712  1.00  0.00     0.173 A 
ATOM     75  F   UNL A   1      39.339  27.313  31.106  1.00  0.00    -0.203 F 
ATOM     76  C   UNL A   1      38.005  28.634  29.693  1.00  0.00     0.198 A 
ATOM     77  C   UNL A   1      38.751  29.189  27.494  1.00  0.00     0.198 A 
ATOM     78  F   UNL A   1      40.850  28.510  26.748  1.00  0.00    -0.203 F 
ATOM     79  F   UNL A   1      37.105  28.763  30.678  1.00  0.00    -0.200 F 
ATOM     80  C   UNL A   1      37.798  29.287  28.489  1.00  0.00     0.200 A 
ATOM     81  F   UNL A   1      38.583  29.841  26.336  1.00  0.00    -0.200 F 
ATOM     82  F   UNL A   1      36.706  30.040  28.302  1.00  0.00    -0.200 F 
ENDBRANCH  48  72
BRANCH  60  83
ATOM     83  C   UNL A   1      44.977  26.126  32.645  1.00  0.00     0.064 A 
ATOM     84  C   UNL A   1      44.806  26.389  34.014  1.00  0.00     0.173 A 
ATOM     85  C   UNL A   1      44.603  24.858  32.179  1.00  0.00     0.173 A 
ATOM     86  F   UNL A   1      45.033  27.610  34.515  1.00  0.00    -0.203 F 
ATOM     87  C   UNL A   1      44.335  25.408  34.886  1.00  0.00     0.198 A 
ATOM     88  C   UNL A   1      44.096  23.893  33.045  1.00  0.00     0.198 A 
ATOM     89  F   UNL A   1      44.681  24.571  30.870  1.00  0.00    -0.203 F 
ATOM     90  F   UNL A   1      44.196  25.681  36.191  1.00  0.00    -0.200 F 
ATOM     91  C   UNL A   1      43.976  24.164  34.399  1.00  0.00     0.200 A 
ATOM     92  F   UNL A   1      43.699  22.707  32.563  1.00  0.00    -0.200 F 
ATOM     93  F   UNL A   1      43.483  23.233  35.230  1.00  0.00    -0.200 F 
ENDBRANCH  60  83
ENDBRANCH  34  35
ENDBRANCH  27  29
ENDBRANCH  26  27
ENDBRANCH  25  26
ENDBRANCH  24  25
ENDBRANCH  23  24
ENDBRANCH  22  23
ENDBRANCH   1  22
TORSDOF 21
ENDMDL
MODEL 2
REMARK VINA RESULT:      -9.7      1.868      2.622
REMARK SMILES CC(C)(Cn1ccnc1C(N)=S)C(=O)OCCOCCOCCOC(=O)c1ccc(-c2c3nc(c(-c4c(F)c(F)c(F)c(F)c4F)c4ccc([nH]4)c(-c4c(F)c(F)c(F)c(F)c4F)c4nc(c(-c5c(F)c(F)c(F)c(F)c5F)c5ccc2[nH]5)C=C4)C=C3)cc1
REMARK SMILES IDX 19 1 18 2 17 3 16 4 15 5 13 6 14 7 2 8 1 9 3 10 4 11 5 12
REMARK SMILES IDX 6 13 9 14 7 15 8 16 10 17 12 18 11 19 20 22 21 23 22 24
REMARK SMILES IDX 23 25 24 26 25 27 26 28 27 29 28 30 89 31 29 32 88 33 30 34
REMARK SMILES IDX 31 35 32 36 82 37 33 38 87 39 81 40 83 41 34 42 86 43 80 44
REMARK SMILES IDX 79 45 35 47 67 48 47 49 66 50 48 51 51 52 65 53 84 54 49 55
REMARK SMILES IDX 50 56 64 58 85 59 52 60 36 61 37 62 45 63 38 64 39 65 43 66
REMARK SMILES IDX 46 67 40 68 41 69 44 70 42 71 68 72 69 73 77 74 70 75 71 76
REMARK SMILES IDX 75 77 78 78 72 79 73 80 76 81 74 82 53 83 54 84 62 85 55 86
REMARK SMILES IDX 56 87 60 88 63 89 57 90 58 91 61 92 59 93
REMARK H PARENT 11 20 11 21 83 46 51 57
REMARK Flexibility Score: inf
ROOT
ATOM      1  C   UNL A   1      37.825  23.123  25.878  1.00  0.00     0.188 C 
ENDROOT
BRANCH   1   2
ATOM      2  O   UNL A   1      36.434  23.182  26.144  1.00  0.00    -0.376 OA
BRANCH   2   3
ATOM      3  C   UNL A   1      35.510  22.856  25.114  1.00  0.00     0.202 C 
BRANCH   3   4
ATOM      4  C   UNL A   1      35.127  23.914  24.057  1.00  0.00     0.261 C 
BRANCH   4   5
ATOM      5  O   UNL A   1      33.741  24.353  24.009  1.00  0.00    -0.463 OA
BRANCH   5   6
ATOM      6  C   UNL A   1      33.286  24.965  25.126  1.00  0.00     0.313 C 
ATOM      7  O   UNL A   1      33.943  25.815  25.724  1.00  0.00    -0.252 OA
BRANCH   6   8
ATOM      8  C   UNL A   1      31.908  24.501  25.663  1.00  0.00     0.080 C 
ATOM      9  C   UNL A   1      32.219  23.802  26.998  1.00  0.00     0.025 C 
ATOM     10  C   UNL A   1      31.475  23.441  24.618  1.00  0.00     0.025 C 
BRANCH   8  11
ATOM     11  C   UNL A   1      30.712  25.512  25.743  1.00  0.00     0.142 C 
BRANCH  11  12
ATOM     12  N   UNL A   1      30.756  26.844  25.142  1.00  0.00    -0.328 N 
ATOM     13  C   UNL A   1      30.034  27.149  24.006  1.00  0.00     0.108 A 
ATOM     14  C   UNL A   1      31.251  28.058  25.598  1.00  0.00     0.167 A 
ATOM     15  C   UNL A   1      30.398  28.420  23.656  1.00  0.00     0.131 A 
ATOM     16  N   UNL A   1      31.230  28.940  24.599  1.00  0.00    -0.235 NA
BRANCH  14  17
ATOM     17  C   UNL A   1      31.707  28.517  26.896  1.00  0.00     0.140 C 
ATOM     18  S   UNL A   1      32.864  29.689  27.120  1.00  0.00    -0.057 S 
BRANCH  17  19
ATOM     19  N   UNL A   1      31.222  27.812  27.966  1.00  0.00    -0.387 N 
ATOM     20  H   UNL A   1      30.400  27.278  27.872  1.00  0.00     0.157 HD
ATOM     21  H   UNL A   1      31.695  27.837  28.828  1.00  0.00     0.157 HD
ENDBRANCH  17  19
ENDBRANCH  14  17
ENDBRANCH  11  12
ENDBRANCH   8  11
ENDBRANCH   6   8
ENDBRANCH   5   6
ENDBRANCH   4   5
ENDBRANCH   3   4
ENDBRANCH   2   3
ENDBRANCH   1   2
BRANCH   1  22
ATOM     22  C   UNL A   1      38.527  21.763  25.739  1.00  0.00     0.188 C 
BRANCH  22  23
ATOM     23  O   UNL A   1      39.875  21.728  26.177  1.00  0.00    -0.376 OA
BRANCH  23  24
ATOM     24  C   UNL A   1      40.405  20.522  26.708  1.00  0.00     0.202 C 
BRANCH  24  25
ATOM     25  C   UNL A   1      41.899  20.334  26.458  1.00  0.00     0.261 C 
BRANCH  25  26
ATOM     26  O   UNL A   1      42.419  21.295  25.543  1.00  0.00    -0.460 OA
BRANCH  26  27
ATOM     27  C   UNL A   1      43.750  21.219  25.329  1.00  0.00     0.338 C 
ATOM     28  O   UNL A   1      44.415  20.233  25.066  1.00  0.00    -0.246 OA
BRANCH  27  29
ATOM     29  C   UNL A   1      44.299  22.572  25.407  1.00  0.00     0.060 A 
ATOM     30  C   UNL A   1      45.358  22.800  26.293  1.00  0.00     0.016 A 
ATOM     31  C   UNL A   1      43.617  23.612  24.770  1.00  0.00     0.016 A 
ATOM     32  C   UNL A   1      45.586  24.086  26.727  1.00  0.00     0.010 A 
ATOM     33  C   UNL A   1      43.830  24.893  25.215  1.00  0.00     0.010 A 
ATOM     34  C   UNL A   1      44.733  25.087  26.267  1.00  0.00    -0.014 A 
BRANCH  34  35
ATOM     35  C   UNL A   1      44.579  26.265  27.095  1.00  0.00     0.031 A 
ATOM     36  C   UNL A   1      45.478  27.407  26.843  1.00  0.00     0.074 A 
ATOM     37  C   UNL A   1      43.504  26.335  27.908  1.00  0.00     0.049 A 
ATOM     38  N   UNL A   1      46.163  28.085  27.706  1.00  0.00    -0.248 NA
ATOM     39  C   UNL A   1      45.660  27.839  25.449  1.00  0.00     0.031 C 
ATOM     40  C   UNL A   1      42.380  25.390  27.981  1.00  0.00     0.029 A 
ATOM     41  N   UNL A   1      43.111  27.346  28.728  1.00  0.00    -0.354 N 
ATOM     42  C   UNL A   1      46.744  29.123  26.989  1.00  0.00     0.074 A 
ATOM     43  C   UNL A   1      46.491  28.868  25.594  1.00  0.00     0.031 C 
ATOM     44  C   UNL A   1      41.345  25.985  28.608  1.00  0.00     0.029 A 
ATOM     45  C   UNL A   1      41.767  27.299  29.062  1.00  0.00     0.049 A 
ATOM     46  H   UNL A   1      43.724  28.045  29.054  1.00  0.00     0.167 HD
ATOM     47  C   UNL A   1      47.225  30.241  27.593  1.00  0.00     0.037 A 
ATOM     48  C   UNL A   1      41.029  28.314  29.573  1.00  0.00     0.037 A 
ATOM     49  C   UNL A   1      47.479  30.053  28.992  1.00  0.00     0.049 A 
ATOM     50  C   UNL A   1      41.968  29.330  30.113  1.00  0.00     0.074 A 
ATOM     51  C   UNL A   1      48.282  29.190  29.714  1.00  0.00     0.029 A 
ATOM     52  N   UNL A   1      46.614  30.601  29.905  1.00  0.00    -0.354 N 
ATOM     53  N   UNL A   1      42.699  29.170  31.181  1.00  0.00    -0.248 NA
ATOM     54  C   UNL A   1      42.399  30.394  29.217  1.00  0.00     0.031 C 
ATOM     55  C   UNL A   1      47.552  28.906  30.904  1.00  0.00     0.029 A 
ATOM     56  C   UNL A   1      46.360  29.627  30.838  1.00  0.00     0.049 A 
ATOM     57  H   UNL A   1      46.247  31.515  29.894  1.00  0.00     0.167 HD
ATOM     58  C   UNL A   1      43.892  29.819  30.893  1.00  0.00     0.074 A 
ATOM     59  C   UNL A   1      43.608  30.643  29.725  1.00  0.00     0.031 C 
ATOM     60  C   UNL A   1      45.070  29.413  31.448  1.00  0.00     0.037 A 
BRANCH  47  61
ATOM     61  C   UNL A   1      47.187  31.585  26.935  1.00  0.00     0.064 A 
ATOM     62  C   UNL A   1      48.357  32.349  26.810  1.00  0.00     0.173 A 
ATOM     63  C   UNL A   1      45.975  32.245  26.638  1.00  0.00     0.173 A 
ATOM     64  F   UNL A   1      49.549  31.824  27.131  1.00  0.00    -0.203 F 
ATOM     65  C   UNL A   1      48.313  33.689  26.418  1.00  0.00     0.198 A 
ATOM     66  C   UNL A   1      45.939  33.563  26.192  1.00  0.00     0.198 A 
ATOM     67  F   UNL A   1      44.787  31.665  26.861  1.00  0.00    -0.203 F 
ATOM     68  F   UNL A   1      49.441  34.412  26.398  1.00  0.00    -0.200 F 
ATOM     69  C   UNL A   1      47.107  34.291  26.102  1.00  0.00     0.200 A 
ATOM     70  F   UNL A   1      44.759  34.136  25.915  1.00  0.00    -0.200 F 
ATOM     71  F   UNL A   1      47.063  35.585  25.757  1.00  0.00    -0.200 F 
ENDBRANCH  47  61
BRANCH  48  72
ATOM     72  C   UNL A   1      39.585  28.578  29.374  1.00  0.00     0.064 A 
ATOM     73  C   UNL A   1      38.698  28.585  30.461  1.00  0.00     0.173 A 
ATOM     74  C   UNL A   1      39.075  29.054  28.149  1.00  0.00     0.173 A 
ATOM     75  F   UNL A   1      39.117  28.201  31.676  1.00  0.00    -0.203 F 
ATOM     76  C   UNL A   1      37.384  29.044  30.332  1.00  0.00     0.198 A 
ATOM     77  C   UNL A   1      37.757  29.492  28.017  1.00  0.00     0.198 A 
ATOM     78  F   UNL A   1      39.866  29.192  27.075  1.00  0.00    -0.203 F 
ATOM     79  F   UNL A   1      36.585  29.090  31.406  1.00  0.00    -0.200 F 
ATOM     80  C   UNL A   1      36.914  29.498  29.110  1.00  0.00     0.200 A 
ATOM     81  F   UNL A   1      37.329  29.960  26.835  1.00  0.00    -0.200 F 
ATOM     82  F   UNL A   1      35.668  29.977  28.996  1.00  0.00    -0.200 F 
ENDBRANCH  48  72
BRANCH  60  83
ATOM     83  C   UNL A   1      45.012  28.437  32.587  1.00  0.00     0.064 A 
ATOM     84  C   UNL A   1      44.933  27.045  32.413  1.00  0.00     0.173 A 
ATOM     85  C   UNL A   1      45.191  28.915  33.892  1.00  0.00     0.173 A 
ATOM     86  F   UNL A   1      44.876  26.507  31.188  1.00  0.00    -0.203 F 
ATOM     87  C   UNL A   1      44.977  26.176  33.502  1.00  0.00     0.198 A 
ATOM     88  C   UNL A   1      45.273  28.043  34.975  1.00  0.00     0.198 A 
ATOM     89  F   UNL A   1      45.339  30.232  34.114  1.00  0.00    -0.203 F 
ATOM     90  F   UNL A   1      44.884  24.853  33.308  1.00  0.00    -0.200 F 
ATOM     91  C   UNL A   1      45.152  26.676  34.780  1.00  0.00     0.200 A 
ATOM     92  F   UNL A   1      45.496  28.525  36.205  1.00  0.00    -0.200 F 
ATOM     93  F   UNL A   1      45.236  25.838  35.824  1.00  0.00    -0.200 F 
ENDBRANCH  60  83
ENDBRANCH  34  35
ENDBRANCH  27  29
ENDBRANCH  26  27
ENDBRANCH  25  26
ENDBRANCH  24  25
ENDBRANCH  23  24
ENDBRANCH  22  23
ENDBRANCH   1  22
TORSDOF 21
ENDMDL
MODEL 3
REMARK VINA RESULT:      -9.6      1.881      2.872
REMARK SMILES CC(C)(Cn1ccnc1C(N)=S)C(=O)OCCOCCOCCOC(=O)c1ccc(-c2c3nc(c(-c4c(F)c(F)c(F)c(F)c4F)c4ccc([nH]4)c(-c4c(F)c(F)c(F)c(F)c4F)c4nc(c(-c5c(F)c(F)c(F)c(F)c5F)c5ccc2[nH]5)C=C4)C=C3)cc1
REMARK SMILES IDX 19 1 18 2 17 3 16 4 15 5 13 6 14 7 2 8 1 9 3 10 4 11 5 12
REMARK SMILES IDX 6 13 9 14 7 15 8 16 10 17 12 18 11 19 20 22 21 23 22 24
REMARK SMILES IDX 23 25 24 26 25 27 26 28 27 29 28 30 89 31 29 32 88 33 30 34
REMARK SMILES IDX 31 35 32 36 82 37 33 38 87 39 81 40 83 41 34 42 86 43 80 44
REMARK SMILES IDX 79 45 35 47 67 48 47 49 66 50 48 51 51 52 65 53 84 54 49 55
REMARK SMILES IDX 50 56 64 58 85 59 52 60 36 61 37 62 45 63 38 64 39 65 43 66
REMARK SMILES IDX 46 67 40 68 41 69 44 70 42 71 68 72 69 73 77 74 70 75 71 76
REMARK SMILES IDX 75 77 78 78 72 79 73 80 76 81 74 82 53 83 54 84 62 85 55 86
REMARK SMILES IDX 56 87 60 88 63 89 57 90 58 91 61 92 59 93
REMARK H PARENT 11 20 11 21 83 46 51 57
REMARK Flexibility Score: inf
ROOT
ATOM      1  C   UNL A   1      37.377  23.144  25.889  1.00  0.00     0.188 C 
ENDROOT
BRANCH   1   2
ATOM      2  O   UNL A   1      36.050  23.479  25.521  1.00  0.00    -0.376 OA
BRANCH   2   3
ATOM      3  C   UNL A   1      35.418  22.772  24.462  1.00  0.00     0.202 C 
BRANCH   3   4
ATOM      4  C   UNL A   1      34.996  23.518  23.178  1.00  0.00     0.261 C 
BRANCH   4   5
ATOM      5  O   UNL A   1      34.218  24.738  23.327  1.00  0.00    -0.463 OA
BRANCH   5   6
ATOM      6  C   UNL A   1      33.022  24.744  22.695  1.00  0.00     0.313 C 
ATOM      7  O   UNL A   1      32.396  23.712  22.461  1.00  0.00    -0.252 OA
BRANCH   6   8
ATOM      8  C   UNL A   1      32.494  26.121  22.218  1.00  0.00     0.080 C 
ATOM      9  C   UNL A   1      32.003  25.879  20.780  1.00  0.00     0.025 C 
ATOM     10  C   UNL A   1      33.781  26.985  22.181  1.00  0.00     0.025 C 
BRANCH   8  11
ATOM     11  C   UNL A   1      31.482  26.927  23.104  1.00  0.00     0.142 C 
BRANCH  11  12
ATOM     12  N   UNL A   1      31.115  26.522  24.460  1.00  0.00    -0.328 N 
ATOM     13  C   UNL A   1      30.005  25.741  24.706  1.00  0.00     0.108 A 
ATOM     14  C   UNL A   1      31.797  26.581  25.668  1.00  0.00     0.167 A 
ATOM     15  C   UNL A   1      29.895  25.657  26.066  1.00  0.00     0.131 A 
ATOM     16  N   UNL A   1      30.960  26.265  26.656  1.00  0.00    -0.235 NA
BRANCH  14  17
ATOM     17  C   UNL A   1      33.179  26.854  26.013  1.00  0.00     0.140 C 
ATOM     18  S   UNL A   1      33.805  28.380  26.223  1.00  0.00    -0.057 S 
BRANCH  17  19
ATOM     19  N   UNL A   1      34.004  25.761  26.018  1.00  0.00    -0.387 N 
ATOM     20  H   UNL A   1      33.632  24.862  25.866  1.00  0.00     0.157 HD
ATOM     21  H   UNL A   1      34.970  25.874  26.173  1.00  0.00     0.157 HD
ENDBRANCH  17  19
ENDBRANCH  14  17
ENDBRANCH  11  12
ENDBRANCH   8  11
ENDBRANCH   6   8
ENDBRANCH   5   6
ENDBRANCH   4   5
ENDBRANCH   3   4
ENDBRANCH   2   3
ENDBRANCH   1   2
BRANCH   1  22
ATOM     22  C   UNL A   1      37.926  21.738  25.602  1.00  0.00     0.188 C 
BRANCH  22  23
ATOM     23  O   UNL A   1      39.259  21.508  26.027  1.00  0.00    -0.376 OA
BRANCH  23  24
ATOM     24  C   UNL A   1      39.820  20.210  25.892  1.00  0.00     0.202 C 
BRANCH  24  25
ATOM     25  C   UNL A   1      41.333  20.160  26.093  1.00  0.00     0.261 C 
BRANCH  25  26
ATOM     26  O   UNL A   1      41.952  21.420  25.846  1.00  0.00    -0.460 OA
BRANCH  26  27
ATOM     27  C   UNL A   1      43.229  21.354  25.410  1.00  0.00     0.338 C 
ATOM     28  O   UNL A   1      43.803  20.406  24.907  1.00  0.00    -0.246 OA
BRANCH  27  29
ATOM     29  C   UNL A   1      43.837  22.671  25.589  1.00  0.00     0.060 A 
ATOM     30  C   UNL A   1      44.820  22.812  26.576  1.00  0.00     0.016 A 
ATOM     31  C   UNL A   1      43.271  23.768  24.933  1.00  0.00     0.016 A 
ATOM     32  C   UNL A   1      45.073  24.068  27.077  1.00  0.00     0.010 A 
ATOM     33  C   UNL A   1      43.508  25.019  25.444  1.00  0.00     0.010 A 
ATOM     34  C   UNL A   1      44.318  25.129  26.580  1.00  0.00    -0.014 A 
BRANCH  34  35
ATOM     35  C   UNL A   1      44.149  26.286  27.435  1.00  0.00     0.031 A 
ATOM     36  C   UNL A   1      45.104  27.400  27.284  1.00  0.00     0.074 A 
ATOM     37  C   UNL A   1      43.023  26.372  28.173  1.00  0.00     0.049 A 
ATOM     38  N   UNL A   1      45.751  28.024  28.215  1.00  0.00    -0.248 NA
ATOM     39  C   UNL A   1      45.400  27.867  25.921  1.00  0.00     0.031 C 
ATOM     40  C   UNL A   1      41.864  25.469  28.136  1.00  0.00     0.029 A 
ATOM     41  N   UNL A   1      42.611  27.371  28.998  1.00  0.00    -0.354 N 
ATOM     42  C   UNL A   1      46.419  29.060  27.576  1.00  0.00     0.074 A 
ATOM     43  C   UNL A   1      46.256  28.859  26.159  1.00  0.00     0.031 C 
ATOM     44  C   UNL A   1      40.809  26.084  28.710  1.00  0.00     0.029 A 
ATOM     45  C   UNL A   1      41.245  27.366  29.236  1.00  0.00     0.049 A 
ATOM     46  H   UNL A   1      43.223  28.035  29.389  1.00  0.00     0.167 HD
ATOM     47  C   UNL A   1      46.896  30.139  28.249  1.00  0.00     0.037 A 
ATOM     48  C   UNL A   1      40.511  28.392  29.729  1.00  0.00     0.037 A 
ATOM     49  C   UNL A   1      47.044  29.898  29.655  1.00  0.00     0.049 A 
ATOM     50  C   UNL A   1      41.446  29.353  30.367  1.00  0.00     0.074 A 
ATOM     51  C   UNL A   1      47.763  28.982  30.401  1.00  0.00     0.029 A 
ATOM     52  N   UNL A   1      46.137  30.450  30.524  1.00  0.00    -0.354 N 
ATOM     53  N   UNL A   1      42.094  29.132  31.477  1.00  0.00    -0.248 NA
ATOM     54  C   UNL A   1      41.977  30.428  29.540  1.00  0.00     0.031 C 
ATOM     55  C   UNL A   1      46.941  28.690  31.527  1.00  0.00     0.029 A 
ATOM     56  C   UNL A   1      45.784  29.457  31.404  1.00  0.00     0.049 A 
ATOM     57  H   UNL A   1      45.806  31.377  30.519  1.00  0.00     0.167 HD
ATOM     58  C   UNL A   1      43.326  29.743  31.295  1.00  0.00     0.074 A 
ATOM     59  C   UNL A   1      43.155  30.614  30.138  1.00  0.00     0.031 C 
ATOM     60  C   UNL A   1      44.447  29.275  31.915  1.00  0.00     0.037 A 
BRANCH  47  61
ATOM     61  C   UNL A   1      46.953  31.503  27.636  1.00  0.00     0.064 A 
ATOM     62  C   UNL A   1      45.773  32.173  27.279  1.00  0.00     0.173 A 
ATOM     63  C   UNL A   1      48.158  32.071  27.168  1.00  0.00     0.173 A 
ATOM     64  F   UNL A   1      44.577  31.674  27.626  1.00  0.00    -0.203 F 
ATOM     65  C   UNL A   1      45.800  33.331  26.500  1.00  0.00     0.198 A 
ATOM     66  C   UNL A   1      48.186  33.257  26.441  1.00  0.00     0.198 A 
ATOM     67  F   UNL A   1      49.334  31.443  27.320  1.00  0.00    -0.203 F 
ATOM     68  F   UNL A   1      44.650  33.892  26.104  1.00  0.00    -0.200 F 
ATOM     69  C   UNL A   1      47.005  33.876  26.090  1.00  0.00     0.200 A 
ATOM     70  F   UNL A   1      49.362  33.754  26.031  1.00  0.00    -0.200 F 
ATOM     71  F   UNL A   1      47.029  34.969  25.316  1.00  0.00    -0.200 F 
ENDBRANCH  47  61
BRANCH  48  72
ATOM     72  C   UNL A   1      39.095  28.717  29.440  1.00  0.00     0.064 A 
ATOM     73  C   UNL A   1      38.154  28.823  30.476  1.00  0.00     0.173 A 
ATOM     74  C   UNL A   1      38.674  29.157  28.168  1.00  0.00     0.173 A 
ATOM     75  F   UNL A   1      38.489  28.480  31.729  1.00  0.00    -0.203 F 
ATOM     76  C   UNL A   1      36.874  29.340  30.254  1.00  0.00     0.198 A 
ATOM     77  C   UNL A   1      37.390  29.652  27.944  1.00  0.00     0.198 A 
ATOM     78  F   UNL A   1      39.526  29.201  27.133  1.00  0.00    -0.203 F 
ATOM     79  F   UNL A   1      36.024  29.480  31.280  1.00  0.00    -0.200 F 
ATOM     80  C   UNL A   1      36.493  29.755  28.989  1.00  0.00     0.200 A 
ATOM     81  F   UNL A   1      37.049  30.081  26.720  1.00  0.00    -0.200 F 
ATOM     82  F   UNL A   1      35.282  30.290  28.784  1.00  0.00    -0.200 F 
ENDBRANCH  48  72
BRANCH  60  83
ATOM     83  C   UNL A   1      44.273  28.267  33.014  1.00  0.00     0.064 A 
ATOM     84  C   UNL A   1      44.028  28.614  34.353  1.00  0.00     0.173 A 
ATOM     85  C   UNL A   1      44.202  26.909  32.676  1.00  0.00     0.173 A 
ATOM     86  F   UNL A   1      43.965  29.897  34.732  1.00  0.00    -0.203 F 
ATOM     87  C   UNL A   1      43.779  27.640  35.319  1.00  0.00     0.198 A 
ATOM     88  C   UNL A   1      43.915  25.941  33.635  1.00  0.00     0.198 A 
ATOM     89  F   UNL A   1      44.362  26.523  31.400  1.00  0.00    -0.203 F 
ATOM     90  F   UNL A   1      43.564  27.998  36.593  1.00  0.00    -0.200 F 
ATOM     91  C   UNL A   1      43.718  26.306  34.958  1.00  0.00     0.200 A 
ATOM     92  F   UNL A   1      43.804  24.655  33.273  1.00  0.00    -0.200 F 
ATOM     93  F   UNL A   1      43.437  25.372  35.879  1.00  0.00    -0.200 F 
ENDBRANCH  60  83
ENDBRANCH  34  35
ENDBRANCH  27  29
ENDBRANCH  26  27
ENDBRANCH  25  26
ENDBRANCH  24  25
ENDBRANCH  23  24
ENDBRANCH  22  23
ENDBRANCH   1  22
TORSDOF 21
ENDMDL
