MODEL 1
REMARK VINA RESULT:     -11.1      0.000      0.000
REMARK SMILES O=C(N[C@@H](Cc1c[nH]c2ccccc12)C(=O)N[C@@H](CO)C(=O)OCCOCCOCCOC(=O)c1ccc(-c2c3nc(c(-c4c(F)c(F)c(F)c(F)c4F)c4ccc([nH]4)c(-c4c(F)c(F)c(F)c(F)c4F)c4nc(c(-c5c(F)c(F)c(F)c(F)c5F)c5ccc2[nH]5)C=C4)C=C3)cc1)c1ccc(F)cc1
REMARK SMILES IDX 27 1 26 2 25 3 24 4 23 5 21 6 22 7 18 8 17 9 15 10 16 11
REMARK SMILES IDX 4 13 3 14 1 15 2 16 98 18 99 19 104 20 100 21 103 22 101 23
REMARK SMILES IDX 102 24 5 25 6 26 7 27 14 28 8 29 9 30 13 31 10 33 12 34
REMARK SMILES IDX 11 35 19 36 20 37 28 39 29 40 30 41 31 42 32 43 33 44 34 45
REMARK SMILES IDX 35 46 36 47 97 48 37 49 96 50 38 51 39 52 40 53 90 54 41 55
REMARK SMILES IDX 95 56 89 57 91 58 42 59 94 60 88 61 87 62 43 64 75 65 55 66
REMARK SMILES IDX 74 67 56 68 59 69 73 70 92 71 57 72 58 73 72 75 93 76 60 77
REMARK SMILES IDX 44 78 45 79 53 80 46 81 47 82 51 83 54 84 48 85 49 86 52 87
REMARK SMILES IDX 50 88 76 89 77 90 85 91 78 92 79 93 83 94 86 95 80 96 81 97
REMARK SMILES IDX 84 98 82 99 61 100 62 101 70 102 63 103 64 104 68 105 71 106
REMARK SMILES IDX 65 107 66 108 69 109 67 110
REMARK H PARENT 17 12 3 17 8 32 20 38 91 63 59 74
REMARK Flexibility Score: inf
ROOT
ATOM      1  C   UNL A   1      33.606  23.337  21.967  1.00  0.00     0.188 C 
ENDROOT
BRANCH   1   2
ATOM      2  O   UNL A   1      33.653  24.717  21.616  1.00  0.00    -0.376 OA
BRANCH   2   3
ATOM      3  C   UNL A   1      32.794  25.138  20.563  1.00  0.00     0.202 C 
BRANCH   3   4
ATOM      4  C   UNL A   1      31.774  26.200  20.984  1.00  0.00     0.261 C 
BRANCH   4   5
ATOM      5  O   UNL A   1      31.084  25.883  22.215  1.00  0.00    -0.462 OA
BRANCH   5   6
ATOM      6  C   UNL A   1      30.433  26.894  22.865  1.00  0.00     0.331 C 
ATOM      7  O   UNL A   1      30.616  28.082  22.628  1.00  0.00    -0.250 OA
BRANCH   6   8
ATOM      8  C   UNL A   1      29.419  26.357  23.926  1.00  0.00     0.218 C 
BRANCH   8   9
ATOM      9  N   UNL A   1      29.828  26.649  25.318  1.00  0.00    -0.339 N 
ATOM     10  C   UNL A   1      30.961  26.441  26.041  1.00  0.00     0.243 C 
ATOM     11  O   UNL A   1      31.076  27.153  27.049  1.00  0.00    -0.273 OA
ATOM     12  H   UNL A   1      29.120  27.095  25.838  1.00  0.00     0.164 HD
BRANCH  10  13
ATOM     13  C   UNL A   1      32.120  25.455  25.714  1.00  0.00     0.176 C 
BRANCH  13  14
ATOM     14  N   UNL A   1      32.950  25.806  24.564  1.00  0.00    -0.340 N 
ATOM     15  O   UNL A   1      34.033  27.231  23.189  1.00  0.00    -0.269 OA
ATOM     16  C   UNL A   1      33.535  27.029  24.293  1.00  0.00     0.251 C 
ATOM     17  H   UNL A   1      33.111  25.090  23.907  1.00  0.00     0.164 HD
BRANCH  16  18
ATOM     18  C   UNL A   1      33.540  28.129  25.297  1.00  0.00     0.040 A 
ATOM     19  C   UNL A   1      32.684  29.235  25.180  1.00  0.00     0.017 A 
ATOM     20  C   UNL A   1      34.370  28.012  26.423  1.00  0.00     0.017 A 
ATOM     21  C   UNL A   1      32.700  30.240  26.153  1.00  0.00     0.040 A 
ATOM     22  C   UNL A   1      34.377  29.016  27.398  1.00  0.00     0.040 A 
ATOM     23  C   UNL A   1      33.547  30.123  27.251  1.00  0.00     0.123 A 
ATOM     24  F   UNL A   1      33.555  31.083  28.185  1.00  0.00    -0.207 F 
ENDBRANCH  16  18
ENDBRANCH  13  14
BRANCH  13  25
ATOM     25  C   UNL A   1      32.906  24.799  26.872  1.00  0.00     0.072 C 
BRANCH  25  26
ATOM     26  C   UNL A   1      33.518  23.453  26.669  1.00  0.00    -0.020 A 
ATOM     27  C   UNL A   1      34.556  22.955  27.417  1.00  0.00     0.087 A 
ATOM     28  C   UNL A   1      33.061  22.343  25.876  1.00  0.00     0.003 A 
ATOM     29  N   UNL A   1      34.907  21.727  26.949  1.00  0.00    -0.361 N 
ATOM     30  C   UNL A   1      33.940  21.279  26.096  1.00  0.00     0.046 A 
ATOM     31  C   UNL A   1      31.961  22.109  25.028  1.00  0.00     0.010 A 
ATOM     32  H   UNL A   1      35.728  21.240  27.188  1.00  0.00     0.166 HD
ATOM     33  C   UNL A   1      33.792  20.009  25.534  1.00  0.00     0.026 A 
ATOM     34  C   UNL A   1      31.778  20.829  24.475  1.00  0.00     0.001 A 
ATOM     35  C   UNL A   1      32.676  19.796  24.731  1.00  0.00     0.002 A 
ENDBRANCH  25  26
ENDBRANCH  13  25
ENDBRANCH  10  13
ENDBRANCH   8   9
BRANCH   8  36
ATOM     36  C   UNL A   1      28.072  27.008  23.601  1.00  0.00     0.193 C 
BRANCH  36  37
ATOM     37  O   UNL A   1      26.997  26.328  24.251  1.00  0.00    -0.394 OA
ATOM     38  H   UNL A   1      26.304  26.125  23.603  1.00  0.00     0.210 HD
ENDBRANCH  36  37
ENDBRANCH   8  36
ENDBRANCH   6   8
ENDBRANCH   5   6
ENDBRANCH   4   5
ENDBRANCH   3   4
ENDBRANCH   2   3
ENDBRANCH   1   2
BRANCH   1  39
ATOM     39  C   UNL A   1      34.611  22.954  23.063  1.00  0.00     0.188 C 
BRANCH  39  40
ATOM     40  O   UNL A   1      35.991  22.953  22.704  1.00  0.00    -0.376 OA
BRANCH  40  41
ATOM     41  C   UNL A   1      36.933  22.953  23.771  1.00  0.00     0.202 C 
BRANCH  41  42
ATOM     42  C   UNL A   1      37.283  21.574  24.341  1.00  0.00     0.261 C 
BRANCH  42  43
ATOM     43  O   UNL A   1      37.589  21.614  25.751  1.00  0.00    -0.460 OA
BRANCH  43  44
ATOM     44  C   UNL A   1      38.903  21.502  26.057  1.00  0.00     0.338 C 
ATOM     45  O   UNL A   1      39.658  20.588  25.778  1.00  0.00    -0.246 OA
BRANCH  44  46
ATOM     46  C   UNL A   1      39.375  22.710  26.759  1.00  0.00     0.060 A 
ATOM     47  C   UNL A   1      38.789  23.941  26.443  1.00  0.00     0.016 A 
ATOM     48  C   UNL A   1      40.521  22.657  27.556  1.00  0.00     0.016 A 
ATOM     49  C   UNL A   1      39.378  25.127  26.889  1.00  0.00     0.010 A 
ATOM     50  C   UNL A   1      41.109  23.850  28.001  1.00  0.00     0.010 A 
ATOM     51  C   UNL A   1      40.561  25.094  27.641  1.00  0.00    -0.014 A 
BRANCH  51  52
ATOM     52  C   UNL A   1      41.310  26.357  27.878  1.00  0.00     0.031 A 
ATOM     53  C   UNL A   1      40.653  27.460  28.663  1.00  0.00     0.074 A 
ATOM     54  C   UNL A   1      42.578  26.514  27.459  1.00  0.00     0.049 A 
ATOM     55  N   UNL A   1      41.086  28.667  28.926  1.00  0.00    -0.248 NA
ATOM     56  C   UNL A   1      39.329  27.157  29.229  1.00  0.00     0.031 C 
ATOM     57  C   UNL A   1      43.361  25.510  26.747  1.00  0.00     0.029 A 
ATOM     58  N   UNL A   1      43.431  27.587  27.577  1.00  0.00    -0.354 N 
ATOM     59  C   UNL A   1      40.076  29.278  29.659  1.00  0.00     0.074 A 
ATOM     60  C   UNL A   1      39.014  28.307  29.806  1.00  0.00     0.031 C 
ATOM     61  C   UNL A   1      44.580  26.015  26.490  1.00  0.00     0.029 A 
ATOM     62  C   UNL A   1      44.659  27.384  26.996  1.00  0.00     0.049 A 
ATOM     63  H   UNL A   1      43.185  28.423  28.037  1.00  0.00     0.167 HD
ATOM     64  C   UNL A   1      40.034  30.538  30.154  1.00  0.00     0.037 A 
ATOM     65  C   UNL A   1      45.715  28.212  26.865  1.00  0.00     0.037 A 
ATOM     66  C   UNL A   1      41.092  31.505  30.029  1.00  0.00     0.049 A 
ATOM     67  C   UNL A   1      45.628  29.622  27.392  1.00  0.00     0.074 A 
ATOM     68  C   UNL A   1      41.126  32.812  30.486  1.00  0.00     0.029 A 
ATOM     69  N   UNL A   1      42.307  31.270  29.405  1.00  0.00    -0.354 N 
ATOM     70  N   UNL A   1      44.655  30.204  28.049  1.00  0.00    -0.248 NA
ATOM     71  C   UNL A   1      46.783  30.498  27.139  1.00  0.00     0.031 C 
ATOM     72  C   UNL A   1      42.346  33.379  30.105  1.00  0.00     0.029 A 
ATOM     73  C   UNL A   1      43.090  32.412  29.451  1.00  0.00     0.049 A 
ATOM     74  H   UNL A   1      42.574  30.418  28.991  1.00  0.00     0.167 HD
ATOM     75  C   UNL A   1      45.079  31.505  28.290  1.00  0.00     0.074 A 
ATOM     76  C   UNL A   1      46.412  31.620  27.740  1.00  0.00     0.031 C 
ATOM     77  C   UNL A   1      44.418  32.517  28.901  1.00  0.00     0.037 A 
BRANCH  64  78
ATOM     78  C   UNL A   1      38.771  30.963  30.837  1.00  0.00     0.064 A 
ATOM     79  C   UNL A   1      37.657  31.423  30.119  1.00  0.00     0.173 A 
ATOM     80  C   UNL A   1      38.666  30.880  32.234  1.00  0.00     0.173 A 
ATOM     81  F   UNL A   1      37.717  31.534  28.784  1.00  0.00    -0.203 F 
ATOM     82  C   UNL A   1      36.492  31.803  30.778  1.00  0.00     0.198 A 
ATOM     83  C   UNL A   1      37.491  31.239  32.887  1.00  0.00     0.198 A 
ATOM     84  F   UNL A   1      39.704  30.446  32.965  1.00  0.00    -0.203 F 
ATOM     85  F   UNL A   1      35.452  32.277  30.076  1.00  0.00    -0.200 F 
ATOM     86  C   UNL A   1      36.407  31.706  32.159  1.00  0.00     0.200 A 
ATOM     87  F   UNL A   1      37.409  31.134  34.221  1.00  0.00    -0.200 F 
ATOM     88  F   UNL A   1      35.282  32.067  32.791  1.00  0.00    -0.200 F 
ENDBRANCH  64  78
BRANCH  65  89
ATOM     89  C   UNL A   1      46.953  27.747  26.182  1.00  0.00     0.064 A 
ATOM     90  C   UNL A   1      47.054  27.761  24.784  1.00  0.00     0.173 A 
ATOM     91  C   UNL A   1      48.042  27.243  26.908  1.00  0.00     0.173 A 
ATOM     92  F   UNL A   1      46.028  28.204  24.043  1.00  0.00    -0.203 F 
ATOM     93  C   UNL A   1      48.188  27.271  24.138  1.00  0.00     0.198 A 
ATOM     94  C   UNL A   1      49.189  26.785  26.263  1.00  0.00     0.198 A 
ATOM     95  F   UNL A   1      47.995  27.198  28.247  1.00  0.00    -0.203 F 
ATOM     96  F   UNL A   1      48.236  27.246  22.799  1.00  0.00    -0.200 F 
ATOM     97  C   UNL A   1      49.257  26.789  24.878  1.00  0.00     0.200 A 
ATOM     98  F   UNL A   1      50.225  26.333  26.982  1.00  0.00    -0.200 F 
ATOM     99  F   UNL A   1      50.349  26.323  24.257  1.00  0.00    -0.200 F 
ENDBRANCH  65  89
BRANCH  77 100
ATOM    100  C   UNL A   1      45.124  33.837  29.020  1.00  0.00     0.064 A 
ATOM    101  C   UNL A   1      45.955  34.126  30.114  1.00  0.00     0.173 A 
ATOM    102  C   UNL A   1      45.004  34.805  28.013  1.00  0.00     0.173 A 
ATOM    103  F   UNL A   1      46.091  33.239  31.110  1.00  0.00    -0.203 F 
ATOM    104  C   UNL A   1      46.620  35.346  30.205  1.00  0.00     0.198 A 
ATOM    105  C   UNL A   1      45.692  36.014  28.094  1.00  0.00     0.198 A 
ATOM    106  F   UNL A   1      44.226  34.576  26.944  1.00  0.00    -0.203 F 
ATOM    107  F   UNL A   1      47.375  35.618  31.278  1.00  0.00    -0.200 F 
ATOM    108  C   UNL A   1      46.494  36.285  29.192  1.00  0.00     0.200 A 
ATOM    109  F   UNL A   1      45.576  36.916  27.111  1.00  0.00    -0.200 F 
ATOM    110  F   UNL A   1      47.140  37.457  29.278  1.00  0.00    -0.200 F 
ENDBRANCH  77 100
ENDBRANCH  51  52
ENDBRANCH  44  46
ENDBRANCH  43  44
ENDBRANCH  42  43
ENDBRANCH  41  42
ENDBRANCH  40  41
ENDBRANCH  39  40
ENDBRANCH   1  39
TORSDOF 25
ENDMDL
MODEL 2
REMARK VINA RESULT:     -10.9      4.130      9.471
REMARK SMILES O=C(N[C@@H](Cc1c[nH]c2ccccc12)C(=O)N[C@@H](CO)C(=O)OCCOCCOCCOC(=O)c1ccc(-c2c3nc(c(-c4c(F)c(F)c(F)c(F)c4F)c4ccc([nH]4)c(-c4c(F)c(F)c(F)c(F)c4F)c4nc(c(-c5c(F)c(F)c(F)c(F)c5F)c5ccc2[nH]5)C=C4)C=C3)cc1)c1ccc(F)cc1
REMARK SMILES IDX 27 1 26 2 25 3 24 4 23 5 21 6 22 7 18 8 17 9 15 10 16 11
REMARK SMILES IDX 4 13 3 14 1 15 2 16 98 18 99 19 104 20 100 21 103 22 101 23
REMARK SMILES IDX 102 24 5 25 6 26 7 27 14 28 8 29 9 30 13 31 10 33 12 34
REMARK SMILES IDX 11 35 19 36 20 37 28 39 29 40 30 41 31 42 32 43 33 44 34 45
REMARK SMILES IDX 35 46 36 47 97 48 37 49 96 50 38 51 39 52 40 53 90 54 41 55
REMARK SMILES IDX 95 56 89 57 91 58 42 59 94 60 88 61 87 62 43 64 75 65 55 66
REMARK SMILES IDX 74 67 56 68 59 69 73 70 92 71 57 72 58 73 72 75 93 76 60 77
REMARK SMILES IDX 44 78 45 79 53 80 46 81 47 82 51 83 54 84 48 85 49 86 52 87
REMARK SMILES IDX 50 88 76 89 77 90 85 91 78 92 79 93 83 94 86 95 80 96 81 97
REMARK SMILES IDX 84 98 82 99 61 100 62 101 70 102 63 103 64 104 68 105 71 106
REMARK SMILES IDX 65 107 66 108 69 109 67 110
REMARK H PARENT 17 12 3 17 8 32 20 38 91 63 59 74
REMARK Flexibility Score: inf
ROOT
ATOM      1  C   UNL A   1      30.647  29.628  23.847  1.00  0.00     0.188 C 
ENDROOT
BRANCH   1   2
ATOM      2  O   UNL A   1      29.519  28.772  23.681  1.00  0.00    -0.376 OA
BRANCH   2   3
ATOM      3  C   UNL A   1      29.749  27.537  23.011  1.00  0.00     0.202 C 
BRANCH   3   4
ATOM      4  C   UNL A   1      30.933  27.573  22.040  1.00  0.00     0.261 C 
BRANCH   4   5
ATOM      5  O   UNL A   1      31.166  26.313  21.367  1.00  0.00    -0.462 OA
BRANCH   5   6
ATOM      6  C   UNL A   1      32.458  25.889  21.229  1.00  0.00     0.331 C 
ATOM      7  O   UNL A   1      32.956  25.562  20.158  1.00  0.00    -0.250 OA
BRANCH   6   8
ATOM      8  C   UNL A   1      33.227  25.887  22.590  1.00  0.00     0.218 C 
BRANCH   8   9
ATOM      9  N   UNL A   1      34.358  24.932  22.616  1.00  0.00    -0.339 N 
ATOM     10  C   UNL A   1      34.490  23.625  22.967  1.00  0.00     0.243 C 
ATOM     11  O   UNL A   1      35.490  23.058  22.501  1.00  0.00    -0.273 OA
ATOM     12  H   UNL A   1      35.203  25.333  22.311  1.00  0.00     0.164 HD
BRANCH  10  13
ATOM     13  C   UNL A   1      33.515  22.778  23.835  1.00  0.00     0.176 C 
BRANCH  13  14
ATOM     14  N   UNL A   1      33.308  23.246  25.203  1.00  0.00    -0.340 N 
ATOM     15  O   UNL A   1      33.817  23.431  27.394  1.00  0.00    -0.269 OA
ATOM     16  C   UNL A   1      34.204  23.186  26.255  1.00  0.00     0.251 C 
ATOM     17  H   UNL A   1      32.431  23.648  25.399  1.00  0.00     0.164 HD
BRANCH  16  18
ATOM     18  C   UNL A   1      35.624  22.792  26.046  1.00  0.00     0.040 A 
ATOM     19  C   UNL A   1      36.675  23.703  26.234  1.00  0.00     0.017 A 
ATOM     20  C   UNL A   1      35.915  21.457  25.727  1.00  0.00     0.017 A 
ATOM     21  C   UNL A   1      38.000  23.294  26.049  1.00  0.00     0.040 A 
ATOM     22  C   UNL A   1      37.243  21.049  25.551  1.00  0.00     0.040 A 
ATOM     23  C   UNL A   1      38.272  21.973  25.708  1.00  0.00     0.123 A 
ATOM     24  F   UNL A   1      39.542  21.582  25.539  1.00  0.00    -0.207 F 
ENDBRANCH  16  18
ENDBRANCH  13  14
BRANCH  13  25
ATOM     25  C   UNL A   1      32.248  22.177  23.183  1.00  0.00     0.072 C 
BRANCH  25  26
ATOM     26  C   UNL A   1      32.196  20.711  22.903  1.00  0.00    -0.020 A 
ATOM     27  C   UNL A   1      32.070  20.169  21.649  1.00  0.00     0.087 A 
ATOM     28  C   UNL A   1      32.483  19.597  23.767  1.00  0.00     0.003 A 
ATOM     29  N   UNL A   1      32.007  18.814  21.742  1.00  0.00    -0.361 N 
ATOM     30  C   UNL A   1      32.378  18.433  23.000  1.00  0.00     0.046 A 
ATOM     31  C   UNL A   1      32.871  19.452  25.113  1.00  0.00     0.010 A 
ATOM     32  H   UNL A   1      31.737  18.205  21.018  1.00  0.00     0.166 HD
ATOM     33  C   UNL A   1      32.637  17.149  23.483  1.00  0.00     0.026 A 
ATOM     34  C   UNL A   1      33.164  18.171  25.611  1.00  0.00     0.001 A 
ATOM     35  C   UNL A   1      33.055  17.040  24.806  1.00  0.00     0.002 A 
ENDBRANCH  25  26
ENDBRANCH  13  25
ENDBRANCH  10  13
ENDBRANCH   8   9
BRANCH   8  36
ATOM     36  C   UNL A   1      33.716  27.322  22.808  1.00  0.00     0.193 C 
BRANCH  36  37
ATOM     37  O   UNL A   1      34.084  27.938  21.573  1.00  0.00    -0.394 OA
ATOM     38  H   UNL A   1      34.901  27.533  21.242  1.00  0.00     0.210 HD
ENDBRANCH  36  37
ENDBRANCH   8  36
ENDBRANCH   6   8
ENDBRANCH   5   6
ENDBRANCH   4   5
ENDBRANCH   3   4
ENDBRANCH   2   3
ENDBRANCH   1   2
BRANCH   1  39
ATOM     39  C   UNL A   1      31.425  29.364  25.144  1.00  0.00     0.188 C 
BRANCH  39  40
ATOM     40  O   UNL A   1      31.943  30.501  25.830  1.00  0.00    -0.376 OA
BRANCH  40  41
ATOM     41  C   UNL A   1      31.077  31.624  25.959  1.00  0.00     0.202 C 
BRANCH  41  42
ATOM     42  C   UNL A   1      31.497  32.664  27.003  1.00  0.00     0.261 C 
BRANCH  42  43
ATOM     43  O   UNL A   1      32.862  33.102  26.836  1.00  0.00    -0.460 OA
BRANCH  43  44
ATOM     44  C   UNL A   1      33.436  33.627  27.944  1.00  0.00     0.338 C 
ATOM     45  O   UNL A   1      33.013  34.526  28.649  1.00  0.00    -0.246 OA
BRANCH  44  46
ATOM     46  C   UNL A   1      34.683  32.909  28.269  1.00  0.00     0.060 A 
ATOM     47  C   UNL A   1      34.594  31.613  28.790  1.00  0.00     0.016 A 
ATOM     48  C   UNL A   1      35.905  33.585  28.263  1.00  0.00     0.016 A 
ATOM     49  C   UNL A   1      35.724  31.007  29.346  1.00  0.00     0.010 A 
ATOM     50  C   UNL A   1      37.037  32.973  28.822  1.00  0.00     0.010 A 
ATOM     51  C   UNL A   1      36.944  31.695  29.399  1.00  0.00    -0.014 A 
BRANCH  51  52
ATOM     52  C   UNL A   1      38.054  31.146  30.223  1.00  0.00     0.031 A 
ATOM     53  C   UNL A   1      39.032  30.192  29.590  1.00  0.00     0.074 A 
ATOM     54  C   UNL A   1      38.240  31.526  31.500  1.00  0.00     0.049 A 
ATOM     55  N   UNL A   1      40.025  29.536  30.134  1.00  0.00    -0.248 NA
ATOM     56  C   UNL A   1      38.864  29.949  28.149  1.00  0.00     0.031 C 
ATOM     57  C   UNL A   1      37.415  32.488  32.221  1.00  0.00     0.029 A 
ATOM     58  N   UNL A   1      39.191  31.142  32.417  1.00  0.00    -0.354 N 
ATOM     59  C   UNL A   1      40.581  28.778  29.111  1.00  0.00     0.074 A 
ATOM     60  C   UNL A   1      39.819  29.061  27.914  1.00  0.00     0.031 C 
ATOM     61  C   UNL A   1      37.895  32.620  33.469  1.00  0.00     0.029 A 
ATOM     62  C   UNL A   1      39.045  31.735  33.647  1.00  0.00     0.049 A 
ATOM     63  H   UNL A   1      39.912  30.502  32.209  1.00  0.00     0.167 HD
ATOM     64  C   UNL A   1      41.624  27.916  29.166  1.00  0.00     0.037 A 
ATOM     65  C   UNL A   1      39.741  31.568  34.789  1.00  0.00     0.037 A 
ATOM     66  C   UNL A   1      42.399  27.640  30.347  1.00  0.00     0.049 A 
ATOM     67  C   UNL A   1      40.874  30.574  34.835  1.00  0.00     0.074 A 
ATOM     68  C   UNL A   1      43.463  26.766  30.497  1.00  0.00     0.029 A 
ATOM     69  N   UNL A   1      42.198  28.238  31.581  1.00  0.00    -0.354 N 
ATOM     70  N   UNL A   1      41.367  29.833  33.874  1.00  0.00    -0.248 NA
ATOM     71  C   UNL A   1      41.533  30.378  36.136  1.00  0.00     0.031 C 
ATOM     72  C   UNL A   1      43.880  26.807  31.831  1.00  0.00     0.029 A 
ATOM     73  C   UNL A   1      43.107  27.741  32.501  1.00  0.00     0.049 A 
ATOM     74  H   UNL A   1      41.512  28.917  31.775  1.00  0.00     0.167 HD
ATOM     75  C   UNL A   1      42.391  29.091  34.448  1.00  0.00     0.074 A 
ATOM     76  C   UNL A   1      42.474  29.494  35.835  1.00  0.00     0.031 C 
ATOM     77  C   UNL A   1      43.183  28.149  33.880  1.00  0.00     0.037 A 
BRANCH  64  78
ATOM     78  C   UNL A   1      41.956  27.161  27.916  1.00  0.00     0.064 A 
ATOM     79  C   UNL A   1      42.910  27.625  27.000  1.00  0.00     0.173 A 
ATOM     80  C   UNL A   1      41.326  25.935  27.649  1.00  0.00     0.173 A 
ATOM     81  F   UNL A   1      43.526  28.799  27.205  1.00  0.00    -0.203 F 
ATOM     82  C   UNL A   1      43.206  26.899  25.850  1.00  0.00     0.198 A 
ATOM     83  C   UNL A   1      41.642  25.201  26.510  1.00  0.00     0.198 A 
ATOM     84  F   UNL A   1      40.407  25.449  28.497  1.00  0.00    -0.203 F 
ATOM     85  F   UNL A   1      44.092  27.379  24.966  1.00  0.00    -0.200 F 
ATOM     86  C   UNL A   1      42.577  25.686  25.609  1.00  0.00     0.200 A 
ATOM     87  F   UNL A   1      41.040  24.024  26.286  1.00  0.00    -0.200 F 
ATOM     88  F   UNL A   1      42.868  24.985  24.504  1.00  0.00    -0.200 F 
ENDBRANCH  64  78
BRANCH  65  89
ATOM     89  C   UNL A   1      39.379  32.342  36.009  1.00  0.00     0.064 A 
ATOM     90  C   UNL A   1      38.396  31.876  36.893  1.00  0.00     0.173 A 
ATOM     91  C   UNL A   1      39.978  33.578  36.293  1.00  0.00     0.173 A 
ATOM     92  F   UNL A   1      37.771  30.715  36.649  1.00  0.00    -0.203 F 
ATOM     93  C   UNL A   1      38.012  32.626  38.003  1.00  0.00     0.198 A 
ATOM     94  C   UNL A   1      39.617  34.310  37.422  1.00  0.00     0.198 A 
ATOM     95  F   UNL A   1      40.917  34.074  35.476  1.00  0.00    -0.203 F 
ATOM     96  F   UNL A   1      37.031  32.182  38.802  1.00  0.00    -0.200 F 
ATOM     97  C   UNL A   1      38.627  33.839  38.270  1.00  0.00     0.200 A 
ATOM     98  F   UNL A   1      40.223  35.476  37.684  1.00  0.00    -0.200 F 
ATOM     99  F   UNL A   1      38.261  34.557  39.341  1.00  0.00    -0.200 F 
ENDBRANCH  65  89
BRANCH  77 100
ATOM    100  C   UNL A   1      44.218  27.495  34.750  1.00  0.00     0.064 A 
ATOM    101  C   UNL A   1      43.950  26.297  35.431  1.00  0.00     0.173 A 
ATOM    102  C   UNL A   1      45.501  28.047  34.873  1.00  0.00     0.173 A 
ATOM    103  F   UNL A   1      42.734  25.737  35.358  1.00  0.00    -0.203 F 
ATOM    104  C   UNL A   1      44.924  25.690  36.221  1.00  0.00     0.198 A 
ATOM    105  C   UNL A   1      46.480  27.423  35.642  1.00  0.00     0.198 A 
ATOM    106  F   UNL A   1      45.809  29.189  34.237  1.00  0.00    -0.203 F 
ATOM    107  F   UNL A   1      44.634  24.569  36.896  1.00  0.00    -0.200 F 
ATOM    108  C   UNL A   1      46.189  26.249  36.319  1.00  0.00     0.200 A 
ATOM    109  F   UNL A   1      47.705  27.960  35.729  1.00  0.00    -0.200 F 
ATOM    110  F   UNL A   1      47.127  25.661  37.075  1.00  0.00    -0.200 F 
ENDBRANCH  77 100
ENDBRANCH  51  52
ENDBRANCH  44  46
ENDBRANCH  43  44
ENDBRANCH  42  43
ENDBRANCH  41  42
ENDBRANCH  40  41
ENDBRANCH  39  40
ENDBRANCH   1  39
TORSDOF 25
ENDMDL
MODEL 3
REMARK VINA RESULT:     -10.8      4.004      7.163
REMARK SMILES O=C(N[C@@H](Cc1c[nH]c2ccccc12)C(=O)N[C@@H](CO)C(=O)OCCOCCOCCOC(=O)c1ccc(-c2c3nc(c(-c4c(F)c(F)c(F)c(F)c4F)c4ccc([nH]4)c(-c4c(F)c(F)c(F)c(F)c4F)c4nc(c(-c5c(F)c(F)c(F)c(F)c5F)c5ccc2[nH]5)C=C4)C=C3)cc1)c1ccc(F)cc1
REMARK SMILES IDX 27 1 26 2 25 3 24 4 23 5 21 6 22 7 18 8 17 9 15 10 16 11
REMARK SMILES IDX 4 13 3 14 1 15 2 16 98 18 99 19 104 20 100 21 103 22 101 23
REMARK SMILES IDX 102 24 5 25 6 26 7 27 14 28 8 29 9 30 13 31 10 33 12 34
REMARK SMILES IDX 11 35 19 36 20 37 28 39 29 40 30 41 31 42 32 43 33 44 34 45
REMARK SMILES IDX 35 46 36 47 97 48 37 49 96 50 38 51 39 52 40 53 90 54 41 55
REMARK SMILES IDX 95 56 89 57 91 58 42 59 94 60 88 61 87 62 43 64 75 65 55 66
REMARK SMILES IDX 74 67 56 68 59 69 73 70 92 71 57 72 58 73 72 75 93 76 60 77
REMARK SMILES IDX 44 78 45 79 53 80 46 81 47 82 51 83 54 84 48 85 49 86 52 87
REMARK SMILES IDX 50 88 76 89 77 90 85 91 78 92 79 93 83 94 86 95 80 96 81 97
REMARK SMILES IDX 84 98 82 99 61 100 62 101 70 102 63 103 64 104 68 105 71 106
REMARK SMILES IDX 65 107 66 108 69 109 67 110
REMARK H PARENT 17 12 3 17 8 32 20 38 91 63 59 74
REMARK Flexibility Score: inf
ROOT
ATOM      1  C   UNL A   1      30.957  29.278  23.950  1.00  0.00     0.188 C 
ENDROOT
BRANCH   1   2
ATOM      2  O   UNL A   1      29.770  28.493  23.866  1.00  0.00    -0.376 OA
BRANCH   2   3
ATOM      3  C   UNL A   1      29.925  27.147  23.431  1.00  0.00     0.202 C 
BRANCH   3   4
ATOM      4  C   UNL A   1      30.860  26.990  22.228  1.00  0.00     0.261 C 
BRANCH   4   5
ATOM      5  O   UNL A   1      31.573  25.732  22.209  1.00  0.00    -0.462 OA
BRANCH   5   6
ATOM      6  C   UNL A   1      32.934  25.766  22.096  1.00  0.00     0.331 C 
ATOM      7  O   UNL A   1      33.526  25.833  21.025  1.00  0.00    -0.250 OA
BRANCH   6   8
ATOM      8  C   UNL A   1      33.643  25.730  23.489  1.00  0.00     0.218 C 
BRANCH   8   9
ATOM      9  N   UNL A   1      34.941  25.019  23.461  1.00  0.00    -0.339 N 
ATOM     10  C   UNL A   1      35.322  23.727  23.650  1.00  0.00     0.243 C 
ATOM     11  O   UNL A   1      36.430  23.434  23.176  1.00  0.00    -0.273 OA
ATOM     12  H   UNL A   1      35.698  25.614  23.259  1.00  0.00     0.164 HD
BRANCH  10  13
ATOM     13  C   UNL A   1      34.509  22.596  24.345  1.00  0.00     0.176 C 
BRANCH  13  14
ATOM     14  N   UNL A   1      34.791  22.387  25.763  1.00  0.00    -0.340 N 
ATOM     15  O   UNL A   1      34.538  22.779  27.972  1.00  0.00    -0.269 OA
ATOM     16  C   UNL A   1      34.067  22.863  26.841  1.00  0.00     0.251 C 
ATOM     17  H   UNL A   1      35.586  21.847  25.976  1.00  0.00     0.164 HD
BRANCH  16  18
ATOM     18  C   UNL A   1      32.741  23.516  26.661  1.00  0.00     0.040 A 
ATOM     19  C   UNL A   1      31.545  22.788  26.753  1.00  0.00     0.017 A 
ATOM     20  C   UNL A   1      32.693  24.906  26.471  1.00  0.00     0.017 A 
ATOM     21  C   UNL A   1      30.315  23.438  26.599  1.00  0.00     0.040 A 
ATOM     22  C   UNL A   1      31.460  25.553  26.326  1.00  0.00     0.040 A 
ATOM     23  C   UNL A   1      30.283  24.812  26.385  1.00  0.00     0.123 A 
ATOM     24  F   UNL A   1      29.104  25.432  26.246  1.00  0.00    -0.207 F 
ENDBRANCH  16  18
ENDBRANCH  13  14
BRANCH  13  25
ATOM     25  C   UNL A   1      33.024  22.389  23.968  1.00  0.00     0.072 C 
BRANCH  25  26
ATOM     26  C   UNL A   1      32.605  21.107  23.327  1.00  0.00    -0.020 A 
ATOM     27  C   UNL A   1      31.984  21.021  22.107  1.00  0.00     0.087 A 
ATOM     28  C   UNL A   1      32.935  19.751  23.677  1.00  0.00     0.003 A 
ATOM     29  N   UNL A   1      31.696  19.721  21.832  1.00  0.00    -0.361 N 
ATOM     30  C   UNL A   1      32.369  18.918  22.707  1.00  0.00     0.046 A 
ATOM     31  C   UNL A   1      33.699  19.140  24.690  1.00  0.00     0.010 A 
ATOM     32  H   UNL A   1      31.098  19.408  21.116  1.00  0.00     0.166 HD
ATOM     33  C   UNL A   1      32.519  17.530  22.681  1.00  0.00     0.026 A 
ATOM     34  C   UNL A   1      33.885  17.747  24.666  1.00  0.00     0.001 A 
ATOM     35  C   UNL A   1      33.309  16.957  23.673  1.00  0.00     0.002 A 
ENDBRANCH  25  26
ENDBRANCH  13  25
ENDBRANCH  10  13
ENDBRANCH   8   9
BRANCH   8  36
ATOM     36  C   UNL A   1      33.826  27.189  23.916  1.00  0.00     0.193 C 
BRANCH  36  37
ATOM     37  O   UNL A   1      34.097  28.028  22.792  1.00  0.00    -0.394 OA
ATOM     38  H   UNL A   1      33.303  28.539  22.571  1.00  0.00     0.210 HD
ENDBRANCH  36  37
ENDBRANCH   8  36
ENDBRANCH   6   8
ENDBRANCH   5   6
ENDBRANCH   4   5
ENDBRANCH   3   4
ENDBRANCH   2   3
ENDBRANCH   1   2
BRANCH   1  39
ATOM     39  C   UNL A   1      31.553  29.328  25.364  1.00  0.00     0.188 C 
BRANCH  39  40
ATOM     40  O   UNL A   1      32.045  30.589  25.814  1.00  0.00    -0.376 OA
BRANCH  40  41
ATOM     41  C   UNL A   1      31.076  31.598  26.080  1.00  0.00     0.202 C 
BRANCH  41  42
ATOM     42  C   UNL A   1      31.461  32.611  27.164  1.00  0.00     0.261 C 
BRANCH  42  43
ATOM     43  O   UNL A   1      32.741  33.231  26.920  1.00  0.00    -0.460 OA
BRANCH  43  44
ATOM     44  C   UNL A   1      33.378  33.686  28.024  1.00  0.00     0.338 C 
ATOM     45  O   UNL A   1      32.999  34.538  28.807  1.00  0.00    -0.246 OA
BRANCH  44  46
ATOM     46  C   UNL A   1      34.640  32.949  28.232  1.00  0.00     0.060 A 
ATOM     47  C   UNL A   1      34.581  31.569  28.453  1.00  0.00     0.016 A 
ATOM     48  C   UNL A   1      35.836  33.645  28.420  1.00  0.00     0.016 A 
ATOM     49  C   UNL A   1      35.715  30.888  28.906  1.00  0.00     0.010 A 
ATOM     50  C   UNL A   1      36.971  32.958  28.875  1.00  0.00     0.010 A 
ATOM     51  C   UNL A   1      36.907  31.581  29.154  1.00  0.00    -0.014 A 
BRANCH  51  52
ATOM     52  C   UNL A   1      38.011  30.897  29.880  1.00  0.00     0.031 A 
ATOM     53  C   UNL A   1      38.202  31.173  31.347  1.00  0.00     0.074 A 
ATOM     54  C   UNL A   1      38.803  29.996  29.273  1.00  0.00     0.049 A 
ATOM     55  N   UNL A   1      39.137  30.750  32.159  1.00  0.00    -0.248 NA
ATOM     56  C   UNL A   1      37.199  32.042  31.983  1.00  0.00     0.031 C 
ATOM     57  C   UNL A   1      38.693  29.582  27.878  1.00  0.00     0.029 A 
ATOM     58  N   UNL A   1      39.861  29.265  29.760  1.00  0.00    -0.354 N 
ATOM     59  C   UNL A   1      38.856  31.326  33.392  1.00  0.00     0.074 A 
ATOM     60  C   UNL A   1      37.659  32.122  33.223  1.00  0.00     0.031 C 
ATOM     61  C   UNL A   1      39.646  28.670  27.622  1.00  0.00     0.029 A 
ATOM     62  C   UNL A   1      40.451  28.452  28.823  1.00  0.00     0.049 A 
ATOM     63  H   UNL A   1      40.167  29.318  30.696  1.00  0.00     0.167 HD
ATOM     64  C   UNL A   1      39.539  31.212  34.556  1.00  0.00     0.037 A 
ATOM     65  C   UNL A   1      41.527  27.645  28.914  1.00  0.00     0.037 A 
ATOM     66  C   UNL A   1      40.719  30.410  34.739  1.00  0.00     0.049 A 
ATOM     67  C   UNL A   1      42.292  27.565  30.211  1.00  0.00     0.074 A 
ATOM     68  C   UNL A   1      41.486  30.251  35.881  1.00  0.00     0.029 A 
ATOM     69  N   UNL A   1      41.303  29.627  33.755  1.00  0.00    -0.354 N 
ATOM     70  N   UNL A   1      42.042  28.144  31.359  1.00  0.00    -0.248 NA
ATOM     71  C   UNL A   1      43.506  26.733  30.215  1.00  0.00     0.031 C 
ATOM     72  C   UNL A   1      42.555  29.402  35.578  1.00  0.00     0.029 A 
ATOM     73  C   UNL A   1      42.428  28.996  34.260  1.00  0.00     0.049 A 
ATOM     74  H   UNL A   1      40.967  29.533  32.835  1.00  0.00     0.167 HD
ATOM     75  C   UNL A   1      43.058  27.745  32.219  1.00  0.00     0.074 A 
ATOM     76  C   UNL A   1      43.911  26.847  31.472  1.00  0.00     0.031 C 
ATOM     77  C   UNL A   1      43.272  28.102  33.509  1.00  0.00     0.037 A 
BRANCH  64  78
ATOM     78  C   UNL A   1      39.053  32.022  35.717  1.00  0.00     0.064 A 
ATOM     79  C   UNL A   1      38.233  31.473  36.714  1.00  0.00     0.173 A 
ATOM     80  C   UNL A   1      39.440  33.365  35.847  1.00  0.00     0.173 A 
ATOM     81  F   UNL A   1      37.824  30.199  36.624  1.00  0.00    -0.203 F 
ATOM     82  C   UNL A   1      37.803  32.246  37.789  1.00  0.00     0.198 A 
ATOM     83  C   UNL A   1      39.027  34.128  36.935  1.00  0.00     0.198 A 
ATOM     84  F   UNL A   1      40.224  33.935  34.920  1.00  0.00    -0.203 F 
ATOM     85  F   UNL A   1      36.987  31.715  38.711  1.00  0.00    -0.200 F 
ATOM     86  C   UNL A   1      38.204  33.570  37.902  1.00  0.00     0.200 A 
ATOM     87  F   UNL A   1      39.425  35.403  37.046  1.00  0.00    -0.200 F 
ATOM     88  F   UNL A   1      37.794  34.311  38.940  1.00  0.00    -0.200 F 
ENDBRANCH  64  78
BRANCH  65  89
ATOM     89  C   UNL A   1      41.974  26.854  27.735  1.00  0.00     0.064 A 
ATOM     90  C   UNL A   1      41.535  25.537  27.541  1.00  0.00     0.173 A 
ATOM     91  C   UNL A   1      42.879  27.382  26.803  1.00  0.00     0.173 A 
ATOM     92  F   UNL A   1      40.693  24.975  28.421  1.00  0.00    -0.203 F 
ATOM     93  C   UNL A   1      41.998  24.773  26.471  1.00  0.00     0.198 A 
ATOM     94  C   UNL A   1      43.315  26.629  25.714  1.00  0.00     0.198 A 
ATOM     95  F   UNL A   1      43.339  28.634  26.945  1.00  0.00    -0.203 F 
ATOM     96  F   UNL A   1      41.603  23.499  26.340  1.00  0.00    -0.200 F 
ATOM     97  C   UNL A   1      42.883  25.321  25.555  1.00  0.00     0.200 A 
ATOM     98  F   UNL A   1      44.160  27.167  24.825  1.00  0.00    -0.200 F 
ATOM     99  F   UNL A   1      43.324  24.588  24.525  1.00  0.00    -0.200 F 
ENDBRANCH  65  89
BRANCH  77 100
ATOM    100  C   UNL A   1      44.467  27.515  34.203  1.00  0.00     0.064 A 
ATOM    101  C   UNL A   1      44.433  26.224  34.752  1.00  0.00     0.173 A 
ATOM    102  C   UNL A   1      45.670  28.231  34.284  1.00  0.00     0.173 A 
ATOM    103  F   UNL A   1      43.302  25.504  34.713  1.00  0.00    -0.203 F 
ATOM    104  C   UNL A   1      45.554  25.682  35.377  1.00  0.00     0.198 A 
ATOM    105  C   UNL A   1      46.796  27.676  34.886  1.00  0.00     0.198 A 
ATOM    106  F   UNL A   1      45.756  29.468  33.769  1.00  0.00    -0.203 F 
ATOM    107  F   UNL A   1      45.486  24.464  35.932  1.00  0.00    -0.200 F 
ATOM    108  C   UNL A   1      46.736  26.405  35.437  1.00  0.00     0.200 A 
ATOM    109  F   UNL A   1      47.940  28.373  34.935  1.00  0.00    -0.200 F 
ATOM    110  F   UNL A   1      47.815  25.881  36.034  1.00  0.00    -0.200 F 
ENDBRANCH  77 100
ENDBRANCH  51  52
ENDBRANCH  44  46
ENDBRANCH  43  44
ENDBRANCH  42  43
ENDBRANCH  41  42
ENDBRANCH  40  41
ENDBRANCH  39  40
ENDBRANCH   1  39
TORSDOF 25
ENDMDL
