MODEL 1
REMARK VINA RESULT:     -11.2      0.000      0.000
REMARK SMILES Cc1ccc2c(c1)C=C(C(=O)OCCOCCOCCOC(=O)c1ccc(-c3c4nc(c(-c5c(F)c(F)c(F)c(F)c5F)c5ccc([nH]5)c(-c5c(F)c(F)c(F)c(F)c5F)c5nc(c(-c6c(F)c(F)c(F)c(F)c6F)c6ccc3[nH]6)C=C5)C=C4)cc1)[C@@H](C(F)(F)F)O2
REMARK SMILES IDX 17 1 16 2 15 3 14 4 13 5 12 6 10 7 11 8 9 9 1 10 2 11 3 12
REMARK SMILES IDX 7 13 4 14 6 15 5 16 8 17 92 18 87 19 88 20 89 21 90 22 91 23
REMARK SMILES IDX 18 24 19 25 20 26 21 27 22 28 23 29 24 30 25 31 86 32 26 33
REMARK SMILES IDX 85 34 27 35 28 36 29 37 79 38 30 39 84 40 78 41 80 42 31 43
REMARK SMILES IDX 83 44 77 45 76 46 32 48 64 49 44 50 63 51 45 52 48 53 62 54
REMARK SMILES IDX 81 55 46 56 47 57 61 59 82 60 49 61 33 62 34 63 42 64 35 65
REMARK SMILES IDX 36 66 40 67 43 68 37 69 38 70 41 71 39 72 65 73 66 74 74 75
REMARK SMILES IDX 67 76 68 77 72 78 75 79 69 80 70 81 73 82 71 83 50 84 51 85
REMARK SMILES IDX 59 86 52 87 53 88 57 89 60 90 54 91 55 92 58 93 56 94
REMARK H PARENT 80 47 48 58
REMARK Flexibility Score: inf
ROOT
ATOM      1  C   UNL A   1      33.475  20.819  25.849  1.00  0.00     0.188 C 
ENDROOT
BRANCH   1   2
ATOM      2  C   UNL A   1      32.296  20.599  24.879  1.00  0.00     0.188 C 
BRANCH   2   3
ATOM      3  O   UNL A   1      32.444  20.766  23.485  1.00  0.00    -0.376 OA
BRANCH   3   4
ATOM      4  C   UNL A   1      32.187  22.010  22.853  1.00  0.00     0.202 C 
BRANCH   4   5
ATOM      5  C   UNL A   1      33.304  22.953  22.397  1.00  0.00     0.261 C 
BRANCH   5   6
ATOM      6  O   UNL A   1      33.467  24.130  23.196  1.00  0.00    -0.460 OA
BRANCH   6   7
ATOM      7  C   UNL A   1      33.262  25.297  22.539  1.00  0.00     0.338 C 
ATOM      8  O   UNL A   1      33.276  25.469  21.331  1.00  0.00    -0.246 OA
BRANCH   7   9
ATOM      9  C   UNL A   1      32.857  26.340  23.498  1.00  0.00     0.087 C 
ATOM     10  C   UNL A   1      35.124  29.859  28.030  1.00  0.00     0.044 C 
ATOM     11  C   UNL A   1      34.091  29.294  27.099  1.00  0.00    -0.050 A 
ATOM     12  C   UNL A   1      32.746  29.654  27.245  1.00  0.00     0.007 A 
ATOM     13  C   UNL A   1      34.450  28.399  26.083  1.00  0.00     0.015 A 
ATOM     14  C   UNL A   1      31.777  29.132  26.384  1.00  0.00     0.047 A 
ATOM     15  C   UNL A   1      33.474  27.855  25.239  1.00  0.00     0.017 A 
ATOM     16  C   UNL A   1      32.140  28.234  25.382  1.00  0.00     0.128 A 
ATOM     17  C   UNL A   1      33.838  26.863  24.244  1.00  0.00     0.027 C 
ATOM     18  O   UNL A   1      31.126  27.773  24.591  1.00  0.00    -0.475 OA
ATOM     19  C   UNL A   1      31.412  26.753  23.595  1.00  0.00     0.316 C 
BRANCH  19  20
ATOM     20  C   UNL A   1      30.483  25.556  23.842  1.00  0.00     0.430 C 
ATOM     21  F   UNL A   1      30.930  24.785  24.862  1.00  0.00    -0.167 F 
ATOM     22  F   UNL A   1      29.232  25.954  24.180  1.00  0.00    -0.167 F 
ATOM     23  F   UNL A   1      30.372  24.766  22.751  1.00  0.00    -0.167 F 
ENDBRANCH  19  20
ENDBRANCH   7   9
ENDBRANCH   6   7
ENDBRANCH   5   6
ENDBRANCH   4   5
ENDBRANCH   3   4
ENDBRANCH   2   3
ENDBRANCH   1   2
BRANCH   1  24
ATOM     24  O   UNL A   1      34.726  21.279  25.377  1.00  0.00    -0.376 OA
BRANCH  24  25
ATOM     25  C   UNL A   1      35.715  20.329  25.002  1.00  0.00     0.202 C 
BRANCH  25  26
ATOM     26  C   UNL A   1      37.154  20.781  24.735  1.00  0.00     0.261 C 
BRANCH  26  27
ATOM     27  O   UNL A   1      37.686  21.619  25.773  1.00  0.00    -0.460 OA
BRANCH  27  28
ATOM     28  C   UNL A   1      38.975  21.362  26.126  1.00  0.00     0.338 C 
ATOM     29  O   UNL A   1      39.606  20.347  25.949  1.00  0.00    -0.246 OA
BRANCH  28  30
ATOM     30  C   UNL A   1      39.581  22.624  26.599  1.00  0.00     0.060 A 
ATOM     31  C   UNL A   1      40.593  22.617  27.560  1.00  0.00     0.016 A 
ATOM     32  C   UNL A   1      39.109  23.831  26.066  1.00  0.00     0.016 A 
ATOM     33  C   UNL A   1      41.145  23.830  27.978  1.00  0.00     0.010 A 
ATOM     34  C   UNL A   1      39.646  25.043  26.502  1.00  0.00     0.010 A 
ATOM     35  C   UNL A   1      40.681  25.048  27.449  1.00  0.00    -0.014 A 
BRANCH  35  36
ATOM     36  C   UNL A   1      41.386  26.309  27.773  1.00  0.00     0.031 A 
ATOM     37  C   UNL A   1      42.795  26.562  27.338  1.00  0.00     0.074 A 
ATOM     38  C   UNL A   1      40.717  27.241  28.478  1.00  0.00     0.049 A 
ATOM     39  N   UNL A   1      43.516  27.647  27.480  1.00  0.00    -0.248 NA
ATOM     40  C   UNL A   1      43.491  25.458  26.662  1.00  0.00     0.031 C 
ATOM     41  C   UNL A   1      39.348  27.090  28.970  1.00  0.00     0.029 A 
ATOM     42  N   UNL A   1      41.090  28.492  28.893  1.00  0.00    -0.354 N 
ATOM     43  C   UNL A   1      44.738  27.372  26.884  1.00  0.00     0.074 A 
ATOM     44  C   UNL A   1      44.681  25.999  26.425  1.00  0.00     0.031 C 
ATOM     45  C   UNL A   1      38.987  28.216  29.605  1.00  0.00     0.029 A 
ATOM     46  C   UNL A   1      40.104  29.155  29.579  1.00  0.00     0.049 A 
ATOM     47  H   UNL A   1      41.979  28.877  28.718  1.00  0.00     0.167 HD
ATOM     48  C   UNL A   1      45.798  28.202  26.723  1.00  0.00     0.037 A 
ATOM     49  C   UNL A   1      40.096  30.388  30.121  1.00  0.00     0.037 A 
ATOM     50  C   UNL A   1      45.853  29.561  27.203  1.00  0.00     0.049 A 
ATOM     51  C   UNL A   1      41.307  31.265  29.971  1.00  0.00     0.074 A 
ATOM     52  C   UNL A   1      46.875  30.486  27.059  1.00  0.00     0.029 A 
ATOM     53  N   UNL A   1      44.853  30.190  27.932  1.00  0.00    -0.354 N 
ATOM     54  N   UNL A   1      42.432  31.022  29.347  1.00  0.00    -0.248 NA
ATOM     55  C   UNL A   1      41.239  32.596  30.594  1.00  0.00     0.031 C 
ATOM     56  C   UNL A   1      46.516  31.651  27.743  1.00  0.00     0.029 A 
ATOM     57  C   UNL A   1      45.246  31.477  28.268  1.00  0.00     0.049 A 
ATOM     58  H   UNL A   1      43.990  29.782  28.174  1.00  0.00     0.167 HD
ATOM     59  C   UNL A   1      43.199  32.171  29.480  1.00  0.00     0.074 A 
ATOM     60  C   UNL A   1      42.401  33.120  30.230  1.00  0.00     0.031 C 
ATOM     61  C   UNL A   1      44.451  32.415  29.022  1.00  0.00     0.037 A 
BRANCH  48  62
ATOM     62  C   UNL A   1      46.994  27.677  25.982  1.00  0.00     0.064 A 
ATOM     63  C   UNL A   1      47.073  27.751  24.583  1.00  0.00     0.173 A 
ATOM     64  C   UNL A   1      48.114  27.196  26.677  1.00  0.00     0.173 A 
ATOM     65  F   UNL A   1      46.028  28.203  23.872  1.00  0.00    -0.203 F 
ATOM     66  C   UNL A   1      48.222  27.352  23.908  1.00  0.00     0.198 A 
ATOM     67  C   UNL A   1      49.272  26.822  26.000  1.00  0.00     0.198 A 
ATOM     68  F   UNL A   1      48.096  27.117  28.017  1.00  0.00    -0.203 F 
ATOM     69  F   UNL A   1      48.267  27.412  22.570  1.00  0.00    -0.200 F 
ATOM     70  C   UNL A   1      49.325  26.898  24.616  1.00  0.00     0.200 A 
ATOM     71  F   UNL A   1      50.343  26.401  26.688  1.00  0.00    -0.200 F 
ATOM     72  F   UNL A   1      50.440  26.538  23.966  1.00  0.00    -0.200 F 
ENDBRANCH  48  62
BRANCH  49  73
ATOM     73  C   UNL A   1      38.877  30.870  30.815  1.00  0.00     0.064 A 
ATOM     74  C   UNL A   1      37.832  31.469  30.097  1.00  0.00     0.173 A 
ATOM     75  C   UNL A   1      38.716  30.713  32.198  1.00  0.00     0.173 A 
ATOM     76  F   UNL A   1      37.950  31.656  28.774  1.00  0.00    -0.203 F 
ATOM     77  C   UNL A   1      36.675  31.901  30.741  1.00  0.00     0.198 A 
ATOM     78  C   UNL A   1      37.547  31.120  32.836  1.00  0.00     0.198 A 
ATOM     79  F   UNL A   1      39.686  30.140  32.927  1.00  0.00    -0.203 F 
ATOM     80  F   UNL A   1      35.705  32.500  30.037  1.00  0.00    -0.200 F 
ATOM     81  C   UNL A   1      36.530  31.719  32.108  1.00  0.00     0.200 A 
ATOM     82  F   UNL A   1      37.404  30.927  34.154  1.00  0.00    -0.200 F 
ATOM     83  F   UNL A   1      35.411  32.122  32.724  1.00  0.00    -0.200 F 
ENDBRANCH  49  73
BRANCH  61  84
ATOM     84  C   UNL A   1      45.039  33.767  29.307  1.00  0.00     0.064 A 
ATOM     85  C   UNL A   1      45.816  34.004  30.451  1.00  0.00     0.173 A 
ATOM     86  C   UNL A   1      44.859  34.828  28.405  1.00  0.00     0.173 A 
ATOM     87  F   UNL A   1      46.005  33.028  31.352  1.00  0.00    -0.203 F 
ATOM     88  C   UNL A   1      46.370  35.257  30.694  1.00  0.00     0.198 A 
ATOM     89  C   UNL A   1      45.441  36.072  28.636  1.00  0.00     0.198 A 
ATOM     90  F   UNL A   1      44.131  34.654  27.292  1.00  0.00    -0.203 F 
ATOM     91  F   UNL A   1      47.069  35.472  31.817  1.00  0.00    -0.200 F 
ATOM     92  C   UNL A   1      46.191  36.288  29.782  1.00  0.00     0.200 A 
ATOM     93  F   UNL A   1      45.278  37.062  27.747  1.00  0.00    -0.200 F 
ATOM     94  F   UNL A   1      46.733  37.491  30.014  1.00  0.00    -0.200 F 
ENDBRANCH  61  84
ENDBRANCH  35  36
ENDBRANCH  28  30
ENDBRANCH  27  28
ENDBRANCH  26  27
ENDBRANCH  25  26
ENDBRANCH  24  25
ENDBRANCH   1  24
TORSDOF 18
ENDMDL
MODEL 2
REMARK VINA RESULT:     -11.0      2.740      8.327
REMARK SMILES Cc1ccc2c(c1)C=C(C(=O)OCCOCCOCCOC(=O)c1ccc(-c3c4nc(c(-c5c(F)c(F)c(F)c(F)c5F)c5ccc([nH]5)c(-c5c(F)c(F)c(F)c(F)c5F)c5nc(c(-c6c(F)c(F)c(F)c(F)c6F)c6ccc3[nH]6)C=C5)C=C4)cc1)[C@@H](C(F)(F)F)O2
REMARK SMILES IDX 17 1 16 2 15 3 14 4 13 5 12 6 10 7 11 8 9 9 1 10 2 11 3 12
REMARK SMILES IDX 7 13 4 14 6 15 5 16 8 17 92 18 87 19 88 20 89 21 90 22 91 23
REMARK SMILES IDX 18 24 19 25 20 26 21 27 22 28 23 29 24 30 25 31 86 32 26 33
REMARK SMILES IDX 85 34 27 35 28 36 29 37 79 38 30 39 84 40 78 41 80 42 31 43
REMARK SMILES IDX 83 44 77 45 76 46 32 48 64 49 44 50 63 51 45 52 48 53 62 54
REMARK SMILES IDX 81 55 46 56 47 57 61 59 82 60 49 61 33 62 34 63 42 64 35 65
REMARK SMILES IDX 36 66 40 67 43 68 37 69 38 70 41 71 39 72 65 73 66 74 74 75
REMARK SMILES IDX 67 76 68 77 72 78 75 79 69 80 70 81 73 82 71 83 50 84 51 85
REMARK SMILES IDX 59 86 52 87 53 88 57 89 60 90 54 91 55 92 58 93 56 94
REMARK H PARENT 80 47 48 58
REMARK Flexibility Score: inf
ROOT
ATOM      1  C   UNL A   1      41.605  21.506  26.117  1.00  0.00     0.188 C 
ENDROOT
BRANCH   1   2
ATOM      2  C   UNL A   1      41.155  22.039  27.494  1.00  0.00     0.188 C 
BRANCH   2   3
ATOM      3  O   UNL A   1      40.051  22.908  27.625  1.00  0.00    -0.376 OA
BRANCH   3   4
ATOM      4  C   UNL A   1      39.314  23.352  26.498  1.00  0.00     0.202 C 
BRANCH   4   5
ATOM      5  C   UNL A   1      38.067  22.625  25.986  1.00  0.00     0.261 C 
BRANCH   5   6
ATOM      6  O   UNL A   1      36.840  23.347  26.136  1.00  0.00    -0.460 OA
BRANCH   6   7
ATOM      7  C   UNL A   1      35.794  22.845  25.436  1.00  0.00     0.338 C 
ATOM      8  O   UNL A   1      35.773  21.806  24.798  1.00  0.00    -0.246 OA
BRANCH   7   9
ATOM      9  C   UNL A   1      34.597  23.672  25.674  1.00  0.00     0.087 C 
ATOM     10  C   UNL A   1      32.675  29.532  25.495  1.00  0.00     0.044 C 
ATOM     11  C   UNL A   1      32.588  28.051  25.728  1.00  0.00    -0.050 A 
ATOM     12  C   UNL A   1      31.434  27.499  26.296  1.00  0.00     0.007 A 
ATOM     13  C   UNL A   1      33.653  27.206  25.392  1.00  0.00     0.015 A 
ATOM     14  C   UNL A   1      31.345  26.122  26.517  1.00  0.00     0.047 A 
ATOM     15  C   UNL A   1      33.574  25.830  25.640  1.00  0.00     0.017 A 
ATOM     16  C   UNL A   1      32.413  25.288  26.190  1.00  0.00     0.128 A 
ATOM     17  C   UNL A   1      34.712  24.971  25.371  1.00  0.00     0.027 C 
ATOM     18  O   UNL A   1      32.238  23.958  26.445  1.00  0.00    -0.475 OA
ATOM     19  C   UNL A   1      33.347  23.043  26.229  1.00  0.00     0.316 C 
BRANCH  19  20
ATOM     20  C   UNL A   1      33.613  22.282  27.537  1.00  0.00     0.430 C 
ATOM     21  F   UNL A   1      33.890  20.977  27.302  1.00  0.00    -0.167 F 
ATOM     22  F   UNL A   1      34.678  22.788  28.204  1.00  0.00    -0.167 F 
ATOM     23  F   UNL A   1      32.554  22.330  28.376  1.00  0.00    -0.167 F 
ENDBRANCH  19  20
ENDBRANCH   7   9
ENDBRANCH   6   7
ENDBRANCH   5   6
ENDBRANCH   4   5
ENDBRANCH   3   4
ENDBRANCH   2   3
ENDBRANCH   1   2
BRANCH   1  24
ATOM     24  O   UNL A   1      41.461  20.138  25.788  1.00  0.00    -0.376 OA
BRANCH  24  25
ATOM     25  C   UNL A   1      42.309  19.184  26.412  1.00  0.00     0.202 C 
BRANCH  25  26
ATOM     26  C   UNL A   1      43.363  18.437  25.589  1.00  0.00     0.261 C 
BRANCH  26  27
ATOM     27  O   UNL A   1      43.671  19.081  24.343  1.00  0.00    -0.460 OA
BRANCH  27  28
ATOM     28  C   UNL A   1      44.947  19.538  24.223  1.00  0.00     0.338 C 
ATOM     29  O   UNL A   1      45.877  19.008  23.663  1.00  0.00    -0.246 OA
BRANCH  28  30
ATOM     30  C   UNL A   1      44.985  20.929  24.723  1.00  0.00     0.060 A 
ATOM     31  C   UNL A   1      45.441  21.216  26.010  1.00  0.00     0.016 A 
ATOM     32  C   UNL A   1      44.543  21.954  23.875  1.00  0.00     0.016 A 
ATOM     33  C   UNL A   1      45.467  22.543  26.445  1.00  0.00     0.010 A 
ATOM     34  C   UNL A   1      44.549  23.277  24.321  1.00  0.00     0.010 A 
ATOM     35  C   UNL A   1      45.027  23.580  25.603  1.00  0.00    -0.014 A 
BRANCH  35  36
ATOM     36  C   UNL A   1      45.217  24.991  26.011  1.00  0.00     0.031 A 
ATOM     37  C   UNL A   1      44.096  25.813  26.565  1.00  0.00     0.074 A 
ATOM     38  C   UNL A   1      46.444  25.527  25.871  1.00  0.00     0.049 A 
ATOM     39  N   UNL A   1      44.129  27.035  27.036  1.00  0.00    -0.248 NA
ATOM     40  C   UNL A   1      42.765  25.191  26.591  1.00  0.00     0.031 C 
ATOM     41  C   UNL A   1      47.604  24.823  25.323  1.00  0.00     0.029 A 
ATOM     42  N   UNL A   1      46.922  26.773  26.183  1.00  0.00    -0.354 N 
ATOM     43  C   UNL A   1      42.834  27.320  27.445  1.00  0.00     0.074 A 
ATOM     44  C   UNL A   1      42.027  26.161  27.118  1.00  0.00     0.031 C 
ATOM     45  C   UNL A   1      48.666  25.642  25.356  1.00  0.00     0.029 A 
ATOM     46  C   UNL A   1      48.257  26.930  25.908  1.00  0.00     0.049 A 
ATOM     47  H   UNL A   1      46.361  27.486  26.566  1.00  0.00     0.167 HD
ATOM     48  C   UNL A   1      42.375  28.441  28.054  1.00  0.00     0.037 A 
ATOM     49  C   UNL A   1      49.065  27.991  26.089  1.00  0.00     0.037 A 
ATOM     50  C   UNL A   1      43.182  29.598  28.356  1.00  0.00     0.049 A 
ATOM     51  C   UNL A   1      48.514  29.239  26.718  1.00  0.00     0.074 A 
ATOM     52  C   UNL A   1      42.807  30.767  28.997  1.00  0.00     0.029 A 
ATOM     53  N   UNL A   1      44.522  29.741  28.025  1.00  0.00    -0.354 N 
ATOM     54  N   UNL A   1      47.304  29.474  27.164  1.00  0.00    -0.248 NA
ATOM     55  C   UNL A   1      49.444  30.365  26.878  1.00  0.00     0.031 C 
ATOM     56  C   UNL A   1      43.903  31.636  29.008  1.00  0.00     0.029 A 
ATOM     57  C   UNL A   1      44.979  30.989  28.424  1.00  0.00     0.049 A 
ATOM     58  H   UNL A   1      45.069  29.058  27.575  1.00  0.00     0.167 HD
ATOM     59  C   UNL A   1      47.332  30.763  27.678  1.00  0.00     0.074 A 
ATOM     60  C   UNL A   1      48.684  31.253  27.504  1.00  0.00     0.031 C 
ATOM     61  C   UNL A   1      46.325  31.474  28.241  1.00  0.00     0.037 A 
BRANCH  48  62
ATOM     62  C   UNL A   1      40.928  28.478  28.456  1.00  0.00     0.064 A 
ATOM     63  C   UNL A   1      40.520  28.088  29.741  1.00  0.00     0.173 A 
ATOM     64  C   UNL A   1      39.958  29.007  27.591  1.00  0.00     0.173 A 
ATOM     65  F   UNL A   1      41.410  27.575  30.604  1.00  0.00    -0.203 F 
ATOM     66  C   UNL A   1      39.193  28.215  30.140  1.00  0.00     0.198 A 
ATOM     67  C   UNL A   1      38.636  29.156  28.004  1.00  0.00     0.198 A 
ATOM     68  F   UNL A   1      40.297  29.406  26.356  1.00  0.00    -0.203 F 
ATOM     69  F   UNL A   1      38.822  27.817  31.365  1.00  0.00    -0.200 F 
ATOM     70  C   UNL A   1      38.253  28.758  29.276  1.00  0.00     0.200 A 
ATOM     71  F   UNL A   1      37.733  29.700  27.174  1.00  0.00    -0.200 F 
ATOM     72  F   UNL A   1      36.982  28.904  29.672  1.00  0.00    -0.200 F 
ENDBRANCH  48  62
BRANCH  49  73
ATOM     73  C   UNL A   1      50.495  27.890  25.704  1.00  0.00     0.064 A 
ATOM     74  C   UNL A   1      50.889  28.031  24.366  1.00  0.00     0.173 A 
ATOM     75  C   UNL A   1      51.495  27.687  26.664  1.00  0.00     0.173 A 
ATOM     76  F   UNL A   1      49.964  28.209  23.411  1.00  0.00    -0.203 F 
ATOM     77  C   UNL A   1      52.231  27.961  24.003  1.00  0.00     0.198 A 
ATOM     78  C   UNL A   1      52.840  27.645  26.302  1.00  0.00     0.198 A 
ATOM     79  F   UNL A   1      51.168  27.553  27.957  1.00  0.00    -0.203 F 
ATOM     80  F   UNL A   1      52.579  28.066  22.712  1.00  0.00    -0.200 F 
ATOM     81  C   UNL A   1      53.206  27.777  24.971  1.00  0.00     0.200 A 
ATOM     82  F   UNL A   1      53.779  27.484  27.244  1.00  0.00    -0.200 F 
ATOM     83  F   UNL A   1      54.498  27.724  24.623  1.00  0.00    -0.200 F 
ENDBRANCH  49  73
BRANCH  61  84
ATOM     84  C   UNL A   1      46.646  32.860  28.725  1.00  0.00     0.064 A 
ATOM     85  C   UNL A   1      46.552  33.974  27.877  1.00  0.00     0.173 A 
ATOM     86  C   UNL A   1      47.011  33.083  30.062  1.00  0.00     0.173 A 
ATOM     87  F   UNL A   1      46.222  33.813  26.586  1.00  0.00    -0.203 F 
ATOM     88  C   UNL A   1      46.834  35.255  28.343  1.00  0.00     0.198 A 
ATOM     89  C   UNL A   1      47.262  34.369  30.532  1.00  0.00     0.198 A 
ATOM     90  F   UNL A   1      47.109  32.054  30.917  1.00  0.00    -0.203 F 
ATOM     91  F   UNL A   1      46.783  36.298  27.502  1.00  0.00    -0.200 F 
ATOM     92  C   UNL A   1      47.180  35.453  29.672  1.00  0.00     0.200 A 
ATOM     93  F   UNL A   1      47.583  34.560  31.820  1.00  0.00    -0.200 F 
ATOM     94  F   UNL A   1      47.442  36.688  30.120  1.00  0.00    -0.200 F 
ENDBRANCH  61  84
ENDBRANCH  35  36
ENDBRANCH  28  30
ENDBRANCH  27  28
ENDBRANCH  26  27
ENDBRANCH  25  26
ENDBRANCH  24  25
ENDBRANCH   1  24
TORSDOF 18
ENDMDL
MODEL 3
REMARK VINA RESULT:     -10.7      2.688      8.651
REMARK SMILES Cc1ccc2c(c1)C=C(C(=O)OCCOCCOCCOC(=O)c1ccc(-c3c4nc(c(-c5c(F)c(F)c(F)c(F)c5F)c5ccc([nH]5)c(-c5c(F)c(F)c(F)c(F)c5F)c5nc(c(-c6c(F)c(F)c(F)c(F)c6F)c6ccc3[nH]6)C=C5)C=C4)cc1)[C@@H](C(F)(F)F)O2
REMARK SMILES IDX 17 1 16 2 15 3 14 4 13 5 12 6 10 7 11 8 9 9 1 10 2 11 3 12
REMARK SMILES IDX 7 13 4 14 6 15 5 16 8 17 92 18 87 19 88 20 89 21 90 22 91 23
REMARK SMILES IDX 18 24 19 25 20 26 21 27 22 28 23 29 24 30 25 31 86 32 26 33
REMARK SMILES IDX 85 34 27 35 28 36 29 37 79 38 30 39 84 40 78 41 80 42 31 43
REMARK SMILES IDX 83 44 77 45 76 46 32 48 64 49 44 50 63 51 45 52 48 53 62 54
REMARK SMILES IDX 81 55 46 56 47 57 61 59 82 60 49 61 33 62 34 63 42 64 35 65
REMARK SMILES IDX 36 66 40 67 43 68 37 69 38 70 41 71 39 72 65 73 66 74 74 75
REMARK SMILES IDX 67 76 68 77 72 78 75 79 69 80 70 81 73 82 71 83 50 84 51 85
REMARK SMILES IDX 59 86 52 87 53 88 57 89 60 90 54 91 55 92 58 93 56 94
REMARK H PARENT 80 47 48 58
REMARK Flexibility Score: inf
ROOT
ATOM      1  C   UNL A   1      41.053  21.152  27.542  1.00  0.00     0.188 C 
ENDROOT
BRANCH   1   2
ATOM      2  C   UNL A   1      40.282  21.675  26.312  1.00  0.00     0.188 C 
BRANCH   2   3
ATOM      3  O   UNL A   1      38.912  21.391  26.122  1.00  0.00    -0.376 OA
BRANCH   3   4
ATOM      4  C   UNL A   1      38.081  22.226  25.333  1.00  0.00     0.202 C 
BRANCH   4   5
ATOM      5  C   UNL A   1      37.069  23.201  25.943  1.00  0.00     0.261 C 
BRANCH   5   6
ATOM      6  O   UNL A   1      35.963  23.535  25.098  1.00  0.00    -0.460 OA
BRANCH   6   7
ATOM      7  C   UNL A   1      34.743  23.360  25.661  1.00  0.00     0.338 C 
ATOM      8  O   UNL A   1      34.243  24.033  26.546  1.00  0.00    -0.246 OA
BRANCH   7   9
ATOM      9  C   UNL A   1      34.011  22.304  24.937  1.00  0.00     0.087 C 
ATOM     10  C   UNL A   1      34.015  16.204  24.017  1.00  0.00     0.044 C 
ATOM     11  C   UNL A   1      33.569  17.629  23.859  1.00  0.00    -0.050 A 
ATOM     12  C   UNL A   1      32.572  17.952  22.932  1.00  0.00     0.007 A 
ATOM     13  C   UNL A   1      34.145  18.651  24.624  1.00  0.00     0.015 A 
ATOM     14  C   UNL A   1      32.152  19.276  22.778  1.00  0.00     0.047 A 
ATOM     15  C   UNL A   1      33.743  19.981  24.449  1.00  0.00     0.017 A 
ATOM     16  C   UNL A   1      32.736  20.290  23.535  1.00  0.00     0.128 A 
ATOM     17  C   UNL A   1      34.401  21.047  25.181  1.00  0.00     0.027 C 
ATOM     18  O   UNL A   1      32.266  21.553  23.314  1.00  0.00    -0.475 OA
ATOM     19  C   UNL A   1      32.901  22.673  23.990  1.00  0.00     0.316 C 
BRANCH  19  20
ATOM     20  C   UNL A   1      33.356  23.686  22.929  1.00  0.00     0.430 C 
ATOM     21  F   UNL A   1      34.539  23.323  22.375  1.00  0.00    -0.167 F 
ATOM     22  F   UNL A   1      32.467  23.780  21.911  1.00  0.00    -0.167 F 
ATOM     23  F   UNL A   1      33.511  24.926  23.444  1.00  0.00    -0.167 F 
ENDBRANCH  19  20
ENDBRANCH   7   9
ENDBRANCH   6   7
ENDBRANCH   5   6
ENDBRANCH   4   5
ENDBRANCH   3   4
ENDBRANCH   2   3
ENDBRANCH   1   2
BRANCH   1  24
ATOM     24  O   UNL A   1      41.938  20.055  27.430  1.00  0.00    -0.376 OA
BRANCH  24  25
ATOM     25  C   UNL A   1      41.891  19.247  26.262  1.00  0.00     0.202 C 
BRANCH  25  26
ATOM     26  C   UNL A   1      43.168  18.586  25.733  1.00  0.00     0.261 C 
BRANCH  26  27
ATOM     27  O   UNL A   1      43.535  19.034  24.419  1.00  0.00    -0.460 OA
BRANCH  27  28
ATOM     28  C   UNL A   1      44.812  19.487  24.292  1.00  0.00     0.338 C 
ATOM     29  O   UNL A   1      45.740  18.947  23.739  1.00  0.00    -0.246 OA
BRANCH  28  30
ATOM     30  C   UNL A   1      44.853  20.883  24.774  1.00  0.00     0.060 A 
ATOM     31  C   UNL A   1      45.192  21.176  26.095  1.00  0.00     0.016 A 
ATOM     32  C   UNL A   1      44.532  21.909  23.873  1.00  0.00     0.016 A 
ATOM     33  C   UNL A   1      45.225  22.509  26.513  1.00  0.00     0.010 A 
ATOM     34  C   UNL A   1      44.544  23.238  24.299  1.00  0.00     0.010 A 
ATOM     35  C   UNL A   1      44.908  23.547  25.618  1.00  0.00    -0.014 A 
BRANCH  35  36
ATOM     36  C   UNL A   1      45.109  24.957  26.022  1.00  0.00     0.031 A 
ATOM     37  C   UNL A   1      43.994  25.788  26.575  1.00  0.00     0.074 A 
ATOM     38  C   UNL A   1      46.340  25.482  25.881  1.00  0.00     0.049 A 
ATOM     39  N   UNL A   1      44.038  27.011  27.044  1.00  0.00    -0.248 NA
ATOM     40  C   UNL A   1      42.659  25.177  26.604  1.00  0.00     0.031 C 
ATOM     41  C   UNL A   1      47.494  24.767  25.333  1.00  0.00     0.029 A 
ATOM     42  N   UNL A   1      46.828  26.724  26.190  1.00  0.00    -0.354 N 
ATOM     43  C   UNL A   1      42.746  27.308  27.453  1.00  0.00     0.074 A 
ATOM     44  C   UNL A   1      41.929  26.155  27.129  1.00  0.00     0.031 C 
ATOM     45  C   UNL A   1      48.562  25.578  25.363  1.00  0.00     0.029 A 
ATOM     46  C   UNL A   1      48.164  26.870  25.913  1.00  0.00     0.049 A 
ATOM     47  H   UNL A   1      46.274  27.443  26.572  1.00  0.00     0.167 HD
ATOM     48  C   UNL A   1      42.296  28.433  28.060  1.00  0.00     0.037 A 
ATOM     49  C   UNL A   1      48.981  27.925  26.092  1.00  0.00     0.037 A 
ATOM     50  C   UNL A   1      43.112  29.584  28.359  1.00  0.00     0.049 A 
ATOM     51  C   UNL A   1      48.440  29.179  26.718  1.00  0.00     0.074 A 
ATOM     52  C   UNL A   1      42.747  30.758  28.999  1.00  0.00     0.029 A 
ATOM     53  N   UNL A   1      44.453  29.716  28.027  1.00  0.00    -0.354 N 
ATOM     54  N   UNL A   1      47.233  29.425  27.165  1.00  0.00    -0.248 NA
ATOM     55  C   UNL A   1      49.380  30.298  26.876  1.00  0.00     0.031 C 
ATOM     56  C   UNL A   1      43.850  31.618  29.007  1.00  0.00     0.029 A 
ATOM     57  C   UNL A   1      44.921  30.961  28.423  1.00  0.00     0.049 A 
ATOM     58  H   UNL A   1      44.995  29.027  27.578  1.00  0.00     0.167 HD
ATOM     59  C   UNL A   1      47.272  30.715  27.676  1.00  0.00     0.074 A 
ATOM     60  C   UNL A   1      48.628  31.193  27.501  1.00  0.00     0.031 C 
ATOM     61  C   UNL A   1      46.271  31.435  28.239  1.00  0.00     0.037 A 
BRANCH  48  62
ATOM     62  C   UNL A   1      40.850  28.483  28.463  1.00  0.00     0.064 A 
ATOM     63  C   UNL A   1      40.444  28.139  29.761  1.00  0.00     0.173 A 
ATOM     64  C   UNL A   1      39.877  28.979  27.581  1.00  0.00     0.173 A 
ATOM     65  F   UNL A   1      41.336  27.659  30.641  1.00  0.00    -0.203 F 
ATOM     66  C   UNL A   1      39.118  28.278  30.158  1.00  0.00     0.198 A 
ATOM     67  C   UNL A   1      38.556  29.142  27.990  1.00  0.00     0.198 A 
ATOM     68  F   UNL A   1      40.214  29.334  26.332  1.00  0.00    -0.203 F 
ATOM     69  F   UNL A   1      38.749  27.924  31.397  1.00  0.00    -0.200 F 
ATOM     70  C   UNL A   1      38.176  28.789  29.277  1.00  0.00     0.200 A 
ATOM     71  F   UNL A   1      37.651  29.653  27.143  1.00  0.00    -0.200 F 
ATOM     72  F   UNL A   1      36.905  28.947  29.670  1.00  0.00    -0.200 F 
ENDBRANCH  48  62
BRANCH  49  73
ATOM     73  C   UNL A   1      50.410  27.812  25.706  1.00  0.00     0.064 A 
ATOM     74  C   UNL A   1      50.808  27.980  24.373  1.00  0.00     0.173 A 
ATOM     75  C   UNL A   1      51.405  27.569  26.662  1.00  0.00     0.173 A 
ATOM     76  F   UNL A   1      49.887  28.197  23.421  1.00  0.00    -0.203 F 
ATOM     77  C   UNL A   1      52.150  27.899  24.009  1.00  0.00     0.198 A 
ATOM     78  C   UNL A   1      52.750  27.516  26.301  1.00  0.00     0.198 A 
ATOM     79  F   UNL A   1      51.074  27.407  27.951  1.00  0.00    -0.203 F 
ATOM     80  F   UNL A   1      52.501  28.031  22.723  1.00  0.00    -0.200 F 
ATOM     81  C   UNL A   1      53.120  27.676  24.974  1.00  0.00     0.200 A 
ATOM     82  F   UNL A   1      53.685  27.316  27.239  1.00  0.00    -0.200 F 
ATOM     83  F   UNL A   1      54.412  27.612  24.626  1.00  0.00    -0.200 F 
ENDBRANCH  49  73
BRANCH  61  84
ATOM     84  C   UNL A   1      46.603  32.819  28.719  1.00  0.00     0.064 A 
ATOM     85  C   UNL A   1      47.085  33.050  30.016  1.00  0.00     0.173 A 
ATOM     86  C   UNL A   1      46.479  33.922  27.859  1.00  0.00     0.173 A 
ATOM     87  F   UNL A   1      47.207  32.032  30.882  1.00  0.00    -0.203 F 
ATOM     88  C   UNL A   1      47.407  34.336  30.443  1.00  0.00     0.198 A 
ATOM     89  C   UNL A   1      46.832  35.202  28.279  1.00  0.00     0.198 A 
ATOM     90  F   UNL A   1      46.030  33.756  26.606  1.00  0.00    -0.203 F 
ATOM     91  F   UNL A   1      47.820  34.538  31.702  1.00  0.00    -0.200 F 
ATOM     92  C   UNL A   1      47.288  35.409  29.572  1.00  0.00     0.200 A 
ATOM     93  F   UNL A   1      46.730  36.236  27.432  1.00  0.00    -0.200 F 
ATOM     94  F   UNL A   1      47.607  36.645  29.982  1.00  0.00    -0.200 F 
ENDBRANCH  61  84
ENDBRANCH  35  36
ENDBRANCH  28  30
ENDBRANCH  27  28
ENDBRANCH  26  27
ENDBRANCH  25  26
ENDBRANCH  24  25
ENDBRANCH   1  24
TORSDOF 18
ENDMDL
