MODEL 1
REMARK VINA RESULT:     -10.7      0.000      0.000
REMARK SMILES O=C(CC[N@H+]1CCC[C@H](c2nccn2Cc2cscn2)C1)OCCOCCOCCOC(=O)c1ccc(-c2c3nc(c(-c4c(F)c(F)c(F)c(F)c4F)c4ccc([nH]4)c(-c4c(F)c(F)c(F)c(F)c4F)c4nc(c(-c5c(F)c(F)c(F)c(F)c5F)c5ccc2[nH]5)C=C4)C=C3)cc1
REMARK SMILES IDX 25 1 24 2 23 3 22 4 2 5 1 6 3 7 4 8 5 9 6 10 21 11 7 13 9 14
REMARK SMILES IDX 8 15 10 16 11 17 14 18 12 19 13 20 15 21 16 22 17 23 20 24
REMARK SMILES IDX 18 25 19 26 26 27 27 28 28 29 29 30 30 31 31 32 32 33 33 34
REMARK SMILES IDX 34 35 35 36 96 37 36 38 95 39 37 40 38 41 39 42 89 43 40 44
REMARK SMILES IDX 94 45 88 46 90 47 41 48 93 49 87 50 86 51 42 53 74 54 54 55
REMARK SMILES IDX 73 56 55 57 58 58 72 59 91 60 56 61 57 62 71 64 92 65 59 66
REMARK SMILES IDX 43 67 44 68 52 69 45 70 46 71 50 72 53 73 47 74 48 75 51 76
REMARK SMILES IDX 49 77 75 78 76 79 84 80 77 81 78 82 82 83 85 84 79 85 80 86
REMARK SMILES IDX 83 87 81 88 60 89 61 90 69 91 62 92 63 93 67 94 70 95 64 96
REMARK SMILES IDX 65 97 68 98 66 99
REMARK H PARENT 5 12 90 52 58 63
REMARK Flexibility Score: inf
ROOT
ATOM      1  O   UNL A   1      32.951  30.978  27.694  1.00  0.00    -0.376 OA
ENDROOT
BRANCH   1   2
ATOM      2  C   UNL A   1      32.496  30.437  26.457  1.00  0.00     0.202 C 
BRANCH   2   3
ATOM      3  C   UNL A   1      33.245  29.251  25.807  1.00  0.00     0.261 C 
BRANCH   3   4
ATOM      4  O   UNL A   1      32.932  28.903  24.443  1.00  0.00    -0.463 OA
BRANCH   4   5
ATOM      5  C   UNL A   1      32.792  27.684  23.891  1.00  0.00     0.311 C 
ATOM      6  O   UNL A   1      33.624  26.810  24.132  1.00  0.00    -0.252 OA
BRANCH   5   7
ATOM      7  C   UNL A   1      31.714  27.445  22.879  1.00  0.00     0.184 C 
BRANCH   7   8
ATOM      8  C   UNL A   1      30.759  26.302  23.272  1.00  0.00     0.274 C 
BRANCH   8   9
ATOM      9  N   UNL A   1      31.195  25.289  24.267  1.00  0.00    -0.334 N 
ATOM     10  C   UNL A   1      30.356  25.292  25.463  1.00  0.00     0.262 C 
ATOM     11  C   UNL A   1      31.318  23.962  23.668  1.00  0.00     0.273 C 
ATOM     12  H   UNL A   1      32.129  25.557  24.579  1.00  0.00     0.348 HD
ATOM     13  C   UNL A   1      30.849  24.241  26.455  1.00  0.00     0.062 C 
ATOM     14  C   UNL A   1      31.483  22.698  24.508  1.00  0.00     0.111 C 
ATOM     15  C   UNL A   1      30.761  22.837  25.867  1.00  0.00     0.023 C 
BRANCH  14  16
ATOM     16  C   UNL A   1      32.816  21.987  24.594  1.00  0.00     0.117 A 
ATOM     17  N   UNL A   1      33.793  22.506  25.328  1.00  0.00    -0.241 NA
ATOM     18  N   UNL A   1      33.170  20.697  24.223  1.00  0.00    -0.328 N 
ATOM     19  C   UNL A   1      34.763  21.562  25.455  1.00  0.00     0.131 A 
ATOM     20  C   UNL A   1      34.402  20.428  24.784  1.00  0.00     0.108 A 
BRANCH  18  21
ATOM     21  C   UNL A   1      32.465  19.684  23.449  1.00  0.00     0.180 C 
BRANCH  21  22
ATOM     22  C   UNL A   1      32.760  18.315  23.965  1.00  0.00     0.071 A 
ATOM     23  C   UNL A   1      32.454  17.825  25.224  1.00  0.00     0.092 A 
ATOM     24  N   UNL A   1      33.375  17.396  23.130  1.00  0.00    -0.248 NA
ATOM     25  S   UNL A   1      33.071  16.238  25.411  1.00  0.00    -0.130 S 
ATOM     26  C   UNL A   1      33.660  16.303  23.804  1.00  0.00     0.175 A 
ENDBRANCH  21  22
ENDBRANCH  18  21
ENDBRANCH  14  16
ENDBRANCH   8   9
ENDBRANCH   7   8
ENDBRANCH   5   7
ENDBRANCH   4   5
ENDBRANCH   3   4
ENDBRANCH   2   3
ENDBRANCH   1   2
BRANCH   1  27
ATOM     27  C   UNL A   1      34.153  31.737  27.703  1.00  0.00     0.188 C 
BRANCH  27  28
ATOM     28  C   UNL A   1      34.067  33.232  28.069  1.00  0.00     0.188 C 
BRANCH  28  29
ATOM     29  O   UNL A   1      34.862  33.560  29.197  1.00  0.00    -0.376 OA
BRANCH  29  30
ATOM     30  C   UNL A   1      36.106  32.902  29.386  1.00  0.00     0.202 C 
BRANCH  30  31
ATOM     31  C   UNL A   1      36.549  32.547  30.813  1.00  0.00     0.261 C 
BRANCH  31  32
ATOM     32  O   UNL A   1      37.434  31.440  30.907  1.00  0.00    -0.460 OA
BRANCH  32  33
ATOM     33  C   UNL A   1      36.883  30.360  31.469  1.00  0.00     0.338 C 
ATOM     34  O   UNL A   1      36.205  30.342  32.503  1.00  0.00    -0.246 OA
BRANCH  33  35
ATOM     35  C   UNL A   1      37.258  29.139  30.755  1.00  0.00     0.060 A 
ATOM     36  C   UNL A   1      37.994  28.230  31.514  1.00  0.00     0.016 A 
ATOM     37  C   UNL A   1      37.334  29.184  29.355  1.00  0.00     0.016 A 
ATOM     38  C   UNL A   1      39.086  27.656  30.919  1.00  0.00     0.010 A 
ATOM     39  C   UNL A   1      38.422  28.590  28.755  1.00  0.00     0.010 A 
ATOM     40  C   UNL A   1      39.358  27.973  29.582  1.00  0.00    -0.014 A 
BRANCH  40  41
ATOM     41  C   UNL A   1      40.733  27.778  29.166  1.00  0.00     0.031 A 
ATOM     42  C   UNL A   1      41.044  26.435  28.646  1.00  0.00     0.074 A 
ATOM     43  C   UNL A   1      41.658  28.749  29.299  1.00  0.00     0.049 A 
ATOM     44  N   UNL A   1      41.923  25.591  29.078  1.00  0.00    -0.248 NA
ATOM     45  C   UNL A   1      40.196  25.940  27.554  1.00  0.00     0.031 C 
ATOM     46  C   UNL A   1      41.449  30.172  29.583  1.00  0.00     0.029 A 
ATOM     47  N   UNL A   1      43.003  28.663  29.106  1.00  0.00    -0.354 N 
ATOM     48  C   UNL A   1      41.848  24.509  28.211  1.00  0.00     0.074 A 
ATOM     49  C   UNL A   1      40.703  24.724  27.364  1.00  0.00     0.031 C 
ATOM     50  C   UNL A   1      42.590  30.846  29.313  1.00  0.00     0.029 A 
ATOM     51  C   UNL A   1      43.626  29.890  28.963  1.00  0.00     0.049 A 
ATOM     52  H   UNL A   1      43.487  27.807  29.071  1.00  0.00     0.167 HD
ATOM     53  C   UNL A   1      42.861  23.613  28.103  1.00  0.00     0.037 A 
ATOM     54  C   UNL A   1      44.874  30.099  28.484  1.00  0.00     0.037 A 
ATOM     55  C   UNL A   1      43.667  23.552  29.291  1.00  0.00     0.049 A 
ATOM     56  C   UNL A   1      45.631  28.827  28.598  1.00  0.00     0.074 A 
ATOM     57  C   UNL A   1      43.411  23.242  30.613  1.00  0.00     0.029 A 
ATOM     58  N   UNL A   1      44.912  24.127  29.286  1.00  0.00    -0.354 N 
ATOM     59  N   UNL A   1      46.035  28.305  29.724  1.00  0.00    -0.248 NA
ATOM     60  C   UNL A   1      45.610  27.917  27.462  1.00  0.00     0.031 C 
ATOM     61  C   UNL A   1      44.298  24.059  31.373  1.00  0.00     0.029 A 
ATOM     62  C   UNL A   1      45.042  24.813  30.467  1.00  0.00     0.049 A 
ATOM     63  H   UNL A   1      45.586  24.060  28.571  1.00  0.00     0.167 HD
ATOM     64  C   UNL A   1      45.928  26.935  29.536  1.00  0.00     0.074 A 
ATOM     65  C   UNL A   1      45.774  26.755  28.098  1.00  0.00     0.031 C 
ATOM     66  C   UNL A   1      45.696  26.094  30.586  1.00  0.00     0.037 A 
BRANCH  53  67
ATOM     67  C   UNL A   1      43.283  23.041  26.779  1.00  0.00     0.064 A 
ATOM     68  C   UNL A   1      43.109  21.670  26.524  1.00  0.00     0.173 A 
ATOM     69  C   UNL A   1      44.105  23.738  25.863  1.00  0.00     0.173 A 
ATOM     70  F   UNL A   1      42.382  20.909  27.355  1.00  0.00    -0.203 F 
ATOM     71  C   UNL A   1      43.751  21.036  25.457  1.00  0.00     0.198 A 
ATOM     72  C   UNL A   1      44.695  23.114  24.768  1.00  0.00     0.198 A 
ATOM     73  F   UNL A   1      44.455  25.017  26.053  1.00  0.00    -0.203 F 
ATOM     74  F   UNL A   1      43.650  19.707  25.317  1.00  0.00    -0.200 F 
ATOM     75  C   UNL A   1      44.542  21.758  24.581  1.00  0.00     0.200 A 
ATOM     76  F   UNL A   1      45.475  23.829  23.945  1.00  0.00    -0.200 F 
ATOM     77  F   UNL A   1      45.199  21.142  23.591  1.00  0.00    -0.200 F 
ENDBRANCH  53  67
BRANCH  54  78
ATOM     78  C   UNL A   1      45.330  31.233  27.649  1.00  0.00     0.064 A 
ATOM     79  C   UNL A   1      44.550  31.713  26.587  1.00  0.00     0.173 A 
ATOM     80  C   UNL A   1      46.429  32.030  28.030  1.00  0.00     0.173 A 
ATOM     81  F   UNL A   1      43.454  31.044  26.200  1.00  0.00    -0.203 F 
ATOM     82  C   UNL A   1      44.847  32.922  25.951  1.00  0.00     0.198 A 
ATOM     83  C   UNL A   1      46.735  33.227  27.384  1.00  0.00     0.198 A 
ATOM     84  F   UNL A   1      47.176  31.714  29.098  1.00  0.00    -0.203 F 
ATOM     85  F   UNL A   1      44.045  33.379  24.979  1.00  0.00    -0.200 F 
ATOM     86  C   UNL A   1      45.936  33.678  26.351  1.00  0.00     0.200 A 
ATOM     87  F   UNL A   1      47.770  33.964  27.808  1.00  0.00    -0.200 F 
ATOM     88  F   UNL A   1      46.192  34.860  25.774  1.00  0.00    -0.200 F 
ENDBRANCH  54  78
BRANCH  66  89
ATOM     89  C   UNL A   1      45.854  26.652  31.970  1.00  0.00     0.064 A 
ATOM     90  C   UNL A   1      44.795  27.221  32.698  1.00  0.00     0.173 A 
ATOM     91  C   UNL A   1      47.080  26.490  32.630  1.00  0.00     0.173 A 
ATOM     92  F   UNL A   1      43.567  27.309  32.168  1.00  0.00    -0.203 F 
ATOM     93  C   UNL A   1      44.974  27.659  34.008  1.00  0.00     0.198 A 
ATOM     94  C   UNL A   1      47.245  26.895  33.951  1.00  0.00     0.198 A 
ATOM     95  F   UNL A   1      48.108  25.894  32.003  1.00  0.00    -0.203 F 
ATOM     96  F   UNL A   1      43.953  28.214  34.677  1.00  0.00    -0.200 F 
ATOM     97  C   UNL A   1      46.198  27.490  34.636  1.00  0.00     0.200 A 
ATOM     98  F   UNL A   1      48.415  26.686  34.572  1.00  0.00    -0.200 F 
ATOM     99  F   UNL A   1      46.359  27.877  35.909  1.00  0.00    -0.200 F 
ENDBRANCH  66  89
ENDBRANCH  40  41
ENDBRANCH  33  35
ENDBRANCH  32  33
ENDBRANCH  31  32
ENDBRANCH  30  31
ENDBRANCH  29  30
ENDBRANCH  28  29
ENDBRANCH  27  28
ENDBRANCH   1  27
TORSDOF 22
ENDMDL
MODEL 2
REMARK VINA RESULT:     -10.5      3.041      7.782
REMARK SMILES O=C(CC[N@H+]1CCC[C@H](c2nccn2Cc2cscn2)C1)OCCOCCOCCOC(=O)c1ccc(-c2c3nc(c(-c4c(F)c(F)c(F)c(F)c4F)c4ccc([nH]4)c(-c4c(F)c(F)c(F)c(F)c4F)c4nc(c(-c5c(F)c(F)c(F)c(F)c5F)c5ccc2[nH]5)C=C4)C=C3)cc1
REMARK SMILES IDX 25 1 24 2 23 3 22 4 2 5 1 6 3 7 4 8 5 9 6 10 21 11 7 13 9 14
REMARK SMILES IDX 8 15 10 16 11 17 14 18 12 19 13 20 15 21 16 22 17 23 20 24
REMARK SMILES IDX 18 25 19 26 26 27 27 28 28 29 29 30 30 31 31 32 32 33 33 34
REMARK SMILES IDX 34 35 35 36 96 37 36 38 95 39 37 40 38 41 39 42 89 43 40 44
REMARK SMILES IDX 94 45 88 46 90 47 41 48 93 49 87 50 86 51 42 53 74 54 54 55
REMARK SMILES IDX 73 56 55 57 58 58 72 59 91 60 56 61 57 62 71 64 92 65 59 66
REMARK SMILES IDX 43 67 44 68 52 69 45 70 46 71 50 72 53 73 47 74 48 75 51 76
REMARK SMILES IDX 49 77 75 78 76 79 84 80 77 81 78 82 82 83 85 84 79 85 80 86
REMARK SMILES IDX 83 87 81 88 60 89 61 90 69 91 62 92 63 93 67 94 70 95 64 96
REMARK SMILES IDX 65 97 68 98 66 99
REMARK H PARENT 5 12 90 52 58 63
REMARK Flexibility Score: inf
ROOT
ATOM      1  O   UNL A   1      32.499  36.841  30.616  1.00  0.00    -0.376 OA
ENDROOT
BRANCH   1   2
ATOM      2  C   UNL A   1      33.168  36.503  29.404  1.00  0.00     0.202 C 
BRANCH   2   3
ATOM      3  C   UNL A   1      32.934  35.123  28.749  1.00  0.00     0.261 C 
BRANCH   3   4
ATOM      4  O   UNL A   1      33.681  33.991  29.241  1.00  0.00    -0.463 OA
BRANCH   4   5
ATOM      5  C   UNL A   1      34.892  33.546  28.859  1.00  0.00     0.311 C 
ATOM      6  O   UNL A   1      35.900  34.159  29.207  1.00  0.00    -0.252 OA
BRANCH   5   7
ATOM      7  C   UNL A   1      34.995  32.401  27.898  1.00  0.00     0.184 C 
BRANCH   7   8
ATOM      8  C   UNL A   1      33.671  31.630  27.735  1.00  0.00     0.274 C 
BRANCH   8   9
ATOM      9  N   UNL A   1      33.631  30.411  26.886  1.00  0.00    -0.334 N 
ATOM     10  C   UNL A   1      34.666  29.447  27.253  1.00  0.00     0.262 C 
ATOM     11  C   UNL A   1      32.296  29.819  26.855  1.00  0.00     0.273 C 
ATOM     12  H   UNL A   1      33.844  30.701  25.932  1.00  0.00     0.348 HD
ATOM     13  C   UNL A   1      34.587  28.219  26.350  1.00  0.00     0.062 C 
ATOM     14  C   UNL A   1      32.032  28.425  26.290  1.00  0.00     0.111 C 
ATOM     15  C   UNL A   1      33.251  27.501  26.505  1.00  0.00     0.023 C 
BRANCH  14  16
ATOM     16  C   UNL A   1      31.353  28.242  24.950  1.00  0.00     0.117 A 
ATOM     17  N   UNL A   1      31.743  28.970  23.910  1.00  0.00    -0.241 NA
ATOM     18  N   UNL A   1      30.509  27.236  24.502  1.00  0.00    -0.328 N 
ATOM     19  C   UNL A   1      31.179  28.435  22.795  1.00  0.00     0.131 A 
ATOM     20  C   UNL A   1      30.412  27.356  23.130  1.00  0.00     0.108 A 
BRANCH  18  21
ATOM     21  C   UNL A   1      29.828  26.158  25.207  1.00  0.00     0.180 C 
BRANCH  21  22
ATOM     22  C   UNL A   1      30.767  25.037  25.505  1.00  0.00     0.071 A 
ATOM     23  C   UNL A   1      31.460  24.274  24.580  1.00  0.00     0.092 A 
ATOM     24  N   UNL A   1      31.027  24.707  26.826  1.00  0.00    -0.248 NA
ATOM     25  S   UNL A   1      32.339  23.033  25.371  1.00  0.00    -0.130 S 
ATOM     26  C   UNL A   1      31.771  23.623  26.875  1.00  0.00     0.175 A 
ENDBRANCH  21  22
ENDBRANCH  18  21
ENDBRANCH  14  16
ENDBRANCH   8   9
ENDBRANCH   7   8
ENDBRANCH   5   7
ENDBRANCH   4   5
ENDBRANCH   3   4
ENDBRANCH   2   3
ENDBRANCH   1   2
BRANCH   1  27
ATOM     27  C   UNL A   1      33.282  37.170  31.756  1.00  0.00     0.188 C 
BRANCH  27  28
ATOM     28  C   UNL A   1      33.994  36.025  32.504  1.00  0.00     0.188 C 
BRANCH  28  29
ATOM     29  O   UNL A   1      33.173  34.878  32.645  1.00  0.00    -0.376 OA
BRANCH  29  30
ATOM     30  C   UNL A   1      33.730  33.683  33.171  1.00  0.00     0.202 C 
BRANCH  30  31
ATOM     31  C   UNL A   1      34.838  32.970  32.381  1.00  0.00     0.261 C 
BRANCH  31  32
ATOM     32  O   UNL A   1      35.604  32.039  33.132  1.00  0.00    -0.460 OA
BRANCH  32  33
ATOM     33  C   UNL A   1      36.339  31.217  32.375  1.00  0.00     0.338 C 
ATOM     34  O   UNL A   1      36.085  30.032  32.127  1.00  0.00    -0.246 OA
BRANCH  33  35
ATOM     35  C   UNL A   1      37.572  31.867  31.930  1.00  0.00     0.060 A 
ATOM     36  C   UNL A   1      37.899  31.631  30.594  1.00  0.00     0.016 A 
ATOM     37  C   UNL A   1      38.538  32.194  32.893  1.00  0.00     0.016 A 
ATOM     38  C   UNL A   1      39.204  31.325  30.314  1.00  0.00     0.010 A 
ATOM     39  C   UNL A   1      39.853  31.905  32.603  1.00  0.00     0.010 A 
ATOM     40  C   UNL A   1      40.128  31.326  31.367  1.00  0.00    -0.014 A 
BRANCH  40  41
ATOM     41  C   UNL A   1      41.320  30.531  31.145  1.00  0.00     0.031 A 
ATOM     42  C   UNL A   1      42.255  31.073  30.144  1.00  0.00     0.074 A 
ATOM     43  C   UNL A   1      41.518  29.359  31.779  1.00  0.00     0.049 A 
ATOM     44  N   UNL A   1      42.682  30.515  29.059  1.00  0.00    -0.248 NA
ATOM     45  C   UNL A   1      42.699  32.459  30.342  1.00  0.00     0.031 C 
ATOM     46  C   UNL A   1      40.802  28.819  32.938  1.00  0.00     0.029 A 
ATOM     47  N   UNL A   1      42.496  28.437  31.559  1.00  0.00    -0.354 N 
ATOM     48  C   UNL A   1      43.577  31.422  28.508  1.00  0.00     0.074 A 
ATOM     49  C   UNL A   1      43.470  32.639  29.271  1.00  0.00     0.031 C 
ATOM     50  C   UNL A   1      41.512  27.791  33.455  1.00  0.00     0.029 A 
ATOM     51  C   UNL A   1      42.653  27.532  32.593  1.00  0.00     0.049 A 
ATOM     52  H   UNL A   1      43.040  28.417  30.740  1.00  0.00     0.167 HD
ATOM     53  C   UNL A   1      44.507  31.040  27.595  1.00  0.00     0.037 A 
ATOM     54  C   UNL A   1      43.709  26.705  32.776  1.00  0.00     0.037 A 
ATOM     55  C   UNL A   1      44.112  29.862  26.873  1.00  0.00     0.049 A 
ATOM     56  C   UNL A   1      44.415  26.566  31.478  1.00  0.00     0.074 A 
ATOM     57  C   UNL A   1      43.043  29.547  26.055  1.00  0.00     0.029 A 
ATOM     58  N   UNL A   1      44.712  28.665  27.167  1.00  0.00    -0.354 N 
ATOM     59  N   UNL A   1      43.948  25.915  30.448  1.00  0.00    -0.248 NA
ATOM     60  C   UNL A   1      45.500  27.492  31.190  1.00  0.00     0.031 C 
ATOM     61  C   UNL A   1      42.787  28.163  26.281  1.00  0.00     0.029 A 
ATOM     62  C   UNL A   1      43.717  27.720  27.220  1.00  0.00     0.049 A 
ATOM     63  H   UNL A   1      45.673  28.511  27.311  1.00  0.00     0.167 HD
ATOM     64  C   UNL A   1      44.389  26.634  29.347  1.00  0.00     0.074 A 
ATOM     65  C   UNL A   1      45.427  27.520  29.856  1.00  0.00     0.031 C 
ATOM     66  C   UNL A   1      43.681  26.643  28.179  1.00  0.00     0.037 A 
BRANCH  53  67
ATOM     67  C   UNL A   1      45.909  31.577  27.611  1.00  0.00     0.064 A 
ATOM     68  C   UNL A   1      46.739  31.331  28.718  1.00  0.00     0.173 A 
ATOM     69  C   UNL A   1      46.371  32.558  26.702  1.00  0.00     0.173 A 
ATOM     70  F   UNL A   1      46.374  30.450  29.660  1.00  0.00    -0.203 F 
ATOM     71  C   UNL A   1      47.920  32.050  28.923  1.00  0.00     0.198 A 
ATOM     72  C   UNL A   1      47.576  33.230  26.880  1.00  0.00     0.198 A 
ATOM     73  F   UNL A   1      45.625  32.979  25.672  1.00  0.00    -0.203 F 
ATOM     74  F   UNL A   1      48.622  31.864  30.049  1.00  0.00    -0.200 F 
ATOM     75  C   UNL A   1      48.336  32.997  28.004  1.00  0.00     0.200 A 
ATOM     76  F   UNL A   1      47.949  34.160  25.988  1.00  0.00    -0.200 F 
ATOM     77  F   UNL A   1      49.439  33.723  28.228  1.00  0.00    -0.200 F 
ENDBRANCH  53  67
BRANCH  54  78
ATOM     78  C   UNL A   1      44.311  26.301  34.066  1.00  0.00     0.064 A 
ATOM     79  C   UNL A   1      44.750  27.257  34.994  1.00  0.00     0.173 A 
ATOM     80  C   UNL A   1      44.244  24.969  34.523  1.00  0.00     0.173 A 
ATOM     81  F   UNL A   1      44.788  28.555  34.658  1.00  0.00    -0.203 F 
ATOM     82  C   UNL A   1      45.092  26.902  36.302  1.00  0.00     0.198 A 
ATOM     83  C   UNL A   1      44.602  24.613  35.822  1.00  0.00     0.198 A 
ATOM     84  F   UNL A   1      43.742  23.997  33.748  1.00  0.00    -0.203 F 
ATOM     85  F   UNL A   1      45.451  27.851  37.179  1.00  0.00    -0.200 F 
ATOM     86  C   UNL A   1      45.016  25.582  36.716  1.00  0.00     0.200 A 
ATOM     87  F   UNL A   1      44.487  23.338  36.216  1.00  0.00    -0.200 F 
ATOM     88  F   UNL A   1      45.297  25.249  37.983  1.00  0.00    -0.200 F 
ENDBRANCH  54  78
BRANCH  66  89
ATOM     89  C   UNL A   1      42.585  25.630  28.026  1.00  0.00     0.064 A 
ATOM     90  C   UNL A   1      41.256  25.866  28.417  1.00  0.00     0.173 A 
ATOM     91  C   UNL A   1      42.857  24.436  27.343  1.00  0.00     0.173 A 
ATOM     92  F   UNL A   1      40.902  27.030  28.977  1.00  0.00    -0.203 F 
ATOM     93  C   UNL A   1      40.258  24.921  28.185  1.00  0.00     0.198 A 
ATOM     94  C   UNL A   1      41.851  23.511  27.081  1.00  0.00     0.198 A 
ATOM     95  F   UNL A   1      44.097  24.187  26.890  1.00  0.00    -0.203 F 
ATOM     96  F   UNL A   1      39.000  25.161  28.584  1.00  0.00    -0.200 F 
ATOM     97  C   UNL A   1      40.555  23.747  27.513  1.00  0.00     0.200 A 
ATOM     98  F   UNL A   1      42.131  22.399  26.387  1.00  0.00    -0.200 F 
ATOM     99  F   UNL A   1      39.588  22.856  27.256  1.00  0.00    -0.200 F 
ENDBRANCH  66  89
ENDBRANCH  40  41
ENDBRANCH  33  35
ENDBRANCH  32  33
ENDBRANCH  31  32
ENDBRANCH  30  31
ENDBRANCH  29  30
ENDBRANCH  28  29
ENDBRANCH  27  28
ENDBRANCH   1  27
TORSDOF 22
ENDMDL
MODEL 3
REMARK VINA RESULT:     -10.5      4.458      8.845
REMARK SMILES O=C(CC[N@H+]1CCC[C@H](c2nccn2Cc2cscn2)C1)OCCOCCOCCOC(=O)c1ccc(-c2c3nc(c(-c4c(F)c(F)c(F)c(F)c4F)c4ccc([nH]4)c(-c4c(F)c(F)c(F)c(F)c4F)c4nc(c(-c5c(F)c(F)c(F)c(F)c5F)c5ccc2[nH]5)C=C4)C=C3)cc1
REMARK SMILES IDX 25 1 24 2 23 3 22 4 2 5 1 6 3 7 4 8 5 9 6 10 21 11 7 13 9 14
REMARK SMILES IDX 8 15 10 16 11 17 14 18 12 19 13 20 15 21 16 22 17 23 20 24
REMARK SMILES IDX 18 25 19 26 26 27 27 28 28 29 29 30 30 31 31 32 32 33 33 34
REMARK SMILES IDX 34 35 35 36 96 37 36 38 95 39 37 40 38 41 39 42 89 43 40 44
REMARK SMILES IDX 94 45 88 46 90 47 41 48 93 49 87 50 86 51 42 53 74 54 54 55
REMARK SMILES IDX 73 56 55 57 58 58 72 59 91 60 56 61 57 62 71 64 92 65 59 66
REMARK SMILES IDX 43 67 44 68 52 69 45 70 46 71 50 72 53 73 47 74 48 75 51 76
REMARK SMILES IDX 49 77 75 78 76 79 84 80 77 81 78 82 82 83 85 84 79 85 80 86
REMARK SMILES IDX 83 87 81 88 60 89 61 90 69 91 62 92 63 93 67 94 70 95 64 96
REMARK SMILES IDX 65 97 68 98 66 99
REMARK H PARENT 5 12 90 52 58 63
REMARK Flexibility Score: inf
ROOT
ATOM      1  O   UNL A   1      37.324  18.946  25.095  1.00  0.00    -0.376 OA
ENDROOT
BRANCH   1   2
ATOM      2  C   UNL A   1      35.974  19.197  24.717  1.00  0.00     0.202 C 
BRANCH   2   3
ATOM      3  C   UNL A   1      34.988  18.020  24.539  1.00  0.00     0.261 C 
BRANCH   3   4
ATOM      4  O   UNL A   1      33.696  18.286  23.954  1.00  0.00    -0.463 OA
BRANCH   4   5
ATOM      5  C   UNL A   1      32.711  19.085  24.403  1.00  0.00     0.311 C 
ATOM      6  O   UNL A   1      32.063  18.749  25.394  1.00  0.00    -0.252 OA
BRANCH   5   7
ATOM      7  C   UNL A   1      32.314  20.294  23.612  1.00  0.00     0.184 C 
BRANCH   7   8
ATOM      8  C   UNL A   1      32.961  21.592  24.131  1.00  0.00     0.274 C 
BRANCH   8   9
ATOM      9  N   UNL A   1      32.102  22.670  24.686  1.00  0.00    -0.334 N 
ATOM     10  C   UNL A   1      31.924  22.547  26.131  1.00  0.00     0.262 C 
ATOM     11  C   UNL A   1      32.573  23.994  24.287  1.00  0.00     0.273 C 
ATOM     12  H   UNL A   1      31.174  22.555  24.278  1.00  0.00     0.348 HD
ATOM     13  C   UNL A   1      31.030  23.671  26.649  1.00  0.00     0.062 C 
ATOM     14  C   UNL A   1      32.048  25.276  24.929  1.00  0.00     0.111 C 
ATOM     15  C   UNL A   1      31.659  25.038  26.405  1.00  0.00     0.023 C 
BRANCH  14  16
ATOM     16  C   UNL A   1      31.097  26.189  24.185  1.00  0.00     0.117 A 
ATOM     17  N   UNL A   1      29.814  25.862  24.086  1.00  0.00    -0.241 NA
ATOM     18  N   UNL A   1      31.261  27.499  23.758  1.00  0.00    -0.328 N 
ATOM     19  C   UNL A   1      29.143  26.950  23.622  1.00  0.00     0.131 A 
ATOM     20  C   UNL A   1      30.014  27.981  23.413  1.00  0.00     0.108 A 
BRANCH  18  21
ATOM     21  C   UNL A   1      32.438  28.353  23.683  1.00  0.00     0.180 C 
BRANCH  21  22
ATOM     22  C   UNL A   1      32.630  29.113  24.953  1.00  0.00     0.071 A 
ATOM     23  C   UNL A   1      33.726  29.043  25.796  1.00  0.00     0.092 A 
ATOM     24  N   UNL A   1      31.655  30.010  25.357  1.00  0.00    -0.248 NA
ATOM     25  S   UNL A   1      33.469  30.010  27.188  1.00  0.00    -0.130 S 
ATOM     26  C   UNL A   1      31.949  30.478  26.552  1.00  0.00     0.175 A 
ENDBRANCH  21  22
ENDBRANCH  18  21
ENDBRANCH  14  16
ENDBRANCH   8   9
ENDBRANCH   7   8
ENDBRANCH   5   7
ENDBRANCH   4   5
ENDBRANCH   3   4
ENDBRANCH   2   3
ENDBRANCH   1   2
BRANCH   1  27
ATOM     27  C   UNL A   1      38.292  19.964  24.876  1.00  0.00     0.188 C 
BRANCH  27  28
ATOM     28  C   UNL A   1      38.024  21.362  25.466  1.00  0.00     0.188 C 
BRANCH  28  29
ATOM     29  O   UNL A   1      39.174  21.920  26.081  1.00  0.00    -0.376 OA
BRANCH  29  30
ATOM     30  C   UNL A   1      40.273  21.078  26.394  1.00  0.00     0.202 C 
BRANCH  30  31
ATOM     31  C   UNL A   1      41.697  21.578  26.108  1.00  0.00     0.261 C 
BRANCH  31  32
ATOM     32  O   UNL A   1      42.203  22.513  27.050  1.00  0.00    -0.460 OA
BRANCH  32  33
ATOM     33  C   UNL A   1      42.411  23.730  26.537  1.00  0.00     0.338 C 
ATOM     34  O   UNL A   1      43.477  24.154  26.074  1.00  0.00    -0.246 OA
BRANCH  33  35
ATOM     35  C   UNL A   1      41.222  24.572  26.671  1.00  0.00     0.060 A 
ATOM     36  C   UNL A   1      41.187  25.663  25.802  1.00  0.00     0.016 A 
ATOM     37  C   UNL A   1      40.532  24.562  27.892  1.00  0.00     0.016 A 
ATOM     38  C   UNL A   1      40.810  26.870  26.328  1.00  0.00     0.010 A 
ATOM     39  C   UNL A   1      40.135  25.774  28.411  1.00  0.00     0.010 A 
ATOM     40  C   UNL A   1      40.431  26.919  27.676  1.00  0.00    -0.014 A 
BRANCH  40  41
ATOM     41  C   UNL A   1      40.540  28.222  28.303  1.00  0.00     0.031 A 
ATOM     42  C   UNL A   1      41.744  28.991  27.942  1.00  0.00     0.074 A 
ATOM     43  C   UNL A   1      39.624  28.661  29.189  1.00  0.00     0.049 A 
ATOM     44  N   UNL A   1      42.664  29.454  28.722  1.00  0.00    -0.248 NA
ATOM     45  C   UNL A   1      41.992  29.187  26.508  1.00  0.00     0.031 C 
ATOM     46  C   UNL A   1      38.292  28.114  29.467  1.00  0.00     0.029 A 
ATOM     47  N   UNL A   1      39.673  29.775  29.969  1.00  0.00    -0.354 N 
ATOM     48  C   UNL A   1      43.537  30.142  27.890  1.00  0.00     0.074 A 
ATOM     49  C   UNL A   1      43.142  29.856  26.534  1.00  0.00     0.031 C 
ATOM     50  C   UNL A   1      37.582  29.024  30.171  1.00  0.00     0.029 A 
ATOM     51  C   UNL A   1      38.447  30.147  30.491  1.00  0.00     0.049 A 
ATOM     52  H   UNL A   1      40.505  30.271  30.145  1.00  0.00     0.167 HD
ATOM     53  C   UNL A   1      44.395  31.076  28.374  1.00  0.00     0.037 A 
ATOM     54  C   UNL A   1      38.147  31.342  31.049  1.00  0.00     0.037 A 
ATOM     55  C   UNL A   1      44.710  30.863  29.760  1.00  0.00     0.049 A 
ATOM     56  C   UNL A   1      39.417  31.994  31.454  1.00  0.00     0.074 A 
ATOM     57  C   UNL A   1      45.292  29.828  30.467  1.00  0.00     0.029 A 
ATOM     58  N   UNL A   1      44.153  31.683  30.707  1.00  0.00    -0.354 N 
ATOM     59  N   UNL A   1      40.168  31.599  32.445  1.00  0.00    -0.248 NA
ATOM     60  C   UNL A   1      40.066  32.877  30.496  1.00  0.00     0.031 C 
ATOM     61  C   UNL A   1      44.659  29.836  31.744  1.00  0.00     0.029 A 
ATOM     62  C   UNL A   1      43.734  30.879  31.737  1.00  0.00     0.049 A 
ATOM     63  H   UNL A   1      44.070  32.663  30.658  1.00  0.00     0.167 HD
ATOM     64  C   UNL A   1      41.467  31.845  32.025  1.00  0.00     0.074 A 
ATOM     65  C   UNL A   1      41.338  32.732  30.876  1.00  0.00     0.031 C 
ATOM     66  C   UNL A   1      42.511  31.087  32.474  1.00  0.00     0.037 A 
BRANCH  53  67
ATOM     67  C   UNL A   1      44.675  32.357  27.643  1.00  0.00     0.064 A 
ATOM     68  C   UNL A   1      45.877  32.505  26.927  1.00  0.00     0.173 A 
ATOM     69  C   UNL A   1      43.933  33.543  27.850  1.00  0.00     0.173 A 
ATOM     70  F   UNL A   1      46.676  31.450  26.713  1.00  0.00    -0.203 F 
ATOM     71  C   UNL A   1      46.323  33.757  26.496  1.00  0.00     0.198 A 
ATOM     72  C   UNL A   1      44.352  34.779  27.367  1.00  0.00     0.198 A 
ATOM     73  F   UNL A   1      42.835  33.569  28.617  1.00  0.00    -0.203 F 
ATOM     74  F   UNL A   1      47.527  33.869  25.920  1.00  0.00    -0.200 F 
ATOM     75  C   UNL A   1      45.561  34.891  26.716  1.00  0.00     0.200 A 
ATOM     76  F   UNL A   1      43.609  35.868  27.611  1.00  0.00    -0.200 F 
ATOM     77  F   UNL A   1      46.014  36.097  26.349  1.00  0.00    -0.200 F 
ENDBRANCH  53  67
BRANCH  54  78
ATOM     78  C   UNL A   1      36.864  32.074  30.953  1.00  0.00     0.064 A 
ATOM     79  C   UNL A   1      36.010  32.191  32.059  1.00  0.00     0.173 A 
ATOM     80  C   UNL A   1      36.563  32.884  29.840  1.00  0.00     0.173 A 
ATOM     81  F   UNL A   1      36.260  31.498  33.180  1.00  0.00    -0.203 F 
ATOM     82  C   UNL A   1      34.925  33.073  32.054  1.00  0.00     0.198 A 
ATOM     83  C   UNL A   1      35.471  33.750  29.828  1.00  0.00     0.198 A 
ATOM     84  F   UNL A   1      37.373  32.923  28.772  1.00  0.00    -0.203 F 
ATOM     85  F   UNL A   1      34.165  33.202  33.151  1.00  0.00    -0.200 F 
ATOM     86  C   UNL A   1      34.658  33.853  30.941  1.00  0.00     0.200 A 
ATOM     87  F   UNL A   1      35.248  34.525  28.758  1.00  0.00    -0.200 F 
ATOM     88  F   UNL A   1      33.648  34.733  30.954  1.00  0.00    -0.200 F 
ENDBRANCH  54  78
BRANCH  66  89
ATOM     89  C   UNL A   1      42.259  30.186  33.646  1.00  0.00     0.064 A 
ATOM     90  C   UNL A   1      41.780  28.870  33.518  1.00  0.00     0.173 A 
ATOM     91  C   UNL A   1      42.636  30.617  34.925  1.00  0.00     0.173 A 
ATOM     92  F   UNL A   1      41.504  28.354  32.313  1.00  0.00    -0.203 F 
ATOM     93  C   UNL A   1      41.633  28.046  34.632  1.00  0.00     0.198 A 
ATOM     94  C   UNL A   1      42.521  29.778  36.030  1.00  0.00     0.198 A 
ATOM     95  F   UNL A   1      43.159  31.842  35.096  1.00  0.00    -0.203 F 
ATOM     96  F   UNL A   1      41.159  26.800  34.488  1.00  0.00    -0.200 F 
ATOM     97  C   UNL A   1      42.009  28.499  35.886  1.00  0.00     0.200 A 
ATOM     98  F   UNL A   1      42.932  30.201  37.234  1.00  0.00    -0.200 F 
ATOM     99  F   UNL A   1      41.903  27.692  36.952  1.00  0.00    -0.200 F 
ENDBRANCH  66  89
ENDBRANCH  40  41
ENDBRANCH  33  35
ENDBRANCH  32  33
ENDBRANCH  31  32
ENDBRANCH  30  31
ENDBRANCH  29  30
ENDBRANCH  28  29
ENDBRANCH  27  28
ENDBRANCH   1  27
TORSDOF 22
ENDMDL
