MODEL 1
REMARK VINA RESULT:     -11.0      0.000      0.000
REMARK SMILES Cc1cc(Cl)cc2c1O[C@H](C(F)(F)F)C(C(=O)OCCOCCOCCOC(=O)c1ccc(-c3c4nc(c(-c5c(F)c(F)c(F)c(F)c5F)c5ccc([nH]5)c(-c5c(F)c(F)c(F)c(F)c5F)c5nc(c(-c6c(F)c(F)c(F)c(F)c6F)c6ccc3[nH]6)C=C5)C=C4)cc1)=C2
REMARK SMILES IDX 23 1 22 2 21 3 20 4 19 5 18 6 16 7 17 8 15 9 1 10 2 11 3 12
REMARK SMILES IDX 8 13 4 14 7 15 9 16 5 17 6 18 93 19 10 20 11 21 12 22 13 23
REMARK SMILES IDX 14 24 24 25 25 26 26 27 27 28 28 29 29 30 30 31 31 32 92 33
REMARK SMILES IDX 32 34 91 35 33 36 34 37 35 38 85 39 36 40 90 41 84 42 86 43
REMARK SMILES IDX 37 44 89 45 83 46 82 47 38 49 70 50 50 51 69 52 51 53 54 54
REMARK SMILES IDX 68 55 87 56 52 57 53 58 67 60 88 61 55 62 39 63 40 64 48 65
REMARK SMILES IDX 41 66 42 67 46 68 49 69 43 70 44 71 47 72 45 73 71 74 72 75
REMARK SMILES IDX 80 76 73 77 74 78 78 79 81 80 75 81 76 82 79 83 77 84 56 85
REMARK SMILES IDX 57 86 65 87 58 88 59 89 63 90 66 91 60 92 61 93 64 94 62 95
REMARK H PARENT 86 48 54 59
REMARK Flexibility Score: inf
ROOT
ATOM      1  C   UNL A   1      41.105  20.655  26.568  1.00  0.00     0.188 C 
ENDROOT
BRANCH   1   2
ATOM      2  C   UNL A   1      39.950  21.651  26.341  1.00  0.00     0.188 C 
BRANCH   2   3
ATOM      3  O   UNL A   1      39.834  22.782  27.172  1.00  0.00    -0.376 OA
BRANCH   3   4
ATOM      4  C   UNL A   1      39.019  23.883  26.811  1.00  0.00     0.202 C 
BRANCH   4   5
ATOM      5  C   UNL A   1      37.872  23.833  25.786  1.00  0.00     0.261 C 
BRANCH   5   6
ATOM      6  O   UNL A   1      36.658  23.204  26.207  1.00  0.00    -0.460 OA
BRANCH   6   7
ATOM      7  C   UNL A   1      35.821  22.837  25.206  1.00  0.00     0.338 C 
ATOM      8  O   UNL A   1      35.957  21.889  24.451  1.00  0.00    -0.246 OA
BRANCH   7   9
ATOM      9  C   UNL A   1      34.599  23.664  25.257  1.00  0.00     0.087 C 
ATOM     10  C   UNL A   1      29.937  25.556  26.205  1.00  0.00     0.048 C 
ATOM     11  C   UNL A   1      31.256  26.115  25.748  1.00  0.00    -0.007 A 
ATOM     12  C   UNL A   1      31.394  27.499  25.559  1.00  0.00     0.027 A 
ATOM     13  C   UNL A   1      32.353  25.276  25.491  1.00  0.00     0.131 A 
ATOM     14  C   UNL A   1      32.609  28.032  25.136  1.00  0.00     0.042 A 
ATOM     15  C   UNL A   1      33.583  25.824  25.108  1.00  0.00     0.019 A 
ATOM     16  O   UNL A   1      32.149  23.933  25.633  1.00  0.00    -0.475 OA
ATOM     17  Cl  UNL A   1      32.767  29.731  24.916  1.00  0.00    -0.084 Cl
ATOM     18  C   UNL A   1      33.704  27.203  24.909  1.00  0.00     0.032 A 
ATOM     19  C   UNL A   1      34.750  24.967  24.988  1.00  0.00     0.027 C 
ATOM     20  C   UNL A   1      33.281  23.023  25.592  1.00  0.00     0.316 C 
BRANCH  20  21
ATOM     21  C   UNL A   1      33.329  22.254  26.918  1.00  0.00     0.430 C 
ATOM     22  F   UNL A   1      33.907  21.040  26.763  1.00  0.00    -0.167 F 
ATOM     23  F   UNL A   1      34.053  22.914  27.853  1.00  0.00    -0.167 F 
ATOM     24  F   UNL A   1      32.093  22.055  27.429  1.00  0.00    -0.167 F 
ENDBRANCH  20  21
ENDBRANCH   7   9
ENDBRANCH   6   7
ENDBRANCH   5   6
ENDBRANCH   4   5
ENDBRANCH   3   4
ENDBRANCH   2   3
ENDBRANCH   1   2
BRANCH   1  25
ATOM     25  O   UNL A   1      42.171  20.584  25.649  1.00  0.00    -0.376 OA
BRANCH  25  26
ATOM     26  C   UNL A   1      43.311  21.411  25.832  1.00  0.00     0.202 C 
BRANCH  26  27
ATOM     27  C   UNL A   1      43.838  22.398  24.772  1.00  0.00     0.261 C 
BRANCH  27  28
ATOM     28  O   UNL A   1      43.310  23.730  24.804  1.00  0.00    -0.460 OA
BRANCH  28  29
ATOM     29  C   UNL A   1      44.186  24.699  25.184  1.00  0.00     0.338 C 
ATOM     30  O   UNL A   1      45.238  24.998  24.657  1.00  0.00    -0.246 OA
BRANCH  29  31
ATOM     31  C   UNL A   1      43.559  25.500  26.256  1.00  0.00     0.060 A 
ATOM     32  C   UNL A   1      43.959  26.833  26.427  1.00  0.00     0.016 A 
ATOM     33  C   UNL A   1      42.587  24.938  27.083  1.00  0.00     0.016 A 
ATOM     34  C   UNL A   1      43.370  27.616  27.421  1.00  0.00     0.010 A 
ATOM     35  C   UNL A   1      42.022  25.715  28.098  1.00  0.00     0.010 A 
ATOM     36  C   UNL A   1      42.418  27.052  28.279  1.00  0.00    -0.014 A 
BRANCH  36  37
ATOM     37  C   UNL A   1      41.956  27.817  29.463  1.00  0.00     0.031 A 
ATOM     38  C   UNL A   1      40.705  28.640  29.345  1.00  0.00     0.074 A 
ATOM     39  C   UNL A   1      42.618  27.756  30.633  1.00  0.00     0.049 A 
ATOM     40  N   UNL A   1      40.114  29.386  30.242  1.00  0.00    -0.248 NA
ATOM     41  C   UNL A   1      40.028  28.617  28.038  1.00  0.00     0.031 C 
ATOM     42  C   UNL A   1      43.821  26.965  30.883  1.00  0.00     0.029 A 
ATOM     43  N   UNL A   1      42.366  28.375  31.834  1.00  0.00    -0.354 N 
ATOM     44  C   UNL A   1      38.992  29.910  29.614  1.00  0.00     0.074 A 
ATOM     45  C   UNL A   1      39.009  29.438  28.247  1.00  0.00     0.031 C 
ATOM     46  C   UNL A   1      44.202  27.144  32.160  1.00  0.00     0.029 A 
ATOM     47  C   UNL A   1      43.287  28.082  32.810  1.00  0.00     0.049 A 
ATOM     48  H   UNL A   1      41.598  28.972  31.980  1.00  0.00     0.167 HD
ATOM     49  C   UNL A   1      38.024  30.696  30.138  1.00  0.00     0.037 A 
ATOM     50  C   UNL A   1      43.383  28.530  34.079  1.00  0.00     0.037 A 
ATOM     51  C   UNL A   1      38.013  31.170  31.495  1.00  0.00     0.049 A 
ATOM     52  C   UNL A   1      42.345  29.489  34.610  1.00  0.00     0.074 A 
ATOM     53  C   UNL A   1      37.072  31.971  32.117  1.00  0.00     0.029 A 
ATOM     54  N   UNL A   1      38.992  30.895  32.437  1.00  0.00    -0.354 N 
ATOM     55  N   UNL A   1      41.270  29.953  34.019  1.00  0.00    -0.248 NA
ATOM     56  C   UNL A   1      42.532  29.987  35.981  1.00  0.00     0.031 C 
ATOM     57  C   UNL A   1      37.509  32.228  33.417  1.00  0.00     0.029 A 
ATOM     58  C   UNL A   1      38.690  31.535  33.628  1.00  0.00     0.049 A 
ATOM     59  H   UNL A   1      39.783  30.330  32.283  1.00  0.00     0.167 HD
ATOM     60  C   UNL A   1      40.637  30.764  34.954  1.00  0.00     0.074 A 
ATOM     61  C   UNL A   1      41.444  30.727  36.155  1.00  0.00     0.031 C 
ATOM     62  C   UNL A   1      39.488  31.472  34.826  1.00  0.00     0.037 A 
BRANCH  49  63
ATOM     63  C   UNL A   1      36.889  31.097  29.244  1.00  0.00     0.064 A 
ATOM     64  C   UNL A   1      35.832  30.217  28.965  1.00  0.00     0.173 A 
ATOM     65  C   UNL A   1      36.817  32.397  28.720  1.00  0.00     0.173 A 
ATOM     66  F   UNL A   1      35.860  28.959  29.433  1.00  0.00    -0.203 F 
ATOM     67  C   UNL A   1      34.751  30.621  28.187  1.00  0.00     0.198 A 
ATOM     68  C   UNL A   1      35.721  32.806  27.968  1.00  0.00     0.198 A 
ATOM     69  F   UNL A   1      37.799  33.278  28.961  1.00  0.00    -0.203 F 
ATOM     70  F   UNL A   1      33.769  29.753  27.906  1.00  0.00    -0.200 F 
ATOM     71  C   UNL A   1      34.690  31.917  27.698  1.00  0.00     0.200 A 
ATOM     72  F   UNL A   1      35.655  34.064  27.510  1.00  0.00    -0.200 F 
ATOM     73  F   UNL A   1      33.639  32.309  26.966  1.00  0.00    -0.200 F 
ENDBRANCH  49  63
BRANCH  50  74
ATOM     74  C   UNL A   1      44.494  28.059  34.949  1.00  0.00     0.064 A 
ATOM     75  C   UNL A   1      45.719  28.741  34.985  1.00  0.00     0.173 A 
ATOM     76  C   UNL A   1      44.360  26.921  35.759  1.00  0.00     0.173 A 
ATOM     77  F   UNL A   1      45.908  29.817  34.208  1.00  0.00    -0.203 F 
ATOM     78  C   UNL A   1      46.767  28.299  35.791  1.00  0.00     0.198 A 
ATOM     79  C   UNL A   1      45.399  26.498  36.587  1.00  0.00     0.198 A 
ATOM     80  F   UNL A   1      43.212  26.227  35.758  1.00  0.00    -0.203 F 
ATOM     81  F   UNL A   1      47.940  28.948  35.775  1.00  0.00    -0.200 F 
ATOM     82  C   UNL A   1      46.604  27.183  36.598  1.00  0.00     0.200 A 
ATOM     83  F   UNL A   1      45.232  25.425  37.373  1.00  0.00    -0.200 F 
ATOM     84  F   UNL A   1      47.609  26.766  37.379  1.00  0.00    -0.200 F 
ENDBRANCH  50  74
BRANCH  62  85
ATOM     85  C   UNL A   1      38.991  32.248  36.012  1.00  0.00     0.064 A 
ATOM     86  C   UNL A   1      38.195  31.651  36.998  1.00  0.00     0.173 A 
ATOM     87  C   UNL A   1      39.434  33.564  36.231  1.00  0.00     0.173 A 
ATOM     88  F   UNL A   1      37.738  30.401  36.832  1.00  0.00    -0.203 F 
ATOM     89  C   UNL A   1      37.863  32.339  38.163  1.00  0.00     0.198 A 
ATOM     90  C   UNL A   1      39.126  34.237  37.409  1.00  0.00     0.198 A 
ATOM     91  F   UNL A   1      40.209  34.176  35.323  1.00  0.00    -0.203 F 
ATOM     92  F   UNL A   1      37.089  31.754  39.087  1.00  0.00    -0.200 F 
ATOM     93  C   UNL A   1      38.342  33.625  38.375  1.00  0.00     0.200 A 
ATOM     94  F   UNL A   1      39.608  35.470  37.621  1.00  0.00    -0.200 F 
ATOM     95  F   UNL A   1      38.052  34.271  39.512  1.00  0.00    -0.200 F 
ENDBRANCH  62  85
ENDBRANCH  36  37
ENDBRANCH  29  31
ENDBRANCH  28  29
ENDBRANCH  27  28
ENDBRANCH  26  27
ENDBRANCH  25  26
ENDBRANCH   1  25
TORSDOF 18
ENDMDL
MODEL 2
REMARK VINA RESULT:     -11.0      3.261      8.892
REMARK SMILES Cc1cc(Cl)cc2c1O[C@H](C(F)(F)F)C(C(=O)OCCOCCOCCOC(=O)c1ccc(-c3c4nc(c(-c5c(F)c(F)c(F)c(F)c5F)c5ccc([nH]5)c(-c5c(F)c(F)c(F)c(F)c5F)c5nc(c(-c6c(F)c(F)c(F)c(F)c6F)c6ccc3[nH]6)C=C5)C=C4)cc1)=C2
REMARK SMILES IDX 23 1 22 2 21 3 20 4 19 5 18 6 16 7 17 8 15 9 1 10 2 11 3 12
REMARK SMILES IDX 8 13 4 14 7 15 9 16 5 17 6 18 93 19 10 20 11 21 12 22 13 23
REMARK SMILES IDX 14 24 24 25 25 26 26 27 27 28 28 29 29 30 30 31 31 32 92 33
REMARK SMILES IDX 32 34 91 35 33 36 34 37 35 38 85 39 36 40 90 41 84 42 86 43
REMARK SMILES IDX 37 44 89 45 83 46 82 47 38 49 70 50 50 51 69 52 51 53 54 54
REMARK SMILES IDX 68 55 87 56 52 57 53 58 67 60 88 61 55 62 39 63 40 64 48 65
REMARK SMILES IDX 41 66 42 67 46 68 49 69 43 70 44 71 47 72 45 73 71 74 72 75
REMARK SMILES IDX 80 76 73 77 74 78 78 79 81 80 75 81 76 82 79 83 77 84 56 85
REMARK SMILES IDX 57 86 65 87 58 88 59 89 63 90 66 91 60 92 61 93 64 94 62 95
REMARK H PARENT 86 48 54 59
REMARK Flexibility Score: inf
ROOT
ATOM      1  C   UNL A   1      32.165  29.198  26.904  1.00  0.00     0.188 C 
ENDROOT
BRANCH   1   2
ATOM      2  C   UNL A   1      31.853  28.779  25.453  1.00  0.00     0.188 C 
BRANCH   2   3
ATOM      3  O   UNL A   1      31.002  27.682  25.215  1.00  0.00    -0.376 OA
BRANCH   3   4
ATOM      4  C   UNL A   1      30.341  27.516  23.973  1.00  0.00     0.202 C 
BRANCH   4   5
ATOM      5  C   UNL A   1      29.757  26.190  23.456  1.00  0.00     0.261 C 
BRANCH   5   6
ATOM      6  O   UNL A   1      30.567  25.022  23.616  1.00  0.00    -0.460 OA
BRANCH   6   7
ATOM      7  C   UNL A   1      31.584  24.899  22.728  1.00  0.00     0.338 C 
ATOM      8  O   UNL A   1      31.818  25.629  21.779  1.00  0.00    -0.246 OA
BRANCH   7   9
ATOM      9  C   UNL A   1      32.498  23.826  23.169  1.00  0.00     0.087 C 
ATOM     10  C   UNL A   1      36.294  21.110  25.273  1.00  0.00     0.048 C 
ATOM     11  C   UNL A   1      34.912  20.815  24.758  1.00  0.00    -0.007 A 
ATOM     12  C   UNL A   1      34.387  19.520  24.886  1.00  0.00     0.027 A 
ATOM     13  C   UNL A   1      34.138  21.809  24.136  1.00  0.00     0.131 A 
ATOM     14  C   UNL A   1      33.109  19.230  24.414  1.00  0.00     0.042 A 
ATOM     15  C   UNL A   1      32.837  21.521  23.705  1.00  0.00     0.019 A 
ATOM     16  O   UNL A   1      34.718  23.036  23.983  1.00  0.00    -0.475 OA
ATOM     17  Cl  UNL A   1      32.474  17.640  24.585  1.00  0.00    -0.084 Cl
ATOM     18  C   UNL A   1      32.331  20.223  23.824  1.00  0.00     0.032 A 
ATOM     19  C   UNL A   1      31.992  22.588  23.198  1.00  0.00     0.027 C 
ATOM     20  C   UNL A   1      33.914  24.164  23.546  1.00  0.00     0.316 C 
BRANCH  20  21
ATOM     21  C   UNL A   1      33.983  25.252  24.625  1.00  0.00     0.430 C 
ATOM     22  F   UNL A   1      35.133  25.168  25.336  1.00  0.00    -0.167 F 
ATOM     23  F   UNL A   1      33.949  26.494  24.087  1.00  0.00    -0.167 F 
ATOM     24  F   UNL A   1      32.956  25.161  25.499  1.00  0.00    -0.167 F 
ENDBRANCH  20  21
ENDBRANCH   7   9
ENDBRANCH   6   7
ENDBRANCH   5   6
ENDBRANCH   4   5
ENDBRANCH   3   4
ENDBRANCH   2   3
ENDBRANCH   1   2
BRANCH   1  25
ATOM     25  O   UNL A   1      32.435  30.547  27.210  1.00  0.00    -0.376 OA
BRANCH  25  26
ATOM     26  C   UNL A   1      31.681  31.573  26.580  1.00  0.00     0.202 C 
BRANCH  26  27
ATOM     27  C   UNL A   1      31.787  33.067  26.943  1.00  0.00     0.261 C 
BRANCH  27  28
ATOM     28  O   UNL A   1      33.104  33.626  27.022  1.00  0.00    -0.460 OA
BRANCH  28  29
ATOM     29  C   UNL A   1      33.459  34.122  28.238  1.00  0.00     0.338 C 
ATOM     30  O   UNL A   1      32.847  34.916  28.924  1.00  0.00    -0.246 OA
BRANCH  29  31
ATOM     31  C   UNL A   1      34.645  33.383  28.716  1.00  0.00     0.060 A 
ATOM     32  C   UNL A   1      34.470  32.103  29.263  1.00  0.00     0.016 A 
ATOM     33  C   UNL A   1      35.916  33.948  28.625  1.00  0.00     0.016 A 
ATOM     34  C   UNL A   1      35.575  31.376  29.706  1.00  0.00     0.010 A 
ATOM     35  C   UNL A   1      37.018  33.230  29.098  1.00  0.00     0.010 A 
ATOM     36  C   UNL A   1      36.853  31.948  29.651  1.00  0.00    -0.014 A 
BRANCH  36  37
ATOM     37  C   UNL A   1      37.989  31.266  30.316  1.00  0.00     0.031 A 
ATOM     38  C   UNL A   1      38.283  31.594  31.753  1.00  0.00     0.074 A 
ATOM     39  C   UNL A   1      38.728  30.348  29.667  1.00  0.00     0.049 A 
ATOM     40  N   UNL A   1      39.220  31.125  32.537  1.00  0.00    -0.248 NA
ATOM     41  C   UNL A   1      37.400  32.582  32.393  1.00  0.00     0.031 C 
ATOM     42  C   UNL A   1      38.518  29.920  28.286  1.00  0.00     0.029 A 
ATOM     43  N   UNL A   1      39.807  29.611  30.090  1.00  0.00    -0.354 N 
ATOM     44  C   UNL A   1      39.031  31.751  33.762  1.00  0.00     0.074 A 
ATOM     45  C   UNL A   1      37.924  32.667  33.606  1.00  0.00     0.031 C 
ATOM     46  C   UNL A   1      39.439  28.990  27.975  1.00  0.00     0.029 A 
ATOM     47  C   UNL A   1      40.319  28.778  29.124  1.00  0.00     0.049 A 
ATOM     48  H   UNL A   1      40.179  29.673  30.998  1.00  0.00     0.167 HD
ATOM     49  C   UNL A   1      39.708  31.560  34.917  1.00  0.00     0.037 A 
ATOM     50  C   UNL A   1      41.382  27.949  29.164  1.00  0.00     0.037 A 
ATOM     51  C   UNL A   1      40.813  30.653  35.067  1.00  0.00     0.049 A 
ATOM     52  C   UNL A   1      42.186  27.830  30.437  1.00  0.00     0.074 A 
ATOM     53  C   UNL A   1      41.561  30.391  36.202  1.00  0.00     0.029 A 
ATOM     54  N   UNL A   1      41.336  29.867  34.052  1.00  0.00    -0.354 N 
ATOM     55  N   UNL A   1      41.981  28.400  31.599  1.00  0.00    -0.248 NA
ATOM     56  C   UNL A   1      43.367  26.954  30.404  1.00  0.00     0.031 C 
ATOM     57  C   UNL A   1      42.571  29.491  35.859  1.00  0.00     0.029 A 
ATOM     58  C   UNL A   1      42.414  29.141  34.528  1.00  0.00     0.049 A 
ATOM     59  H   UNL A   1      40.991  29.830  33.130  1.00  0.00     0.167 HD
ATOM     60  C   UNL A   1      42.980  27.926  32.442  1.00  0.00     0.074 A 
ATOM     61  C   UNL A   1      43.790  27.017  31.660  1.00  0.00     0.031 C 
ATOM     62  C   UNL A   1      43.200  28.219  33.747  1.00  0.00     0.037 A 
BRANCH  49  63
ATOM     63  C   UNL A   1      39.275  32.345  36.119  1.00  0.00     0.064 A 
ATOM     64  C   UNL A   1      38.357  31.821  37.042  1.00  0.00     0.173 A 
ATOM     65  C   UNL A   1      39.837  33.601  36.392  1.00  0.00     0.173 A 
ATOM     66  F   UNL A   1      37.782  30.629  36.821  1.00  0.00    -0.203 F 
ATOM     67  C   UNL A   1      38.010  32.531  38.189  1.00  0.00     0.198 A 
ATOM     68  C   UNL A   1      39.511  34.294  37.554  1.00  0.00     0.198 A 
ATOM     69  F   UNL A   1      40.722  34.144  35.544  1.00  0.00    -0.203 F 
ATOM     70  F   UNL A   1      37.106  32.026  39.039  1.00  0.00    -0.200 F 
ATOM     71  C   UNL A   1      38.595  33.761  38.449  1.00  0.00     0.200 A 
ATOM     72  F   UNL A   1      40.090  35.475  37.813  1.00  0.00    -0.200 F 
ATOM     73  F   UNL A   1      38.276  34.433  39.563  1.00  0.00    -0.200 F 
ENDBRANCH  49  63
BRANCH  50  74
ATOM     74  C   UNL A   1      41.740  27.145  27.964  1.00  0.00     0.064 A 
ATOM     75  C   UNL A   1      42.654  27.631  27.018  1.00  0.00     0.173 A 
ATOM     76  C   UNL A   1      41.179  25.879  27.736  1.00  0.00     0.173 A 
ATOM     77  F   UNL A   1      43.196  28.846  27.176  1.00  0.00    -0.203 F 
ATOM     78  C   UNL A   1      42.986  26.886  25.887  1.00  0.00     0.198 A 
ATOM     79  C   UNL A   1      41.535  25.122  26.620  1.00  0.00     0.198 A 
ATOM     80  F   UNL A   1      40.294  25.369  28.605  1.00  0.00    -0.203 F 
ATOM     81  F   UNL A   1      43.832  27.392  24.980  1.00  0.00    -0.200 F 
ATOM     82  C   UNL A   1      42.433  25.629  25.694  1.00  0.00     0.200 A 
ATOM     83  F   UNL A   1      41.006  23.904  26.443  1.00  0.00    -0.200 F 
ATOM     84  F   UNL A   1      42.761  24.910  24.612  1.00  0.00    -0.200 F 
ENDBRANCH  50  74
BRANCH  62  85
ATOM     85  C   UNL A   1      44.339  27.536  34.450  1.00  0.00     0.064 A 
ATOM     86  C   UNL A   1      45.590  28.152  34.589  1.00  0.00     0.173 A 
ATOM     87  C   UNL A   1      44.130  26.314  35.111  1.00  0.00     0.173 A 
ATOM     88  F   UNL A   1      45.843  29.315  33.970  1.00  0.00    -0.203 F 
ATOM     89  C   UNL A   1      46.590  27.573  35.367  1.00  0.00     0.198 A 
ATOM     90  C   UNL A   1      45.121  25.754  35.911  1.00  0.00     0.198 A 
ATOM     91  F   UNL A   1      42.947  25.690  35.019  1.00  0.00    -0.203 F 
ATOM     92  F   UNL A   1      47.783  28.173  35.475  1.00  0.00    -0.200 F 
ATOM     93  C   UNL A   1      46.349  26.384  36.040  1.00  0.00     0.200 A 
ATOM     94  F   UNL A   1      44.879  24.616  36.578  1.00  0.00    -0.200 F 
ATOM     95  F   UNL A   1      47.300  25.848  36.817  1.00  0.00    -0.200 F 
ENDBRANCH  62  85
ENDBRANCH  36  37
ENDBRANCH  29  31
ENDBRANCH  28  29
ENDBRANCH  27  28
ENDBRANCH  26  27
ENDBRANCH  25  26
ENDBRANCH   1  25
TORSDOF 18
ENDMDL
MODEL 3
REMARK VINA RESULT:     -10.7      1.105      7.278
REMARK SMILES Cc1cc(Cl)cc2c1O[C@H](C(F)(F)F)C(C(=O)OCCOCCOCCOC(=O)c1ccc(-c3c4nc(c(-c5c(F)c(F)c(F)c(F)c5F)c5ccc([nH]5)c(-c5c(F)c(F)c(F)c(F)c5F)c5nc(c(-c6c(F)c(F)c(F)c(F)c6F)c6ccc3[nH]6)C=C5)C=C4)cc1)=C2
REMARK SMILES IDX 23 1 22 2 21 3 20 4 19 5 18 6 16 7 17 8 15 9 1 10 2 11 3 12
REMARK SMILES IDX 8 13 4 14 7 15 9 16 5 17 6 18 93 19 10 20 11 21 12 22 13 23
REMARK SMILES IDX 14 24 24 25 25 26 26 27 27 28 28 29 29 30 30 31 31 32 92 33
REMARK SMILES IDX 32 34 91 35 33 36 34 37 35 38 85 39 36 40 90 41 84 42 86 43
REMARK SMILES IDX 37 44 89 45 83 46 82 47 38 49 70 50 50 51 69 52 51 53 54 54
REMARK SMILES IDX 68 55 87 56 52 57 53 58 67 60 88 61 55 62 39 63 40 64 48 65
REMARK SMILES IDX 41 66 42 67 46 68 49 69 43 70 44 71 47 72 45 73 71 74 72 75
REMARK SMILES IDX 80 76 73 77 74 78 78 79 81 80 75 81 76 82 79 83 77 84 56 85
REMARK SMILES IDX 57 86 65 87 58 88 59 89 63 90 66 91 60 92 61 93 64 94 62 95
REMARK H PARENT 86 48 54 59
REMARK Flexibility Score: inf
ROOT
ATOM      1  C   UNL A   1      40.732  20.701  26.664  1.00  0.00     0.188 C 
ENDROOT
BRANCH   1   2
ATOM      2  C   UNL A   1      39.601  21.638  26.193  1.00  0.00     0.188 C 
BRANCH   2   3
ATOM      3  O   UNL A   1      39.396  22.865  26.854  1.00  0.00    -0.376 OA
BRANCH   3   4
ATOM      4  C   UNL A   1      38.324  23.723  26.502  1.00  0.00     0.202 C 
BRANCH   4   5
ATOM      5  C   UNL A   1      37.328  23.464  25.357  1.00  0.00     0.261 C 
BRANCH   5   6
ATOM      6  O   UNL A   1      36.311  22.487  25.596  1.00  0.00    -0.460 OA
BRANCH   6   7
ATOM      7  C   UNL A   1      35.166  22.967  26.141  1.00  0.00     0.338 C 
ATOM      8  O   UNL A   1      34.772  22.795  27.282  1.00  0.00    -0.246 OA
BRANCH   7   9
ATOM      9  C   UNL A   1      34.518  23.893  25.191  1.00  0.00     0.087 C 
ATOM     10  C   UNL A   1      31.880  25.984  21.333  1.00  0.00     0.048 C 
ATOM     11  C   UNL A   1      32.354  26.437  22.686  1.00  0.00    -0.007 A 
ATOM     12  C   UNL A   1      31.996  27.710  23.156  1.00  0.00     0.027 A 
ATOM     13  C   UNL A   1      33.163  25.614  23.488  1.00  0.00     0.131 A 
ATOM     14  C   UNL A   1      32.427  28.144  24.407  1.00  0.00     0.042 A 
ATOM     15  C   UNL A   1      33.556  26.040  24.763  1.00  0.00     0.019 A 
ATOM     16  O   UNL A   1      33.533  24.409  22.960  1.00  0.00    -0.475 OA
ATOM     17  Cl  UNL A   1      31.975  29.704  24.974  1.00  0.00    -0.084 Cl
ATOM     18  C   UNL A   1      33.206  27.317  25.213  1.00  0.00     0.032 A 
ATOM     19  C   UNL A   1      34.266  25.128  25.642  1.00  0.00     0.027 C 
ATOM     20  C   UNL A   1      34.186  23.423  23.802  1.00  0.00     0.316 C 
BRANCH  20  21
ATOM     21  C   UNL A   1      33.327  22.152  23.809  1.00  0.00     0.430 C 
ATOM     22  F   UNL A   1      34.093  21.040  23.916  1.00  0.00    -0.167 F 
ATOM     23  F   UNL A   1      32.468  22.134  24.855  1.00  0.00    -0.167 F 
ATOM     24  F   UNL A   1      32.593  22.034  22.680  1.00  0.00    -0.167 F 
ENDBRANCH  20  21
ENDBRANCH   7   9
ENDBRANCH   6   7
ENDBRANCH   5   6
ENDBRANCH   4   5
ENDBRANCH   3   4
ENDBRANCH   2   3
ENDBRANCH   1   2
BRANCH   1  25
ATOM     25  O   UNL A   1      41.672  20.204  25.739  1.00  0.00    -0.376 OA
BRANCH  25  26
ATOM     26  C   UNL A   1      43.052  20.482  25.926  1.00  0.00     0.202 C 
BRANCH  26  27
ATOM     27  C   UNL A   1      43.790  21.667  25.274  1.00  0.00     0.261 C 
BRANCH  27  28
ATOM     28  O   UNL A   1      43.052  22.886  25.118  1.00  0.00    -0.460 OA
BRANCH  28  29
ATOM     29  C   UNL A   1      43.795  24.026  25.118  1.00  0.00     0.338 C 
ATOM     30  O   UNL A   1      44.547  24.422  24.252  1.00  0.00    -0.246 OA
BRANCH  29  31
ATOM     31  C   UNL A   1      43.394  24.844  26.281  1.00  0.00     0.060 A 
ATOM     32  C   UNL A   1      42.495  24.304  27.211  1.00  0.00     0.016 A 
ATOM     33  C   UNL A   1      43.901  26.132  26.449  1.00  0.00     0.016 A 
ATOM     34  C   UNL A   1      42.113  25.049  28.327  1.00  0.00     0.010 A 
ATOM     35  C   UNL A   1      43.493  26.888  27.552  1.00  0.00     0.010 A 
ATOM     36  C   UNL A   1      42.589  26.356  28.488  1.00  0.00    -0.014 A 
BRANCH  36  37
ATOM     37  C   UNL A   1      42.017  27.218  29.551  1.00  0.00     0.031 A 
ATOM     38  C   UNL A   1      42.711  27.275  30.882  1.00  0.00     0.074 A 
ATOM     39  C   UNL A   1      40.918  27.962  29.329  1.00  0.00     0.049 A 
ATOM     40  N   UNL A   1      42.397  27.955  31.955  1.00  0.00    -0.248 NA
ATOM     41  C   UNL A   1      43.926  26.456  31.023  1.00  0.00     0.031 C 
ATOM     42  C   UNL A   1      40.179  28.019  28.070  1.00  0.00     0.029 A 
ATOM     43  N   UNL A   1      40.235  28.815  30.162  1.00  0.00    -0.354 N 
ATOM     44  C   UNL A   1      43.378  27.656  32.890  1.00  0.00     0.074 A 
ATOM     45  C   UNL A   1      44.272  26.698  32.278  1.00  0.00     0.031 C 
ATOM     46  C   UNL A   1      39.144  28.866  28.212  1.00  0.00     0.029 A 
ATOM     47  C   UNL A   1      39.132  29.389  29.579  1.00  0.00     0.049 A 
ATOM     48  H   UNL A   1      40.510  28.996  31.089  1.00  0.00     0.167 HD
ATOM     49  C   UNL A   1      43.532  28.154  34.138  1.00  0.00     0.037 A 
ATOM     50  C   UNL A   1      38.214  30.232  30.095  1.00  0.00     0.037 A 
ATOM     51  C   UNL A   1      42.638  29.102  34.746  1.00  0.00     0.049 A 
ATOM     52  C   UNL A   1      38.350  30.695  31.526  1.00  0.00     0.074 A 
ATOM     53  C   UNL A   1      42.713  29.666  36.008  1.00  0.00     0.029 A 
ATOM     54  N   UNL A   1      41.502  29.619  34.142  1.00  0.00    -0.354 N 
ATOM     55  N   UNL A   1      39.299  30.433  32.392  1.00  0.00    -0.248 NA
ATOM     56  C   UNL A   1      37.290  31.568  32.051  1.00  0.00     0.031 C 
ATOM     57  C   UNL A   1      41.593  30.479  36.189  1.00  0.00     0.029 A 
ATOM     58  C   UNL A   1      40.853  30.474  35.017  1.00  0.00     0.049 A 
ATOM     59  H   UNL A   1      41.202  29.410  33.228  1.00  0.00     0.167 HD
ATOM     60  C   UNL A   1      38.971  31.135  33.546  1.00  0.00     0.074 A 
ATOM     61  C   UNL A   1      37.737  31.839  33.271  1.00  0.00     0.031 C 
ATOM     62  C   UNL A   1      39.637  31.190  34.725  1.00  0.00     0.037 A 
BRANCH  49  63
ATOM     63  C   UNL A   1      44.712  27.688  34.937  1.00  0.00     0.064 A 
ATOM     64  C   UNL A   1      44.676  26.486  35.659  1.00  0.00     0.173 A 
ATOM     65  C   UNL A   1      45.915  28.411  34.922  1.00  0.00     0.173 A 
ATOM     66  F   UNL A   1      43.547  25.764  35.713  1.00  0.00    -0.203 F 
ATOM     67  C   UNL A   1      45.799  26.029  36.345  1.00  0.00     0.198 A 
ATOM     68  C   UNL A   1      47.042  27.937  35.585  1.00  0.00     0.198 A 
ATOM     69  F   UNL A   1      46.002  29.564  34.244  1.00  0.00    -0.203 F 
ATOM     70  F   UNL A   1      45.732  24.895  37.055  1.00  0.00    -0.200 F 
ATOM     71  C   UNL A   1      46.983  26.749  36.299  1.00  0.00     0.200 A 
ATOM     72  F   UNL A   1      48.192  28.624  35.525  1.00  0.00    -0.200 F 
ATOM     73  F   UNL A   1      48.068  26.298  36.943  1.00  0.00    -0.200 F 
ENDBRANCH  49  63
BRANCH  50  74
ATOM     74  C   UNL A   1      37.091  30.716  29.246  1.00  0.00     0.064 A 
ATOM     75  C   UNL A   1      36.042  29.859  28.884  1.00  0.00     0.173 A 
ATOM     76  C   UNL A   1      37.042  32.038  28.778  1.00  0.00     0.173 A 
ATOM     77  F   UNL A   1      36.057  28.579  29.281  1.00  0.00    -0.203 F 
ATOM     78  C   UNL A   1      34.993  30.303  28.081  1.00  0.00     0.198 A 
ATOM     79  C   UNL A   1      35.977  32.489  28.000  1.00  0.00     0.198 A 
ATOM     80  F   UNL A   1      38.023  32.897  29.089  1.00  0.00    -0.203 F 
ATOM     81  F   UNL A   1      34.023  29.451  27.718  1.00  0.00    -0.200 F 
ATOM     82  C   UNL A   1      34.956  31.620  27.647  1.00  0.00     0.200 A 
ATOM     83  F   UNL A   1      35.941  33.765  27.592  1.00  0.00    -0.200 F 
ATOM     84  F   UNL A   1      33.941  32.048  26.884  1.00  0.00    -0.200 F 
ENDBRANCH  50  74
BRANCH  62  85
ATOM     85  C   UNL A   1      39.086  32.062  35.817  1.00  0.00     0.064 A 
ATOM     86  C   UNL A   1      38.236  31.550  36.806  1.00  0.00     0.173 A 
ATOM     87  C   UNL A   1      39.528  33.389  35.952  1.00  0.00     0.173 A 
ATOM     88  F   UNL A   1      37.778  30.292  36.718  1.00  0.00    -0.203 F 
ATOM     89  C   UNL A   1      37.850  32.332  37.892  1.00  0.00     0.198 A 
ATOM     90  C   UNL A   1      39.165  34.157  37.054  1.00  0.00     0.198 A 
ATOM     91  F   UNL A   1      40.352  33.923  35.038  1.00  0.00    -0.203 F 
ATOM     92  F   UNL A   1      37.025  31.826  38.820  1.00  0.00    -0.200 F 
ATOM     93  C   UNL A   1      38.328  33.628  38.024  1.00  0.00     0.200 A 
ATOM     94  F   UNL A   1      39.646  35.401  37.190  1.00  0.00    -0.200 F 
ATOM     95  F   UNL A   1      37.986  34.366  39.089  1.00  0.00    -0.200 F 
ENDBRANCH  62  85
ENDBRANCH  36  37
ENDBRANCH  29  31
ENDBRANCH  28  29
ENDBRANCH  27  28
ENDBRANCH  26  27
ENDBRANCH  25  26
ENDBRANCH   1  25
TORSDOF 18
ENDMDL
