MODEL 1
REMARK VINA RESULT:     -11.2      0.000      0.000
REMARK SMILES CC(C)n1ccc(C[C@@H](C(=O)OCCOCCOCCOC(=O)c2ccc(-c3c4nc(c(-c5c(F)c(F)c(F)c(F)c5F)c5ccc([nH]5)c(-c5c(F)c(F)c(F)c(F)c5F)c5nc(c(-c6c(F)c(F)c(F)c(F)c6F)c6ccc3[nH]6)C=C5)C=C4)cc2)c2cccc(Cl)c2)n1
REMARK SMILES IDX 16 1 15 2 14 3 13 4 12 5 10 6 11 7 9 8 8 9 7 10 4 11 5 12
REMARK SMILES IDX 94 13 6 14 2 15 1 16 3 17 87 18 88 19 93 20 89 21 91 22
REMARK SMILES IDX 90 23 92 24 17 25 18 26 19 27 20 28 21 29 22 30 23 31 24 32
REMARK SMILES IDX 25 33 86 34 26 35 85 36 27 37 28 38 29 39 79 40 30 41 84 42
REMARK SMILES IDX 78 43 80 44 31 45 83 46 77 47 76 48 32 50 64 51 44 52 63 53
REMARK SMILES IDX 45 54 48 55 62 56 81 57 46 58 47 59 61 61 82 62 49 63 33 64
REMARK SMILES IDX 34 65 42 66 35 67 36 68 40 69 43 70 37 71 38 72 41 73 39 74
REMARK SMILES IDX 65 75 66 76 74 77 67 78 68 79 72 80 75 81 69 82 70 83 73 84
REMARK SMILES IDX 71 85 50 86 51 87 59 88 52 89 53 90 57 91 60 92 54 93 55 94
REMARK SMILES IDX 58 95 56 96
REMARK H PARENT 80 49 48 60
REMARK Flexibility Score: inf
ROOT
ATOM      1  C   UNL A   1      40.441  21.341  27.280  1.00  0.00     0.188 C 
ENDROOT
BRANCH   1   2
ATOM      2  O   UNL A   1      39.562  22.376  26.899  1.00  0.00    -0.376 OA
BRANCH   2   3
ATOM      3  C   UNL A   1      38.765  22.201  25.726  1.00  0.00     0.202 C 
BRANCH   3   4
ATOM      4  C   UNL A   1      37.262  22.516  25.720  1.00  0.00     0.261 C 
BRANCH   4   5
ATOM      5  O   UNL A   1      36.551  21.862  24.654  1.00  0.00    -0.463 OA
BRANCH   5   6
ATOM      6  C   UNL A   1      35.855  22.702  23.840  1.00  0.00     0.313 C 
ATOM      7  O   UNL A   1      36.328  23.185  22.815  1.00  0.00    -0.252 OA
BRANCH   6   8
ATOM      8  C   UNL A   1      34.381  22.846  24.220  1.00  0.00     0.135 C 
BRANCH   8   9
ATOM      9  C   UNL A   1      33.395  21.855  23.566  1.00  0.00     0.078 C 
BRANCH   9  10
ATOM     10  C   UNL A   1      33.050  20.582  24.275  1.00  0.00     0.064 A 
ATOM     11  N   UNL A   1      32.886  18.475  24.531  1.00  0.00    -0.270 N 
ATOM     12  C   UNL A   1      32.918  18.970  25.797  1.00  0.00     0.109 A 
ATOM     13  N   UNL A   1      32.916  19.440  23.584  1.00  0.00    -0.178 NA
ATOM     14  C   UNL A   1      33.007  20.329  25.662  1.00  0.00     0.045 A 
BRANCH  11  15
ATOM     15  C   UNL A   1      32.788  17.076  24.131  1.00  0.00     0.101 C 
ATOM     16  C   UNL A   1      34.009  16.576  23.349  1.00  0.00     0.033 C 
ATOM     17  C   UNL A   1      32.546  16.210  25.364  1.00  0.00     0.033 C 
ENDBRANCH  11  15
ENDBRANCH   9  10
ENDBRANCH   8   9
BRANCH   8  18
ATOM     18  C   UNL A   1      33.860  24.293  24.055  1.00  0.00    -0.032 A 
ATOM     19  C   UNL A   1      34.177  25.259  25.031  1.00  0.00     0.005 A 
ATOM     20  C   UNL A   1      33.036  24.700  22.989  1.00  0.00     0.025 A 
ATOM     21  C   UNL A   1      33.657  26.558  24.969  1.00  0.00     0.002 A 
ATOM     22  C   UNL A   1      32.508  25.996  22.939  1.00  0.00     0.041 A 
ATOM     23  C   UNL A   1      32.810  26.925  23.927  1.00  0.00     0.020 A 
ATOM     24  Cl  UNL A   1      31.452  26.435  21.650  1.00  0.00    -0.084 Cl
ENDBRANCH   8  18
ENDBRANCH   6   8
ENDBRANCH   5   6
ENDBRANCH   4   5
ENDBRANCH   3   4
ENDBRANCH   2   3
ENDBRANCH   1   2
BRANCH   1  25
ATOM     25  C   UNL A   1      41.369  20.739  26.215  1.00  0.00     0.188 C 
BRANCH  25  26
ATOM     26  O   UNL A   1      42.670  21.232  25.936  1.00  0.00    -0.376 OA
BRANCH  26  27
ATOM     27  C   UNL A   1      42.904  22.505  25.347  1.00  0.00     0.202 C 
BRANCH  27  28
ATOM     28  C   UNL A   1      43.044  23.753  26.204  1.00  0.00     0.261 C 
BRANCH  28  29
ATOM     29  O   UNL A   1      41.872  24.531  26.181  1.00  0.00    -0.460 OA
BRANCH  29  30
ATOM     30  C   UNL A   1      42.038  25.717  25.556  1.00  0.00     0.338 C 
ATOM     31  O   UNL A   1      42.777  25.980  24.627  1.00  0.00    -0.246 OA
BRANCH  30  32
ATOM     32  C   UNL A   1      41.142  26.676  26.211  1.00  0.00     0.060 A 
ATOM     33  C   UNL A   1      41.408  28.028  25.996  1.00  0.00     0.016 A 
ATOM     34  C   UNL A   1      40.174  26.236  27.131  1.00  0.00     0.016 A 
ATOM     35  C   UNL A   1      40.899  28.933  26.894  1.00  0.00     0.010 A 
ATOM     36  C   UNL A   1      39.676  27.136  28.036  1.00  0.00     0.010 A 
ATOM     37  C   UNL A   1      40.146  28.443  27.964  1.00  0.00    -0.014 A 
BRANCH  37  38
ATOM     38  C   UNL A   1      40.042  29.288  29.128  1.00  0.00     0.031 A 
ATOM     39  C   UNL A   1      38.909  30.222  29.150  1.00  0.00     0.074 A 
ATOM     40  C   UNL A   1      40.920  29.133  30.137  1.00  0.00     0.049 A 
ATOM     41  N   UNL A   1      38.951  31.510  29.221  1.00  0.00    -0.248 NA
ATOM     42  C   UNL A   1      37.561  29.658  28.999  1.00  0.00     0.031 C 
ATOM     43  C   UNL A   1      41.881  28.039  30.325  1.00  0.00     0.029 A 
ATOM     44  N   UNL A   1      41.060  29.870  31.270  1.00  0.00    -0.354 N 
ATOM     45  C   UNL A   1      37.628  31.917  29.299  1.00  0.00     0.074 A 
ATOM     46  C   UNL A   1      36.814  30.761  29.019  1.00  0.00     0.031 C 
ATOM     47  C   UNL A   1      42.350  28.076  31.591  1.00  0.00     0.029 A 
ATOM     48  C   UNL A   1      41.812  29.252  32.254  1.00  0.00     0.049 A 
ATOM     49  H   UNL A   1      40.662  30.764  31.381  1.00  0.00     0.167 HD
ATOM     50  C   UNL A   1      37.295  33.119  29.833  1.00  0.00     0.037 A 
ATOM     51  C   UNL A   1      41.910  29.637  33.547  1.00  0.00     0.037 A 
ATOM     52  C   UNL A   1      38.401  34.036  29.831  1.00  0.00     0.049 A 
ATOM     53  C   UNL A   1      41.459  31.049  33.634  1.00  0.00     0.074 A 
ATOM     54  C   UNL A   1      39.196  34.591  28.846  1.00  0.00     0.029 A 
ATOM     55  N   UNL A   1      39.058  34.263  31.014  1.00  0.00    -0.354 N 
ATOM     56  N   UNL A   1      42.127  32.067  33.168  1.00  0.00    -0.248 NA
ATOM     57  C   UNL A   1      40.053  31.304  33.914  1.00  0.00     0.031 C 
ATOM     58  C   UNL A   1      40.485  34.739  29.433  1.00  0.00     0.029 A 
ATOM     59  C   UNL A   1      40.404  34.282  30.749  1.00  0.00     0.049 A 
ATOM     60  H   UNL A   1      38.640  34.391  31.895  1.00  0.00     0.167 HD
ATOM     61  C   UNL A   1      41.156  32.943  32.705  1.00  0.00     0.074 A 
ATOM     62  C   UNL A   1      39.912  32.486  33.308  1.00  0.00     0.031 C 
ATOM     63  C   UNL A   1      41.409  33.776  31.655  1.00  0.00     0.037 A 
BRANCH  50  64
ATOM     64  C   UNL A   1      36.062  33.323  30.666  1.00  0.00     0.064 A 
ATOM     65  C   UNL A   1      35.023  34.133  30.180  1.00  0.00     0.173 A 
ATOM     66  C   UNL A   1      35.987  32.979  32.035  1.00  0.00     0.173 A 
ATOM     67  F   UNL A   1      35.026  34.551  28.905  1.00  0.00    -0.203 F 
ATOM     68  C   UNL A   1      34.007  34.602  31.016  1.00  0.00     0.198 A 
ATOM     69  C   UNL A   1      34.940  33.398  32.851  1.00  0.00     0.198 A 
ATOM     70  F   UNL A   1      36.976  32.324  32.658  1.00  0.00    -0.203 F 
ATOM     71  F   UNL A   1      33.102  35.467  30.540  1.00  0.00    -0.200 F 
ATOM     72  C   UNL A   1      33.965  34.234  32.349  1.00  0.00     0.200 A 
ATOM     73  F   UNL A   1      34.932  33.048  34.145  1.00  0.00    -0.200 F 
ATOM     74  F   UNL A   1      33.021  34.723  33.162  1.00  0.00    -0.200 F 
ENDBRANCH  50  64
BRANCH  51  75
ATOM     75  C   UNL A   1      42.116  28.789  34.742  1.00  0.00     0.064 A 
ATOM     76  C   UNL A   1      41.451  27.561  34.875  1.00  0.00     0.173 A 
ATOM     77  C   UNL A   1      43.156  29.043  35.657  1.00  0.00     0.173 A 
ATOM     78  F   UNL A   1      40.479  27.221  34.016  1.00  0.00    -0.203 F 
ATOM     79  C   UNL A   1      41.819  26.633  35.855  1.00  0.00     0.198 A 
ATOM     80  C   UNL A   1      43.510  28.125  36.645  1.00  0.00     0.198 A 
ATOM     81  F   UNL A   1      43.911  30.146  35.557  1.00  0.00    -0.203 F 
ATOM     82  F   UNL A   1      41.204  25.444  35.911  1.00  0.00    -0.200 F 
ATOM     83  C   UNL A   1      42.851  26.914  36.734  1.00  0.00     0.200 A 
ATOM     84  F   UNL A   1      44.534  28.396  37.468  1.00  0.00    -0.200 F 
ATOM     85  F   UNL A   1      43.239  26.003  37.637  1.00  0.00    -0.200 F 
ENDBRANCH  51  75
BRANCH  63  86
ATOM     86  C   UNL A   1      42.846  33.962  31.257  1.00  0.00     0.064 A 
ATOM     87  C   UNL A   1      43.524  33.119  30.360  1.00  0.00     0.173 A 
ATOM     88  C   UNL A   1      43.525  35.097  31.719  1.00  0.00     0.173 A 
ATOM     89  F   UNL A   1      42.903  32.076  29.793  1.00  0.00    -0.203 F 
ATOM     90  C   UNL A   1      44.844  33.369  29.994  1.00  0.00     0.198 A 
ATOM     91  C   UNL A   1      44.832  35.366  31.320  1.00  0.00     0.198 A 
ATOM     92  F   UNL A   1      42.906  35.970  32.529  1.00  0.00    -0.203 F 
ATOM     93  F   UNL A   1      45.480  32.536  29.157  1.00  0.00    -0.200 F 
ATOM     94  C   UNL A   1      45.496  34.495  30.471  1.00  0.00     0.200 A 
ATOM     95  F   UNL A   1      45.441  36.482  31.745  1.00  0.00    -0.200 F 
ATOM     96  F   UNL A   1      46.755  34.755  30.094  1.00  0.00    -0.200 F 
ENDBRANCH  63  86
ENDBRANCH  37  38
ENDBRANCH  30  32
ENDBRANCH  29  30
ENDBRANCH  28  29
ENDBRANCH  27  28
ENDBRANCH  26  27
ENDBRANCH  25  26
ENDBRANCH   1  25
TORSDOF 21
ENDMDL
MODEL 2
REMARK VINA RESULT:     -11.1      2.198      6.849
REMARK SMILES CC(C)n1ccc(C[C@@H](C(=O)OCCOCCOCCOC(=O)c2ccc(-c3c4nc(c(-c5c(F)c(F)c(F)c(F)c5F)c5ccc([nH]5)c(-c5c(F)c(F)c(F)c(F)c5F)c5nc(c(-c6c(F)c(F)c(F)c(F)c6F)c6ccc3[nH]6)C=C5)C=C4)cc2)c2cccc(Cl)c2)n1
REMARK SMILES IDX 16 1 15 2 14 3 13 4 12 5 10 6 11 7 9 8 8 9 7 10 4 11 5 12
REMARK SMILES IDX 94 13 6 14 2 15 1 16 3 17 87 18 88 19 93 20 89 21 91 22
REMARK SMILES IDX 90 23 92 24 17 25 18 26 19 27 20 28 21 29 22 30 23 31 24 32
REMARK SMILES IDX 25 33 86 34 26 35 85 36 27 37 28 38 29 39 79 40 30 41 84 42
REMARK SMILES IDX 78 43 80 44 31 45 83 46 77 47 76 48 32 50 64 51 44 52 63 53
REMARK SMILES IDX 45 54 48 55 62 56 81 57 46 58 47 59 61 61 82 62 49 63 33 64
REMARK SMILES IDX 34 65 42 66 35 67 36 68 40 69 43 70 37 71 38 72 41 73 39 74
REMARK SMILES IDX 65 75 66 76 74 77 67 78 68 79 72 80 75 81 69 82 70 83 73 84
REMARK SMILES IDX 71 85 50 86 51 87 59 88 52 89 53 90 57 91 60 92 54 93 55 94
REMARK SMILES IDX 58 95 56 96
REMARK H PARENT 80 49 48 60
REMARK Flexibility Score: inf
ROOT
ATOM      1  C   UNL A   1      39.385  21.828  26.126  1.00  0.00     0.188 C 
ENDROOT
BRANCH   1   2
ATOM      2  O   UNL A   1      38.004  22.106  26.047  1.00  0.00    -0.376 OA
BRANCH   2   3
ATOM      3  C   UNL A   1      37.352  21.985  24.782  1.00  0.00     0.202 C 
BRANCH   3   4
ATOM      4  C   UNL A   1      36.921  23.219  23.977  1.00  0.00     0.261 C 
BRANCH   4   5
ATOM      5  O   UNL A   1      35.980  22.915  22.932  1.00  0.00    -0.463 OA
BRANCH   5   6
ATOM      6  C   UNL A   1      34.725  23.396  23.143  1.00  0.00     0.313 C 
ATOM      7  O   UNL A   1      33.905  23.544  22.242  1.00  0.00    -0.252 OA
BRANCH   6   8
ATOM      8  C   UNL A   1      34.371  23.565  24.621  1.00  0.00     0.135 C 
BRANCH   8   9
ATOM      9  C   UNL A   1      33.526  22.446  25.265  1.00  0.00     0.078 C 
BRANCH   9  10
ATOM     10  C   UNL A   1      33.359  21.143  24.547  1.00  0.00     0.064 A 
ATOM     11  N   UNL A   1      33.505  19.037  24.267  1.00  0.00    -0.270 N 
ATOM     12  C   UNL A   1      32.480  19.417  23.458  1.00  0.00     0.109 A 
ATOM     13  N   UNL A   1      34.090  20.076  24.905  1.00  0.00    -0.178 NA
ATOM     14  C   UNL A   1      32.374  20.774  23.606  1.00  0.00     0.045 A 
BRANCH  11  15
ATOM     15  C   UNL A   1      34.023  17.688  24.463  1.00  0.00     0.101 C 
ATOM     16  C   UNL A   1      33.245  16.880  25.509  1.00  0.00     0.033 C 
ATOM     17  C   UNL A   1      34.049  16.954  23.125  1.00  0.00     0.033 C 
ENDBRANCH  11  15
ENDBRANCH   9  10
ENDBRANCH   8   9
BRANCH   8  18
ATOM     18  C   UNL A   1      33.741  24.944  24.931  1.00  0.00    -0.032 A 
ATOM     19  C   UNL A   1      32.806  25.058  25.979  1.00  0.00     0.005 A 
ATOM     20  C   UNL A   1      34.019  26.105  24.187  1.00  0.00     0.025 A 
ATOM     21  C   UNL A   1      32.147  26.265  26.241  1.00  0.00     0.002 A 
ATOM     22  C   UNL A   1      33.347  27.306  24.443  1.00  0.00     0.041 A 
ATOM     23  C   UNL A   1      32.408  27.389  25.464  1.00  0.00     0.020 A 
ATOM     24  Cl  UNL A   1      33.670  28.688  23.467  1.00  0.00    -0.084 Cl
ENDBRANCH   8  18
ENDBRANCH   6   8
ENDBRANCH   5   6
ENDBRANCH   4   5
ENDBRANCH   3   4
ENDBRANCH   2   3
ENDBRANCH   1   2
BRANCH   1  25
ATOM     25  C   UNL A   1      39.853  20.382  25.908  1.00  0.00     0.188 C 
BRANCH  25  26
ATOM     26  O   UNL A   1      40.794  19.725  26.743  1.00  0.00    -0.376 OA
BRANCH  26  27
ATOM     27  C   UNL A   1      42.039  20.306  27.110  1.00  0.00     0.202 C 
BRANCH  27  28
ATOM     28  C   UNL A   1      42.980  20.876  26.061  1.00  0.00     0.261 C 
BRANCH  28  29
ATOM     29  O   UNL A   1      43.552  22.090  26.483  1.00  0.00    -0.460 OA
BRANCH  29  30
ATOM     30  C   UNL A   1      43.177  23.142  25.723  1.00  0.00     0.338 C 
ATOM     31  O   UNL A   1      43.414  23.342  24.548  1.00  0.00    -0.246 OA
BRANCH  30  32
ATOM     32  C   UNL A   1      42.407  24.042  26.587  1.00  0.00     0.060 A 
ATOM     33  C   UNL A   1      41.570  24.958  25.950  1.00  0.00     0.016 A 
ATOM     34  C   UNL A   1      42.637  24.072  27.974  1.00  0.00     0.016 A 
ATOM     35  C   UNL A   1      41.177  26.068  26.655  1.00  0.00     0.010 A 
ATOM     36  C   UNL A   1      42.257  25.185  28.676  1.00  0.00     0.010 A 
ATOM     37  C   UNL A   1      41.637  26.209  27.967  1.00  0.00    -0.014 A 
BRANCH  37  38
ATOM     38  C   UNL A   1      41.647  27.543  28.514  1.00  0.00     0.031 A 
ATOM     39  C   UNL A   1      42.805  28.376  28.165  1.00  0.00     0.074 A 
ATOM     40  C   UNL A   1      40.593  27.968  29.236  1.00  0.00     0.049 A 
ATOM     41  N   UNL A   1      43.659  28.914  28.969  1.00  0.00    -0.248 NA
ATOM     42  C   UNL A   1      43.093  28.576  26.738  1.00  0.00     0.031 C 
ATOM     43  C   UNL A   1      39.285  27.316  29.376  1.00  0.00     0.029 A 
ATOM     44  N   UNL A   1      40.434  29.137  29.910  1.00  0.00    -0.354 N 
ATOM     45  C   UNL A   1      44.498  29.669  28.162  1.00  0.00     0.074 A 
ATOM     46  C   UNL A   1      44.197  29.318  26.797  1.00  0.00     0.031 C 
ATOM     47  C   UNL A   1      38.410  28.193  29.914  1.00  0.00     0.029 A 
ATOM     48  C   UNL A   1      39.122  29.414  30.255  1.00  0.00     0.049 A 
ATOM     49  H   UNL A   1      41.185  29.733  30.134  1.00  0.00     0.167 HD
ATOM     50  C   UNL A   1      45.207  30.709  28.668  1.00  0.00     0.037 A 
ATOM     51  C   UNL A   1      38.645  30.597  30.705  1.00  0.00     0.037 A 
ATOM     52  C   UNL A   1      45.361  30.616  30.094  1.00  0.00     0.049 A 
ATOM     53  C   UNL A   1      39.799  31.394  31.191  1.00  0.00     0.074 A 
ATOM     54  C   UNL A   1      45.935  29.692  30.946  1.00  0.00     0.029 A 
ATOM     55  N   UNL A   1      44.582  31.422  30.885  1.00  0.00    -0.354 N 
ATOM     56  N   UNL A   1      40.475  31.131  32.274  1.00  0.00    -0.248 NA
ATOM     57  C   UNL A   1      40.458  32.290  30.251  1.00  0.00     0.031 C 
ATOM     58  C   UNL A   1      45.141  29.719  32.128  1.00  0.00     0.029 A 
ATOM     59  C   UNL A   1      44.135  30.668  31.940  1.00  0.00     0.049 A 
ATOM     60  H   UNL A   1      44.379  32.371  30.724  1.00  0.00     0.167 HD
ATOM     61  C   UNL A   1      41.783  31.475  31.967  1.00  0.00     0.074 A 
ATOM     62  C   UNL A   1      41.688  32.300  30.770  1.00  0.00     0.031 C 
ATOM     63  C   UNL A   1      42.832  30.821  32.544  1.00  0.00     0.037 A 
BRANCH  50  64
ATOM     64  C   UNL A   1      45.449  31.976  27.898  1.00  0.00     0.064 A 
ATOM     65  C   UNL A   1      44.355  32.742  27.462  1.00  0.00     0.173 A 
ATOM     66  C   UNL A   1      46.701  32.313  27.336  1.00  0.00     0.173 A 
ATOM     67  F   UNL A   1      43.117  32.472  27.903  1.00  0.00    -0.203 F 
ATOM     68  C   UNL A   1      44.499  33.743  26.499  1.00  0.00     0.198 A 
ATOM     69  C   UNL A   1      46.850  33.352  26.422  1.00  0.00     0.198 A 
ATOM     70  F   UNL A   1      47.801  31.583  27.561  1.00  0.00    -0.203 F 
ATOM     71  F   UNL A   1      43.414  34.369  26.025  1.00  0.00    -0.200 F 
ATOM     72  C   UNL A   1      45.745  34.048  25.981  1.00  0.00     0.200 A 
ATOM     73  F   UNL A   1      48.063  33.615  25.915  1.00  0.00    -0.200 F 
ATOM     74  F   UNL A   1      45.877  34.973  25.022  1.00  0.00    -0.200 F 
ENDBRANCH  50  64
BRANCH  51  75
ATOM     75  C   UNL A   1      37.301  31.179  30.501  1.00  0.00     0.064 A 
ATOM     76  C   UNL A   1      36.492  31.523  31.595  1.00  0.00     0.173 A 
ATOM     77  C   UNL A   1      36.881  31.644  29.239  1.00  0.00     0.173 A 
ATOM     78  F   UNL A   1      36.845  31.160  32.836  1.00  0.00    -0.203 F 
ATOM     79  C   UNL A   1      35.342  32.303  31.437  1.00  0.00     0.198 A 
ATOM     80  C   UNL A   1      35.724  32.405  29.081  1.00  0.00     0.198 A 
ATOM     81  F   UNL A   1      37.630  31.446  28.145  1.00  0.00    -0.203 F 
ATOM     82  F   UNL A   1      34.630  32.666  32.512  1.00  0.00    -0.200 F 
ATOM     83  C   UNL A   1      34.963  32.748  30.182  1.00  0.00     0.200 A 
ATOM     84  F   UNL A   1      35.388  32.857  27.864  1.00  0.00    -0.200 F 
ATOM     85  F   UNL A   1      33.891  33.539  30.038  1.00  0.00    -0.200 F 
ENDBRANCH  51  75
BRANCH  63  86
ATOM     86  C   UNL A   1      42.537  29.985  33.757  1.00  0.00     0.064 A 
ATOM     87  C   UNL A   1      42.614  30.467  35.075  1.00  0.00     0.173 A 
ATOM     88  C   UNL A   1      42.055  28.684  33.569  1.00  0.00     0.173 A 
ATOM     89  F   UNL A   1      42.963  31.736  35.326  1.00  0.00    -0.203 F 
ATOM     90  C   UNL A   1      42.283  29.656  36.159  1.00  0.00     0.198 A 
ATOM     91  C   UNL A   1      41.687  27.888  34.652  1.00  0.00     0.198 A 
ATOM     92  F   UNL A   1      41.902  28.195  32.329  1.00  0.00    -0.203 F 
ATOM     93  F   UNL A   1      42.389  30.127  37.409  1.00  0.00    -0.200 F 
ATOM     94  C   UNL A   1      41.816  28.368  35.946  1.00  0.00     0.200 A 
ATOM     95  F   UNL A   1      41.189  26.663  34.439  1.00  0.00    -0.200 F 
ATOM     96  F   UNL A   1      41.466  27.599  36.985  1.00  0.00    -0.200 F 
ENDBRANCH  63  86
ENDBRANCH  37  38
ENDBRANCH  30  32
ENDBRANCH  29  30
ENDBRANCH  28  29
ENDBRANCH  27  28
ENDBRANCH  26  27
ENDBRANCH  25  26
ENDBRANCH   1  25
TORSDOF 21
ENDMDL
MODEL 3
REMARK VINA RESULT:     -11.0      3.409      7.707
REMARK SMILES CC(C)n1ccc(C[C@@H](C(=O)OCCOCCOCCOC(=O)c2ccc(-c3c4nc(c(-c5c(F)c(F)c(F)c(F)c5F)c5ccc([nH]5)c(-c5c(F)c(F)c(F)c(F)c5F)c5nc(c(-c6c(F)c(F)c(F)c(F)c6F)c6ccc3[nH]6)C=C5)C=C4)cc2)c2cccc(Cl)c2)n1
REMARK SMILES IDX 16 1 15 2 14 3 13 4 12 5 10 6 11 7 9 8 8 9 7 10 4 11 5 12
REMARK SMILES IDX 94 13 6 14 2 15 1 16 3 17 87 18 88 19 93 20 89 21 91 22
REMARK SMILES IDX 90 23 92 24 17 25 18 26 19 27 20 28 21 29 22 30 23 31 24 32
REMARK SMILES IDX 25 33 86 34 26 35 85 36 27 37 28 38 29 39 79 40 30 41 84 42
REMARK SMILES IDX 78 43 80 44 31 45 83 46 77 47 76 48 32 50 64 51 44 52 63 53
REMARK SMILES IDX 45 54 48 55 62 56 81 57 46 58 47 59 61 61 82 62 49 63 33 64
REMARK SMILES IDX 34 65 42 66 35 67 36 68 40 69 43 70 37 71 38 72 41 73 39 74
REMARK SMILES IDX 65 75 66 76 74 77 67 78 68 79 72 80 75 81 69 82 70 83 73 84
REMARK SMILES IDX 71 85 50 86 51 87 59 88 52 89 53 90 57 91 60 92 54 93 55 94
REMARK SMILES IDX 58 95 56 96
REMARK H PARENT 80 49 48 60
REMARK Flexibility Score: inf
ROOT
ATOM      1  C   UNL A   1      37.939  22.102  25.734  1.00  0.00     0.188 C 
ENDROOT
BRANCH   1   2
ATOM      2  O   UNL A   1      37.635  21.893  24.372  1.00  0.00    -0.376 OA
BRANCH   2   3
ATOM      3  C   UNL A   1      36.346  22.278  23.891  1.00  0.00     0.202 C 
BRANCH   3   4
ATOM      4  C   UNL A   1      35.673  23.580  24.348  1.00  0.00     0.261 C 
BRANCH   4   5
ATOM      5  O   UNL A   1      34.779  24.131  23.365  1.00  0.00    -0.463 OA
BRANCH   5   6
ATOM      6  C   UNL A   1      33.585  23.487  23.262  1.00  0.00     0.313 C 
ATOM      7  O   UNL A   1      33.241  22.872  22.256  1.00  0.00    -0.252 OA
BRANCH   6   8
ATOM      8  C   UNL A   1      32.791  23.449  24.568  1.00  0.00     0.135 C 
BRANCH   8   9
ATOM      9  C   UNL A   1      32.007  22.153  24.867  1.00  0.00     0.078 C 
BRANCH   9  10
ATOM     10  C   UNL A   1      32.730  20.841  24.881  1.00  0.00     0.064 A 
ATOM     11  N   UNL A   1      33.420  18.986  24.097  1.00  0.00    -0.270 N 
ATOM     12  C   UNL A   1      34.307  19.290  25.082  1.00  0.00     0.109 A 
ATOM     13  N   UNL A   1      32.422  19.891  23.985  1.00  0.00    -0.178 NA
ATOM     14  C   UNL A   1      33.877  20.474  25.616  1.00  0.00     0.045 A 
BRANCH  11  15
ATOM     15  C   UNL A   1      33.432  17.815  23.227  1.00  0.00     0.101 C 
ATOM     16  C   UNL A   1      33.289  16.489  23.982  1.00  0.00     0.033 C 
ATOM     17  C   UNL A   1      32.337  17.955  22.172  1.00  0.00     0.033 C 
ENDBRANCH  11  15
ENDBRANCH   9  10
ENDBRANCH   8   9
BRANCH   8  18
ATOM     18  C   UNL A   1      31.863  24.675  24.740  1.00  0.00    -0.032 A 
ATOM     19  C   UNL A   1      30.874  24.936  23.772  1.00  0.00     0.005 A 
ATOM     20  C   UNL A   1      31.980  25.587  25.805  1.00  0.00     0.025 A 
ATOM     21  C   UNL A   1      30.069  26.080  23.840  1.00  0.00     0.002 A 
ATOM     22  C   UNL A   1      31.183  26.737  25.862  1.00  0.00     0.041 A 
ATOM     23  C   UNL A   1      30.232  26.990  24.881  1.00  0.00     0.020 A 
ATOM     24  Cl  UNL A   1      31.400  27.862  27.149  1.00  0.00    -0.084 Cl
ENDBRANCH   8  18
ENDBRANCH   6   8
ENDBRANCH   5   6
ENDBRANCH   4   5
ENDBRANCH   3   4
ENDBRANCH   2   3
ENDBRANCH   1   2
BRANCH   1  25
ATOM     25  C   UNL A   1      39.404  21.999  26.180  1.00  0.00     0.188 C 
BRANCH  25  26
ATOM     26  O   UNL A   1      39.952  20.859  26.826  1.00  0.00    -0.376 OA
BRANCH  26  27
ATOM     27  C   UNL A   1      40.631  19.825  26.124  1.00  0.00     0.202 C 
BRANCH  27  28
ATOM     28  C   UNL A   1      41.995  19.332  26.578  1.00  0.00     0.261 C 
BRANCH  28  29
ATOM     29  O   UNL A   1      42.922  20.386  26.673  1.00  0.00    -0.460 OA
BRANCH  29  30
ATOM     30  C   UNL A   1      43.579  20.616  25.515  1.00  0.00     0.338 C 
ATOM     31  O   UNL A   1      43.839  19.825  24.629  1.00  0.00    -0.246 OA
BRANCH  30  32
ATOM     32  C   UNL A   1      43.945  22.036  25.504  1.00  0.00     0.060 A 
ATOM     33  C   UNL A   1      45.019  22.411  26.311  1.00  0.00     0.016 A 
ATOM     34  C   UNL A   1      43.143  22.975  24.833  1.00  0.00     0.016 A 
ATOM     35  C   UNL A   1      45.124  23.734  26.665  1.00  0.00     0.010 A 
ATOM     36  C   UNL A   1      43.237  24.293  25.196  1.00  0.00     0.010 A 
ATOM     37  C   UNL A   1      44.151  24.619  26.193  1.00  0.00    -0.014 A 
BRANCH  37  38
ATOM     38  C   UNL A   1      43.971  25.844  26.932  1.00  0.00     0.031 A 
ATOM     39  C   UNL A   1      44.994  26.878  26.727  1.00  0.00     0.074 A 
ATOM     40  C   UNL A   1      42.872  26.001  27.693  1.00  0.00     0.049 A 
ATOM     41  N   UNL A   1      45.767  27.407  27.615  1.00  0.00    -0.248 NA
ATOM     42  C   UNL A   1      45.240  27.326  25.351  1.00  0.00     0.031 C 
ATOM     43  C   UNL A   1      41.672  25.154  27.716  1.00  0.00     0.029 A 
ATOM     44  N   UNL A   1      42.550  27.021  28.531  1.00  0.00    -0.354 N 
ATOM     45  C   UNL A   1      46.483  28.386  26.941  1.00  0.00     0.074 A 
ATOM     46  C   UNL A   1      46.226  28.203  25.535  1.00  0.00     0.031 C 
ATOM     47  C   UNL A   1      40.684  25.806  28.364  1.00  0.00     0.029 A 
ATOM     48  C   UNL A   1      41.214  27.052  28.893  1.00  0.00     0.049 A 
ATOM     49  H   UNL A   1      43.208  27.679  28.852  1.00  0.00     0.167 HD
ATOM     50  C   UNL A   1      47.037  29.431  27.606  1.00  0.00     0.037 A 
ATOM     51  C   UNL A   1      40.575  28.074  29.506  1.00  0.00     0.037 A 
ATOM     52  C   UNL A   1      47.212  29.150  29.005  1.00  0.00     0.049 A 
ATOM     53  C   UNL A   1      41.604  28.948  30.123  1.00  0.00     0.074 A 
ATOM     54  C   UNL A   1      47.920  28.201  29.719  1.00  0.00     0.029 A 
ATOM     55  N   UNL A   1      46.330  29.708  29.895  1.00  0.00    -0.354 N 
ATOM     56  N   UNL A   1      42.318  28.626  31.165  1.00  0.00    -0.248 NA
ATOM     57  C   UNL A   1      42.121  30.059  29.336  1.00  0.00     0.031 C 
ATOM     58  C   UNL A   1      47.138  27.938  30.880  1.00  0.00     0.029 A 
ATOM     59  C   UNL A   1      46.005  28.749  30.820  1.00  0.00     0.049 A 
ATOM     60  H   UNL A   1      45.991  30.632  29.874  1.00  0.00     0.167 HD
ATOM     61  C   UNL A   1      43.561  29.196  30.931  1.00  0.00     0.074 A 
ATOM     62  C   UNL A   1      43.340  30.168  29.868  1.00  0.00     0.031 C 
ATOM     63  C   UNL A   1      44.698  28.622  31.421  1.00  0.00     0.037 A 
BRANCH  50  64
ATOM     64  C   UNL A   1      47.089  30.819  27.036  1.00  0.00     0.064 A 
ATOM     65  C   UNL A   1      48.307  31.519  27.026  1.00  0.00     0.173 A 
ATOM     66  C   UNL A   1      45.935  31.585  26.757  1.00  0.00     0.173 A 
ATOM     67  F   UNL A   1      49.455  30.892  27.322  1.00  0.00    -0.203 F 
ATOM     68  C   UNL A   1      48.358  32.896  26.798  1.00  0.00     0.198 A 
ATOM     69  C   UNL A   1      45.997  32.946  26.470  1.00  0.00     0.198 A 
ATOM     70  F   UNL A   1      44.701  31.075  26.862  1.00  0.00    -0.203 F 
ATOM     71  F   UNL A   1      49.524  33.545  26.914  1.00  0.00    -0.200 F 
ATOM     72  C   UNL A   1      47.205  33.608  26.519  1.00  0.00     0.200 A 
ATOM     73  F   UNL A   1      44.864  33.620  26.225  1.00  0.00    -0.200 F 
ATOM     74  F   UNL A   1      47.247  34.935  26.350  1.00  0.00    -0.200 F 
ENDBRANCH  50  64
BRANCH  51  75
ATOM     75  C   UNL A   1      39.159  28.480  29.371  1.00  0.00     0.064 A 
ATOM     76  C   UNL A   1      38.332  28.596  30.499  1.00  0.00     0.173 A 
ATOM     77  C   UNL A   1      38.653  29.007  28.166  1.00  0.00     0.173 A 
ATOM     78  F   UNL A   1      38.756  28.162  31.695  1.00  0.00    -0.203 F 
ATOM     79  C   UNL A   1      37.083  29.219  30.429  1.00  0.00     0.198 A 
ATOM     80  C   UNL A   1      37.400  29.612  28.093  1.00  0.00     0.198 A 
ATOM     81  F   UNL A   1      39.401  29.027  27.053  1.00  0.00    -0.203 F 
ATOM     82  F   UNL A   1      36.349  29.369  31.540  1.00  0.00    -0.200 F 
ATOM     83  C   UNL A   1      36.620  29.731  29.228  1.00  0.00     0.200 A 
ATOM     84  F   UNL A   1      36.980  30.133  26.931  1.00  0.00    -0.200 F 
ATOM     85  F   UNL A   1      35.447  30.377  29.173  1.00  0.00    -0.200 F 
ENDBRANCH  51  75
BRANCH  63  86
ATOM     86  C   UNL A   1      44.534  27.581  32.492  1.00  0.00     0.064 A 
ATOM     87  C   UNL A   1      44.353  26.212  32.229  1.00  0.00     0.173 A 
ATOM     88  C   UNL A   1      44.673  27.971  33.830  1.00  0.00     0.173 A 
ATOM     89  F   UNL A   1      44.319  25.751  30.971  1.00  0.00    -0.203 F 
ATOM     90  C   UNL A   1      44.253  25.287  33.265  1.00  0.00     0.198 A 
ATOM     91  C   UNL A   1      44.612  27.039  34.862  1.00  0.00     0.198 A 
ATOM     92  F   UNL A   1      44.910  29.256  34.135  1.00  0.00    -0.203 F 
ATOM     93  F   UNL A   1      44.054  23.989  32.992  1.00  0.00    -0.200 F 
ATOM     94  C   UNL A   1      44.386  25.700  34.581  1.00  0.00     0.200 A 
ATOM     95  F   UNL A   1      44.792  27.435  36.129  1.00  0.00    -0.200 F 
ATOM     96  F   UNL A   1      44.323  24.807  35.578  1.00  0.00    -0.200 F 
ENDBRANCH  63  86
ENDBRANCH  37  38
ENDBRANCH  30  32
ENDBRANCH  29  30
ENDBRANCH  28  29
ENDBRANCH  27  28
ENDBRANCH  26  27
ENDBRANCH  25  26
ENDBRANCH   1  25
TORSDOF 21
ENDMDL
