MODEL 1
REMARK VINA RESULT:     -10.6      0.000      0.000
REMARK SMILES O=C(OCCOCCOCCOC(=O)C1(Cc2ccncc2)Cc2ccccc2C1)c1ccc(-c2c3nc(c(-c4c(F)c(F)c(F)c(F)c4F)c4ccc([nH]4)c(-c4c(F)c(F)c(F)c(F)c4F)c4nc(c(-c5c(F)c(F)c(F)c(F)c5F)c5ccc2[nH]5)C=C4)C=C3)cc1
REMARK SMILES IDX 7 1 6 2 5 3 4 4 3 5 2 6 1 7 31 8 32 9 93 10 33 11 92 12
REMARK SMILES IDX 34 13 35 14 36 15 86 16 37 17 91 18 85 19 87 20 38 21 90 22
REMARK SMILES IDX 84 23 83 24 39 26 71 27 51 28 70 29 52 30 55 31 69 32 88 33
REMARK SMILES IDX 53 34 54 35 68 37 89 38 56 39 40 40 41 41 49 42 42 43 43 44
REMARK SMILES IDX 47 45 50 46 44 47 45 48 48 49 46 50 72 51 73 52 81 53 74 54
REMARK SMILES IDX 75 55 79 56 82 57 76 58 77 59 80 60 78 61 57 62 58 63 66 64
REMARK SMILES IDX 59 65 60 66 64 67 67 68 61 69 62 70 65 71 63 72 8 73 9 74
REMARK SMILES IDX 10 75 11 76 12 77 13 78 14 79 15 80 23 81 30 82 24 83 29 84
REMARK SMILES IDX 25 85 28 86 26 87 27 88 16 89 17 90 18 91 22 92 19 93 21 94
REMARK SMILES IDX 20 95
REMARK H PARENT 87 25 55 36
REMARK Flexibility Score: inf
ROOT
ATOM      1  C   UNL A   1      34.476  32.922  29.088  1.00  0.00     0.188 C 
ENDROOT
BRANCH   1   2
ATOM      2  O   UNL A   1      35.230  34.071  28.677  1.00  0.00    -0.376 OA
BRANCH   2   3
ATOM      3  C   UNL A   1      34.424  35.238  28.479  1.00  0.00     0.202 C 
BRANCH   3   4
ATOM      4  C   UNL A   1      33.014  35.201  29.090  1.00  0.00     0.261 C 
BRANCH   4   5
ATOM      5  O   UNL A   1      32.886  35.886  30.344  1.00  0.00    -0.460 OA
BRANCH   5   6
ATOM      6  C   UNL A   1      32.950  35.409  31.607  1.00  0.00     0.338 C 
ATOM      7  O   UNL A   1      31.920  35.453  32.281  1.00  0.00    -0.246 OA
BRANCH   6   8
ATOM      8  C   UNL A   1      34.182  34.852  32.261  1.00  0.00     0.060 A 
ATOM      9  C   UNL A   1      35.497  35.308  32.111  1.00  0.00     0.016 A 
ATOM     10  C   UNL A   1      33.976  33.754  33.116  1.00  0.00     0.016 A 
ATOM     11  C   UNL A   1      36.581  34.673  32.724  1.00  0.00     0.010 A 
ATOM     12  C   UNL A   1      35.050  33.103  33.722  1.00  0.00     0.010 A 
ATOM     13  C   UNL A   1      36.365  33.540  33.495  1.00  0.00    -0.014 A 
BRANCH  13  14
ATOM     14  C   UNL A   1      37.485  32.649  33.861  1.00  0.00     0.031 A 
ATOM     15  C   UNL A   1      38.270  33.031  35.068  1.00  0.00     0.074 A 
ATOM     16  C   UNL A   1      37.836  31.583  33.124  1.00  0.00     0.049 A 
ATOM     17  N   UNL A   1      39.394  32.542  35.508  1.00  0.00    -0.248 NA
ATOM     18  C   UNL A   1      37.693  34.097  35.906  1.00  0.00     0.031 C 
ATOM     19  C   UNL A   1      37.064  31.043  32.020  1.00  0.00     0.029 A 
ATOM     20  N   UNL A   1      38.980  30.827  33.123  1.00  0.00    -0.354 N 
ATOM     21  C   UNL A   1      39.644  33.219  36.689  1.00  0.00     0.074 A 
ATOM     22  C   UNL A   1      38.603  34.207  36.857  1.00  0.00     0.031 C 
ATOM     23  C   UNL A   1      37.831  30.199  31.319  1.00  0.00     0.029 A 
ATOM     24  C   UNL A   1      39.109  30.063  31.987  1.00  0.00     0.049 A 
ATOM     25  H   UNL A   1      39.638  30.830  33.856  1.00  0.00     0.167 HD
ATOM     26  C   UNL A   1      40.644  32.997  37.568  1.00  0.00     0.037 A 
ATOM     27  C   UNL A   1      40.143  29.343  31.518  1.00  0.00     0.037 A 
ATOM     28  C   UNL A   1      41.685  32.036  37.334  1.00  0.00     0.049 A 
ATOM     29  C   UNL A   1      41.330  29.210  32.415  1.00  0.00     0.074 A 
ATOM     30  C   UNL A   1      42.764  31.715  38.131  1.00  0.00     0.029 A 
ATOM     31  N   UNL A   1      41.781  31.252  36.187  1.00  0.00    -0.354 N 
ATOM     32  N   UNL A   1      41.553  29.816  33.557  1.00  0.00    -0.248 NA
ATOM     33  C   UNL A   1      42.371  28.260  32.015  1.00  0.00     0.031 C 
ATOM     34  C   UNL A   1      43.548  30.787  37.436  1.00  0.00     0.029 A 
ATOM     35  C   UNL A   1      42.923  30.475  36.237  1.00  0.00     0.049 A 
ATOM     36  H   UNL A   1      41.129  31.253  35.448  1.00  0.00     0.167 HD
ATOM     37  C   UNL A   1      42.725  29.276  34.050  1.00  0.00     0.074 A 
ATOM     38  C   UNL A   1      43.183  28.314  33.063  1.00  0.00     0.031 C 
ATOM     39  C   UNL A   1      43.345  29.531  35.228  1.00  0.00     0.037 A 
BRANCH  26  40
ATOM     40  C   UNL A   1      40.650  33.856  38.795  1.00  0.00     0.064 A 
ATOM     41  C   UNL A   1      39.928  33.502  39.949  1.00  0.00     0.173 A 
ATOM     42  C   UNL A   1      41.298  35.098  38.784  1.00  0.00     0.173 A 
ATOM     43  F   UNL A   1      39.259  32.339  39.997  1.00  0.00    -0.203 F 
ATOM     44  C   UNL A   1      39.806  34.385  41.018  1.00  0.00     0.198 A 
ATOM     45  C   UNL A   1      41.203  35.964  39.870  1.00  0.00     0.198 A 
ATOM     46  F   UNL A   1      41.991  35.490  37.706  1.00  0.00    -0.203 F 
ATOM     47  F   UNL A   1      39.032  34.065  42.064  1.00  0.00    -0.200 F 
ATOM     48  C   UNL A   1      40.444  35.615  40.978  1.00  0.00     0.200 A 
ATOM     49  F   UNL A   1      41.821  37.153  39.831  1.00  0.00    -0.200 F 
ATOM     50  F   UNL A   1      40.307  36.475  41.997  1.00  0.00    -0.200 F 
ENDBRANCH  26  40
BRANCH  27  51
ATOM     51  C   UNL A   1      40.041  28.666  30.198  1.00  0.00     0.064 A 
ATOM     52  C   UNL A   1      40.595  29.235  29.043  1.00  0.00     0.173 A 
ATOM     53  C   UNL A   1      39.465  27.390  30.080  1.00  0.00     0.173 A 
ATOM     54  F   UNL A   1      41.164  30.448  29.104  1.00  0.00    -0.203 F 
ATOM     55  C   UNL A   1      40.568  28.562  27.821  1.00  0.00     0.198 A 
ATOM     56  C   UNL A   1      39.455  26.710  28.862  1.00  0.00     0.198 A 
ATOM     57  F   UNL A   1      38.941  26.790  31.158  1.00  0.00    -0.203 F 
ATOM     58  F   UNL A   1      41.098  29.135  26.732  1.00  0.00    -0.200 F 
ATOM     59  C   UNL A   1      40.005  27.298  27.732  1.00  0.00     0.200 A 
ATOM     60  F   UNL A   1      38.927  25.481  28.783  1.00  0.00    -0.200 F 
ATOM     61  F   UNL A   1      39.997  26.645  26.562  1.00  0.00    -0.200 F 
ENDBRANCH  27  51
BRANCH  39  62
ATOM     62  C   UNL A   1      44.564  28.722  35.534  1.00  0.00     0.064 A 
ATOM     63  C   UNL A   1      44.481  27.490  36.193  1.00  0.00     0.173 A 
ATOM     64  C   UNL A   1      45.819  29.157  35.082  1.00  0.00     0.173 A 
ATOM     65  F   UNL A   1      43.303  27.051  36.661  1.00  0.00    -0.203 F 
ATOM     66  C   UNL A   1      45.620  26.717  36.392  1.00  0.00     0.198 A 
ATOM     67  C   UNL A   1      46.947  28.366  35.254  1.00  0.00     0.198 A 
ATOM     68  F   UNL A   1      45.940  30.332  34.447  1.00  0.00    -0.203 F 
ATOM     69  F   UNL A   1      45.529  25.554  37.049  1.00  0.00    -0.200 F 
ATOM     70  C   UNL A   1      46.848  27.148  35.909  1.00  0.00     0.200 A 
ATOM     71  F   UNL A   1      48.129  28.777  34.775  1.00  0.00    -0.200 F 
ATOM     72  F   UNL A   1      47.938  26.388  36.078  1.00  0.00    -0.200 F 
ENDBRANCH  39  62
ENDBRANCH  13  14
ENDBRANCH   6   8
ENDBRANCH   5   6
ENDBRANCH   4   5
ENDBRANCH   3   4
ENDBRANCH   2   3
ENDBRANCH   1   2
BRANCH   1  73
ATOM     73  C   UNL A   1      34.191  31.911  27.976  1.00  0.00     0.188 C 
BRANCH  73  74
ATOM     74  O   UNL A   1      35.262  31.064  27.576  1.00  0.00    -0.376 OA
BRANCH  74  75
ATOM     75  C   UNL A   1      35.035  29.665  27.604  1.00  0.00     0.202 C 
BRANCH  75  76
ATOM     76  C   UNL A   1      33.633  29.149  27.282  1.00  0.00     0.261 C 
BRANCH  76  77
ATOM     77  O   UNL A   1      33.540  27.895  26.581  1.00  0.00    -0.463 OA
BRANCH  77  78
ATOM     78  C   UNL A   1      32.329  27.277  26.661  1.00  0.00     0.313 C 
ATOM     79  O   UNL A   1      31.436  27.613  27.436  1.00  0.00    -0.252 OA
BRANCH  78  80
ATOM     80  C   UNL A   1      32.225  26.027  25.808  1.00  0.00     0.080 C 
ATOM     81  C   UNL A   1      33.555  25.232  26.009  1.00  0.00     0.055 C 
ATOM     82  C   UNL A   1      31.146  25.002  26.236  1.00  0.00     0.055 C 
ATOM     83  C   UNL A   1      33.143  23.825  25.706  1.00  0.00    -0.044 A 
ATOM     84  C   UNL A   1      31.760  23.697  25.801  1.00  0.00    -0.044 A 
ATOM     85  C   UNL A   1      33.951  22.739  25.398  1.00  0.00     0.004 A 
ATOM     86  C   UNL A   1      31.168  22.471  25.545  1.00  0.00     0.004 A 
ATOM     87  C   UNL A   1      33.349  21.509  25.129  1.00  0.00     0.000 A 
ATOM     88  C   UNL A   1      31.961  21.378  25.189  1.00  0.00     0.000 A 
BRANCH  80  89
ATOM     89  C   UNL A   1      32.082  26.494  24.316  1.00  0.00     0.055 C 
BRANCH  89  90
ATOM     90  C   UNL A   1      30.915  27.406  23.968  1.00  0.00    -0.044 A 
ATOM     91  C   UNL A   1      29.640  26.925  23.677  1.00  0.00     0.024 A 
ATOM     92  C   UNL A   1      31.070  28.791  23.979  1.00  0.00     0.024 A 
ATOM     93  C   UNL A   1      28.654  27.806  23.252  1.00  0.00     0.111 A 
ATOM     94  C   UNL A   1      30.028  29.605  23.555  1.00  0.00     0.111 A 
ATOM     95  N   UNL A   1      28.830  29.137  23.158  1.00  0.00    -0.265 NA
ENDBRANCH  89  90
ENDBRANCH  80  89
ENDBRANCH  78  80
ENDBRANCH  77  78
ENDBRANCH  76  77
ENDBRANCH  75  76
ENDBRANCH  74  75
ENDBRANCH  73  74
ENDBRANCH   1  73
TORSDOF 19
ENDMDL
MODEL 2
REMARK VINA RESULT:     -10.4      4.036      9.100
REMARK SMILES O=C(OCCOCCOCCOC(=O)C1(Cc2ccncc2)Cc2ccccc2C1)c1ccc(-c2c3nc(c(-c4c(F)c(F)c(F)c(F)c4F)c4ccc([nH]4)c(-c4c(F)c(F)c(F)c(F)c4F)c4nc(c(-c5c(F)c(F)c(F)c(F)c5F)c5ccc2[nH]5)C=C4)C=C3)cc1
REMARK SMILES IDX 7 1 6 2 5 3 4 4 3 5 2 6 1 7 31 8 32 9 93 10 33 11 92 12
REMARK SMILES IDX 34 13 35 14 36 15 86 16 37 17 91 18 85 19 87 20 38 21 90 22
REMARK SMILES IDX 84 23 83 24 39 26 71 27 51 28 70 29 52 30 55 31 69 32 88 33
REMARK SMILES IDX 53 34 54 35 68 37 89 38 56 39 40 40 41 41 49 42 42 43 43 44
REMARK SMILES IDX 47 45 50 46 44 47 45 48 48 49 46 50 72 51 73 52 81 53 74 54
REMARK SMILES IDX 75 55 79 56 82 57 76 58 77 59 80 60 78 61 57 62 58 63 66 64
REMARK SMILES IDX 59 65 60 66 64 67 67 68 61 69 62 70 65 71 63 72 8 73 9 74
REMARK SMILES IDX 10 75 11 76 12 77 13 78 14 79 15 80 23 81 30 82 24 83 29 84
REMARK SMILES IDX 25 85 28 86 26 87 27 88 16 89 17 90 18 91 22 92 19 93 21 94
REMARK SMILES IDX 20 95
REMARK H PARENT 87 25 55 36
REMARK Flexibility Score: inf
ROOT
ATOM      1  C   UNL A   1      41.230  22.581  26.159  1.00  0.00     0.188 C 
ENDROOT
BRANCH   1   2
ATOM      2  O   UNL A   1      42.060  21.589  25.541  1.00  0.00    -0.376 OA
BRANCH   2   3
ATOM      3  C   UNL A   1      43.456  21.769  25.806  1.00  0.00     0.202 C 
BRANCH   3   4
ATOM      4  C   UNL A   1      44.263  22.505  24.724  1.00  0.00     0.261 C 
BRANCH   4   5
ATOM      5  O   UNL A   1      43.980  23.906  24.613  1.00  0.00    -0.460 OA
BRANCH   5   6
ATOM      6  C   UNL A   1      44.562  24.964  25.222  1.00  0.00     0.338 C 
ATOM      7  O   UNL A   1      45.563  25.443  24.687  1.00  0.00    -0.246 OA
BRANCH   6   8
ATOM      8  C   UNL A   1      44.101  25.584  26.510  1.00  0.00     0.060 A 
ATOM      9  C   UNL A   1      42.961  25.248  27.248  1.00  0.00     0.016 A 
ATOM     10  C   UNL A   1      44.915  26.613  27.017  1.00  0.00     0.016 A 
ATOM     11  C   UNL A   1      42.593  25.936  28.408  1.00  0.00     0.010 A 
ATOM     12  C   UNL A   1      44.552  27.316  28.166  1.00  0.00     0.010 A 
ATOM     13  C   UNL A   1      43.364  27.003  28.844  1.00  0.00    -0.014 A 
BRANCH  13  14
ATOM     14  C   UNL A   1      42.836  27.962  29.837  1.00  0.00     0.031 A 
ATOM     15  C   UNL A   1      43.451  27.922  31.192  1.00  0.00     0.074 A 
ATOM     16  C   UNL A   1      41.812  28.790  29.572  1.00  0.00     0.049 A 
ATOM     17  N   UNL A   1      43.069  28.514  32.288  1.00  0.00    -0.248 NA
ATOM     18  C   UNL A   1      44.681  27.121  31.323  1.00  0.00     0.031 C 
ATOM     19  C   UNL A   1      41.237  29.011  28.258  1.00  0.00     0.029 A 
ATOM     20  N   UNL A   1      41.007  29.521  30.408  1.00  0.00    -0.354 N 
ATOM     21  C   UNL A   1      44.027  28.182  33.230  1.00  0.00     0.074 A 
ATOM     22  C   UNL A   1      44.961  27.274  32.604  1.00  0.00     0.031 C 
ATOM     23  C   UNL A   1      40.060  29.635  28.392  1.00  0.00     0.029 A 
ATOM     24  C   UNL A   1      39.854  29.950  29.791  1.00  0.00     0.049 A 
ATOM     25  H   UNL A   1      41.229  29.717  31.347  1.00  0.00     0.167 HD
ATOM     26  C   UNL A   1      44.125  28.635  34.497  1.00  0.00     0.037 A 
ATOM     27  C   UNL A   1      38.744  30.519  30.291  1.00  0.00     0.037 A 
ATOM     28  C   UNL A   1      43.145  29.500  35.091  1.00  0.00     0.049 A 
ATOM     29  C   UNL A   1      38.773  30.891  31.737  1.00  0.00     0.074 A 
ATOM     30  C   UNL A   1      43.111  30.026  36.366  1.00  0.00     0.029 A 
ATOM     31  N   UNL A   1      41.998  29.945  34.438  1.00  0.00    -0.354 N 
ATOM     32  N   UNL A   1      39.698  30.617  32.624  1.00  0.00    -0.248 NA
ATOM     33  C   UNL A   1      37.661  31.700  32.243  1.00  0.00     0.031 C 
ATOM     34  C   UNL A   1      41.912  30.734  36.505  1.00  0.00     0.029 A 
ATOM     35  C   UNL A   1      41.230  30.709  35.296  1.00  0.00     0.049 A 
ATOM     36  H   UNL A   1      41.768  29.743  33.502  1.00  0.00     0.167 HD
ATOM     37  C   UNL A   1      39.321  31.273  33.780  1.00  0.00     0.074 A 
ATOM     38  C   UNL A   1      38.061  31.933  33.487  1.00  0.00     0.031 C 
ATOM     39  C   UNL A   1      39.977  31.347  34.964  1.00  0.00     0.037 A 
BRANCH  26  40
ATOM     40  C   UNL A   1      45.297  28.140  35.289  1.00  0.00     0.064 A 
ATOM     41  C   UNL A   1      46.551  28.774  35.230  1.00  0.00     0.173 A 
ATOM     42  C   UNL A   1      45.196  26.957  36.033  1.00  0.00     0.173 A 
ATOM     43  F   UNL A   1      46.709  29.890  34.501  1.00  0.00    -0.203 F 
ATOM     44  C   UNL A   1      47.669  28.210  35.836  1.00  0.00     0.198 A 
ATOM     45  C   UNL A   1      46.310  26.414  36.668  1.00  0.00     0.198 A 
ATOM     46  F   UNL A   1      44.027  26.306  36.113  1.00  0.00    -0.203 F 
ATOM     47  F   UNL A   1      48.872  28.780  35.683  1.00  0.00    -0.200 F 
ATOM     48  C   UNL A   1      47.547  27.031  36.555  1.00  0.00     0.200 A 
ATOM     49  F   UNL A   1      46.191  25.275  37.364  1.00  0.00    -0.200 F 
ATOM     50  F   UNL A   1      48.629  26.474  37.118  1.00  0.00    -0.200 F 
ENDBRANCH  26  40
BRANCH  27  51
ATOM     51  C   UNL A   1      37.592  30.813  29.397  1.00  0.00     0.064 A 
ATOM     52  C   UNL A   1      36.647  29.829  29.078  1.00  0.00     0.173 A 
ATOM     53  C   UNL A   1      37.362  32.113  28.915  1.00  0.00     0.173 A 
ATOM     54  F   UNL A   1      36.815  28.574  29.520  1.00  0.00    -0.203 F 
ATOM     55  C   UNL A   1      35.525  30.128  28.305  1.00  0.00     0.198 A 
ATOM     56  C   UNL A   1      36.231  32.415  28.158  1.00  0.00     0.198 A 
ATOM     57  F   UNL A   1      38.223  33.098  29.210  1.00  0.00    -0.203 F 
ATOM     58  F   UNL A   1      34.643  29.163  28.009  1.00  0.00    -0.200 F 
ATOM     59  C   UNL A   1      35.313  31.420  27.851  1.00  0.00     0.200 A 
ATOM     60  F   UNL A   1      36.019  33.670  27.737  1.00  0.00    -0.200 F 
ATOM     61  F   UNL A   1      34.225  31.710  27.125  1.00  0.00    -0.200 F 
ENDBRANCH  27  51
BRANCH  39  62
ATOM     62  C   UNL A   1      39.363  32.211  36.018  1.00  0.00     0.064 A 
ATOM     63  C   UNL A   1      38.398  31.716  36.903  1.00  0.00     0.173 A 
ATOM     64  C   UNL A   1      39.817  33.526  36.190  1.00  0.00     0.173 A 
ATOM     65  F   UNL A   1      37.921  30.471  36.757  1.00  0.00    -0.203 F 
ATOM     66  C   UNL A   1      37.903  32.515  37.928  1.00  0.00     0.198 A 
ATOM     67  C   UNL A   1      39.345  34.309  37.236  1.00  0.00     0.198 A 
ATOM     68  F   UNL A   1      40.742  34.038  35.363  1.00  0.00    -0.203 F 
ATOM     69  F   UNL A   1      36.958  32.037  38.748  1.00  0.00    -0.200 F 
ATOM     70  C   UNL A   1      38.388  33.804  38.102  1.00  0.00     0.200 A 
ATOM     71  F   UNL A   1      39.824  35.548  37.412  1.00  0.00    -0.200 F 
ATOM     72  F   UNL A   1      37.929  34.562  39.108  1.00  0.00    -0.200 F 
ENDBRANCH  39  62
ENDBRANCH  13  14
ENDBRANCH   6   8
ENDBRANCH   5   6
ENDBRANCH   4   5
ENDBRANCH   3   4
ENDBRANCH   2   3
ENDBRANCH   1   2
BRANCH   1  73
ATOM     73  C   UNL A   1      40.015  22.027  26.903  1.00  0.00     0.188 C 
BRANCH  73  74
ATOM     74  O   UNL A   1      38.729  22.379  26.406  1.00  0.00    -0.376 OA
BRANCH  74  75
ATOM     75  C   UNL A   1      38.202  21.599  25.346  1.00  0.00     0.202 C 
BRANCH  75  76
ATOM     76  C   UNL A   1      37.037  22.168  24.536  1.00  0.00     0.261 C 
BRANCH  76  77
ATOM     77  O   UNL A   1      35.832  21.382  24.479  1.00  0.00    -0.463 OA
BRANCH  77  78
ATOM     78  C   UNL A   1      34.984  21.549  25.531  1.00  0.00     0.313 C 
ATOM     79  O   UNL A   1      35.277  21.297  26.698  1.00  0.00    -0.252 OA
BRANCH  78  80
ATOM     80  C   UNL A   1      33.575  21.934  25.122  1.00  0.00     0.080 C 
ATOM     81  C   UNL A   1      33.113  23.061  26.102  1.00  0.00     0.055 C 
ATOM     82  C   UNL A   1      33.432  22.608  23.735  1.00  0.00     0.055 C 
ATOM     83  C   UNL A   1      32.085  23.793  25.297  1.00  0.00    -0.044 A 
ATOM     84  C   UNL A   1      32.242  23.509  23.942  1.00  0.00    -0.044 A 
ATOM     85  C   UNL A   1      31.105  24.668  25.744  1.00  0.00     0.004 A 
ATOM     86  C   UNL A   1      31.379  24.078  23.021  1.00  0.00     0.004 A 
ATOM     87  C   UNL A   1      30.230  25.229  24.812  1.00  0.00     0.000 A 
ATOM     88  C   UNL A   1      30.358  24.925  23.456  1.00  0.00     0.000 A 
BRANCH  80  89
ATOM     89  C   UNL A   1      32.677  20.657  25.289  1.00  0.00     0.055 C 
BRANCH  89  90
ATOM     90  C   UNL A   1      32.901  19.503  24.324  1.00  0.00    -0.044 A 
ATOM     91  C   UNL A   1      32.215  19.382  23.118  1.00  0.00     0.024 A 
ATOM     92  C   UNL A   1      33.861  18.530  24.595  1.00  0.00     0.024 A 
ATOM     93  C   UNL A   1      32.384  18.242  22.342  1.00  0.00     0.111 A 
ATOM     94  C   UNL A   1      33.979  17.426  23.759  1.00  0.00     0.111 A 
ATOM     95  N   UNL A   1      33.234  17.245  22.653  1.00  0.00    -0.265 NA
ENDBRANCH  89  90
ENDBRANCH  80  89
ENDBRANCH  78  80
ENDBRANCH  77  78
ENDBRANCH  76  77
ENDBRANCH  75  76
ENDBRANCH  74  75
ENDBRANCH  73  74
ENDBRANCH   1  73
TORSDOF 19
ENDMDL
MODEL 3
REMARK VINA RESULT:     -10.0      4.958     10.366
REMARK SMILES O=C(OCCOCCOCCOC(=O)C1(Cc2ccncc2)Cc2ccccc2C1)c1ccc(-c2c3nc(c(-c4c(F)c(F)c(F)c(F)c4F)c4ccc([nH]4)c(-c4c(F)c(F)c(F)c(F)c4F)c4nc(c(-c5c(F)c(F)c(F)c(F)c5F)c5ccc2[nH]5)C=C4)C=C3)cc1
REMARK SMILES IDX 7 1 6 2 5 3 4 4 3 5 2 6 1 7 31 8 32 9 93 10 33 11 92 12
REMARK SMILES IDX 34 13 35 14 36 15 86 16 37 17 91 18 85 19 87 20 38 21 90 22
REMARK SMILES IDX 84 23 83 24 39 26 71 27 51 28 70 29 52 30 55 31 69 32 88 33
REMARK SMILES IDX 53 34 54 35 68 37 89 38 56 39 40 40 41 41 49 42 42 43 43 44
REMARK SMILES IDX 47 45 50 46 44 47 45 48 48 49 46 50 72 51 73 52 81 53 74 54
REMARK SMILES IDX 75 55 79 56 82 57 76 58 77 59 80 60 78 61 57 62 58 63 66 64
REMARK SMILES IDX 59 65 60 66 64 67 67 68 61 69 62 70 65 71 63 72 8 73 9 74
REMARK SMILES IDX 10 75 11 76 12 77 13 78 14 79 15 80 23 81 30 82 24 83 29 84
REMARK SMILES IDX 25 85 28 86 26 87 27 88 16 89 17 90 18 91 22 92 19 93 21 94
REMARK SMILES IDX 20 95
REMARK H PARENT 87 25 55 36
REMARK Flexibility Score: inf
ROOT
ATOM      1  C   UNL A   1      42.827  23.147  27.067  1.00  0.00     0.188 C 
ENDROOT
BRANCH   1   2
ATOM      2  O   UNL A   1      42.762  22.275  25.930  1.00  0.00    -0.376 OA
BRANCH   2   3
ATOM      3  C   UNL A   1      43.291  22.860  24.734  1.00  0.00     0.202 C 
BRANCH   3   4
ATOM      4  C   UNL A   1      44.626  23.609  24.879  1.00  0.00     0.261 C 
BRANCH   4   5
ATOM      5  O   UNL A   1      44.544  25.025  24.672  1.00  0.00    -0.460 OA
BRANCH   5   6
ATOM      6  C   UNL A   1      45.413  26.006  25.007  1.00  0.00     0.338 C 
ATOM      7  O   UNL A   1      46.536  25.962  24.501  1.00  0.00    -0.246 OA
BRANCH   6   8
ATOM      8  C   UNL A   1      45.126  27.129  25.962  1.00  0.00     0.060 A 
ATOM      9  C   UNL A   1      46.044  27.793  26.783  1.00  0.00     0.016 A 
ATOM     10  C   UNL A   1      43.786  27.548  26.025  1.00  0.00     0.016 A 
ATOM     11  C   UNL A   1      45.655  28.790  27.683  1.00  0.00     0.010 A 
ATOM     12  C   UNL A   1      43.382  28.532  26.928  1.00  0.00     0.010 A 
ATOM     13  C   UNL A   1      44.315  29.130  27.791  1.00  0.00    -0.014 A 
BRANCH  13  14
ATOM     14  C   UNL A   1      43.822  29.903  28.949  1.00  0.00     0.031 A 
ATOM     15  C   UNL A   1      43.869  31.386  28.827  1.00  0.00     0.074 A 
ATOM     16  C   UNL A   1      43.408  29.322  30.087  1.00  0.00     0.049 A 
ATOM     17  N   UNL A   1      43.672  32.295  29.738  1.00  0.00    -0.248 NA
ATOM     18  C   UNL A   1      44.156  31.917  27.482  1.00  0.00     0.031 C 
ATOM     19  C   UNL A   1      43.189  27.898  30.264  1.00  0.00     0.029 A 
ATOM     20  N   UNL A   1      43.199  29.842  31.339  1.00  0.00    -0.354 N 
ATOM     21  C   UNL A   1      43.782  33.504  29.073  1.00  0.00     0.074 A 
ATOM     22  C   UNL A   1      44.141  33.219  27.702  1.00  0.00     0.031 C 
ATOM     23  C   UNL A   1      43.090  27.627  31.571  1.00  0.00     0.029 A 
ATOM     24  C   UNL A   1      43.133  28.872  32.312  1.00  0.00     0.049 A 
ATOM     25  H   UNL A   1      43.106  30.806  31.521  1.00  0.00     0.167 HD
ATOM     26  C   UNL A   1      43.560  34.739  29.570  1.00  0.00     0.037 A 
ATOM     27  C   UNL A   1      43.126  28.964  33.652  1.00  0.00     0.037 A 
ATOM     28  C   UNL A   1      43.252  34.976  30.952  1.00  0.00     0.049 A 
ATOM     29  C   UNL A   1      43.036  30.338  34.231  1.00  0.00     0.074 A 
ATOM     30  C   UNL A   1      43.015  36.174  31.595  1.00  0.00     0.029 A 
ATOM     31  N   UNL A   1      43.163  33.974  31.916  1.00  0.00    -0.354 N 
ATOM     32  N   UNL A   1      43.095  31.487  33.600  1.00  0.00    -0.248 NA
ATOM     33  C   UNL A   1      42.812  30.445  35.674  1.00  0.00     0.031 C 
ATOM     34  C   UNL A   1      42.850  35.903  32.958  1.00  0.00     0.029 A 
ATOM     35  C   UNL A   1      42.913  34.530  33.156  1.00  0.00     0.049 A 
ATOM     36  H   UNL A   1      43.265  33.011  31.738  1.00  0.00     0.167 HD
ATOM     37  C   UNL A   1      42.850  32.455  34.554  1.00  0.00     0.074 A 
ATOM     38  C   UNL A   1      42.673  31.757  35.815  1.00  0.00     0.031 C 
ATOM     39  C   UNL A   1      42.748  33.797  34.390  1.00  0.00     0.037 A 
BRANCH  26  40
ATOM     40  C   UNL A   1      43.710  35.877  28.608  1.00  0.00     0.064 A 
ATOM     41  C   UNL A   1      44.943  36.525  28.414  1.00  0.00     0.173 A 
ATOM     42  C   UNL A   1      42.588  36.396  27.949  1.00  0.00     0.173 A 
ATOM     43  F   UNL A   1      46.042  36.090  29.051  1.00  0.00    -0.203 F 
ATOM     44  C   UNL A   1      45.032  37.682  27.646  1.00  0.00     0.198 A 
ATOM     45  C   UNL A   1      42.688  37.533  27.152  1.00  0.00     0.198 A 
ATOM     46  F   UNL A   1      41.385  35.824  28.107  1.00  0.00    -0.203 F 
ATOM     47  F   UNL A   1      46.198  38.337  27.557  1.00  0.00    -0.200 F 
ATOM     48  C   UNL A   1      43.905  38.185  27.016  1.00  0.00     0.200 A 
ATOM     49  F   UNL A   1      41.598  38.018  26.543  1.00  0.00    -0.200 F 
ATOM     50  F   UNL A   1      43.986  39.313  26.296  1.00  0.00    -0.200 F 
ENDBRANCH  26  40
BRANCH  27  51
ATOM     51  C   UNL A   1      43.133  27.730  34.483  1.00  0.00     0.064 A 
ATOM     52  C   UNL A   1      44.277  27.331  35.185  1.00  0.00     0.173 A 
ATOM     53  C   UNL A   1      41.963  26.972  34.665  1.00  0.00     0.173 A 
ATOM     54  F   UNL A   1      45.417  28.025  35.053  1.00  0.00    -0.203 F 
ATOM     55  C   UNL A   1      44.258  26.218  36.026  1.00  0.00     0.198 A 
ATOM     56  C   UNL A   1      41.940  25.871  35.520  1.00  0.00     0.198 A 
ATOM     57  F   UNL A   1      40.833  27.323  34.034  1.00  0.00    -0.203 F 
ATOM     58  F   UNL A   1      45.372  25.855  36.677  1.00  0.00    -0.200 F 
ATOM     59  C   UNL A   1      43.090  25.492  36.198  1.00  0.00     0.200 A 
ATOM     60  F   UNL A   1      40.804  25.183  35.699  1.00  0.00    -0.200 F 
ATOM     61  F   UNL A   1      43.068  24.435  37.021  1.00  0.00    -0.200 F 
ENDBRANCH  27  51
BRANCH  39  62
ATOM     62  C   UNL A   1      42.384  34.595  35.601  1.00  0.00     0.064 A 
ATOM     63  C   UNL A   1      43.361  35.150  36.436  1.00  0.00     0.173 A 
ATOM     64  C   UNL A   1      41.036  34.872  35.872  1.00  0.00     0.173 A 
ATOM     65  F   UNL A   1      44.660  34.889  36.224  1.00  0.00    -0.203 F 
ATOM     66  C   UNL A   1      42.999  35.957  37.508  1.00  0.00     0.198 A 
ATOM     67  C   UNL A   1      40.681  35.706  36.924  1.00  0.00     0.198 A 
ATOM     68  F   UNL A   1      40.070  34.359  35.096  1.00  0.00    -0.203 F 
ATOM     69  F   UNL A   1      43.944  36.457  38.315  1.00  0.00    -0.200 F 
ATOM     70  C   UNL A   1      41.661  36.247  37.742  1.00  0.00     0.200 A 
ATOM     71  F   UNL A   1      39.391  35.997  37.140  1.00  0.00    -0.200 F 
ATOM     72  F   UNL A   1      41.317  37.047  38.760  1.00  0.00    -0.200 F 
ENDBRANCH  39  62
ENDBRANCH  13  14
ENDBRANCH   6   8
ENDBRANCH   5   6
ENDBRANCH   4   5
ENDBRANCH   3   4
ENDBRANCH   2   3
ENDBRANCH   1   2
BRANCH   1  73
ATOM     73  C   UNL A   1      41.734  22.921  28.112  1.00  0.00     0.188 C 
BRANCH  73  74
ATOM     74  O   UNL A   1      40.425  23.377  27.795  1.00  0.00    -0.376 OA
BRANCH  74  75
ATOM     75  C   UNL A   1      40.280  24.730  27.398  1.00  0.00     0.202 C 
BRANCH  75  76
ATOM     76  C   UNL A   1      40.876  25.817  28.293  1.00  0.00     0.261 C 
BRANCH  76  77
ATOM     77  O   UNL A   1      39.951  26.642  29.026  1.00  0.00    -0.463 OA
BRANCH  77  78
ATOM     78  C   UNL A   1      39.706  27.864  28.475  1.00  0.00     0.313 C 
ATOM     79  O   UNL A   1      40.003  28.170  27.322  1.00  0.00    -0.252 OA
BRANCH  78  80
ATOM     80  C   UNL A   1      39.165  28.880  29.463  1.00  0.00     0.080 C 
ATOM     81  C   UNL A   1      39.520  28.354  30.891  1.00  0.00     0.055 C 
ATOM     82  C   UNL A   1      39.835  30.275  29.436  1.00  0.00     0.055 C 
ATOM     83  C   UNL A   1      39.555  29.612  31.702  1.00  0.00    -0.044 A 
ATOM     84  C   UNL A   1      39.701  30.719  30.870  1.00  0.00    -0.044 A 
ATOM     85  C   UNL A   1      39.491  29.748  33.082  1.00  0.00     0.004 A 
ATOM     86  C   UNL A   1      39.743  31.987  31.422  1.00  0.00     0.004 A 
ATOM     87  C   UNL A   1      39.522  31.030  33.633  1.00  0.00     0.000 A 
ATOM     88  C   UNL A   1      39.634  32.148  32.805  1.00  0.00     0.000 A 
BRANCH  80  89
ATOM     89  C   UNL A   1      37.608  28.933  29.267  1.00  0.00     0.055 C 
BRANCH  89  90
ATOM     90  C   UNL A   1      36.928  30.290  29.371  1.00  0.00    -0.044 A 
ATOM     91  C   UNL A   1      36.876  31.194  28.312  1.00  0.00     0.024 A 
ATOM     92  C   UNL A   1      36.271  30.665  30.542  1.00  0.00     0.024 A 
ATOM     93  C   UNL A   1      36.343  32.460  28.515  1.00  0.00     0.111 A 
ATOM     94  C   UNL A   1      35.749  31.947  30.660  1.00  0.00     0.111 A 
ATOM     95  N   UNL A   1      35.801  32.867  29.678  1.00  0.00    -0.265 NA
ENDBRANCH  89  90
ENDBRANCH  80  89
ENDBRANCH  78  80
ENDBRANCH  77  78
ENDBRANCH  76  77
ENDBRANCH  75  76
ENDBRANCH  74  75
ENDBRANCH  73  74
ENDBRANCH   1  73
TORSDOF 19
ENDMDL
