MODEL 1
REMARK VINA RESULT:     -10.3      0.000      0.000
REMARK SMILES C[C@H]1CN([C@@H](C(=O)OCCOCCOCCOC(=O)c2ccc(-c3c4nc(c(-c5c(F)c(F)c(F)c(F)c5F)c5ccc([nH]5)c(-c5c(F)c(F)c(F)c(F)c5F)c5nc(c(-c6c(F)c(F)c(F)c(F)c6F)c6ccc3[nH]6)C=C5)C=C4)cc2)C(C)(C)C)S(=O)(=O)C1
REMARK SMILES IDX 13 1 12 2 11 3 10 4 9 5 8 6 6 7 7 8 5 9 4 10 1 11 2 12 3 13
REMARK SMILES IDX 90 14 87 15 88 16 89 17 83 18 84 19 85 20 86 21 14 22 15 23
REMARK SMILES IDX 16 24 17 25 18 26 19 27 20 28 21 29 82 30 22 31 81 32 23 33
REMARK SMILES IDX 24 34 25 35 75 36 26 37 80 38 74 39 76 40 27 41 79 42 73 43
REMARK SMILES IDX 72 44 28 46 60 47 40 48 59 49 41 50 44 51 58 52 77 53 42 54
REMARK SMILES IDX 43 55 57 57 78 58 45 59 29 60 30 61 38 62 31 63 32 64 36 65
REMARK SMILES IDX 39 66 33 67 34 68 37 69 35 70 61 71 62 72 70 73 63 74 64 75
REMARK SMILES IDX 68 76 71 77 65 78 66 79 69 80 67 81 46 82 47 83 55 84 48 85
REMARK SMILES IDX 49 86 53 87 56 88 50 89 51 90 54 91 52 92
REMARK H PARENT 76 45 44 56
REMARK Flexibility Score: inf
ROOT
ATOM      1  C   UNL A   1      34.549  33.849  28.025  1.00  0.00     0.188 C 
ENDROOT
BRANCH   1   2
ATOM      2  C   UNL A   1      33.849  32.530  27.668  1.00  0.00     0.188 C 
BRANCH   2   3
ATOM      3  O   UNL A   1      32.489  32.564  27.242  1.00  0.00    -0.376 OA
BRANCH   3   4
ATOM      4  C   UNL A   1      31.954  31.423  26.580  1.00  0.00     0.202 C 
BRANCH   4   5
ATOM      5  C   UNL A   1      32.740  30.126  26.755  1.00  0.00     0.261 C 
BRANCH   5   6
ATOM      6  O   UNL A   1      32.100  29.035  26.068  1.00  0.00    -0.462 OA
BRANCH   6   7
ATOM      7  C   UNL A   1      32.850  27.925  25.826  1.00  0.00     0.325 C 
ATOM      8  O   UNL A   1      33.834  27.642  26.502  1.00  0.00    -0.250 OA
BRANCH   7   9
ATOM      9  C   UNL A   1      32.390  27.114  24.561  1.00  0.00     0.188 C 
BRANCH   9  10
ATOM     10  N   UNL A   1      32.742  25.644  24.738  1.00  0.00    -0.187 NA
ATOM     11  C   UNL A   1      35.164  23.486  23.915  1.00  0.00     0.010 C 
ATOM     12  C   UNL A   1      34.363  23.868  25.161  1.00  0.00     0.017 C 
ATOM     13  C   UNL A   1      34.129  25.396  25.259  1.00  0.00     0.107 C 
ATOM     14  C   UNL A   1      32.999  23.166  25.207  1.00  0.00     0.159 C 
ATOM     15  S   UNL A   1      31.795  24.442  25.461  1.00  0.00     0.215 S 
ATOM     16  O   UNL A   1      31.716  24.707  26.878  1.00  0.00    -0.212 OA
ATOM     17  O   UNL A   1      30.642  24.145  24.653  1.00  0.00    -0.212 OA
ENDBRANCH   9  10
BRANCH   9  18
ATOM     18  C   UNL A   1      32.752  27.854  23.196  1.00  0.00    -0.011 C 
ATOM     19  C   UNL A   1      32.883  26.815  22.058  1.00  0.00     0.013 C 
ATOM     20  C   UNL A   1      31.600  28.791  22.727  1.00  0.00     0.013 C 
ATOM     21  C   UNL A   1      34.004  28.747  23.208  1.00  0.00     0.013 C 
ENDBRANCH   9  18
ENDBRANCH   7   9
ENDBRANCH   6   7
ENDBRANCH   5   6
ENDBRANCH   4   5
ENDBRANCH   3   4
ENDBRANCH   2   3
ENDBRANCH   1   2
BRANCH   1  22
ATOM     22  O   UNL A   1      33.786  34.867  28.657  1.00  0.00    -0.376 OA
BRANCH  22  23
ATOM     23  C   UNL A   1      33.356  34.619  29.988  1.00  0.00     0.202 C 
BRANCH  23  24
ATOM     24  C   UNL A   1      34.496  34.208  30.915  1.00  0.00     0.261 C 
BRANCH  24  25
ATOM     25  O   UNL A   1      34.462  32.787  31.148  1.00  0.00    -0.460 OA
BRANCH  25  26
ATOM     26  C   UNL A   1      35.308  32.336  32.102  1.00  0.00     0.338 C 
ATOM     27  O   UNL A   1      35.172  32.407  33.312  1.00  0.00    -0.246 OA
BRANCH  26  28
ATOM     28  C   UNL A   1      36.372  31.545  31.457  1.00  0.00     0.060 A 
ATOM     29  C   UNL A   1      37.291  30.905  32.290  1.00  0.00     0.016 A 
ATOM     30  C   UNL A   1      36.506  31.473  30.072  1.00  0.00     0.016 A 
ATOM     31  C   UNL A   1      38.372  30.214  31.759  1.00  0.00     0.010 A 
ATOM     32  C   UNL A   1      37.602  30.793  29.532  1.00  0.00     0.010 A 
ATOM     33  C   UNL A   1      38.554  30.186  30.375  1.00  0.00    -0.014 A 
BRANCH  33  34
ATOM     34  C   UNL A   1      39.836  29.692  29.830  1.00  0.00     0.031 A 
ATOM     35  C   UNL A   1      40.999  30.640  29.780  1.00  0.00     0.074 A 
ATOM     36  C   UNL A   1      39.980  28.412  29.448  1.00  0.00     0.049 A 
ATOM     37  N   UNL A   1      42.171  30.495  29.221  1.00  0.00    -0.248 NA
ATOM     38  C   UNL A   1      40.809  31.933  30.460  1.00  0.00     0.031 C 
ATOM     39  C   UNL A   1      38.958  27.374  29.567  1.00  0.00     0.029 A 
ATOM     40  N   UNL A   1      41.048  27.770  28.876  1.00  0.00    -0.354 N 
ATOM     41  C   UNL A   1      42.846  31.686  29.454  1.00  0.00     0.074 A 
ATOM     42  C   UNL A   1      41.951  32.548  30.195  1.00  0.00     0.031 C 
ATOM     43  C   UNL A   1      39.443  26.226  29.066  1.00  0.00     0.029 A 
ATOM     44  C   UNL A   1      40.784  26.467  28.537  1.00  0.00     0.049 A 
ATOM     45  H   UNL A   1      41.919  28.202  28.723  1.00  0.00     0.167 HD
ATOM     46  C   UNL A   1      44.101  32.026  29.077  1.00  0.00     0.037 A 
ATOM     47  C   UNL A   1      41.527  25.590  27.834  1.00  0.00     0.037 A 
ATOM     48  C   UNL A   1      44.980  31.148  28.350  1.00  0.00     0.049 A 
ATOM     49  C   UNL A   1      42.878  26.028  27.326  1.00  0.00     0.074 A 
ATOM     50  C   UNL A   1      46.263  31.390  27.895  1.00  0.00     0.029 A 
ATOM     51  N   UNL A   1      44.657  29.851  27.971  1.00  0.00    -0.354 N 
ATOM     52  N   UNL A   1      43.501  27.170  27.500  1.00  0.00    -0.248 NA
ATOM     53  C   UNL A   1      43.627  25.058  26.517  1.00  0.00     0.031 C 
ATOM     54  C   UNL A   1      46.694  30.262  27.189  1.00  0.00     0.029 A 
ATOM     55  C   UNL A   1      45.707  29.290  27.262  1.00  0.00     0.049 A 
ATOM     56  H   UNL A   1      43.808  29.397  28.175  1.00  0.00     0.167 HD
ATOM     57  C   UNL A   1      44.722  27.046  26.852  1.00  0.00     0.074 A 
ATOM     58  C   UNL A   1      44.759  25.710  26.292  1.00  0.00     0.031 C 
ATOM     59  C   UNL A   1      45.723  27.953  26.725  1.00  0.00     0.037 A 
BRANCH  46  60
ATOM     60  C   UNL A   1      44.564  33.419  29.388  1.00  0.00     0.064 A 
ATOM     61  C   UNL A   1      45.266  33.730  30.563  1.00  0.00     0.173 A 
ATOM     62  C   UNL A   1      44.302  34.463  28.488  1.00  0.00     0.173 A 
ATOM     63  F   UNL A   1      45.527  32.773  31.468  1.00  0.00    -0.203 F 
ATOM     64  C   UNL A   1      45.655  35.039  30.841  1.00  0.00     0.198 A 
ATOM     65  C   UNL A   1      44.722  35.764  28.752  1.00  0.00     0.198 A 
ATOM     66  F   UNL A   1      43.636  34.224  27.349  1.00  0.00    -0.203 F 
ATOM     67  F   UNL A   1      46.269  35.323  31.997  1.00  0.00    -0.200 F 
ATOM     68  C   UNL A   1      45.389  36.053  29.933  1.00  0.00     0.200 A 
ATOM     69  F   UNL A   1      44.475  36.739  27.867  1.00  0.00    -0.200 F 
ATOM     70  F   UNL A   1      45.767  37.311  30.199  1.00  0.00    -0.200 F 
ENDBRANCH  46  60
BRANCH  47  71
ATOM     71  C   UNL A   1      40.994  24.236  27.522  1.00  0.00     0.064 A 
ATOM     72  C   UNL A   1      41.526  23.089  28.128  1.00  0.00     0.173 A 
ATOM     73  C   UNL A   1      39.963  24.057  26.586  1.00  0.00     0.173 A 
ATOM     74  F   UNL A   1      42.532  23.201  29.008  1.00  0.00    -0.203 F 
ATOM     75  C   UNL A   1      41.062  21.817  27.794  1.00  0.00     0.198 A 
ATOM     76  C   UNL A   1      39.477  22.788  26.279  1.00  0.00     0.198 A 
ATOM     77  F   UNL A   1      39.422  25.119  25.971  1.00  0.00    -0.203 F 
ATOM     78  F   UNL A   1      41.629  20.735  28.345  1.00  0.00    -0.200 F 
ATOM     79  C   UNL A   1      40.035  21.668  26.875  1.00  0.00     0.200 A 
ATOM     80  F   UNL A   1      38.475  22.652  25.399  1.00  0.00    -0.200 F 
ATOM     81  F   UNL A   1      39.590  20.445  26.555  1.00  0.00    -0.200 F 
ENDBRANCH  47  71
BRANCH  59  82
ATOM     82  C   UNL A   1      46.961  27.514  25.995  1.00  0.00     0.064 A 
ATOM     83  C   UNL A   1      47.079  27.628  24.602  1.00  0.00     0.173 A 
ATOM     84  C   UNL A   1      48.060  27.010  26.707  1.00  0.00     0.173 A 
ATOM     85  F   UNL A   1      46.052  28.091  23.873  1.00  0.00    -0.203 F 
ATOM     86  C   UNL A   1      48.240  27.225  23.947  1.00  0.00     0.198 A 
ATOM     87  C   UNL A   1      49.232  26.643  26.053  1.00  0.00     0.198 A 
ATOM     88  F   UNL A   1      48.004  26.889  28.043  1.00  0.00    -0.203 F 
ATOM     89  F   UNL A   1      48.310  27.291  22.610  1.00  0.00    -0.200 F 
ATOM     90  C   UNL A   1      49.318  26.742  24.673  1.00  0.00     0.200 A 
ATOM     91  F   UNL A   1      50.280  26.195  26.760  1.00  0.00    -0.200 F 
ATOM     92  F   UNL A   1      50.438  26.364  24.042  1.00  0.00    -0.200 F 
ENDBRANCH  59  82
ENDBRANCH  33  34
ENDBRANCH  26  28
ENDBRANCH  25  26
ENDBRANCH  24  25
ENDBRANCH  23  24
ENDBRANCH  22  23
ENDBRANCH   1  22
TORSDOF 19
ENDMDL
MODEL 2
REMARK VINA RESULT:     -10.3      4.449      8.801
REMARK SMILES C[C@H]1CN([C@@H](C(=O)OCCOCCOCCOC(=O)c2ccc(-c3c4nc(c(-c5c(F)c(F)c(F)c(F)c5F)c5ccc([nH]5)c(-c5c(F)c(F)c(F)c(F)c5F)c5nc(c(-c6c(F)c(F)c(F)c(F)c6F)c6ccc3[nH]6)C=C5)C=C4)cc2)C(C)(C)C)S(=O)(=O)C1
REMARK SMILES IDX 13 1 12 2 11 3 10 4 9 5 8 6 6 7 7 8 5 9 4 10 1 11 2 12 3 13
REMARK SMILES IDX 90 14 87 15 88 16 89 17 83 18 84 19 85 20 86 21 14 22 15 23
REMARK SMILES IDX 16 24 17 25 18 26 19 27 20 28 21 29 82 30 22 31 81 32 23 33
REMARK SMILES IDX 24 34 25 35 75 36 26 37 80 38 74 39 76 40 27 41 79 42 73 43
REMARK SMILES IDX 72 44 28 46 60 47 40 48 59 49 41 50 44 51 58 52 77 53 42 54
REMARK SMILES IDX 43 55 57 57 78 58 45 59 29 60 30 61 38 62 31 63 32 64 36 65
REMARK SMILES IDX 39 66 33 67 34 68 37 69 35 70 61 71 62 72 70 73 63 74 64 75
REMARK SMILES IDX 68 76 71 77 65 78 66 79 69 80 67 81 46 82 47 83 55 84 48 85
REMARK SMILES IDX 49 86 53 87 56 88 50 89 51 90 54 91 52 92
REMARK H PARENT 76 45 44 56
REMARK Flexibility Score: inf
ROOT
ATOM      1  C   UNL A   1      33.071  29.055  26.596  1.00  0.00     0.188 C 
ENDROOT
BRANCH   1   2
ATOM      2  C   UNL A   1      31.914  28.104  26.256  1.00  0.00     0.188 C 
BRANCH   2   3
ATOM      3  O   UNL A   1      31.586  27.879  24.888  1.00  0.00    -0.376 OA
BRANCH   3   4
ATOM      4  C   UNL A   1      32.407  28.469  23.885  1.00  0.00     0.202 C 
BRANCH   4   5
ATOM      5  C   UNL A   1      33.257  27.498  23.069  1.00  0.00     0.261 C 
BRANCH   5   6
ATOM      6  O   UNL A   1      33.851  26.493  23.911  1.00  0.00    -0.462 OA
BRANCH   6   7
ATOM      7  C   UNL A   1      33.807  25.205  23.473  1.00  0.00     0.325 C 
ATOM      8  O   UNL A   1      34.182  24.886  22.350  1.00  0.00    -0.250 OA
BRANCH   7   9
ATOM      9  C   UNL A   1      33.151  24.209  24.497  1.00  0.00     0.188 C 
BRANCH   9  10
ATOM     10  N   UNL A   1      34.191  23.205  24.974  1.00  0.00    -0.187 NA
ATOM     11  C   UNL A   1      37.176  22.000  24.059  1.00  0.00     0.010 C 
ATOM     12  C   UNL A   1      36.511  22.534  25.329  1.00  0.00     0.017 C 
ATOM     13  C   UNL A   1      35.591  23.746  25.040  1.00  0.00     0.107 C 
ATOM     14  C   UNL A   1      35.683  21.457  26.042  1.00  0.00     0.159 C 
ATOM     15  S   UNL A   1      34.075  22.158  26.298  1.00  0.00     0.215 S 
ATOM     16  O   UNL A   1      34.116  22.941  27.510  1.00  0.00    -0.212 OA
ATOM     17  O   UNL A   1      33.090  21.137  26.057  1.00  0.00    -0.212 OA
ENDBRANCH   9  10
BRANCH   9  18
ATOM     18  C   UNL A   1      31.719  23.698  24.020  1.00  0.00    -0.011 C 
ATOM     19  C   UNL A   1      31.877  22.396  23.200  1.00  0.00     0.013 C 
ATOM     20  C   UNL A   1      30.825  23.283  25.226  1.00  0.00     0.013 C 
ATOM     21  C   UNL A   1      30.862  24.694  23.222  1.00  0.00     0.013 C 
ENDBRANCH   9  18
ENDBRANCH   7   9
ENDBRANCH   6   7
ENDBRANCH   5   6
ENDBRANCH   4   5
ENDBRANCH   3   4
ENDBRANCH   2   3
ENDBRANCH   1   2
BRANCH   1  22
ATOM     22  O   UNL A   1      32.916  30.436  26.303  1.00  0.00    -0.376 OA
BRANCH  22  23
ATOM     23  C   UNL A   1      31.607  30.978  26.418  1.00  0.00     0.202 C 
BRANCH  23  24
ATOM     24  C   UNL A   1      31.578  32.311  27.158  1.00  0.00     0.261 C 
BRANCH  24  25
ATOM     25  O   UNL A   1      32.811  33.025  26.950  1.00  0.00    -0.460 OA
BRANCH  25  26
ATOM     26  C   UNL A   1      33.259  33.732  28.013  1.00  0.00     0.338 C 
ATOM     27  O   UNL A   1      32.667  34.601  28.631  1.00  0.00    -0.246 OA
BRANCH  26  28
ATOM     28  C   UNL A   1      34.539  33.155  28.461  1.00  0.00     0.060 A 
ATOM     29  C   UNL A   1      34.495  31.918  29.105  1.00  0.00     0.016 A 
ATOM     30  C   UNL A   1      35.749  33.828  28.308  1.00  0.00     0.016 A 
ATOM     31  C   UNL A   1      35.645  31.349  29.634  1.00  0.00     0.010 A 
ATOM     32  C   UNL A   1      36.909  33.269  28.854  1.00  0.00     0.010 A 
ATOM     33  C   UNL A   1      36.855  32.041  29.544  1.00  0.00    -0.014 A 
BRANCH  33  34
ATOM     34  C   UNL A   1      38.011  31.572  30.336  1.00  0.00     0.031 A 
ATOM     35  C   UNL A   1      38.908  30.529  29.734  1.00  0.00     0.074 A 
ATOM     36  C   UNL A   1      38.292  32.106  31.536  1.00  0.00     0.049 A 
ATOM     37  N   UNL A   1      39.889  29.858  30.277  1.00  0.00    -0.248 NA
ATOM     38  C   UNL A   1      38.663  30.204  28.319  1.00  0.00     0.031 C 
ATOM     39  C   UNL A   1      37.564  33.207  32.163  1.00  0.00     0.029 A 
ATOM     40  N   UNL A   1      39.269  31.787  32.445  1.00  0.00    -0.354 N 
ATOM     41  C   UNL A   1      40.357  29.009  29.282  1.00  0.00     0.074 A 
ATOM     42  C   UNL A   1      39.547  29.241  28.106  1.00  0.00     0.031 C 
ATOM     43  C   UNL A   1      38.109  33.462  33.364  1.00  0.00     0.029 A 
ATOM     44  C   UNL A   1      39.182  32.501  33.613  1.00  0.00     0.049 A 
ATOM     45  H   UNL A   1      39.964  31.110  32.275  1.00  0.00     0.167 HD
ATOM     46  C   UNL A   1      41.371  28.115  29.351  1.00  0.00     0.037 A 
ATOM     47  C   UNL A   1      39.862  32.355  34.767  1.00  0.00     0.037 A 
ATOM     48  C   UNL A   1      42.172  27.908  30.528  1.00  0.00     0.049 A 
ATOM     49  C   UNL A   1      40.912  31.276  34.858  1.00  0.00     0.074 A 
ATOM     50  C   UNL A   1      43.211  27.017  30.723  1.00  0.00     0.029 A 
ATOM     51  N   UNL A   1      42.019  28.611  31.717  1.00  0.00    -0.354 N 
ATOM     52  N   UNL A   1      41.323  30.437  33.937  1.00  0.00    -0.248 NA
ATOM     53  C   UNL A   1      41.586  31.118  36.153  1.00  0.00     0.031 C 
ATOM     54  C   UNL A   1      43.645  27.137  32.047  1.00  0.00     0.029 A 
ATOM     55  C   UNL A   1      42.924  28.152  32.659  1.00  0.00     0.049 A 
ATOM     56  H   UNL A   1      41.362  29.329  31.868  1.00  0.00     0.167 HD
ATOM     57  C   UNL A   1      42.322  29.675  34.528  1.00  0.00     0.074 A 
ATOM     58  C   UNL A   1      42.465  30.162  35.885  1.00  0.00     0.031 C 
ATOM     59  C   UNL A   1      43.054  28.662  34.001  1.00  0.00     0.037 A 
BRANCH  46  60
ATOM     60  C   UNL A   1      41.621  27.257  28.145  1.00  0.00     0.064 A 
ATOM     61  C   UNL A   1      40.981  26.022  27.960  1.00  0.00     0.173 A 
ATOM     62  C   UNL A   1      42.517  27.684  27.153  1.00  0.00     0.173 A 
ATOM     63  F   UNL A   1      40.129  25.556  28.886  1.00  0.00    -0.203 F 
ATOM     64  C   UNL A   1      41.258  25.232  26.846  1.00  0.00     0.198 A 
ATOM     65  C   UNL A   1      42.765  26.908  26.024  1.00  0.00     0.198 A 
ATOM     66  F   UNL A   1      43.156  28.857  27.278  1.00  0.00    -0.203 F 
ATOM     67  F   UNL A   1      40.682  24.028  26.721  1.00  0.00    -0.200 F 
ATOM     68  C   UNL A   1      42.143  25.678  25.876  1.00  0.00     0.200 A 
ATOM     69  F   UNL A   1      43.612  27.348  25.083  1.00  0.00    -0.200 F 
ATOM     70  F   UNL A   1      42.406  24.918  24.804  1.00  0.00    -0.200 F 
ENDBRANCH  46  60
BRANCH  47  71
ATOM     71  C   UNL A   1      39.539  33.210  35.941  1.00  0.00     0.064 A 
ATOM     72  C   UNL A   1      40.174  34.445  36.137  1.00  0.00     0.173 A 
ATOM     73  C   UNL A   1      38.611  32.796  36.910  1.00  0.00     0.173 A 
ATOM     74  F   UNL A   1      41.090  34.875  35.257  1.00  0.00    -0.203 F 
ATOM     75  C   UNL A   1      39.910  35.219  37.266  1.00  0.00     0.198 A 
ATOM     76  C   UNL A   1      38.323  33.587  38.020  1.00  0.00     0.198 A 
ATOM     77  F   UNL A   1      37.980  31.620  36.777  1.00  0.00    -0.203 F 
ATOM     78  F   UNL A   1      40.574  36.367  37.457  1.00  0.00    -0.200 F 
ATOM     79  C   UNL A   1      38.981  34.793  38.203  1.00  0.00     0.200 A 
ATOM     80  F   UNL A   1      37.415  33.175  38.916  1.00  0.00    -0.200 F 
ATOM     81  F   UNL A   1      38.729  35.539  39.287  1.00  0.00    -0.200 F 
ENDBRANCH  47  71
BRANCH  59  82
ATOM     82  C   UNL A   1      44.108  28.045  34.877  1.00  0.00     0.064 A 
ATOM     83  C   UNL A   1      43.851  26.906  35.654  1.00  0.00     0.173 A 
ATOM     84  C   UNL A   1      45.405  28.581  34.906  1.00  0.00     0.173 A 
ATOM     85  F   UNL A   1      42.624  26.363  35.673  1.00  0.00    -0.203 F 
ATOM     86  C   UNL A   1      44.846  26.346  36.451  1.00  0.00     0.198 A 
ATOM     87  C   UNL A   1      46.405  27.996  35.675  1.00  0.00     0.198 A 
ATOM     88  F   UNL A   1      45.706  29.665  34.174  1.00  0.00    -0.203 F 
ATOM     89  F   UNL A   1      44.563  25.291  37.228  1.00  0.00    -0.200 F 
ATOM     90  C   UNL A   1      46.124  26.885  36.454  1.00  0.00     0.200 A 
ATOM     91  F   UNL A   1      47.645  28.508  35.661  1.00  0.00    -0.200 F 
ATOM     92  F   UNL A   1      47.082  26.337  37.214  1.00  0.00    -0.200 F 
ENDBRANCH  59  82
ENDBRANCH  33  34
ENDBRANCH  26  28
ENDBRANCH  25  26
ENDBRANCH  24  25
ENDBRANCH  23  24
ENDBRANCH  22  23
ENDBRANCH   1  22
TORSDOF 19
ENDMDL
MODEL 3
REMARK VINA RESULT:     -10.2      4.456      8.765
REMARK SMILES C[C@H]1CN([C@@H](C(=O)OCCOCCOCCOC(=O)c2ccc(-c3c4nc(c(-c5c(F)c(F)c(F)c(F)c5F)c5ccc([nH]5)c(-c5c(F)c(F)c(F)c(F)c5F)c5nc(c(-c6c(F)c(F)c(F)c(F)c6F)c6ccc3[nH]6)C=C5)C=C4)cc2)C(C)(C)C)S(=O)(=O)C1
REMARK SMILES IDX 13 1 12 2 11 3 10 4 9 5 8 6 6 7 7 8 5 9 4 10 1 11 2 12 3 13
REMARK SMILES IDX 90 14 87 15 88 16 89 17 83 18 84 19 85 20 86 21 14 22 15 23
REMARK SMILES IDX 16 24 17 25 18 26 19 27 20 28 21 29 82 30 22 31 81 32 23 33
REMARK SMILES IDX 24 34 25 35 75 36 26 37 80 38 74 39 76 40 27 41 79 42 73 43
REMARK SMILES IDX 72 44 28 46 60 47 40 48 59 49 41 50 44 51 58 52 77 53 42 54
REMARK SMILES IDX 43 55 57 57 78 58 45 59 29 60 30 61 38 62 31 63 32 64 36 65
REMARK SMILES IDX 39 66 33 67 34 68 37 69 35 70 61 71 62 72 70 73 63 74 64 75
REMARK SMILES IDX 68 76 71 77 65 78 66 79 69 80 67 81 46 82 47 83 55 84 48 85
REMARK SMILES IDX 49 86 53 87 56 88 50 89 51 90 54 91 52 92
REMARK H PARENT 76 45 44 56
REMARK Flexibility Score: inf
ROOT
ATOM      1  C   UNL A   1      33.532  28.257  25.768  1.00  0.00     0.188 C 
ENDROOT
BRANCH   1   2
ATOM      2  C   UNL A   1      32.379  27.297  25.443  1.00  0.00     0.188 C 
BRANCH   2   3
ATOM      3  O   UNL A   1      32.119  26.967  24.080  1.00  0.00    -0.376 OA
BRANCH   3   4
ATOM      4  C   UNL A   1      33.158  27.155  23.125  1.00  0.00     0.202 C 
BRANCH   4   5
ATOM      5  C   UNL A   1      33.488  25.941  22.259  1.00  0.00     0.261 C 
BRANCH   5   6
ATOM      6  O   UNL A   1      34.230  24.958  23.004  1.00  0.00    -0.462 OA
BRANCH   6   7
ATOM      7  C   UNL A   1      33.949  23.649  22.762  1.00  0.00     0.325 C 
ATOM      8  O   UNL A   1      33.373  23.284  21.742  1.00  0.00    -0.250 OA
BRANCH   7   9
ATOM      9  C   UNL A   1      34.345  22.688  23.940  1.00  0.00     0.188 C 
BRANCH   9  10
ATOM     10  N   UNL A   1      33.345  22.833  25.079  1.00  0.00    -0.187 NA
ATOM     11  C   UNL A   1      30.482  24.422  25.768  1.00  0.00     0.010 C 
ATOM     12  C   UNL A   1      31.056  23.010  25.906  1.00  0.00     0.017 C 
ATOM     13  C   UNL A   1      31.915  22.608  24.682  1.00  0.00     0.107 C 
ATOM     14  C   UNL A   1      31.912  22.857  27.169  1.00  0.00     0.159 C 
ATOM     15  S   UNL A   1      33.462  22.182  26.637  1.00  0.00     0.215 S 
ATOM     16  O   UNL A   1      33.320  20.749  26.549  1.00  0.00    -0.212 OA
ATOM     17  O   UNL A   1      34.516  22.822  27.380  1.00  0.00    -0.212 OA
ENDBRANCH   9  10
BRANCH   9  18
ATOM     18  C   UNL A   1      35.908  22.715  24.252  1.00  0.00    -0.011 C 
ATOM     19  C   UNL A   1      36.347  21.353  24.838  1.00  0.00     0.013 C 
ATOM     20  C   UNL A   1      36.752  22.861  22.952  1.00  0.00     0.013 C 
ATOM     21  C   UNL A   1      36.407  23.842  25.172  1.00  0.00     0.013 C 
ENDBRANCH   9  18
ENDBRANCH   7   9
ENDBRANCH   6   7
ENDBRANCH   5   6
ENDBRANCH   4   5
ENDBRANCH   3   4
ENDBRANCH   2   3
ENDBRANCH   1   2
BRANCH   1  22
ATOM     22  O   UNL A   1      33.359  29.638  25.485  1.00  0.00    -0.376 OA
BRANCH  22  23
ATOM     23  C   UNL A   1      32.109  30.218  25.835  1.00  0.00     0.202 C 
BRANCH  23  24
ATOM     24  C   UNL A   1      32.212  31.192  27.004  1.00  0.00     0.261 C 
BRANCH  24  25
ATOM     25  O   UNL A   1      33.072  32.294  26.661  1.00  0.00    -0.460 OA
BRANCH  25  26
ATOM     26  C   UNL A   1      33.498  33.045  27.703  1.00  0.00     0.338 C 
ATOM     27  O   UNL A   1      32.885  33.923  28.287  1.00  0.00    -0.246 OA
BRANCH  26  28
ATOM     28  C   UNL A   1      34.784  32.507  28.181  1.00  0.00     0.060 A 
ATOM     29  C   UNL A   1      34.782  31.219  28.719  1.00  0.00     0.016 A 
ATOM     30  C   UNL A   1      35.957  33.259  28.158  1.00  0.00     0.016 A 
ATOM     31  C   UNL A   1      35.934  30.675  29.269  1.00  0.00     0.010 A 
ATOM     32  C   UNL A   1      37.117  32.724  28.727  1.00  0.00     0.010 A 
ATOM     33  C   UNL A   1      37.101  31.441  29.309  1.00  0.00    -0.014 A 
BRANCH  33  34
ATOM     34  C   UNL A   1      38.238  30.974  30.131  1.00  0.00     0.031 A 
ATOM     35  C   UNL A   1      39.205  30.003  29.518  1.00  0.00     0.074 A 
ATOM     36  C   UNL A   1      38.441  31.452  31.370  1.00  0.00     0.049 A 
ATOM     37  N   UNL A   1      40.186  29.341  30.071  1.00  0.00    -0.248 NA
ATOM     38  C   UNL A   1      39.038  29.746  28.077  1.00  0.00     0.031 C 
ATOM     39  C   UNL A   1      37.639  32.487  32.019  1.00  0.00     0.029 A 
ATOM     40  N   UNL A   1      39.387  31.121  32.306  1.00  0.00    -0.354 N 
ATOM     41  C   UNL A   1      40.734  28.567  29.056  1.00  0.00     0.074 A 
ATOM     42  C   UNL A   1      39.971  28.833  27.856  1.00  0.00     0.031 C 
ATOM     43  C   UNL A   1      38.117  32.696  33.257  1.00  0.00     0.029 A 
ATOM     44  C   UNL A   1      39.217  31.766  33.505  1.00  0.00     0.049 A 
ATOM     45  H   UNL A   1      40.117  30.483  32.135  1.00  0.00     0.167 HD
ATOM     46  C   UNL A   1      41.781  27.711  29.126  1.00  0.00     0.037 A 
ATOM     47  C   UNL A   1      39.848  31.583  34.681  1.00  0.00     0.037 A 
ATOM     48  C   UNL A   1      42.535  27.471  30.328  1.00  0.00     0.049 A 
ATOM     49  C   UNL A   1      40.937  30.542  34.765  1.00  0.00     0.074 A 
ATOM     50  C   UNL A   1      43.599  26.611  30.524  1.00  0.00     0.029 A 
ATOM     51  N   UNL A   1      42.297  28.100  31.543  1.00  0.00    -0.354 N 
ATOM     52  N   UNL A   1      41.424  29.772  33.822  1.00  0.00    -0.248 NA
ATOM     53  C   UNL A   1      41.557  30.339  36.081  1.00  0.00     0.031 C 
ATOM     54  C   UNL A   1      43.967  26.675  31.873  1.00  0.00     0.029 A 
ATOM     55  C   UNL A   1      43.177  27.625  32.502  1.00  0.00     0.049 A 
ATOM     56  H   UNL A   1      41.605  28.782  31.701  1.00  0.00     0.167 HD
ATOM     57  C   UNL A   1      42.425  29.018  34.419  1.00  0.00     0.074 A 
ATOM     58  C   UNL A   1      42.486  29.434  35.805  1.00  0.00     0.031 C 
ATOM     59  C   UNL A   1      43.223  28.065  33.874  1.00  0.00     0.037 A 
BRANCH  46  60
ATOM     60  C   UNL A   1      42.121  26.932  27.889  1.00  0.00     0.064 A 
ATOM     61  C   UNL A   1      41.517  25.701  27.591  1.00  0.00     0.173 A 
ATOM     62  C   UNL A   1      43.071  27.430  26.984  1.00  0.00     0.173 A 
ATOM     63  F   UNL A   1      40.617  25.168  28.431  1.00  0.00    -0.203 F 
ATOM     64  C   UNL A   1      41.877  24.984  26.451  1.00  0.00     0.198 A 
ATOM     65  C   UNL A   1      43.403  26.728  25.829  1.00  0.00     0.198 A 
ATOM     66  F   UNL A   1      43.679  28.602  27.219  1.00  0.00    -0.203 F 
ATOM     67  F   UNL A   1      41.332  23.782  26.218  1.00  0.00    -0.200 F 
ATOM     68  C   UNL A   1      42.814  25.501  25.569  1.00  0.00     0.200 A 
ATOM     69  F   UNL A   1      44.300  27.236  24.972  1.00  0.00    -0.200 F 
ATOM     70  F   UNL A   1      43.157  24.811  24.472  1.00  0.00    -0.200 F 
ENDBRANCH  46  60
BRANCH  47  71
ATOM     71  C   UNL A   1      39.436  32.358  35.883  1.00  0.00     0.064 A 
ATOM     72  C   UNL A   1      40.051  33.576  36.207  1.00  0.00     0.173 A 
ATOM     73  C   UNL A   1      38.440  31.882  36.750  1.00  0.00     0.173 A 
ATOM     74  F   UNL A   1      41.028  34.062  35.428  1.00  0.00    -0.203 F 
ATOM     75  C   UNL A   1      39.701  34.274  37.363  1.00  0.00     0.198 A 
ATOM     76  C   UNL A   1      38.068  32.598  37.886  1.00  0.00     0.198 A 
ATOM     77  F   UNL A   1      37.824  30.719  36.492  1.00  0.00    -0.203 F 
ATOM     78  F   UNL A   1      40.346  35.405  37.679  1.00  0.00    -0.200 F 
ATOM     79  C   UNL A   1      38.706  33.788  38.197  1.00  0.00     0.200 A 
ATOM     80  F   UNL A   1      37.097  32.130  38.682  1.00  0.00    -0.200 F 
ATOM     81  F   UNL A   1      38.372  34.460  39.307  1.00  0.00    -0.200 F 
ENDBRANCH  47  71
BRANCH  59  82
ATOM     82  C   UNL A   1      44.260  27.443  34.766  1.00  0.00     0.064 A 
ATOM     83  C   UNL A   1      45.528  28.017  34.941  1.00  0.00     0.173 A 
ATOM     84  C   UNL A   1      43.963  26.277  35.489  1.00  0.00     0.173 A 
ATOM     85  F   UNL A   1      45.867  29.124  34.263  1.00  0.00    -0.203 F 
ATOM     86  C   UNL A   1      46.469  27.429  35.781  1.00  0.00     0.198 A 
ATOM     87  C   UNL A   1      44.893  25.713  36.355  1.00  0.00     0.198 A 
ATOM     88  F   UNL A   1      42.761  25.692  35.366  1.00  0.00    -0.203 F 
ATOM     89  F   UNL A   1      47.694  27.963  35.889  1.00  0.00    -0.200 F 
ATOM     90  C   UNL A   1      46.149  26.284  36.494  1.00  0.00     0.200 A 
ATOM     91  F   UNL A   1      44.574  24.617  37.058  1.00  0.00    -0.200 F 
ATOM     92  F   UNL A   1      47.054  25.725  37.310  1.00  0.00    -0.200 F 
ENDBRANCH  59  82
ENDBRANCH  33  34
ENDBRANCH  26  28
ENDBRANCH  25  26
ENDBRANCH  24  25
ENDBRANCH  23  24
ENDBRANCH  22  23
ENDBRANCH   1  22
TORSDOF 19
ENDMDL
