MODEL 1
REMARK VINA RESULT:     -10.3      0.000      0.000
REMARK SMILES Cc1cc(CNc2ccc(C(=O)OCCOCCOCCOC(=O)c3ccc(-c4c5nc(c(-c6c(F)c(F)c(F)c(F)c6F)c6ccc([nH]6)c(-c6c(F)c(F)c(F)c(F)c6F)c6nc(c(-c7c(F)c(F)c(F)c(F)c7F)c7ccc4[nH]7)C=C6)C=C5)cc3)c(F)c2F)sc1C
REMARK SMILES IDX 17 1 16 2 15 3 14 4 13 5 11 6 12 7 10 8 7 9 8 10 90 11 9 12
REMARK SMILES IDX 88 13 91 14 89 15 6 16 5 18 4 19 1 20 2 21 3 22 93 23 92 24
REMARK SMILES IDX 94 25 18 26 19 27 20 28 21 29 22 30 23 31 24 32 25 33 26 34
REMARK SMILES IDX 87 35 27 36 86 37 28 38 29 39 30 40 80 41 31 42 85 43 79 44
REMARK SMILES IDX 81 45 32 46 84 47 78 48 77 49 33 51 65 52 45 53 64 54 46 55
REMARK SMILES IDX 49 56 63 57 82 58 47 59 48 60 62 62 83 63 50 64 34 65 35 66
REMARK SMILES IDX 43 67 36 68 37 69 41 70 44 71 38 72 39 73 42 74 40 75 66 76
REMARK SMILES IDX 67 77 75 78 68 79 69 80 73 81 76 82 70 83 71 84 74 85 72 86
REMARK SMILES IDX 51 87 52 88 60 89 53 90 54 91 58 92 61 93 55 94 56 95 59 96
REMARK SMILES IDX 57 97
REMARK H PARENT 6 17 81 50 49 61
REMARK Flexibility Score: inf
ROOT
ATOM      1  C   UNL A   1      33.312  27.465  26.199  1.00  0.00     0.188 C 
ENDROOT
BRANCH   1   2
ATOM      2  O   UNL A   1      32.123  28.185  26.467  1.00  0.00    -0.376 OA
BRANCH   2   3
ATOM      3  C   UNL A   1      31.923  29.459  25.875  1.00  0.00     0.202 C 
BRANCH   3   4
ATOM      4  C   UNL A   1      31.096  29.591  24.594  1.00  0.00     0.261 C 
BRANCH   4   5
ATOM      5  O   UNL A   1      31.639  28.855  23.489  1.00  0.00    -0.460 OA
BRANCH   5   6
ATOM      6  C   UNL A   1      30.739  28.166  22.752  1.00  0.00     0.341 C 
ATOM      7  O   UNL A   1      29.923  28.622  21.965  1.00  0.00    -0.246 OA
BRANCH   6   8
ATOM      8  C   UNL A   1      30.999  26.723  22.846  1.00  0.00     0.099 A 
ATOM      9  C   UNL A   1      31.465  23.963  23.167  1.00  0.00     0.074 A 
ATOM     10  C   UNL A   1      30.366  24.570  23.778  1.00  0.00     0.030 A 
ATOM     11  C   UNL A   1      32.301  24.771  22.369  1.00  0.00     0.182 A 
ATOM     12  C   UNL A   1      30.141  25.944  23.635  1.00  0.00     0.021 A 
ATOM     13  C   UNL A   1      32.071  26.132  22.197  1.00  0.00     0.175 A 
ATOM     14  F   UNL A   1      33.350  24.202  21.749  1.00  0.00    -0.201 F 
ATOM     15  F   UNL A   1      32.903  26.852  21.431  1.00  0.00    -0.203 F 
BRANCH   9  16
ATOM     16  N   UNL A   1      31.759  22.623  23.299  1.00  0.00    -0.378 N 
ATOM     17  H   UNL A   1      31.965  22.131  22.471  1.00  0.00     0.161 HD
BRANCH  16  18
ATOM     18  C   UNL A   1      31.793  21.861  24.537  1.00  0.00     0.160 C 
BRANCH  18  19
ATOM     19  C   UNL A   1      32.919  20.865  24.508  1.00  0.00     0.024 A 
ATOM     20  C   UNL A   1      36.535  19.976  24.998  1.00  0.00     0.045 C 
ATOM     21  C   UNL A   1      35.065  19.945  24.739  1.00  0.00    -0.037 A 
ATOM     22  C   UNL A   1      34.260  21.127  24.702  1.00  0.00     0.021 A 
ATOM     23  C   UNL A   1      34.291  18.815  24.526  1.00  0.00     0.005 A 
ATOM     24  S   UNL A   1      32.638  19.198  24.290  1.00  0.00    -0.144 S 
ATOM     25  C   UNL A   1      34.731  17.387  24.501  1.00  0.00     0.056 C 
ENDBRANCH  18  19
ENDBRANCH  16  18
ENDBRANCH   9  16
ENDBRANCH   6   8
ENDBRANCH   5   6
ENDBRANCH   4   5
ENDBRANCH   3   4
ENDBRANCH   2   3
ENDBRANCH   1   2
BRANCH   1  26
ATOM     26  C   UNL A   1      33.265  26.022  25.652  1.00  0.00     0.188 C 
BRANCH  26  27
ATOM     27  O   UNL A   1      34.115  25.018  26.155  1.00  0.00    -0.376 OA
BRANCH  27  28
ATOM     28  C   UNL A   1      35.204  24.514  25.402  1.00  0.00     0.202 C 
BRANCH  28  29
ATOM     29  C   UNL A   1      36.361  23.701  25.996  1.00  0.00     0.261 C 
BRANCH  29  30
ATOM     30  O   UNL A   1      37.655  23.928  25.435  1.00  0.00    -0.460 OA
BRANCH  30  31
ATOM     31  C   UNL A   1      38.683  23.441  26.170  1.00  0.00     0.338 C 
ATOM     32  O   UNL A   1      39.128  22.307  26.179  1.00  0.00    -0.246 OA
BRANCH  31  33
ATOM     33  C   UNL A   1      39.326  24.553  26.885  1.00  0.00     0.060 A 
ATOM     34  C   UNL A   1      39.041  24.725  28.245  1.00  0.00     0.016 A 
ATOM     35  C   UNL A   1      40.155  25.448  26.206  1.00  0.00     0.016 A 
ATOM     36  C   UNL A   1      39.570  25.815  28.931  1.00  0.00     0.010 A 
ATOM     37  C   UNL A   1      40.667  26.551  26.890  1.00  0.00     0.010 A 
ATOM     38  C   UNL A   1      40.356  26.752  28.247  1.00  0.00    -0.014 A 
BRANCH  38  39
ATOM     39  C   UNL A   1      40.723  28.027  28.902  1.00  0.00     0.031 A 
ATOM     40  C   UNL A   1      42.131  28.207  29.390  1.00  0.00     0.074 A 
ATOM     41  C   UNL A   1      39.817  29.005  29.063  1.00  0.00     0.049 A 
ATOM     42  N   UNL A   1      42.659  29.201  30.055  1.00  0.00    -0.248 NA
ATOM     43  C   UNL A   1      43.072  27.116  29.086  1.00  0.00     0.031 C 
ATOM     44  C   UNL A   1      38.434  28.959  28.596  1.00  0.00     0.029 A 
ATOM     45  N   UNL A   1      39.929  30.226  29.679  1.00  0.00    -0.354 N 
ATOM     46  C   UNL A   1      43.987  28.855  30.257  1.00  0.00     0.074 A 
ATOM     47  C   UNL A   1      44.182  27.549  29.665  1.00  0.00     0.031 C 
ATOM     48  C   UNL A   1      37.818  30.097  28.957  1.00  0.00     0.029 A 
ATOM     49  C   UNL A   1      38.754  30.934  29.709  1.00  0.00     0.049 A 
ATOM     50  H   UNL A   1      40.771  30.563  30.063  1.00  0.00     0.167 HD
ATOM     51  C   UNL A   1      44.957  29.567  30.877  1.00  0.00     0.037 A 
ATOM     52  C   UNL A   1      38.461  32.108  30.299  1.00  0.00     0.037 A 
ATOM     53  C   UNL A   1      44.756  30.864  31.466  1.00  0.00     0.049 A 
ATOM     54  C   UNL A   1      39.538  32.851  31.048  1.00  0.00     0.074 A 
ATOM     55  C   UNL A   1      45.683  31.676  32.094  1.00  0.00     0.029 A 
ATOM     56  N   UNL A   1      43.542  31.534  31.508  1.00  0.00    -0.354 N 
ATOM     57  N   UNL A   1      40.797  32.528  31.220  1.00  0.00    -0.248 NA
ATOM     58  C   UNL A   1      39.152  34.117  31.688  1.00  0.00     0.031 C 
ATOM     59  C   UNL A   1      45.019  32.812  32.565  1.00  0.00     0.029 A 
ATOM     60  C   UNL A   1      43.691  32.736  32.180  1.00  0.00     0.049 A 
ATOM     61  H   UNL A   1      42.700  31.204  31.118  1.00  0.00     0.167 HD
ATOM     62  C   UNL A   1      41.358  33.556  31.967  1.00  0.00     0.074 A 
ATOM     63  C   UNL A   1      40.304  34.520  32.207  1.00  0.00     0.031 C 
ATOM     64  C   UNL A   1      42.631  33.687  32.414  1.00  0.00     0.037 A 
BRANCH  51  65
ATOM     65  C   UNL A   1      46.319  28.948  30.973  1.00  0.00     0.064 A 
ATOM     66  C   UNL A   1      46.641  28.110  32.052  1.00  0.00     0.173 A 
ATOM     67  C   UNL A   1      47.320  29.219  30.029  1.00  0.00     0.173 A 
ATOM     68  F   UNL A   1      45.720  27.821  32.983  1.00  0.00    -0.203 F 
ATOM     69  C   UNL A   1      47.919  27.577  32.187  1.00  0.00     0.198 A 
ATOM     70  C   UNL A   1      48.589  28.660  30.152  1.00  0.00     0.198 A 
ATOM     71  F   UNL A   1      47.057  30.001  28.971  1.00  0.00    -0.203 F 
ATOM     72  F   UNL A   1      48.212  26.801  33.240  1.00  0.00    -0.200 F 
ATOM     73  C   UNL A   1      48.891  27.847  31.235  1.00  0.00     0.200 A 
ATOM     74  F   UNL A   1      49.519  28.902  29.218  1.00  0.00    -0.200 F 
ATOM     75  F   UNL A   1      50.117  27.321  31.358  1.00  0.00    -0.200 F 
ENDBRANCH  51  65
BRANCH  52  76
ATOM     76  C   UNL A   1      37.081  32.649  30.203  1.00  0.00     0.064 A 
ATOM     77  C   UNL A   1      36.673  33.408  29.097  1.00  0.00     0.173 A 
ATOM     78  C   UNL A   1      36.154  32.444  31.233  1.00  0.00     0.173 A 
ATOM     79  F   UNL A   1      37.523  33.629  28.084  1.00  0.00    -0.203 F 
ATOM     80  C   UNL A   1      35.398  33.967  29.039  1.00  0.00     0.198 A 
ATOM     81  C   UNL A   1      34.870  32.981  31.162  1.00  0.00     0.198 A 
ATOM     82  F   UNL A   1      36.490  31.701  32.299  1.00  0.00    -0.203 F 
ATOM     83  F   UNL A   1      35.045  34.719  27.987  1.00  0.00    -0.200 F 
ATOM     84  C   UNL A   1      34.497  33.751  30.070  1.00  0.00     0.200 A 
ATOM     85  F   UNL A   1      33.994  32.749  32.149  1.00  0.00    -0.200 F 
ATOM     86  F   UNL A   1      33.268  34.282  30.012  1.00  0.00    -0.200 F 
ENDBRANCH  52  76
BRANCH  64  87
ATOM     87  C   UNL A   1      42.978  34.921  33.196  1.00  0.00     0.064 A 
ATOM     88  C   UNL A   1      42.815  34.950  34.591  1.00  0.00     0.173 A 
ATOM     89  C   UNL A   1      43.385  36.103  32.559  1.00  0.00     0.173 A 
ATOM     90  F   UNL A   1      42.419  33.849  35.247  1.00  0.00    -0.203 F 
ATOM     91  C   UNL A   1      43.026  36.120  35.313  1.00  0.00     0.198 A 
ATOM     92  C   UNL A   1      43.624  37.264  33.289  1.00  0.00     0.198 A 
ATOM     93  F   UNL A   1      43.566  36.124  31.230  1.00  0.00    -0.203 F 
ATOM     94  F   UNL A   1      42.824  36.134  36.639  1.00  0.00    -0.200 F 
ATOM     95  C   UNL A   1      43.433  37.275  34.664  1.00  0.00     0.200 A 
ATOM     96  F   UNL A   1      44.038  38.374  32.663  1.00  0.00    -0.200 F 
ATOM     97  F   UNL A   1      43.642  38.400  35.361  1.00  0.00    -0.200 F 
ENDBRANCH  64  87
ENDBRANCH  38  39
ENDBRANCH  31  33
ENDBRANCH  30  31
ENDBRANCH  29  30
ENDBRANCH  28  29
ENDBRANCH  27  28
ENDBRANCH  26  27
ENDBRANCH   1  26
TORSDOF 20
ENDMDL
MODEL 2
REMARK VINA RESULT:     -10.1      3.510      8.880
REMARK SMILES Cc1cc(CNc2ccc(C(=O)OCCOCCOCCOC(=O)c3ccc(-c4c5nc(c(-c6c(F)c(F)c(F)c(F)c6F)c6ccc([nH]6)c(-c6c(F)c(F)c(F)c(F)c6F)c6nc(c(-c7c(F)c(F)c(F)c(F)c7F)c7ccc4[nH]7)C=C6)C=C5)cc3)c(F)c2F)sc1C
REMARK SMILES IDX 17 1 16 2 15 3 14 4 13 5 11 6 12 7 10 8 7 9 8 10 90 11 9 12
REMARK SMILES IDX 88 13 91 14 89 15 6 16 5 18 4 19 1 20 2 21 3 22 93 23 92 24
REMARK SMILES IDX 94 25 18 26 19 27 20 28 21 29 22 30 23 31 24 32 25 33 26 34
REMARK SMILES IDX 87 35 27 36 86 37 28 38 29 39 30 40 80 41 31 42 85 43 79 44
REMARK SMILES IDX 81 45 32 46 84 47 78 48 77 49 33 51 65 52 45 53 64 54 46 55
REMARK SMILES IDX 49 56 63 57 82 58 47 59 48 60 62 62 83 63 50 64 34 65 35 66
REMARK SMILES IDX 43 67 36 68 37 69 41 70 44 71 38 72 39 73 42 74 40 75 66 76
REMARK SMILES IDX 67 77 75 78 68 79 69 80 73 81 76 82 70 83 71 84 74 85 72 86
REMARK SMILES IDX 51 87 52 88 60 89 53 90 54 91 58 92 61 93 55 94 56 95 59 96
REMARK SMILES IDX 57 97
REMARK H PARENT 6 17 81 50 49 61
REMARK Flexibility Score: inf
ROOT
ATOM      1  C   UNL A   1      42.687  19.719  26.131  1.00  0.00     0.188 C 
ENDROOT
BRANCH   1   2
ATOM      2  O   UNL A   1      41.641  20.483  25.558  1.00  0.00    -0.376 OA
BRANCH   2   3
ATOM      3  C   UNL A   1      40.353  20.472  26.154  1.00  0.00     0.202 C 
BRANCH   3   4
ATOM      4  C   UNL A   1      39.640  21.789  26.468  1.00  0.00     0.261 C 
BRANCH   4   5
ATOM      5  O   UNL A   1      38.444  21.985  25.700  1.00  0.00    -0.460 OA
BRANCH   5   6
ATOM      6  C   UNL A   1      37.825  23.173  25.882  1.00  0.00     0.341 C 
ATOM      7  O   UNL A   1      38.345  24.241  26.173  1.00  0.00    -0.246 OA
BRANCH   6   8
ATOM      8  C   UNL A   1      36.418  23.085  25.471  1.00  0.00     0.099 A 
ATOM      9  C   UNL A   1      33.699  22.814  24.783  1.00  0.00     0.074 A 
ATOM     10  C   UNL A   1      34.090  22.837  26.124  1.00  0.00     0.030 A 
ATOM     11  C   UNL A   1      34.703  22.963  23.804  1.00  0.00     0.182 A 
ATOM     12  C   UNL A   1      35.442  22.954  26.468  1.00  0.00     0.021 A 
ATOM     13  C   UNL A   1      36.046  23.107  24.137  1.00  0.00     0.175 A 
ATOM     14  F   UNL A   1      34.346  22.971  22.508  1.00  0.00    -0.201 F 
ATOM     15  F   UNL A   1      36.958  23.239  23.163  1.00  0.00    -0.203 F 
BRANCH   9  16
ATOM     16  N   UNL A   1      32.389  22.668  24.381  1.00  0.00    -0.378 N 
ATOM     17  H   UNL A   1      32.230  22.108  23.586  1.00  0.00     0.161 HD
BRANCH  16  18
ATOM     18  C   UNL A   1      31.218  23.255  25.011  1.00  0.00     0.160 C 
BRANCH  18  19
ATOM     19  C   UNL A   1      31.176  24.738  24.758  1.00  0.00     0.024 A 
ATOM     20  C   UNL A   1      30.009  27.702  22.770  1.00  0.00     0.045 C 
ATOM     21  C   UNL A   1      30.622  26.802  23.791  1.00  0.00    -0.037 A 
ATOM     22  C   UNL A   1      30.608  25.376  23.675  1.00  0.00     0.021 A 
ATOM     23  C   UNL A   1      31.248  27.195  24.964  1.00  0.00     0.005 A 
ATOM     24  S   UNL A   1      31.797  25.857  25.883  1.00  0.00    -0.144 S 
ATOM     25  C   UNL A   1      31.461  28.582  25.476  1.00  0.00     0.056 C 
ENDBRANCH  18  19
ENDBRANCH  16  18
ENDBRANCH   9  16
ENDBRANCH   6   8
ENDBRANCH   5   6
ENDBRANCH   4   5
ENDBRANCH   3   4
ENDBRANCH   2   3
ENDBRANCH   1   2
BRANCH   1  26
ATOM     26  C   UNL A   1      44.054  19.584  25.427  1.00  0.00     0.188 C 
BRANCH  26  27
ATOM     27  O   UNL A   1      44.587  20.632  24.652  1.00  0.00    -0.376 OA
BRANCH  27  28
ATOM     28  C   UNL A   1      45.514  21.561  25.186  1.00  0.00     0.202 C 
BRANCH  28  29
ATOM     29  C   UNL A   1      45.183  22.570  26.293  1.00  0.00     0.261 C 
BRANCH  29  30
ATOM     30  O   UNL A   1      44.917  23.910  25.875  1.00  0.00    -0.460 OA
BRANCH  30  31
ATOM     31  C   UNL A   1      43.635  24.140  25.499  1.00  0.00     0.338 C 
ATOM     32  O   UNL A   1      43.010  23.607  24.600  1.00  0.00    -0.246 OA
BRANCH  31  33
ATOM     33  C   UNL A   1      43.015  25.061  26.463  1.00  0.00     0.060 A 
ATOM     34  C   UNL A   1      43.673  26.262  26.757  1.00  0.00     0.016 A 
ATOM     35  C   UNL A   1      41.828  24.715  27.111  1.00  0.00     0.016 A 
ATOM     36  C   UNL A   1      43.153  27.117  27.724  1.00  0.00     0.010 A 
ATOM     37  C   UNL A   1      41.320  25.564  28.095  1.00  0.00     0.010 A 
ATOM     38  C   UNL A   1      41.995  26.754  28.423  1.00  0.00    -0.014 A 
BRANCH  38  39
ATOM     39  C   UNL A   1      41.571  27.535  29.606  1.00  0.00     0.031 A 
ATOM     40  C   UNL A   1      40.350  28.402  29.499  1.00  0.00     0.074 A 
ATOM     41  C   UNL A   1      42.262  27.474  30.756  1.00  0.00     0.049 A 
ATOM     42  N   UNL A   1      39.837  29.226  30.374  1.00  0.00    -0.248 NA
ATOM     43  C   UNL A   1      39.609  28.330  28.229  1.00  0.00     0.031 C 
ATOM     44  C   UNL A   1      43.437  26.639  30.991  1.00  0.00     0.029 A 
ATOM     45  N   UNL A   1      42.078  28.144  31.940  1.00  0.00    -0.354 N 
ATOM     46  C   UNL A   1      38.721  29.777  29.761  1.00  0.00     0.074 A 
ATOM     47  C   UNL A   1      38.642  29.213  28.432  1.00  0.00     0.031 C 
ATOM     48  C   UNL A   1      43.881  26.857  32.240  1.00  0.00     0.029 A 
ATOM     49  C   UNL A   1      43.041  27.872  32.878  1.00  0.00     0.049 A 
ATOM     50  H   UNL A   1      41.327  28.760  32.101  1.00  0.00     0.167 HD
ATOM     51  C   UNL A   1      37.838  30.670  30.268  1.00  0.00     0.037 A 
ATOM     52  C   UNL A   1      43.238  28.403  34.100  1.00  0.00     0.037 A 
ATOM     53  C   UNL A   1      37.923  31.229  31.590  1.00  0.00     0.049 A 
ATOM     54  C   UNL A   1      42.286  29.451  34.616  1.00  0.00     0.074 A 
ATOM     55  C   UNL A   1      37.063  32.122  32.204  1.00  0.00     0.029 A 
ATOM     56  N   UNL A   1      38.934  30.957  32.500  1.00  0.00    -0.354 N 
ATOM     57  N   UNL A   1      41.220  29.954  34.041  1.00  0.00    -0.248 NA
ATOM     58  C   UNL A   1      42.565  30.007  35.949  1.00  0.00     0.031 C 
ATOM     59  C   UNL A   1      37.582  32.433  33.463  1.00  0.00     0.029 A 
ATOM     60  C   UNL A   1      38.735  31.690  33.659  1.00  0.00     0.049 A 
ATOM     61  H   UNL A   1      39.682  30.336  32.345  1.00  0.00     0.167 HD
ATOM     62  C   UNL A   1      40.692  30.868  34.944  1.00  0.00     0.074 A 
ATOM     63  C   UNL A   1      41.548  30.841  36.112  1.00  0.00     0.031 C 
ATOM     64  C   UNL A   1      39.597  31.656  34.815  1.00  0.00     0.037 A 
BRANCH  51  65
ATOM     65  C   UNL A   1      36.716  31.118  29.380  1.00  0.00     0.064 A 
ATOM     66  C   UNL A   1      35.705  30.217  29.007  1.00  0.00     0.173 A 
ATOM     67  C   UNL A   1      36.663  32.418  28.858  1.00  0.00     0.173 A 
ATOM     68  F   UNL A   1      35.711  28.962  29.478  1.00  0.00    -0.203 F 
ATOM     69  C   UNL A   1      34.691  30.602  28.136  1.00  0.00     0.198 A 
ATOM     70  C   UNL A   1      35.631  32.807  28.009  1.00  0.00     0.198 A 
ATOM     71  F   UNL A   1      37.597  33.320  29.196  1.00  0.00    -0.203 F 
ATOM     72  F   UNL A   1      33.752  29.717  27.773  1.00  0.00    -0.200 F 
ATOM     73  C   UNL A   1      34.651  31.897  27.641  1.00  0.00     0.200 A 
ATOM     74  F   UNL A   1      35.579  34.065  27.553  1.00  0.00    -0.200 F 
ATOM     75  F   UNL A   1      33.665  32.269  26.814  1.00  0.00    -0.200 F 
ENDBRANCH  51  65
BRANCH  52  76
ATOM     76  C   UNL A   1      44.393  27.947  34.915  1.00  0.00     0.064 A 
ATOM     77  C   UNL A   1      45.660  28.530  34.771  1.00  0.00     0.173 A 
ATOM     78  C   UNL A   1      44.258  26.895  35.829  1.00  0.00     0.173 A 
ATOM     79  F   UNL A   1      45.839  29.544  33.911  1.00  0.00    -0.203 F 
ATOM     80  C   UNL A   1      46.756  28.059  35.491  1.00  0.00     0.198 A 
ATOM     81  C   UNL A   1      45.349  26.440  36.568  1.00  0.00     0.198 A 
ATOM     82  F   UNL A   1      43.060  26.323  36.021  1.00  0.00    -0.203 F 
ATOM     83  F   UNL A   1      47.964  28.610  35.309  1.00  0.00    -0.200 F 
ATOM     84  C   UNL A   1      46.599  27.016  36.391  1.00  0.00     0.200 A 
ATOM     85  F   UNL A   1      45.188  25.448  37.455  1.00  0.00    -0.200 F 
ATOM     86  F   UNL A   1      47.650  26.565  37.089  1.00  0.00    -0.200 F 
ENDBRANCH  52  76
BRANCH  64  87
ATOM     87  C   UNL A   1      39.236  32.551  35.966  1.00  0.00     0.064 A 
ATOM     88  C   UNL A   1      39.789  33.838  36.068  1.00  0.00     0.173 A 
ATOM     89  C   UNL A   1      38.416  32.105  37.013  1.00  0.00     0.173 A 
ATOM     90  F   UNL A   1      40.587  34.309  35.098  1.00  0.00    -0.203 F 
ATOM     91  C   UNL A   1      39.551  34.635  37.183  1.00  0.00     0.198 A 
ATOM     92  C   UNL A   1      38.156  32.916  38.114  1.00  0.00     0.198 A 
ATOM     93  F   UNL A   1      37.855  30.888  36.958  1.00  0.00    -0.203 F 
ATOM     94  F   UNL A   1      40.123  35.843  37.278  1.00  0.00    -0.200 F 
ATOM     95  C   UNL A   1      38.733  34.175  38.204  1.00  0.00     0.200 A 
ATOM     96  F   UNL A   1      37.349  32.480  39.091  1.00  0.00    -0.200 F 
ATOM     97  F   UNL A   1      38.500  34.945  39.276  1.00  0.00    -0.200 F 
ENDBRANCH  64  87
ENDBRANCH  38  39
ENDBRANCH  31  33
ENDBRANCH  30  31
ENDBRANCH  29  30
ENDBRANCH  28  29
ENDBRANCH  27  28
ENDBRANCH  26  27
ENDBRANCH   1  26
TORSDOF 20
ENDMDL
MODEL 3
REMARK VINA RESULT:      -9.8      1.357      2.273
REMARK SMILES Cc1cc(CNc2ccc(C(=O)OCCOCCOCCOC(=O)c3ccc(-c4c5nc(c(-c6c(F)c(F)c(F)c(F)c6F)c6ccc([nH]6)c(-c6c(F)c(F)c(F)c(F)c6F)c6nc(c(-c7c(F)c(F)c(F)c(F)c7F)c7ccc4[nH]7)C=C6)C=C5)cc3)c(F)c2F)sc1C
REMARK SMILES IDX 17 1 16 2 15 3 14 4 13 5 11 6 12 7 10 8 7 9 8 10 90 11 9 12
REMARK SMILES IDX 88 13 91 14 89 15 6 16 5 18 4 19 1 20 2 21 3 22 93 23 92 24
REMARK SMILES IDX 94 25 18 26 19 27 20 28 21 29 22 30 23 31 24 32 25 33 26 34
REMARK SMILES IDX 87 35 27 36 86 37 28 38 29 39 30 40 80 41 31 42 85 43 79 44
REMARK SMILES IDX 81 45 32 46 84 47 78 48 77 49 33 51 65 52 45 53 64 54 46 55
REMARK SMILES IDX 49 56 63 57 82 58 47 59 48 60 62 62 83 63 50 64 34 65 35 66
REMARK SMILES IDX 43 67 36 68 37 69 41 70 44 71 38 72 39 73 42 74 40 75 66 76
REMARK SMILES IDX 67 77 75 78 68 79 69 80 73 81 76 82 70 83 71 84 74 85 72 86
REMARK SMILES IDX 51 87 52 88 60 89 53 90 54 91 58 92 61 93 55 94 56 95 59 96
REMARK SMILES IDX 57 97
REMARK H PARENT 6 17 81 50 49 61
REMARK Flexibility Score: inf
ROOT
ATOM      1  C   UNL A   1      35.162  24.671  25.599  1.00  0.00     0.188 C 
ENDROOT
BRANCH   1   2
ATOM      2  O   UNL A   1      34.215  25.103  24.640  1.00  0.00    -0.376 OA
BRANCH   2   3
ATOM      3  C   UNL A   1      33.907  26.484  24.525  1.00  0.00     0.202 C 
BRANCH   3   4
ATOM      4  C   UNL A   1      32.571  27.019  25.046  1.00  0.00     0.261 C 
BRANCH   4   5
ATOM      5  O   UNL A   1      31.508  26.920  24.087  1.00  0.00    -0.460 OA
BRANCH   5   6
ATOM      6  C   UNL A   1      30.487  26.105  24.435  1.00  0.00     0.341 C 
ATOM      7  O   UNL A   1      29.307  26.405  24.547  1.00  0.00    -0.246 OA
BRANCH   6   8
ATOM      8  C   UNL A   1      30.935  24.707  24.462  1.00  0.00     0.099 A 
ATOM      9  C   UNL A   1      31.700  21.996  24.408  1.00  0.00     0.074 A 
ATOM     10  C   UNL A   1      31.490  22.695  23.217  1.00  0.00     0.030 A 
ATOM     11  C   UNL A   1      31.547  22.701  25.619  1.00  0.00     0.182 A 
ATOM     12  C   UNL A   1      31.093  24.036  23.241  1.00  0.00     0.021 A 
ATOM     13  C   UNL A   1      31.179  24.043  25.653  1.00  0.00     0.175 A 
ATOM     14  F   UNL A   1      31.771  22.056  26.777  1.00  0.00    -0.201 F 
ATOM     15  F   UNL A   1      31.043  24.662  26.834  1.00  0.00    -0.203 F 
BRANCH   9  16
ATOM     16  N   UNL A   1      32.059  20.665  24.450  1.00  0.00    -0.378 N 
ATOM     17  H   UNL A   1      31.490  20.071  24.991  1.00  0.00     0.161 HD
BRANCH  16  18
ATOM     18  C   UNL A   1      33.192  20.051  23.777  1.00  0.00     0.160 C 
BRANCH  18  19
ATOM     19  C   UNL A   1      33.479  18.697  24.364  1.00  0.00     0.024 A 
ATOM     20  C   UNL A   1      32.329  15.380  25.698  1.00  0.00     0.045 C 
ATOM     21  C   UNL A   1      33.138  16.538  25.215  1.00  0.00    -0.037 A 
ATOM     22  C   UNL A   1      32.556  17.787  24.837  1.00  0.00     0.021 A 
ATOM     23  C   UNL A   1      34.515  16.565  25.048  1.00  0.00     0.005 A 
ATOM     24  S   UNL A   1      35.063  18.074  24.450  1.00  0.00    -0.144 S 
ATOM     25  C   UNL A   1      35.498  15.470  25.309  1.00  0.00     0.056 C 
ENDBRANCH  18  19
ENDBRANCH  16  18
ENDBRANCH   9  16
ENDBRANCH   6   8
ENDBRANCH   5   6
ENDBRANCH   4   5
ENDBRANCH   3   4
ENDBRANCH   2   3
ENDBRANCH   1   2
BRANCH   1  26
ATOM     26  C   UNL A   1      35.021  23.303  26.300  1.00  0.00     0.188 C 
BRANCH  26  27
ATOM     27  O   UNL A   1      35.322  22.101  25.631  1.00  0.00    -0.376 OA
BRANCH  27  28
ATOM     28  C   UNL A   1      36.396  22.006  24.711  1.00  0.00     0.202 C 
BRANCH  28  29
ATOM     29  C   UNL A   1      37.872  21.911  25.116  1.00  0.00     0.261 C 
BRANCH  29  30
ATOM     30  O   UNL A   1      38.248  22.588  26.316  1.00  0.00    -0.460 OA
BRANCH  30  31
ATOM     31  C   UNL A   1      39.560  22.921  26.389  1.00  0.00     0.338 C 
ATOM     32  O   UNL A   1      40.516  22.304  25.956  1.00  0.00    -0.246 OA
BRANCH  31  33
ATOM     33  C   UNL A   1      39.676  24.272  26.957  1.00  0.00     0.060 A 
ATOM     34  C   UNL A   1      40.384  25.241  26.234  1.00  0.00     0.016 A 
ATOM     35  C   UNL A   1      39.142  24.561  28.214  1.00  0.00     0.016 A 
ATOM     36  C   UNL A   1      40.580  26.506  26.781  1.00  0.00     0.010 A 
ATOM     37  C   UNL A   1      39.358  25.823  28.769  1.00  0.00     0.010 A 
ATOM     38  C   UNL A   1      40.100  26.791  28.066  1.00  0.00    -0.014 A 
BRANCH  38  39
ATOM     39  C   UNL A   1      40.505  28.041  28.746  1.00  0.00     0.031 A 
ATOM     40  C   UNL A   1      41.923  28.176  29.221  1.00  0.00     0.074 A 
ATOM     41  C   UNL A   1      39.625  29.037  28.939  1.00  0.00     0.049 A 
ATOM     42  N   UNL A   1      42.482  29.142  29.903  1.00  0.00    -0.248 NA
ATOM     43  C   UNL A   1      42.833  27.070  28.882  1.00  0.00     0.031 C 
ATOM     44  C   UNL A   1      38.237  29.035  28.487  1.00  0.00     0.029 A 
ATOM     45  N   UNL A   1      39.774  30.240  29.581  1.00  0.00    -0.354 N 
ATOM     46  C   UNL A   1      43.803  28.758  30.081  1.00  0.00     0.074 A 
ATOM     47  C   UNL A   1      43.960  27.462  29.458  1.00  0.00     0.031 C 
ATOM     48  C   UNL A   1      37.652  30.179  28.880  1.00  0.00     0.029 A 
ATOM     49  C   UNL A   1      38.616  30.975  29.640  1.00  0.00     0.049 A 
ATOM     50  H   UNL A   1      40.628  30.548  29.963  1.00  0.00     0.167 HD
ATOM     51  C   UNL A   1      44.797  29.433  30.707  1.00  0.00     0.037 A 
ATOM     52  C   UNL A   1      38.359  32.142  30.261  1.00  0.00     0.037 A 
ATOM     53  C   UNL A   1      44.634  30.720  31.327  1.00  0.00     0.049 A 
ATOM     54  C   UNL A   1      39.461  32.841  31.014  1.00  0.00     0.074 A 
ATOM     55  C   UNL A   1      45.587  31.495  31.963  1.00  0.00     0.029 A 
ATOM     56  N   UNL A   1      43.437  31.418  31.398  1.00  0.00    -0.354 N 
ATOM     57  N   UNL A   1      40.714  32.485  31.165  1.00  0.00    -0.248 NA
ATOM     58  C   UNL A   1      39.114  34.102  31.687  1.00  0.00     0.031 C 
ATOM     59  C   UNL A   1      44.956  32.635  32.468  1.00  0.00     0.029 A 
ATOM     60  C   UNL A   1      43.622  32.600  32.096  1.00  0.00     0.049 A 
ATOM     61  H   UNL A   1      42.584  31.117  31.011  1.00  0.00     0.167 HD
ATOM     62  C   UNL A   1      41.308  33.481  31.929  1.00  0.00     0.074 A 
ATOM     63  C   UNL A   1      40.281  34.464  32.202  1.00  0.00     0.031 C 
ATOM     64  C   UNL A   1      42.589  33.571  32.364  1.00  0.00     0.037 A 
BRANCH  51  65
ATOM     65  C   UNL A   1      46.144  28.779  30.773  1.00  0.00     0.064 A 
ATOM     66  C   UNL A   1      47.083  28.987  29.750  1.00  0.00     0.173 A 
ATOM     67  C   UNL A   1      46.492  27.911  31.818  1.00  0.00     0.173 A 
ATOM     68  F   UNL A   1      46.799  29.806  28.728  1.00  0.00    -0.203 F 
ATOM     69  C   UNL A   1      48.315  28.340  29.768  1.00  0.00     0.198 A 
ATOM     70  C   UNL A   1      47.737  27.288  31.846  1.00  0.00     0.198 A 
ATOM     71  F   UNL A   1      45.636  27.692  32.828  1.00  0.00    -0.203 F 
ATOM     72  F   UNL A   1      49.185  28.533  28.767  1.00  0.00    -0.200 F 
ATOM     73  C   UNL A   1      48.644  27.496  30.818  1.00  0.00     0.200 A 
ATOM     74  F   UNL A   1      48.063  26.493  32.874  1.00  0.00    -0.200 F 
ATOM     75  F   UNL A   1      49.836  26.886  30.840  1.00  0.00    -0.200 F 
ENDBRANCH  51  65
BRANCH  52  76
ATOM     76  C   UNL A   1      36.991  32.718  30.193  1.00  0.00     0.064 A 
ATOM     77  C   UNL A   1      36.609  33.562  29.140  1.00  0.00     0.173 A 
ATOM     78  C   UNL A   1      36.052  32.461  31.199  1.00  0.00     0.173 A 
ATOM     79  F   UNL A   1      37.473  33.835  28.151  1.00  0.00    -0.203 F 
ATOM     80  C   UNL A   1      35.347  34.151  29.111  1.00  0.00     0.198 A 
ATOM     81  C   UNL A   1      34.780  33.030  31.157  1.00  0.00     0.198 A 
ATOM     82  F   UNL A   1      36.362  31.639  32.212  1.00  0.00    -0.203 F 
ATOM     83  F   UNL A   1      35.019  34.982  28.113  1.00  0.00    -0.200 F 
ATOM     84  C   UNL A   1      34.433  33.883  30.118  1.00  0.00     0.200 A 
ATOM     85  F   UNL A   1      33.891  32.749  32.118  1.00  0.00    -0.200 F 
ATOM     86  F   UNL A   1      33.215  34.443  30.089  1.00  0.00    -0.200 F 
ENDBRANCH  52  76
BRANCH  64  87
ATOM     87  C   UNL A   1      42.975  34.778  33.170  1.00  0.00     0.064 A 
ATOM     88  C   UNL A   1      42.866  34.764  34.570  1.00  0.00     0.173 A 
ATOM     89  C   UNL A   1      43.363  35.977  32.554  1.00  0.00     0.173 A 
ATOM     90  F   UNL A   1      42.489  33.645  35.207  1.00  0.00    -0.203 F 
ATOM     91  C   UNL A   1      43.113  35.909  35.320  1.00  0.00     0.198 A 
ATOM     92  C   UNL A   1      43.639  37.113  33.310  1.00  0.00     0.198 A 
ATOM     93  F   UNL A   1      43.493  36.039  31.220  1.00  0.00    -0.203 F 
ATOM     94  F   UNL A   1      42.963  35.883  36.652  1.00  0.00    -0.200 F 
ATOM     95  C   UNL A   1      43.502  37.082  34.691  1.00  0.00     0.200 A 
ATOM     96  F   UNL A   1      44.035  38.241  32.703  1.00  0.00    -0.200 F 
ATOM     97  F   UNL A   1      43.745  38.183  35.414  1.00  0.00    -0.200 F 
ENDBRANCH  64  87
ENDBRANCH  38  39
ENDBRANCH  31  33
ENDBRANCH  30  31
ENDBRANCH  29  30
ENDBRANCH  28  29
ENDBRANCH  27  28
ENDBRANCH  26  27
ENDBRANCH   1  26
TORSDOF 20
ENDMDL
