MODEL 1
REMARK VINA RESULT:     -11.0      0.000      0.000
REMARK SMILES Cc1cc(NC(=O)[C@@H]2[C@@H](C(=O)OCCOCCOCCOC(=O)c3ccc(-c4c5nc(c(-c6c(F)c(F)c(F)c(F)c6F)c6ccc([nH]6)c(-c6c(F)c(F)c(F)c(F)c6F)c6nc(c(-c7c(F)c(F)c(F)c(F)c7F)c7ccc4[nH]7)C=C6)C=C5)cc3)C2(C)C)on1
REMARK SMILES IDX 16 1 15 2 14 3 13 4 12 5 10 6 11 7 9 8 8 9 87 10 88 11 89 12
REMARK SMILES IDX 6 13 5 14 7 16 4 17 1 18 2 19 3 20 91 21 90 22 17 23 18 24
REMARK SMILES IDX 19 25 20 26 21 27 22 28 23 29 24 30 25 31 86 32 26 33 85 34
REMARK SMILES IDX 27 35 28 36 29 37 79 38 30 39 84 40 78 41 80 42 31 43 83 44
REMARK SMILES IDX 77 45 76 46 32 48 64 49 44 50 63 51 45 52 48 53 62 54 81 55
REMARK SMILES IDX 46 56 47 57 61 59 82 60 49 61 33 62 34 63 42 64 35 65 36 66
REMARK SMILES IDX 40 67 43 68 37 69 38 70 41 71 39 72 65 73 66 74 74 75 67 76
REMARK SMILES IDX 68 77 72 78 75 79 69 80 70 81 73 82 71 83 50 84 51 85 59 86
REMARK SMILES IDX 52 87 53 88 57 89 60 90 54 91 55 92 58 93 56 94
REMARK H PARENT 5 15 80 47 48 58
REMARK Flexibility Score: inf
ROOT
ATOM      1  C   UNL A   1      34.277  28.574  26.783  1.00  0.00     0.188 C 
ENDROOT
BRANCH   1   2
ATOM      2  O   UNL A   1      34.034  27.339  26.112  1.00  0.00    -0.376 OA
BRANCH   2   3
ATOM      3  C   UNL A   1      32.898  26.561  26.486  1.00  0.00     0.202 C 
BRANCH   3   4
ATOM      4  C   UNL A   1      32.714  25.237  25.742  1.00  0.00     0.261 C 
BRANCH   4   5
ATOM      5  O   UNL A   1      31.330  24.855  25.722  1.00  0.00    -0.463 OA
BRANCH   5   6
ATOM      6  C   UNL A   1      30.648  25.189  24.602  1.00  0.00     0.310 C 
ATOM      7  O   UNL A   1      30.280  24.417  23.729  1.00  0.00    -0.252 OA
BRANCH   6   8
ATOM      8  C   UNL A   1      30.222  26.613  24.592  1.00  0.00     0.118 C 
ATOM      9  C   UNL A   1      29.375  27.035  23.426  1.00  0.00     0.100 C 
ATOM     10  C   UNL A   1      30.701  27.734  23.653  1.00  0.00    -0.009 C 
ATOM     11  C   UNL A   1      31.776  27.463  22.618  1.00  0.00     0.013 C 
ATOM     12  C   UNL A   1      30.795  29.144  24.186  1.00  0.00     0.013 C 
BRANCH   9  13
ATOM     13  C   UNL A   1      27.946  27.418  23.551  1.00  0.00     0.231 C 
ATOM     14  N   UNL A   1      27.281  28.473  22.993  1.00  0.00    -0.294 N 
ATOM     15  H   UNL A   1      26.319  28.309  22.873  1.00  0.00     0.173 HD
ATOM     16  O   UNL A   1      27.223  26.600  24.130  1.00  0.00    -0.274 OA
BRANCH  14  17
ATOM     17  C   UNL A   1      27.678  29.703  22.567  1.00  0.00     0.231 A 
ATOM     18  C   UNL A   1      28.356  33.288  22.530  1.00  0.00     0.070 C 
ATOM     19  C   UNL A   1      28.204  31.829  22.338  1.00  0.00     0.083 A 
ATOM     20  C   UNL A   1      27.781  30.870  23.283  1.00  0.00     0.096 A 
ATOM     21  N   UNL A   1      28.436  31.263  21.146  1.00  0.00    -0.083 NA
ATOM     22  O   UNL A   1      28.126  29.920  21.310  1.00  0.00    -0.338 OA
ENDBRANCH  14  17
ENDBRANCH   9  13
ENDBRANCH   6   8
ENDBRANCH   5   6
ENDBRANCH   4   5
ENDBRANCH   3   4
ENDBRANCH   2   3
ENDBRANCH   1   2
BRANCH   1  23
ATOM     23  C   UNL A   1      33.487  29.823  26.352  1.00  0.00     0.188 C 
BRANCH  23  24
ATOM     24  O   UNL A   1      33.209  30.712  27.420  1.00  0.00    -0.376 OA
BRANCH  24  25
ATOM     25  C   UNL A   1      32.200  31.679  27.179  1.00  0.00     0.202 C 
BRANCH  25  26
ATOM     26  C   UNL A   1      32.702  33.124  27.269  1.00  0.00     0.261 C 
BRANCH  26  27
ATOM     27  O   UNL A   1      32.257  33.849  28.430  1.00  0.00    -0.460 OA
BRANCH  27  28
ATOM     28  C   UNL A   1      32.987  34.921  28.814  1.00  0.00     0.338 C 
ATOM     29  O   UNL A   1      32.662  36.092  28.771  1.00  0.00    -0.246 OA
BRANCH  28  30
ATOM     30  C   UNL A   1      34.197  34.400  29.482  1.00  0.00     0.060 A 
ATOM     31  C   UNL A   1      35.450  34.581  28.881  1.00  0.00     0.016 A 
ATOM     32  C   UNL A   1      34.093  33.776  30.728  1.00  0.00     0.016 A 
ATOM     33  C   UNL A   1      36.606  34.140  29.533  1.00  0.00     0.010 A 
ATOM     34  C   UNL A   1      35.244  33.318  31.366  1.00  0.00     0.010 A 
ATOM     35  C   UNL A   1      36.506  33.487  30.769  1.00  0.00    -0.014 A 
BRANCH  35  36
ATOM     36  C   UNL A   1      37.691  32.874  31.413  1.00  0.00     0.031 A 
ATOM     37  C   UNL A   1      38.335  31.686  30.765  1.00  0.00     0.074 A 
ATOM     38  C   UNL A   1      38.150  33.332  32.591  1.00  0.00     0.049 A 
ATOM     39  N   UNL A   1      39.294  30.913  31.208  1.00  0.00    -0.248 NA
ATOM     40  C   UNL A   1      37.824  31.313  29.437  1.00  0.00     0.031 C 
ATOM     41  C   UNL A   1      37.638  34.501  33.301  1.00  0.00     0.029 A 
ATOM     42  N   UNL A   1      39.141  32.846  33.408  1.00  0.00    -0.354 N 
ATOM     43  C   UNL A   1      39.494  29.960  30.220  1.00  0.00     0.074 A 
ATOM     44  C   UNL A   1      38.548  30.239  29.161  1.00  0.00     0.031 C 
ATOM     45  C   UNL A   1      38.307  34.634  34.460  1.00  0.00     0.029 A 
ATOM     46  C   UNL A   1      39.263  33.535  34.589  1.00  0.00     0.049 A 
ATOM     47  H   UNL A   1      39.709  32.078  33.170  1.00  0.00     0.167 HD
ATOM     48  C   UNL A   1      40.389  28.942  30.200  1.00  0.00     0.037 A 
ATOM     49  C   UNL A   1      40.036  33.284  35.664  1.00  0.00     0.037 A 
ATOM     50  C   UNL A   1      41.324  28.663  31.257  1.00  0.00     0.049 A 
ATOM     51  C   UNL A   1      40.940  32.078  35.665  1.00  0.00     0.074 A 
ATOM     52  C   UNL A   1      42.311  27.694  31.303  1.00  0.00     0.029 A 
ATOM     53  N   UNL A   1      41.370  29.340  32.466  1.00  0.00    -0.354 N 
ATOM     54  N   UNL A   1      41.160  31.207  34.712  1.00  0.00    -0.248 NA
ATOM     55  C   UNL A   1      41.688  31.811  36.903  1.00  0.00     0.031 C 
ATOM     56  C   UNL A   1      42.917  27.748  32.563  1.00  0.00     0.029 A 
ATOM     57  C   UNL A   1      42.338  28.779  33.285  1.00  0.00     0.049 A 
ATOM     58  H   UNL A   1      40.801  30.105  32.708  1.00  0.00     0.167 HD
ATOM     59  C   UNL A   1      42.082  30.302  35.224  1.00  0.00     0.074 A 
ATOM     60  C   UNL A   1      42.389  30.736  36.571  1.00  0.00     0.031 C 
ATOM     61  C   UNL A   1      42.626  29.213  34.628  1.00  0.00     0.037 A 
BRANCH  48  62
ATOM     62  C   UNL A   1      40.369  28.034  29.009  1.00  0.00     0.064 A 
ATOM     63  C   UNL A   1      39.615  26.852  28.995  1.00  0.00     0.173 A 
ATOM     64  C   UNL A   1      41.104  28.360  27.859  1.00  0.00     0.173 A 
ATOM     65  F   UNL A   1      38.907  26.490  30.076  1.00  0.00    -0.203 F 
ATOM     66  C   UNL A   1      39.618  26.015  27.882  1.00  0.00     0.198 A 
ATOM     67  C   UNL A   1      41.086  27.533  26.740  1.00  0.00     0.198 A 
ATOM     68  F   UNL A   1      41.842  29.480  27.822  1.00  0.00    -0.203 F 
ATOM     69  F   UNL A   1      38.927  24.868  27.907  1.00  0.00    -0.200 F 
ATOM     70  C   UNL A   1      40.349  26.359  26.754  1.00  0.00     0.200 A 
ATOM     71  F   UNL A   1      41.786  27.870  25.648  1.00  0.00    -0.200 F 
ATOM     72  F   UNL A   1      40.350  25.552  25.684  1.00  0.00    -0.200 F 
ENDBRANCH  48  62
BRANCH  49  73
ATOM     73  C   UNL A   1      39.973  34.181  36.847  1.00  0.00     0.064 A 
ATOM     74  C   UNL A   1      40.792  35.314  36.932  1.00  0.00     0.173 A 
ATOM     75  C   UNL A   1      39.107  33.917  37.918  1.00  0.00     0.173 A 
ATOM     76  F   UNL A   1      41.662  35.587  35.948  1.00  0.00    -0.203 F 
ATOM     77  C   UNL A   1      40.751  36.150  38.046  1.00  0.00     0.198 A 
ATOM     78  C   UNL A   1      39.049  34.766  39.022  1.00  0.00     0.198 A 
ATOM     79  F   UNL A   1      38.313  32.836  37.891  1.00  0.00    -0.203 F 
ATOM     80  F   UNL A   1      41.572  37.205  38.119  1.00  0.00    -0.200 F 
ATOM     81  C   UNL A   1      39.875  35.879  39.087  1.00  0.00     0.200 A 
ATOM     82  F   UNL A   1      38.201  34.502  40.025  1.00  0.00    -0.200 F 
ATOM     83  F   UNL A   1      39.835  36.683  40.158  1.00  0.00    -0.200 F 
ENDBRANCH  49  73
BRANCH  61  84
ATOM     84  C   UNL A   1      43.617  28.413  35.422  1.00  0.00     0.064 A 
ATOM     85  C   UNL A   1      43.207  27.374  36.270  1.00  0.00     0.173 A 
ATOM     86  C   UNL A   1      44.993  28.652  35.293  1.00  0.00     0.173 A 
ATOM     87  F   UNL A   1      41.902  27.117  36.439  1.00  0.00    -0.203 F 
ATOM     88  C   UNL A   1      44.140  26.611  36.969  1.00  0.00     0.198 A 
ATOM     89  C   UNL A   1      45.924  27.871  35.974  1.00  0.00     0.198 A 
ATOM     90  F   UNL A   1      45.438  29.632  34.491  1.00  0.00    -0.203 F 
ATOM     91  F   UNL A   1      43.724  25.645  37.800  1.00  0.00    -0.200 F 
ATOM     92  C   UNL A   1      45.495  26.855  36.814  1.00  0.00     0.200 A 
ATOM     93  F   UNL A   1      47.234  28.100  35.813  1.00  0.00    -0.200 F 
ATOM     94  F   UNL A   1      46.391  26.112  37.478  1.00  0.00    -0.200 F 
ENDBRANCH  61  84
ENDBRANCH  35  36
ENDBRANCH  28  30
ENDBRANCH  27  28
ENDBRANCH  26  27
ENDBRANCH  25  26
ENDBRANCH  24  25
ENDBRANCH  23  24
ENDBRANCH   1  23
TORSDOF 19
ENDMDL
MODEL 2
REMARK VINA RESULT:     -11.0      5.874     10.994
REMARK SMILES Cc1cc(NC(=O)[C@@H]2[C@@H](C(=O)OCCOCCOCCOC(=O)c3ccc(-c4c5nc(c(-c6c(F)c(F)c(F)c(F)c6F)c6ccc([nH]6)c(-c6c(F)c(F)c(F)c(F)c6F)c6nc(c(-c7c(F)c(F)c(F)c(F)c7F)c7ccc4[nH]7)C=C6)C=C5)cc3)C2(C)C)on1
REMARK SMILES IDX 16 1 15 2 14 3 13 4 12 5 10 6 11 7 9 8 8 9 87 10 88 11 89 12
REMARK SMILES IDX 6 13 5 14 7 16 4 17 1 18 2 19 3 20 91 21 90 22 17 23 18 24
REMARK SMILES IDX 19 25 20 26 21 27 22 28 23 29 24 30 25 31 86 32 26 33 85 34
REMARK SMILES IDX 27 35 28 36 29 37 79 38 30 39 84 40 78 41 80 42 31 43 83 44
REMARK SMILES IDX 77 45 76 46 32 48 64 49 44 50 63 51 45 52 48 53 62 54 81 55
REMARK SMILES IDX 46 56 47 57 61 59 82 60 49 61 33 62 34 63 42 64 35 65 36 66
REMARK SMILES IDX 40 67 43 68 37 69 38 70 41 71 39 72 65 73 66 74 74 75 67 76
REMARK SMILES IDX 68 77 72 78 75 79 69 80 70 81 73 82 71 83 50 84 51 85 59 86
REMARK SMILES IDX 52 87 53 88 57 89 60 90 54 91 55 92 58 93 56 94
REMARK H PARENT 5 15 80 47 48 58
REMARK Flexibility Score: inf
ROOT
ATOM      1  C   UNL A   1      37.971  23.720  26.051  1.00  0.00     0.188 C 
ENDROOT
BRANCH   1   2
ATOM      2  O   UNL A   1      37.341  23.507  24.789  1.00  0.00    -0.376 OA
BRANCH   2   3
ATOM      3  C   UNL A   1      36.002  23.014  24.760  1.00  0.00     0.202 C 
BRANCH   3   4
ATOM      4  C   UNL A   1      35.525  22.285  26.016  1.00  0.00     0.261 C 
BRANCH   4   5
ATOM      5  O   UNL A   1      34.768  23.168  26.858  1.00  0.00    -0.463 OA
BRANCH   5   6
ATOM      6  C   UNL A   1      33.528  22.739  27.190  1.00  0.00     0.310 C 
ATOM      7  O   UNL A   1      33.229  22.116  28.197  1.00  0.00    -0.252 OA
BRANCH   6   8
ATOM      8  C   UNL A   1      32.479  23.247  26.266  1.00  0.00     0.118 C 
ATOM      9  C   UNL A   1      31.107  22.664  26.450  1.00  0.00     0.100 C 
ATOM     10  C   UNL A   1      31.796  22.495  25.110  1.00  0.00    -0.009 C 
ATOM     11  C   UNL A   1      32.217  21.081  24.757  1.00  0.00     0.013 C 
ATOM     12  C   UNL A   1      31.381  23.267  23.880  1.00  0.00     0.013 C 
BRANCH   9  13
ATOM     13  C   UNL A   1      29.947  23.446  26.948  1.00  0.00     0.231 C 
ATOM     14  N   UNL A   1      29.497  24.672  26.552  1.00  0.00    -0.294 N 
ATOM     15  H   UNL A   1      28.535  24.805  26.710  1.00  0.00     0.173 HD
ATOM     16  O   UNL A   1      29.206  22.854  27.739  1.00  0.00    -0.274 OA
BRANCH  14  17
ATOM     17  C   UNL A   1      30.104  25.748  25.981  1.00  0.00     0.231 A 
ATOM     18  C   UNL A   1      31.121  28.221  23.497  1.00  0.00     0.070 C 
ATOM     19  C   UNL A   1      30.817  27.362  24.664  1.00  0.00     0.083 A 
ATOM     20  C   UNL A   1      29.901  26.291  24.736  1.00  0.00     0.096 A 
ATOM     21  N   UNL A   1      31.467  27.522  25.824  1.00  0.00    -0.083 NA
ATOM     22  O   UNL A   1      30.991  26.516  26.654  1.00  0.00    -0.338 OA
ENDBRANCH  14  17
ENDBRANCH   9  13
ENDBRANCH   6   8
ENDBRANCH   5   6
ENDBRANCH   4   5
ENDBRANCH   3   4
ENDBRANCH   2   3
ENDBRANCH   1   2
BRANCH   1  23
ATOM     23  C   UNL A   1      39.070  22.744  26.508  1.00  0.00     0.188 C 
BRANCH  23  24
ATOM     24  O   UNL A   1      39.492  21.852  25.490  1.00  0.00    -0.376 OA
BRANCH  24  25
ATOM     25  C   UNL A   1      38.872  20.576  25.485  1.00  0.00     0.202 C 
BRANCH  25  26
ATOM     26  C   UNL A   1      39.759  19.463  26.050  1.00  0.00     0.261 C 
BRANCH  26  27
ATOM     27  O   UNL A   1      40.988  19.243  25.335  1.00  0.00    -0.460 OA
BRANCH  27  28
ATOM     28  C   UNL A   1      42.125  19.149  26.060  1.00  0.00     0.338 C 
ATOM     29  O   UNL A   1      42.793  18.154  26.266  1.00  0.00    -0.246 OA
BRANCH  28  30
ATOM     30  C   UNL A   1      42.526  20.528  26.411  1.00  0.00     0.060 A 
ATOM     31  C   UNL A   1      43.024  21.377  25.414  1.00  0.00     0.016 A 
ATOM     32  C   UNL A   1      42.362  20.990  27.719  1.00  0.00     0.016 A 
ATOM     33  C   UNL A   1      43.353  22.700  25.727  1.00  0.00     0.010 A 
ATOM     34  C   UNL A   1      42.712  22.303  28.033  1.00  0.00     0.010 A 
ATOM     35  C   UNL A   1      43.219  23.162  27.042  1.00  0.00    -0.014 A 
BRANCH  35  36
ATOM     36  C   UNL A   1      43.700  24.506  27.438  1.00  0.00     0.031 A 
ATOM     37  C   UNL A   1      42.703  25.525  27.903  1.00  0.00     0.074 A 
ATOM     38  C   UNL A   1      44.999  24.835  27.328  1.00  0.00     0.049 A 
ATOM     39  N   UNL A   1      42.874  26.794  28.176  1.00  0.00    -0.248 NA
ATOM     40  C   UNL A   1      41.322  25.050  28.079  1.00  0.00     0.031 C 
ATOM     41  C   UNL A   1      46.070  23.925  26.930  1.00  0.00     0.029 A 
ATOM     42  N   UNL A   1      45.631  26.038  27.522  1.00  0.00    -0.354 N 
ATOM     43  C   UNL A   1      41.624  27.270  28.545  1.00  0.00     0.074 A 
ATOM     44  C   UNL A   1      40.700  26.160  28.447  1.00  0.00     0.031 C 
ATOM     45  C   UNL A   1      47.228  24.607  26.890  1.00  0.00     0.029 A 
ATOM     46  C   UNL A   1      46.970  26.008  27.220  1.00  0.00     0.049 A 
ATOM     47  H   UNL A   1      45.169  26.845  27.846  1.00  0.00     0.167 HD
ATOM     48  C   UNL A   1      41.280  28.522  28.930  1.00  0.00     0.037 A 
ATOM     49  C   UNL A   1      47.874  27.006  27.181  1.00  0.00     0.037 A 
ATOM     50  C   UNL A   1      42.199  29.625  29.020  1.00  0.00     0.049 A 
ATOM     51  C   UNL A   1      47.441  28.414  27.503  1.00  0.00     0.074 A 
ATOM     52  C   UNL A   1      41.960  30.915  29.461  1.00  0.00     0.029 A 
ATOM     53  N   UNL A   1      43.531  29.572  28.639  1.00  0.00    -0.354 N 
ATOM     54  N   UNL A   1      46.270  28.851  27.896  1.00  0.00    -0.248 NA
ATOM     55  C   UNL A   1      48.454  29.470  27.355  1.00  0.00     0.031 C 
ATOM     56  C   UNL A   1      43.133  31.658  29.292  1.00  0.00     0.029 A 
ATOM     57  C   UNL A   1      44.115  30.820  28.790  1.00  0.00     0.049 A 
ATOM     58  H   UNL A   1      43.994  28.768  28.312  1.00  0.00     0.167 HD
ATOM     59  C   UNL A   1      46.409  30.224  28.061  1.00  0.00     0.074 A 
ATOM     60  C   UNL A   1      47.782  30.547  27.734  1.00  0.00     0.031 C 
ATOM     61  C   UNL A   1      45.480  31.132  28.451  1.00  0.00     0.037 A 
BRANCH  48  62
ATOM     62  C   UNL A   1      39.837  28.771  29.248  1.00  0.00     0.064 A 
ATOM     63  C   UNL A   1      39.321  28.574  30.536  1.00  0.00     0.173 A 
ATOM     64  C   UNL A   1      38.962  29.228  28.251  1.00  0.00     0.173 A 
ATOM     65  F   UNL A   1      40.114  28.124  31.521  1.00  0.00    -0.203 F 
ATOM     66  C   UNL A   1      37.974  28.801  30.809  1.00  0.00     0.198 A 
ATOM     67  C   UNL A   1      37.623  29.477  28.533  1.00  0.00     0.198 A 
ATOM     68  F   UNL A   1      39.408  29.432  27.002  1.00  0.00    -0.203 F 
ATOM     69  F   UNL A   1      37.492  28.563  32.037  1.00  0.00    -0.200 F 
ATOM     70  C   UNL A   1      37.128  29.257  29.809  1.00  0.00     0.200 A 
ATOM     71  F   UNL A   1      36.808  29.925  27.568  1.00  0.00    -0.200 F 
ATOM     72  F   UNL A   1      35.832  29.475  30.074  1.00  0.00    -0.200 F 
ENDBRANCH  48  62
BRANCH  49  73
ATOM     73  C   UNL A   1      49.280  26.718  26.800  1.00  0.00     0.064 A 
ATOM     74  C   UNL A   1      50.232  26.378  27.771  1.00  0.00     0.173 A 
ATOM     75  C   UNL A   1      49.704  26.791  25.465  1.00  0.00     0.173 A 
ATOM     76  F   UNL A   1      49.880  26.331  29.064  1.00  0.00    -0.203 F 
ATOM     77  C   UNL A   1      51.556  26.124  27.421  1.00  0.00     0.198 A 
ATOM     78  C   UNL A   1      51.024  26.514  25.114  1.00  0.00     0.198 A 
ATOM     79  F   UNL A   1      48.835  27.128  24.501  1.00  0.00    -0.203 F 
ATOM     80  F   UNL A   1      52.454  25.837  28.373  1.00  0.00    -0.200 F 
ATOM     81  C   UNL A   1      51.950  26.185  26.093  1.00  0.00     0.200 A 
ATOM     82  F   UNL A   1      51.400  26.573  23.829  1.00  0.00    -0.200 F 
ATOM     83  F   UNL A   1      53.224  25.940  25.757  1.00  0.00    -0.200 F 
ENDBRANCH  49  73
BRANCH  61  84
ATOM     84  C   UNL A   1      45.916  32.564  28.555  1.00  0.00     0.064 A 
ATOM     85  C   UNL A   1      45.748  33.460  27.488  1.00  0.00     0.173 A 
ATOM     86  C   UNL A   1      46.455  33.061  29.751  1.00  0.00     0.173 A 
ATOM     87  F   UNL A   1      45.252  33.029  26.319  1.00  0.00    -0.203 F 
ATOM     88  C   UNL A   1      46.117  34.797  27.612  1.00  0.00     0.198 A 
ATOM     89  C   UNL A   1      46.800  34.404  29.880  1.00  0.00     0.198 A 
ATOM     90  F   UNL A   1      46.631  32.246  30.803  1.00  0.00    -0.203 F 
ATOM     91  F   UNL A   1      45.980  35.627  26.569  1.00  0.00    -0.200 F 
ATOM     92  C   UNL A   1      46.634  35.269  28.809  1.00  0.00     0.200 A 
ATOM     93  F   UNL A   1      47.287  34.861  31.041  1.00  0.00    -0.200 F 
ATOM     94  F   UNL A   1      46.977  36.559  28.930  1.00  0.00    -0.200 F 
ENDBRANCH  61  84
ENDBRANCH  35  36
ENDBRANCH  28  30
ENDBRANCH  27  28
ENDBRANCH  26  27
ENDBRANCH  25  26
ENDBRANCH  24  25
ENDBRANCH  23  24
ENDBRANCH   1  23
TORSDOF 19
ENDMDL
MODEL 3
REMARK VINA RESULT:     -11.0      2.897      4.906
REMARK SMILES Cc1cc(NC(=O)[C@@H]2[C@@H](C(=O)OCCOCCOCCOC(=O)c3ccc(-c4c5nc(c(-c6c(F)c(F)c(F)c(F)c6F)c6ccc([nH]6)c(-c6c(F)c(F)c(F)c(F)c6F)c6nc(c(-c7c(F)c(F)c(F)c(F)c7F)c7ccc4[nH]7)C=C6)C=C5)cc3)C2(C)C)on1
REMARK SMILES IDX 16 1 15 2 14 3 13 4 12 5 10 6 11 7 9 8 8 9 87 10 88 11 89 12
REMARK SMILES IDX 6 13 5 14 7 16 4 17 1 18 2 19 3 20 91 21 90 22 17 23 18 24
REMARK SMILES IDX 19 25 20 26 21 27 22 28 23 29 24 30 25 31 86 32 26 33 85 34
REMARK SMILES IDX 27 35 28 36 29 37 79 38 30 39 84 40 78 41 80 42 31 43 83 44
REMARK SMILES IDX 77 45 76 46 32 48 64 49 44 50 63 51 45 52 48 53 62 54 81 55
REMARK SMILES IDX 46 56 47 57 61 59 82 60 49 61 33 62 34 63 42 64 35 65 36 66
REMARK SMILES IDX 40 67 43 68 37 69 38 70 41 71 39 72 65 73 66 74 74 75 67 76
REMARK SMILES IDX 68 77 72 78 75 79 69 80 70 81 73 82 71 83 50 84 51 85 59 86
REMARK SMILES IDX 52 87 53 88 57 89 60 90 54 91 55 92 58 93 56 94
REMARK H PARENT 5 15 80 47 48 58
REMARK Flexibility Score: inf
ROOT
ATOM      1  C   UNL A   1      34.103  29.287  27.137  1.00  0.00     0.188 C 
ENDROOT
BRANCH   1   2
ATOM      2  O   UNL A   1      33.286  28.157  26.836  1.00  0.00    -0.376 OA
BRANCH   2   3
ATOM      3  C   UNL A   1      33.562  27.398  25.659  1.00  0.00     0.202 C 
BRANCH   3   4
ATOM      4  C   UNL A   1      33.649  25.882  25.841  1.00  0.00     0.261 C 
BRANCH   4   5
ATOM      5  O   UNL A   1      32.927  25.204  24.802  1.00  0.00    -0.463 OA
BRANCH   5   6
ATOM      6  C   UNL A   1      32.529  23.944  25.093  1.00  0.00     0.310 C 
ATOM      7  O   UNL A   1      31.491  23.633  25.658  1.00  0.00    -0.252 OA
BRANCH   6   8
ATOM      8  C   UNL A   1      33.418  22.910  24.503  1.00  0.00     0.118 C 
ATOM      9  C   UNL A   1      32.962  21.487  24.660  1.00  0.00     0.100 C 
ATOM     10  C   UNL A   1      34.301  21.890  25.245  1.00  0.00    -0.009 C 
ATOM     11  C   UNL A   1      34.384  21.903  26.759  1.00  0.00     0.013 C 
ATOM     12  C   UNL A   1      35.615  21.476  24.626  1.00  0.00     0.013 C 
BRANCH   9  13
ATOM     13  C   UNL A   1      32.519  20.641  23.523  1.00  0.00     0.231 C 
ATOM     14  N   UNL A   1      32.347  19.287  23.469  1.00  0.00    -0.294 N 
ATOM     15  H   UNL A   1      31.690  19.004  22.794  1.00  0.00     0.173 HD
ATOM     16  O   UNL A   1      32.123  21.252  22.526  1.00  0.00    -0.274 OA
BRANCH  14  17
ATOM     17  C   UNL A   1      32.896  18.250  24.158  1.00  0.00     0.231 A 
ATOM     18  C   UNL A   1      35.331  15.821  25.375  1.00  0.00     0.070 C 
ATOM     19  C   UNL A   1      34.201  16.720  25.055  1.00  0.00     0.083 A 
ATOM     20  C   UNL A   1      34.213  17.869  24.237  1.00  0.00     0.096 A 
ATOM     21  N   UNL A   1      32.970  16.472  25.523  1.00  0.00    -0.083 NA
ATOM     22  O   UNL A   1      32.162  17.457  24.972  1.00  0.00    -0.338 OA
ENDBRANCH  14  17
ENDBRANCH   9  13
ENDBRANCH   6   8
ENDBRANCH   5   6
ENDBRANCH   4   5
ENDBRANCH   3   4
ENDBRANCH   2   3
ENDBRANCH   1   2
BRANCH   1  23
ATOM     23  C   UNL A   1      33.448  30.677  27.219  1.00  0.00     0.188 C 
BRANCH  23  24
ATOM     24  O   UNL A   1      32.097  30.692  26.791  1.00  0.00    -0.376 OA
BRANCH  24  25
ATOM     25  C   UNL A   1      31.493  31.970  26.676  1.00  0.00     0.202 C 
BRANCH  25  26
ATOM     26  C   UNL A   1      32.436  33.126  27.026  1.00  0.00     0.261 C 
BRANCH  26  27
ATOM     27  O   UNL A   1      32.172  33.763  28.288  1.00  0.00    -0.460 OA
BRANCH  27  28
ATOM     28  C   UNL A   1      32.925  34.839  28.614  1.00  0.00     0.338 C 
ATOM     29  O   UNL A   1      32.621  36.012  28.521  1.00  0.00    -0.246 OA
BRANCH  28  30
ATOM     30  C   UNL A   1      34.134  34.326  29.293  1.00  0.00     0.060 A 
ATOM     31  C   UNL A   1      35.391  34.527  28.708  1.00  0.00     0.016 A 
ATOM     32  C   UNL A   1      34.021  33.691  30.533  1.00  0.00     0.016 A 
ATOM     33  C   UNL A   1      36.544  34.094  29.371  1.00  0.00     0.010 A 
ATOM     34  C   UNL A   1      35.171  33.241  31.180  1.00  0.00     0.010 A 
ATOM     35  C   UNL A   1      36.437  33.430  30.600  1.00  0.00    -0.014 A 
BRANCH  35  36
ATOM     36  C   UNL A   1      37.621  32.826  31.254  1.00  0.00     0.031 A 
ATOM     37  C   UNL A   1      38.299  31.662  30.594  1.00  0.00     0.074 A 
ATOM     38  C   UNL A   1      38.051  33.268  32.449  1.00  0.00     0.049 A 
ATOM     39  N   UNL A   1      39.264  30.899  31.038  1.00  0.00    -0.248 NA
ATOM     40  C   UNL A   1      37.819  31.308  29.249  1.00  0.00     0.031 C 
ATOM     41  C   UNL A   1      37.505  34.413  33.172  1.00  0.00     0.029 A 
ATOM     42  N   UNL A   1      39.036  32.784  33.274  1.00  0.00    -0.354 N 
ATOM     43  C   UNL A   1      39.500  29.969  30.036  1.00  0.00     0.074 A 
ATOM     44  C   UNL A   1      38.567  30.252  28.965  1.00  0.00     0.031 C 
ATOM     45  C   UNL A   1      38.151  34.535  34.345  1.00  0.00     0.029 A 
ATOM     46  C   UNL A   1      39.125  33.451  34.470  1.00  0.00     0.049 A 
ATOM     47  H   UNL A   1      39.622  32.031  33.031  1.00  0.00     0.167 HD
ATOM     48  C   UNL A   1      40.413  28.969  30.012  1.00  0.00     0.037 A 
ATOM     49  C   UNL A   1      39.882  33.193  35.554  1.00  0.00     0.037 A 
ATOM     50  C   UNL A   1      41.334  28.685  31.080  1.00  0.00     0.049 A 
ATOM     51  C   UNL A   1      40.808  32.004  35.547  1.00  0.00     0.074 A 
ATOM     52  C   UNL A   1      42.338  27.734  31.125  1.00  0.00     0.029 A 
ATOM     53  N   UNL A   1      41.346  29.338  32.303  1.00  0.00    -0.354 N 
ATOM     54  N   UNL A   1      41.061  31.156  34.581  1.00  0.00    -0.248 NA
ATOM     55  C   UNL A   1      41.539  31.726  36.793  1.00  0.00     0.031 C 
ATOM     56  C   UNL A   1      42.920  27.773  32.397  1.00  0.00     0.029 A 
ATOM     57  C   UNL A   1      42.309  28.779  33.128  1.00  0.00     0.049 A 
ATOM     58  H   UNL A   1      40.758  30.088  32.550  1.00  0.00     0.167 HD
ATOM     59  C   UNL A   1      41.991  30.258  35.092  1.00  0.00     0.074 A 
ATOM     60  C   UNL A   1      42.265  30.670  36.453  1.00  0.00     0.031 C 
ATOM     61  C   UNL A   1      42.566  29.191  34.485  1.00  0.00     0.037 A 
BRANCH  48  62
ATOM     62  C   UNL A   1      40.431  28.084  28.803  1.00  0.00     0.064 A 
ATOM     63  C   UNL A   1      39.687  26.898  28.746  1.00  0.00     0.173 A 
ATOM     64  C   UNL A   1      41.194  28.438  27.679  1.00  0.00     0.173 A 
ATOM     65  F   UNL A   1      38.953  26.509  29.800  1.00  0.00    -0.203 F 
ATOM     66  C   UNL A   1      39.725  26.083  27.617  1.00  0.00     0.198 A 
ATOM     67  C   UNL A   1      41.211  27.634  26.545  1.00  0.00     0.198 A 
ATOM     68  F   UNL A   1      41.923  29.564  27.685  1.00  0.00    -0.203 F 
ATOM     69  F   UNL A   1      39.042  24.931  27.601  1.00  0.00    -0.200 F 
ATOM     70  C   UNL A   1      40.482  26.454  26.516  1.00  0.00     0.200 A 
ATOM     71  F   UNL A   1      41.937  27.997  25.478  1.00  0.00    -0.200 F 
ATOM     72  F   UNL A   1      40.518  25.669  25.430  1.00  0.00    -0.200 F 
ENDBRANCH  48  62
BRANCH  49  73
ATOM     73  C   UNL A   1      39.782  34.064  36.753  1.00  0.00     0.064 A 
ATOM     74  C   UNL A   1      38.932  33.728  37.815  1.00  0.00     0.173 A 
ATOM     75  C   UNL A   1      40.519  35.252  36.856  1.00  0.00     0.173 A 
ATOM     76  F   UNL A   1      38.181  32.619  37.745  1.00  0.00    -0.203 F 
ATOM     77  C   UNL A   1      38.820  34.549  38.934  1.00  0.00     0.198 A 
ATOM     78  C   UNL A   1      40.424  36.062  37.987  1.00  0.00     0.198 A 
ATOM     79  F   UNL A   1      41.335  35.626  35.859  1.00  0.00    -0.203 F 
ATOM     80  F   UNL A   1      37.972  34.223  39.919  1.00  0.00    -0.200 F 
ATOM     81  C   UNL A   1      39.571  35.712  39.023  1.00  0.00     0.200 A 
ATOM     82  F   UNL A   1      41.153  37.184  38.068  1.00  0.00    -0.200 F 
ATOM     83  F   UNL A   1      39.464  36.501  40.100  1.00  0.00    -0.200 F 
ENDBRANCH  49  73
BRANCH  61  84
ATOM     84  C   UNL A   1      43.557  28.393  35.281  1.00  0.00     0.064 A 
ATOM     85  C   UNL A   1      44.932  28.662  35.218  1.00  0.00     0.173 A 
ATOM     86  C   UNL A   1      43.123  27.387  36.157  1.00  0.00     0.173 A 
ATOM     87  F   UNL A   1      45.396  29.603  34.383  1.00  0.00    -0.203 F 
ATOM     88  C   UNL A   1      45.838  27.943  35.993  1.00  0.00     0.198 A 
ATOM     89  C   UNL A   1      44.030  26.688  36.950  1.00  0.00     0.198 A 
ATOM     90  F   UNL A   1      41.818  27.094  36.259  1.00  0.00    -0.203 F 
ATOM     91  F   UNL A   1      47.151  28.194  35.891  1.00  0.00    -0.200 F 
ATOM     92  C   UNL A   1      45.385  26.964  36.864  1.00  0.00     0.200 A 
ATOM     93  F   UNL A   1      43.590  25.750  37.801  1.00  0.00    -0.200 F 
ATOM     94  F   UNL A   1      46.258  26.282  37.619  1.00  0.00    -0.200 F 
ENDBRANCH  61  84
ENDBRANCH  35  36
ENDBRANCH  28  30
ENDBRANCH  27  28
ENDBRANCH  26  27
ENDBRANCH  25  26
ENDBRANCH  24  25
ENDBRANCH  23  24
ENDBRANCH   1  23
TORSDOF 19
ENDMDL
