MODEL 1
REMARK VINA RESULT:     -11.2      0.000      0.000
REMARK SMILES CCCc1cc(OC(F)(F)F)cc2c1O[C@@H](C(F)(F)F)C(C(=O)OCCOCCOCCOC(=O)c1ccc(-c3c4nc(c(-c5c(F)c(F)c(F)c(F)c5F)c5ccc([nH]5)c(-c5c(F)c(F)c(F)c(F)c5F)c5nc(c(-c6c(F)c(F)c(F)c(F)c6F)c6ccc3[nH]6)C=C5)C=C4)cc1)=C2
REMARK SMILES IDX 28 1 27 2 26 3 25 4 24 5 22 6 23 7 21 8 4 9 5 10 14 11 6 12
REMARK SMILES IDX 13 13 15 14 12 15 99 16 16 17 3 18 2 19 1 20 7 21 8 22 9 23
REMARK SMILES IDX 10 24 11 25 17 26 18 27 19 28 20 29 29 30 30 31 31 32 32 33
REMARK SMILES IDX 33 34 34 35 35 36 36 37 37 38 98 39 38 40 97 41 39 42 40 43
REMARK SMILES IDX 41 44 91 45 42 46 96 47 90 48 92 49 43 50 95 51 89 52 88 53
REMARK SMILES IDX 44 55 76 56 56 57 75 58 57 59 60 60 74 61 93 62 58 63 59 64
REMARK SMILES IDX 73 66 94 67 61 68 45 69 46 70 54 71 47 72 48 73 52 74 55 75
REMARK SMILES IDX 49 76 50 77 53 78 51 79 77 80 78 81 86 82 79 83 80 84 84 85
REMARK SMILES IDX 87 86 81 87 82 88 85 89 83 90 62 91 63 92 71 93 64 94 65 95
REMARK SMILES IDX 69 96 72 97 66 98 67 99 70 100 68 101
REMARK H PARENT 92 54 60 65
REMARK Flexibility Score: inf
ROOT
ATOM      1  C   UNL A   1      33.240  19.495  24.974  1.00  0.00     0.188 C 
ENDROOT
BRANCH   1   2
ATOM      2  O   UNL A   1      32.160  20.094  24.279  1.00  0.00    -0.376 OA
BRANCH   2   3
ATOM      3  C   UNL A   1      32.257  20.176  22.868  1.00  0.00     0.202 C 
BRANCH   3   4
ATOM      4  C   UNL A   1      31.807  21.493  22.226  1.00  0.00     0.261 C 
BRANCH   4   5
ATOM      5  O   UNL A   1      32.102  22.678  22.981  1.00  0.00    -0.460 OA
BRANCH   5   6
ATOM      6  C   UNL A   1      33.003  23.544  22.472  1.00  0.00     0.338 C 
ATOM      7  O   UNL A   1      33.850  23.288  21.634  1.00  0.00    -0.246 OA
BRANCH   6   8
ATOM      8  C   UNL A   1      32.745  24.896  23.013  1.00  0.00     0.087 C 
ATOM      9  C   UNL A   1      31.674  28.420  25.026  1.00  0.00    -0.002 A 
ATOM     10  C   UNL A   1      30.828  29.330  24.371  1.00  0.00     0.054 A 
ATOM     11  C   UNL A   1      32.016  27.237  24.345  1.00  0.00     0.131 A 
ATOM     12  C   UNL A   1      30.344  29.082  23.081  1.00  0.00     0.130 A 
ATOM     13  C   UNL A   1      31.526  26.966  23.058  1.00  0.00     0.021 A 
ATOM     14  O   UNL A   1      32.786  26.311  25.012  1.00  0.00    -0.475 OA
ATOM     15  C   UNL A   1      30.708  27.902  22.424  1.00  0.00     0.058 A 
ATOM     16  C   UNL A   1      31.791  25.661  22.453  1.00  0.00     0.027 C 
ATOM     17  C   UNL A   1      33.573  25.443  24.150  1.00  0.00     0.316 C 
BRANCH   9  18
ATOM     18  C   UNL A   1      32.136  28.629  26.456  1.00  0.00     0.039 C 
BRANCH  18  19
ATOM     19  C   UNL A   1      32.373  30.060  26.964  1.00  0.00     0.001 C 
ATOM     20  C   UNL A   1      33.837  30.444  27.150  1.00  0.00     0.004 C 
ENDBRANCH  18  19
ENDBRANCH   9  18
BRANCH  12  21
ATOM     21  O   UNL A   1      29.506  29.893  22.367  1.00  0.00    -0.406 OA
BRANCH  21  22
ATOM     22  C   UNL A   1      28.164  30.016  22.817  1.00  0.00     0.573 C 
ATOM     23  F   UNL A   1      27.659  28.817  23.180  1.00  0.00    -0.132 F 
ATOM     24  F   UNL A   1      28.077  30.876  23.853  1.00  0.00    -0.132 F 
ATOM     25  F   UNL A   1      27.410  30.500  21.804  1.00  0.00    -0.132 F 
ENDBRANCH  21  22
ENDBRANCH  12  21
BRANCH  17  26
ATOM     26  C   UNL A   1      34.344  24.450  25.032  1.00  0.00     0.430 C 
ATOM     27  F   UNL A   1      34.892  25.070  26.105  1.00  0.00    -0.167 F 
ATOM     28  F   UNL A   1      33.494  23.519  25.543  1.00  0.00    -0.167 F 
ATOM     29  F   UNL A   1      35.311  23.786  24.370  1.00  0.00    -0.167 F 
ENDBRANCH  17  26
ENDBRANCH   6   8
ENDBRANCH   5   6
ENDBRANCH   4   5
ENDBRANCH   3   4
ENDBRANCH   2   3
ENDBRANCH   1   2
BRANCH   1  30
ATOM     30  C   UNL A   1      34.499  20.384  25.004  1.00  0.00     0.188 C 
BRANCH  30  31
ATOM     31  O   UNL A   1      35.788  19.782  24.977  1.00  0.00    -0.376 OA
BRANCH  31  32
ATOM     32  C   UNL A   1      36.943  20.611  24.914  1.00  0.00     0.202 C 
BRANCH  32  33
ATOM     33  C   UNL A   1      38.280  20.005  25.348  1.00  0.00     0.261 C 
BRANCH  33  34
ATOM     34  O   UNL A   1      39.342  20.966  25.483  1.00  0.00    -0.460 OA
BRANCH  34  35
ATOM     35  C   UNL A   1      40.031  20.905  26.648  1.00  0.00     0.338 C 
ATOM     36  O   UNL A   1      40.469  19.913  27.205  1.00  0.00    -0.246 OA
BRANCH  35  37
ATOM     37  C   UNL A   1      40.347  22.270  27.111  1.00  0.00     0.060 A 
ATOM     38  C   UNL A   1      39.658  23.342  26.527  1.00  0.00     0.016 A 
ATOM     39  C   UNL A   1      41.357  22.501  28.045  1.00  0.00     0.016 A 
ATOM     40  C   UNL A   1      39.991  24.654  26.861  1.00  0.00     0.010 A 
ATOM     41  C   UNL A   1      41.709  23.818  28.360  1.00  0.00     0.010 A 
ATOM     42  C   UNL A   1      41.045  24.899  27.750  1.00  0.00    -0.014 A 
BRANCH  42  43
ATOM     43  C   UNL A   1      41.563  26.276  27.928  1.00  0.00     0.031 A 
ATOM     44  C   UNL A   1      42.945  26.599  27.432  1.00  0.00     0.074 A 
ATOM     45  C   UNL A   1      40.822  27.222  28.527  1.00  0.00     0.049 A 
ATOM     46  N   UNL A   1      43.638  27.700  27.562  1.00  0.00    -0.248 NA
ATOM     47  C   UNL A   1      43.635  25.534  26.687  1.00  0.00     0.031 C 
ATOM     48  C   UNL A   1      39.451  27.049  29.001  1.00  0.00     0.029 A 
ATOM     49  N   UNL A   1      41.133  28.519  28.854  1.00  0.00    -0.354 N 
ATOM     50  C   UNL A   1      44.846  27.461  26.920  1.00  0.00     0.074 A 
ATOM     51  C   UNL A   1      44.800  26.105  26.418  1.00  0.00     0.031 C 
ATOM     52  C   UNL A   1      39.046  28.192  29.583  1.00  0.00     0.029 A 
ATOM     53  C   UNL A   1      40.141  29.161  29.554  1.00  0.00     0.049 A 
ATOM     54  H   UNL A   1      41.985  28.948  28.610  1.00  0.00     0.167 HD
ATOM     55  C   UNL A   1      45.898  28.299  26.763  1.00  0.00     0.037 A 
ATOM     56  C   UNL A   1      40.135  30.377  30.132  1.00  0.00     0.037 A 
ATOM     57  C   UNL A   1      45.948  29.644  27.271  1.00  0.00     0.049 A 
ATOM     58  C   UNL A   1      41.359  31.254  30.033  1.00  0.00     0.074 A 
ATOM     59  C   UNL A   1      46.963  30.576  27.147  1.00  0.00     0.029 A 
ATOM     60  N   UNL A   1      44.942  30.242  28.014  1.00  0.00    -0.354 N 
ATOM     61  N   UNL A   1      42.490  31.031  29.408  1.00  0.00    -0.248 NA
ATOM     62  C   UNL A   1      41.306  32.549  30.727  1.00  0.00     0.031 C 
ATOM     63  C   UNL A   1      46.590  31.723  27.856  1.00  0.00     0.029 A 
ATOM     64  C   UNL A   1      45.326  31.521  28.383  1.00  0.00     0.049 A 
ATOM     65  H   UNL A   1      44.083  29.821  28.245  1.00  0.00     0.167 HD
ATOM     66  C   UNL A   1      43.270  32.162  29.612  1.00  0.00     0.074 A 
ATOM     67  C   UNL A   1      42.481  33.075  30.412  1.00  0.00     0.031 C 
ATOM     68  C   UNL A   1      44.526  32.421  29.175  1.00  0.00     0.037 A 
BRANCH  55  69
ATOM     69  C   UNL A   1      47.096  27.773  26.033  1.00  0.00     0.064 A 
ATOM     70  C   UNL A   1      47.158  27.766  24.632  1.00  0.00     0.173 A 
ATOM     71  C   UNL A   1      48.208  27.299  26.744  1.00  0.00     0.173 A 
ATOM     72  F   UNL A   1      46.113  28.195  23.908  1.00  0.00    -0.203 F 
ATOM     73  C   UNL A   1      48.284  27.285  23.969  1.00  0.00     0.198 A 
ATOM     74  C   UNL A   1      49.341  26.840  26.078  1.00  0.00     0.198 A 
ATOM     75  F   UNL A   1      48.198  27.286  28.086  1.00  0.00    -0.203 F 
ATOM     76  F   UNL A   1      48.306  27.250  22.629  1.00  0.00    -0.200 F 
ATOM     77  C   UNL A   1      49.376  26.828  24.692  1.00  0.00     0.200 A 
ATOM     78  F   UNL A   1      50.399  26.407  26.778  1.00  0.00    -0.200 F 
ATOM     79  F   UNL A   1      50.461  26.370  24.052  1.00  0.00    -0.200 F 
ENDBRANCH  55  69
BRANCH  56  80
ATOM     80  C   UNL A   1      38.943  30.833  30.892  1.00  0.00     0.064 A 
ATOM     81  C   UNL A   1      38.828  30.595  32.268  1.00  0.00     0.173 A 
ATOM     82  C   UNL A   1      37.881  31.489  30.250  1.00  0.00     0.173 A 
ATOM     83  F   UNL A   1      39.803  29.942  32.917  1.00  0.00    -0.203 F 
ATOM     84  C   UNL A   1      37.690  30.984  32.971  1.00  0.00     0.198 A 
ATOM     85  C   UNL A   1      36.755  31.900  30.960  1.00  0.00     0.198 A 
ATOM     86  F   UNL A   1      37.939  31.731  28.932  1.00  0.00    -0.203 F 
ATOM     87  F   UNL A   1      37.584  30.702  34.277  1.00  0.00    -0.200 F 
ATOM     88  C   UNL A   1      36.657  31.640  32.319  1.00  0.00     0.200 A 
ATOM     89  F   UNL A   1      35.761  32.537  30.326  1.00  0.00    -0.200 F 
ATOM     90  F   UNL A   1      35.561  32.010  32.995  1.00  0.00    -0.200 F 
ENDBRANCH  56  80
BRANCH  68  91
ATOM     91  C   UNL A   1      45.123  33.753  29.526  1.00  0.00     0.064 A 
ATOM     92  C   UNL A   1      44.896  34.888  28.736  1.00  0.00     0.173 A 
ATOM     93  C   UNL A   1      45.881  33.905  30.698  1.00  0.00     0.173 A 
ATOM     94  F   UNL A   1      44.191  34.790  27.599  1.00  0.00    -0.203 F 
ATOM     95  C   UNL A   1      45.417  36.127  29.100  1.00  0.00     0.198 A 
ATOM     96  C   UNL A   1      46.380  35.150  31.071  1.00  0.00     0.198 A 
ATOM     97  F   UNL A   1      46.121  32.849  31.489  1.00  0.00    -0.203 F 
ATOM     98  F   UNL A   1      45.216  37.194  28.314  1.00  0.00    -0.200 F 
ATOM     99  C   UNL A   1      46.150  36.259  30.270  1.00  0.00     0.200 A 
ATOM    100  F   UNL A   1      47.076  35.278  32.209  1.00  0.00    -0.200 F 
ATOM    101  F   UNL A   1      46.641  37.455  30.624  1.00  0.00    -0.200 F 
ENDBRANCH  68  91
ENDBRANCH  42  43
ENDBRANCH  35  37
ENDBRANCH  34  35
ENDBRANCH  33  34
ENDBRANCH  32  33
ENDBRANCH  31  32
ENDBRANCH  30  31
ENDBRANCH   1  30
TORSDOF 22
ENDMDL
MODEL 2
REMARK VINA RESULT:     -11.1      0.625      7.129
REMARK SMILES CCCc1cc(OC(F)(F)F)cc2c1O[C@@H](C(F)(F)F)C(C(=O)OCCOCCOCCOC(=O)c1ccc(-c3c4nc(c(-c5c(F)c(F)c(F)c(F)c5F)c5ccc([nH]5)c(-c5c(F)c(F)c(F)c(F)c5F)c5nc(c(-c6c(F)c(F)c(F)c(F)c6F)c6ccc3[nH]6)C=C5)C=C4)cc1)=C2
REMARK SMILES IDX 28 1 27 2 26 3 25 4 24 5 22 6 23 7 21 8 4 9 5 10 14 11 6 12
REMARK SMILES IDX 13 13 15 14 12 15 99 16 16 17 3 18 2 19 1 20 7 21 8 22 9 23
REMARK SMILES IDX 10 24 11 25 17 26 18 27 19 28 20 29 29 30 30 31 31 32 32 33
REMARK SMILES IDX 33 34 34 35 35 36 36 37 37 38 98 39 38 40 97 41 39 42 40 43
REMARK SMILES IDX 41 44 91 45 42 46 96 47 90 48 92 49 43 50 95 51 89 52 88 53
REMARK SMILES IDX 44 55 76 56 56 57 75 58 57 59 60 60 74 61 93 62 58 63 59 64
REMARK SMILES IDX 73 66 94 67 61 68 45 69 46 70 54 71 47 72 48 73 52 74 55 75
REMARK SMILES IDX 49 76 50 77 53 78 51 79 77 80 78 81 86 82 79 83 80 84 84 85
REMARK SMILES IDX 87 86 81 87 82 88 85 89 83 90 62 91 63 92 71 93 64 94 65 95
REMARK SMILES IDX 69 96 72 97 66 98 67 99 70 100 68 101
REMARK H PARENT 92 54 60 65
REMARK Flexibility Score: inf
ROOT
ATOM      1  C   UNL A   1      33.228  19.459  24.927  1.00  0.00     0.188 C 
ENDROOT
BRANCH   1   2
ATOM      2  O   UNL A   1      32.158  20.065  24.224  1.00  0.00    -0.376 OA
BRANCH   2   3
ATOM      3  C   UNL A   1      32.271  20.157  22.815  1.00  0.00     0.202 C 
BRANCH   3   4
ATOM      4  C   UNL A   1      31.769  21.455  22.171  1.00  0.00     0.261 C 
BRANCH   4   5
ATOM      5  O   UNL A   1      32.021  22.652  22.922  1.00  0.00    -0.460 OA
BRANCH   5   6
ATOM      6  C   UNL A   1      32.951  23.510  22.452  1.00  0.00     0.338 C 
ATOM      7  O   UNL A   1      33.830  23.246  21.650  1.00  0.00    -0.246 OA
BRANCH   6   8
ATOM      8  C   UNL A   1      32.684  24.863  22.984  1.00  0.00     0.087 C 
ATOM      9  C   UNL A   1      31.589  28.394  24.973  1.00  0.00    -0.002 A 
ATOM     10  C   UNL A   1      30.734  29.292  24.313  1.00  0.00     0.054 A 
ATOM     11  C   UNL A   1      31.939  27.208  24.300  1.00  0.00     0.131 A 
ATOM     12  C   UNL A   1      30.250  29.031  23.026  1.00  0.00     0.130 A 
ATOM     13  C   UNL A   1      31.449  26.924  23.016  1.00  0.00     0.021 A 
ATOM     14  O   UNL A   1      32.718  26.293  24.972  1.00  0.00    -0.475 OA
ATOM     15  C   UNL A   1      30.622  27.849  22.377  1.00  0.00     0.058 A 
ATOM     16  C   UNL A   1      31.722  25.617  22.420  1.00  0.00     0.027 C 
ATOM     17  C   UNL A   1      33.509  25.425  24.115  1.00  0.00     0.316 C 
BRANCH   9  18
ATOM     18  C   UNL A   1      32.053  28.618  26.400  1.00  0.00     0.039 C 
BRANCH  18  19
ATOM     19  C   UNL A   1      31.924  30.019  27.018  1.00  0.00     0.001 C 
ATOM     20  C   UNL A   1      33.074  30.969  26.704  1.00  0.00     0.004 C 
ENDBRANCH  18  19
ENDBRANCH   9  18
BRANCH  12  21
ATOM     21  O   UNL A   1      29.404  29.831  22.308  1.00  0.00    -0.406 OA
BRANCH  21  22
ATOM     22  C   UNL A   1      28.084  30.005  22.801  1.00  0.00     0.573 C 
ATOM     23  F   UNL A   1      27.278  30.545  21.862  1.00  0.00    -0.132 F 
ATOM     24  F   UNL A   1      27.565  28.833  23.222  1.00  0.00    -0.132 F 
ATOM     25  F   UNL A   1      28.123  30.850  23.856  1.00  0.00    -0.132 F 
ENDBRANCH  21  22
ENDBRANCH  12  21
BRANCH  17  26
ATOM     26  C   UNL A   1      34.290  24.445  25.003  1.00  0.00     0.430 C 
ATOM     27  F   UNL A   1      35.423  24.023  24.389  1.00  0.00    -0.167 F 
ATOM     28  F   UNL A   1      34.701  25.067  26.140  1.00  0.00    -0.167 F 
ATOM     29  F   UNL A   1      33.570  23.370  25.376  1.00  0.00    -0.167 F 
ENDBRANCH  17  26
ENDBRANCH   6   8
ENDBRANCH   5   6
ENDBRANCH   4   5
ENDBRANCH   3   4
ENDBRANCH   2   3
ENDBRANCH   1   2
BRANCH   1  30
ATOM     30  C   UNL A   1      34.474  20.363  25.015  1.00  0.00     0.188 C 
BRANCH  30  31
ATOM     31  O   UNL A   1      35.772  19.779  25.001  1.00  0.00    -0.376 OA
BRANCH  31  32
ATOM     32  C   UNL A   1      36.914  20.621  24.902  1.00  0.00     0.202 C 
BRANCH  32  33
ATOM     33  C   UNL A   1      38.271  20.031  25.292  1.00  0.00     0.261 C 
BRANCH  33  34
ATOM     34  O   UNL A   1      39.304  21.014  25.483  1.00  0.00    -0.460 OA
BRANCH  34  35
ATOM     35  C   UNL A   1      40.030  20.875  26.618  1.00  0.00     0.338 C 
ATOM     36  O   UNL A   1      40.406  19.840  27.142  1.00  0.00    -0.246 OA
BRANCH  35  37
ATOM     37  C   UNL A   1      40.476  22.200  27.090  1.00  0.00     0.060 A 
ATOM     38  C   UNL A   1      39.930  23.337  26.478  1.00  0.00     0.016 A 
ATOM     39  C   UNL A   1      41.469  22.326  28.062  1.00  0.00     0.016 A 
ATOM     40  C   UNL A   1      40.392  24.608  26.821  1.00  0.00     0.010 A 
ATOM     41  C   UNL A   1      41.951  23.599  28.386  1.00  0.00     0.010 A 
ATOM     42  C   UNL A   1      41.432  24.742  27.749  1.00  0.00    -0.014 A 
BRANCH  42  43
ATOM     43  C   UNL A   1      42.090  26.055  27.943  1.00  0.00     0.031 A 
ATOM     44  C   UNL A   1      41.341  27.139  28.667  1.00  0.00     0.074 A 
ATOM     45  C   UNL A   1      43.328  26.286  27.476  1.00  0.00     0.049 A 
ATOM     46  N   UNL A   1      41.674  28.387  28.869  1.00  0.00    -0.248 NA
ATOM     47  C   UNL A   1      40.041  26.759  29.244  1.00  0.00     0.031 C 
ATOM     48  C   UNL A   1      44.176  25.304  26.807  1.00  0.00     0.029 A 
ATOM     49  N   UNL A   1      44.079  27.436  27.481  1.00  0.00    -0.354 N 
ATOM     50  C   UNL A   1      40.626  28.944  29.590  1.00  0.00     0.074 A 
ATOM     51  C   UNL A   1      39.637  27.904  29.775  1.00  0.00     0.031 C 
ATOM     52  C   UNL A   1      45.325  25.899  26.442  1.00  0.00     0.029 A 
ATOM     53  C   UNL A   1      45.275  27.311  26.819  1.00  0.00     0.049 A 
ATOM     54  H   UNL A   1      43.788  28.268  27.919  1.00  0.00     0.167 HD
ATOM     55  C   UNL A   1      40.502  30.208  30.058  1.00  0.00     0.037 A 
ATOM     56  C   UNL A   1      46.204  28.241  26.525  1.00  0.00     0.037 A 
ATOM     57  C   UNL A   1      41.479  31.245  29.866  1.00  0.00     0.049 A 
ATOM     58  C   UNL A   1      45.994  29.668  26.967  1.00  0.00     0.074 A 
ATOM     59  C   UNL A   1      41.451  32.553  30.317  1.00  0.00     0.029 A 
ATOM     60  N   UNL A   1      42.658  31.093  29.151  1.00  0.00    -0.354 N 
ATOM     61  N   UNL A   1      45.012  30.183  27.665  1.00  0.00    -0.248 NA
ATOM     62  C   UNL A   1      47.021  30.644  26.570  1.00  0.00     0.031 C 
ATOM     63  C   UNL A   1      42.591  33.205  29.835  1.00  0.00     0.029 A 
ATOM     64  C   UNL A   1      43.350  32.293  29.121  1.00  0.00     0.049 A 
ATOM     65  H   UNL A   1      42.958  30.257  28.727  1.00  0.00     0.167 HD
ATOM     66  C   UNL A   1      45.313  31.532  27.813  1.00  0.00     0.074 A 
ATOM     67  C   UNL A   1      46.575  31.755  27.138  1.00  0.00     0.031 C 
ATOM     68  C   UNL A   1      44.608  32.498  28.450  1.00  0.00     0.037 A 
BRANCH  55  69
ATOM     69  C   UNL A   1      39.245  30.549  30.801  1.00  0.00     0.064 A 
ATOM     70  C   UNL A   1      39.153  30.404  32.193  1.00  0.00     0.173 A 
ATOM     71  C   UNL A   1      38.132  31.056  30.116  1.00  0.00     0.173 A 
ATOM     72  F   UNL A   1      40.186  29.908  32.890  1.00  0.00    -0.203 F 
ATOM     73  C   UNL A   1      37.982  30.736  32.870  1.00  0.00     0.198 A 
ATOM     74  C   UNL A   1      36.971  31.409  30.798  1.00  0.00     0.198 A 
ATOM     75  F   UNL A   1      38.171  31.215  28.784  1.00  0.00    -0.203 F 
ATOM     76  F   UNL A   1      37.901  30.552  34.195  1.00  0.00    -0.200 F 
ATOM     77  C   UNL A   1      36.895  31.244  32.173  1.00  0.00     0.200 A 
ATOM     78  F   UNL A   1      35.924  31.908  30.125  1.00  0.00    -0.200 F 
ATOM     79  F   UNL A   1      35.771  31.568  32.827  1.00  0.00    -0.200 F 
ENDBRANCH  55  69
BRANCH  56  80
ATOM     80  C   UNL A   1      47.408  27.866  25.739  1.00  0.00     0.064 A 
ATOM     81  C   UNL A   1      47.373  27.827  24.339  1.00  0.00     0.173 A 
ATOM     82  C   UNL A   1      48.607  27.510  26.374  1.00  0.00     0.173 A 
ATOM     83  F   UNL A   1      46.239  28.127  23.689  1.00  0.00    -0.203 F 
ATOM     84  C   UNL A   1      48.489  27.432  23.603  1.00  0.00     0.198 A 
ATOM     85  C   UNL A   1      49.730  27.140  25.636  1.00  0.00     0.198 A 
ATOM     86  F   UNL A   1      48.688  27.521  27.713  1.00  0.00    -0.203 F 
ATOM     87  F   UNL A   1      48.415  27.357  22.268  1.00  0.00    -0.200 F 
ATOM     88  C   UNL A   1      49.667  27.095  24.252  1.00  0.00     0.200 A 
ATOM     89  F   UNL A   1      50.867  26.818  26.268  1.00  0.00    -0.200 F 
ATOM     90  F   UNL A   1      50.739  26.711  23.545  1.00  0.00    -0.200 F 
ENDBRANCH  56  80
BRANCH  68  91
ATOM     91  C   UNL A   1      45.191  33.880  28.477  1.00  0.00     0.064 A 
ATOM     92  C   UNL A   1      46.141  34.257  29.436  1.00  0.00     0.173 A 
ATOM     93  C   UNL A   1      44.838  34.819  27.495  1.00  0.00     0.173 A 
ATOM     94  F   UNL A   1      46.500  33.400  30.404  1.00  0.00    -0.203 F 
ATOM     95  C   UNL A   1      46.708  35.529  29.419  1.00  0.00     0.198 A 
ATOM     96  C   UNL A   1      45.425  36.080  27.466  1.00  0.00     0.198 A 
ATOM     97  F   UNL A   1      43.937  34.504  26.552  1.00  0.00    -0.203 F 
ATOM     98  F   UNL A   1      47.591  35.880  30.365  1.00  0.00    -0.200 F 
ATOM     99  C   UNL A   1      46.357  36.435  28.430  1.00  0.00     0.200 A 
ATOM    100  F   UNL A   1      45.094  36.951  26.502  1.00  0.00    -0.200 F 
ATOM    101  F   UNL A   1      46.913  37.654  28.409  1.00  0.00    -0.200 F 
ENDBRANCH  68  91
ENDBRANCH  42  43
ENDBRANCH  35  37
ENDBRANCH  34  35
ENDBRANCH  33  34
ENDBRANCH  32  33
ENDBRANCH  31  32
ENDBRANCH  30  31
ENDBRANCH   1  30
TORSDOF 22
ENDMDL
MODEL 3
REMARK VINA RESULT:     -11.0      5.142     11.097
REMARK SMILES CCCc1cc(OC(F)(F)F)cc2c1O[C@@H](C(F)(F)F)C(C(=O)OCCOCCOCCOC(=O)c1ccc(-c3c4nc(c(-c5c(F)c(F)c(F)c(F)c5F)c5ccc([nH]5)c(-c5c(F)c(F)c(F)c(F)c5F)c5nc(c(-c6c(F)c(F)c(F)c(F)c6F)c6ccc3[nH]6)C=C5)C=C4)cc1)=C2
REMARK SMILES IDX 28 1 27 2 26 3 25 4 24 5 22 6 23 7 21 8 4 9 5 10 14 11 6 12
REMARK SMILES IDX 13 13 15 14 12 15 99 16 16 17 3 18 2 19 1 20 7 21 8 22 9 23
REMARK SMILES IDX 10 24 11 25 17 26 18 27 19 28 20 29 29 30 30 31 31 32 32 33
REMARK SMILES IDX 33 34 34 35 35 36 36 37 37 38 98 39 38 40 97 41 39 42 40 43
REMARK SMILES IDX 41 44 91 45 42 46 96 47 90 48 92 49 43 50 95 51 89 52 88 53
REMARK SMILES IDX 44 55 76 56 56 57 75 58 57 59 60 60 74 61 93 62 58 63 59 64
REMARK SMILES IDX 73 66 94 67 61 68 45 69 46 70 54 71 47 72 48 73 52 74 55 75
REMARK SMILES IDX 49 76 50 77 53 78 51 79 77 80 78 81 86 82 79 83 80 84 84 85
REMARK SMILES IDX 87 86 81 87 82 88 85 89 83 90 62 91 63 92 71 93 64 94 65 95
REMARK SMILES IDX 69 96 72 97 66 98 67 99 70 100 68 101
REMARK H PARENT 92 54 60 65
REMARK Flexibility Score: inf
ROOT
ATOM      1  C   UNL A   1      35.434  32.049  28.171  1.00  0.00     0.188 C 
ENDROOT
BRANCH   1   2
ATOM      2  O   UNL A   1      34.628  30.909  28.411  1.00  0.00    -0.376 OA
BRANCH   2   3
ATOM      3  C   UNL A   1      34.193  30.168  27.285  1.00  0.00     0.202 C 
BRANCH   3   4
ATOM      4  C   UNL A   1      32.687  29.900  27.183  1.00  0.00     0.261 C 
BRANCH   4   5
ATOM      5  O   UNL A   1      32.300  28.924  26.204  1.00  0.00    -0.460 OA
BRANCH   5   6
ATOM      6  C   UNL A   1      32.020  27.675  26.632  1.00  0.00     0.338 C 
ATOM      7  O   UNL A   1      31.329  27.384  27.592  1.00  0.00    -0.246 OA
BRANCH   6   8
ATOM      8  C   UNL A   1      32.600  26.693  25.692  1.00  0.00     0.087 C 
ATOM      9  C   UNL A   1      33.799  23.481  23.269  1.00  0.00    -0.002 A 
ATOM     10  C   UNL A   1      35.088  22.954  23.453  1.00  0.00     0.054 A 
ATOM     11  C   UNL A   1      33.405  24.549  24.096  1.00  0.00     0.131 A 
ATOM     12  C   UNL A   1      35.962  23.474  24.414  1.00  0.00     0.130 A 
ATOM     13  C   UNL A   1      34.263  25.071  25.076  1.00  0.00     0.021 A 
ATOM     14  O   UNL A   1      32.118  25.021  23.968  1.00  0.00    -0.475 OA
ATOM     15  C   UNL A   1      35.547  24.543  25.215  1.00  0.00     0.058 A 
ATOM     16  C   UNL A   1      33.757  26.081  26.005  1.00  0.00     0.027 C 
ATOM     17  C   UNL A   1      31.937  26.407  24.366  1.00  0.00     0.316 C 
BRANCH   9  18
ATOM     18  C   UNL A   1      32.808  22.875  22.294  1.00  0.00     0.039 C 
BRANCH  18  19
ATOM     19  C   UNL A   1      32.145  21.532  22.638  1.00  0.00     0.001 C 
ATOM     20  C   UNL A   1      32.348  21.064  24.075  1.00  0.00     0.004 C 
ENDBRANCH  18  19
ENDBRANCH   9  18
BRANCH  12  21
ATOM     21  O   UNL A   1      37.225  23.022  24.680  1.00  0.00    -0.406 OA
BRANCH  21  22
ATOM     22  C   UNL A   1      37.353  21.801  25.394  1.00  0.00     0.573 C 
ATOM     23  F   UNL A   1      38.447  21.809  26.186  1.00  0.00    -0.132 F 
ATOM     24  F   UNL A   1      36.256  21.560  26.142  1.00  0.00    -0.132 F 
ATOM     25  F   UNL A   1      37.487  20.791  24.505  1.00  0.00    -0.132 F 
ENDBRANCH  21  22
ENDBRANCH  12  21
BRANCH  17  26
ATOM     26  C   UNL A   1      30.454  26.772  24.202  1.00  0.00     0.430 C 
ATOM     27  F   UNL A   1      30.287  28.114  24.113  1.00  0.00    -0.167 F 
ATOM     28  F   UNL A   1      29.974  26.267  23.033  1.00  0.00    -0.167 F 
ATOM     29  F   UNL A   1      29.673  26.299  25.191  1.00  0.00    -0.167 F 
ENDBRANCH  17  26
ENDBRANCH   6   8
ENDBRANCH   5   6
ENDBRANCH   4   5
ENDBRANCH   3   4
ENDBRANCH   2   3
ENDBRANCH   1   2
BRANCH   1  30
ATOM     30  C   UNL A   1      34.882  33.324  28.838  1.00  0.00     0.188 C 
BRANCH  30  31
ATOM     31  O   UNL A   1      34.841  34.543  28.105  1.00  0.00    -0.376 OA
BRANCH  31  32
ATOM     32  C   UNL A   1      33.870  35.526  28.442  1.00  0.00     0.202 C 
BRANCH  32  33
ATOM     33  C   UNL A   1      32.940  35.235  29.623  1.00  0.00     0.261 C 
BRANCH  33  34
ATOM     34  O   UNL A   1      33.097  36.142  30.729  1.00  0.00    -0.460 OA
BRANCH  34  35
ATOM     35  C   UNL A   1      32.741  35.645  31.938  1.00  0.00     0.338 C 
ATOM     36  O   UNL A   1      31.628  35.614  32.433  1.00  0.00    -0.246 OA
BRANCH  35  37
ATOM     37  C   UNL A   1      33.895  34.961  32.554  1.00  0.00     0.060 A 
ATOM     38  C   UNL A   1      35.159  35.553  32.426  1.00  0.00     0.016 A 
ATOM     39  C   UNL A   1      33.752  33.722  33.180  1.00  0.00     0.016 A 
ATOM     40  C   UNL A   1      36.292  34.896  32.906  1.00  0.00     0.010 A 
ATOM     41  C   UNL A   1      34.891  33.052  33.637  1.00  0.00     0.010 A 
ATOM     42  C   UNL A   1      36.167  33.624  33.479  1.00  0.00    -0.014 A 
BRANCH  42  43
ATOM     43  C   UNL A   1      37.377  32.820  33.772  1.00  0.00     0.031 A 
ATOM     44  C   UNL A   1      38.130  33.085  35.046  1.00  0.00     0.074 A 
ATOM     45  C   UNL A   1      37.805  31.875  32.919  1.00  0.00     0.049 A 
ATOM     46  N   UNL A   1      39.260  32.577  35.464  1.00  0.00    -0.248 NA
ATOM     47  C   UNL A   1      37.523  34.054  35.972  1.00  0.00     0.031 C 
ATOM     48  C   UNL A   1      37.133  31.487  31.681  1.00  0.00     0.029 A 
ATOM     49  N   UNL A   1      38.924  31.082  32.961  1.00  0.00    -0.354 N 
ATOM     50  C   UNL A   1      39.502  33.166  36.698  1.00  0.00     0.074 A 
ATOM     51  C   UNL A   1      38.413  34.083  36.954  1.00  0.00     0.031 C 
ATOM     52  C   UNL A   1      37.869  30.544  31.066  1.00  0.00     0.029 A 
ATOM     53  C   UNL A   1      39.078  30.292  31.849  1.00  0.00     0.049 A 
ATOM     54  H   UNL A   1      39.555  31.079  33.717  1.00  0.00     0.167 HD
ATOM     55  C   UNL A   1      40.540  32.957  37.543  1.00  0.00     0.037 A 
ATOM     56  C   UNL A   1      40.096  29.485  31.492  1.00  0.00     0.037 A 
ATOM     57  C   UNL A   1      41.628  32.053  37.286  1.00  0.00     0.049 A 
ATOM     58  C   UNL A   1      41.291  29.349  32.402  1.00  0.00     0.074 A 
ATOM     59  C   UNL A   1      42.716  31.760  38.089  1.00  0.00     0.029 A 
ATOM     60  N   UNL A   1      41.772  31.304  36.127  1.00  0.00    -0.354 N 
ATOM     61  N   UNL A   1      41.505  29.892  33.576  1.00  0.00    -0.248 NA
ATOM     62  C   UNL A   1      42.390  28.492  31.931  1.00  0.00     0.031 C 
ATOM     63  C   UNL A   1      43.543  30.870  37.396  1.00  0.00     0.029 A 
ATOM     64  C   UNL A   1      42.948  30.574  36.181  1.00  0.00     0.049 A 
ATOM     65  H   UNL A   1      41.133  31.294  35.378  1.00  0.00     0.167 HD
ATOM     66  C   UNL A   1      42.745  29.425  33.994  1.00  0.00     0.074 A 
ATOM     67  C   UNL A   1      43.235  28.547  32.951  1.00  0.00     0.031 C 
ATOM     68  C   UNL A   1      43.418  29.699  35.138  1.00  0.00     0.037 A 
BRANCH  55  69
ATOM     69  C   UNL A   1      40.561  33.747  38.817  1.00  0.00     0.064 A 
ATOM     70  C   UNL A   1      39.863  33.321  39.957  1.00  0.00     0.173 A 
ATOM     71  C   UNL A   1      41.316  34.925  38.909  1.00  0.00     0.173 A 
ATOM     72  F   UNL A   1      39.115  32.209  39.913  1.00  0.00    -0.203 F 
ATOM     73  C   UNL A   1      39.903  34.059  41.136  1.00  0.00     0.198 A 
ATOM     74  C   UNL A   1      41.372  35.648  40.096  1.00  0.00     0.198 A 
ATOM     75  F   UNL A   1      42.003  35.373  37.847  1.00  0.00    -0.203 F 
ATOM     76  F   UNL A   1      39.195  33.656  42.201  1.00  0.00    -0.200 F 
ATOM     77  C   UNL A   1      40.661  35.218  41.207  1.00  0.00     0.200 A 
ATOM     78  F   UNL A   1      42.113  36.763  40.167  1.00  0.00    -0.200 F 
ATOM     79  F   UNL A   1      40.703  35.925  42.346  1.00  0.00    -0.200 F 
ENDBRANCH  55  69
BRANCH  56  80
ATOM     80  C   UNL A   1      40.053  28.765  30.193  1.00  0.00     0.064 A 
ATOM     81  C   UNL A   1      39.454  27.504  30.086  1.00  0.00     0.173 A 
ATOM     82  C   UNL A   1      40.637  29.313  29.041  1.00  0.00     0.173 A 
ATOM     83  F   UNL A   1      38.912  26.927  31.168  1.00  0.00    -0.203 F 
ATOM     84  C   UNL A   1      39.452  26.809  28.877  1.00  0.00     0.198 A 
ATOM     85  C   UNL A   1      40.612  28.629  27.827  1.00  0.00     0.198 A 
ATOM     86  F   UNL A   1      41.232  30.514  29.094  1.00  0.00    -0.203 F 
ATOM     87  F   UNL A   1      38.914  25.584  28.813  1.00  0.00    -0.200 F 
ATOM     88  C   UNL A   1      40.026  27.375  27.748  1.00  0.00     0.200 A 
ATOM     89  F   UNL A   1      41.164  29.180  26.738  1.00  0.00    -0.200 F 
ATOM     90  F   UNL A   1      40.027  26.705  26.588  1.00  0.00    -0.200 F 
ENDBRANCH  56  80
BRANCH  68  91
ATOM     91  C   UNL A   1      44.744  29.026  35.343  1.00  0.00     0.064 A 
ATOM     92  C   UNL A   1      44.836  27.746  35.908  1.00  0.00     0.173 A 
ATOM     93  C   UNL A   1      45.929  29.644  34.913  1.00  0.00     0.173 A 
ATOM     94  F   UNL A   1      43.734  27.121  36.347  1.00  0.00    -0.203 F 
ATOM     95  C   UNL A   1      46.069  27.115  36.048  1.00  0.00     0.198 A 
ATOM     96  C   UNL A   1      47.156  28.999  35.032  1.00  0.00     0.198 A 
ATOM     97  F   UNL A   1      45.891  30.866  34.361  1.00  0.00    -0.203 F 
ATOM     98  F   UNL A   1      46.139  25.905  36.621  1.00  0.00    -0.200 F 
ATOM     99  C   UNL A   1      47.226  27.737  35.603  1.00  0.00     0.200 A 
ATOM    100  F   UNL A   1      48.271  29.597  34.590  1.00  0.00    -0.200 F 
ATOM    101  F   UNL A   1      48.410  27.122  35.728  1.00  0.00    -0.200 F 
ENDBRANCH  68  91
ENDBRANCH  42  43
ENDBRANCH  35  37
ENDBRANCH  34  35
ENDBRANCH  33  34
ENDBRANCH  32  33
ENDBRANCH  31  32
ENDBRANCH  30  31
ENDBRANCH   1  30
TORSDOF 22
ENDMDL
