MODEL 1
REMARK VINA RESULT:     -11.1      0.000      0.000
REMARK SMILES O=C(OCCOCCOCCOC(=O)[C@H]1CC[C@@H](CNc2cccc(F)c2[N+](=O)[O-])O1)c1ccc(-c2c3nc(c(-c4c(F)c(F)c(F)c(F)c4F)c4ccc([nH]4)c(-c4c(F)c(F)c(F)c(F)c4F)c4nc(c(-c5c(F)c(F)c(F)c(F)c5F)c5ccc2[nH]5)C=C4)C=C3)cc1
REMARK SMILES IDX 8 1 7 2 6 3 5 4 4 5 3 6 2 7 1 8 32 9 33 10 94 11 34 12 93 13
REMARK SMILES IDX 35 14 36 15 37 16 87 17 38 18 92 19 86 20 88 21 39 22 91 23
REMARK SMILES IDX 85 24 84 25 40 27 72 28 52 29 71 30 53 31 56 32 70 33 89 34
REMARK SMILES IDX 54 35 55 36 69 38 90 39 57 40 41 41 42 42 50 43 43 44 44 45
REMARK SMILES IDX 48 46 51 47 45 48 46 49 49 50 47 51 73 52 74 53 82 54 75 55
REMARK SMILES IDX 76 56 80 57 83 58 77 59 78 60 81 61 79 62 58 63 59 64 67 65
REMARK SMILES IDX 60 66 61 67 65 68 68 69 62 70 63 71 66 72 64 73 9 74 10 75
REMARK SMILES IDX 11 76 12 77 13 78 14 79 15 80 16 81 31 82 17 83 18 84 19 85
REMARK SMILES IDX 20 86 21 88 22 89 27 90 23 91 25 92 24 93 26 94 28 95 29 96
REMARK SMILES IDX 30 97
REMARK H PARENT 88 26 56 37 20 87
REMARK Flexibility Score: inf
ROOT
ATOM      1  C   UNL A   1      43.459  18.741  25.343  1.00  0.00     0.188 C 
ENDROOT
BRANCH   1   2
ATOM      2  C   UNL A   1      44.938  19.122  25.202  1.00  0.00     0.188 C 
BRANCH   2   3
ATOM      3  O   UNL A   1      45.249  20.233  24.374  1.00  0.00    -0.376 OA
BRANCH   3   4
ATOM      4  C   UNL A   1      45.878  21.352  25.008  1.00  0.00     0.202 C 
BRANCH   4   5
ATOM      5  C   UNL A   1      46.026  22.685  24.242  1.00  0.00     0.261 C 
BRANCH   5   6
ATOM      6  O   UNL A   1      45.284  23.807  24.773  1.00  0.00    -0.460 OA
BRANCH   6   7
ATOM      7  C   UNL A   1      44.000  23.878  25.188  1.00  0.00     0.338 C 
ATOM      8  O   UNL A   1      43.146  23.156  24.686  1.00  0.00    -0.246 OA
BRANCH   7   9
ATOM      9  C   UNL A   1      43.594  24.852  26.227  1.00  0.00     0.060 A 
ATOM     10  C   UNL A   1      43.783  26.225  26.102  1.00  0.00     0.016 A 
ATOM     11  C   UNL A   1      42.850  24.381  27.306  1.00  0.00     0.016 A 
ATOM     12  C   UNL A   1      43.390  27.108  27.101  1.00  0.00     0.010 A 
ATOM     13  C   UNL A   1      42.320  25.282  28.232  1.00  0.00     0.010 A 
ATOM     14  C   UNL A   1      42.606  26.659  28.159  1.00  0.00    -0.014 A 
BRANCH  14  15
ATOM     15  C   UNL A   1      42.097  27.592  29.204  1.00  0.00     0.031 A 
ATOM     16  C   UNL A   1      42.797  27.620  30.536  1.00  0.00     0.074 A 
ATOM     17  C   UNL A   1      40.997  28.350  29.006  1.00  0.00     0.049 A 
ATOM     18  N   UNL A   1      42.383  28.066  31.691  1.00  0.00    -0.248 NA
ATOM     19  C   UNL A   1      44.130  26.994  30.579  1.00  0.00     0.031 C 
ATOM     20  C   UNL A   1      40.217  28.434  27.768  1.00  0.00     0.029 A 
ATOM     21  N   UNL A   1      40.312  29.169  29.872  1.00  0.00    -0.354 N 
ATOM     22  C   UNL A   1      43.367  27.704  32.601  1.00  0.00     0.074 A 
ATOM     23  C   UNL A   1      44.357  26.937  31.881  1.00  0.00     0.031 C 
ATOM     24  C   UNL A   1      39.158  29.234  27.957  1.00  0.00     0.029 A 
ATOM     25  C   UNL A   1      39.149  29.680  29.342  1.00  0.00     0.049 A 
ATOM     26  H   UNL A   1      40.624  29.370  30.784  1.00  0.00     0.167 HD
ATOM     27  C   UNL A   1      43.463  28.027  33.912  1.00  0.00     0.037 A 
ATOM     28  C   UNL A   1      38.161  30.390  29.920  1.00  0.00     0.037 A 
ATOM     29  C   UNL A   1      42.533  28.891  34.582  1.00  0.00     0.049 A 
ATOM     30  C   UNL A   1      38.290  30.752  31.373  1.00  0.00     0.074 A 
ATOM     31  C   UNL A   1      42.576  29.366  35.879  1.00  0.00     0.029 A 
ATOM     32  N   UNL A   1      41.403  29.437  33.986  1.00  0.00    -0.354 N 
ATOM     33  N   UNL A   1      39.227  30.417  32.225  1.00  0.00    -0.248 NA
ATOM     34  C   UNL A   1      37.236  31.604  31.940  1.00  0.00     0.031 C 
ATOM     35  C   UNL A   1      41.469  30.199  36.070  1.00  0.00     0.029 A 
ATOM     36  C   UNL A   1      40.754  30.265  34.884  1.00  0.00     0.049 A 
ATOM     37  H   UNL A   1      41.110  29.261  33.063  1.00  0.00     0.167 HD
ATOM     38  C   UNL A   1      38.902  31.048  33.417  1.00  0.00     0.074 A 
ATOM     39  C   UNL A   1      37.678  31.786  33.178  1.00  0.00     0.031 C 
ATOM     40  C   UNL A   1      39.561  31.023  34.600  1.00  0.00     0.037 A 
BRANCH  27  41
ATOM     41  C   UNL A   1      44.639  27.487  34.672  1.00  0.00     0.064 A 
ATOM     42  C   UNL A   1      45.862  28.174  34.684  1.00  0.00     0.173 A 
ATOM     43  C   UNL A   1      44.554  26.292  35.406  1.00  0.00     0.173 A 
ATOM     44  F   UNL A   1      46.006  29.315  33.995  1.00  0.00    -0.203 F 
ATOM     45  C   UNL A   1      46.948  27.693  35.414  1.00  0.00     0.198 A 
ATOM     46  C   UNL A   1      45.627  25.835  36.165  1.00  0.00     0.198 A 
ATOM     47  F   UNL A   1      43.403  25.603  35.441  1.00  0.00    -0.203 F 
ATOM     48  F   UNL A   1      48.110  28.361  35.405  1.00  0.00    -0.200 F 
ATOM     49  C   UNL A   1      46.825  26.533  36.164  1.00  0.00     0.200 A 
ATOM     50  F   UNL A   1      45.490  24.737  36.919  1.00  0.00    -0.200 F 
ATOM     51  F   UNL A   1      47.855  26.095  36.900  1.00  0.00    -0.200 F 
ENDBRANCH  27  41
BRANCH  28  52
ATOM     52  C   UNL A   1      36.989  30.825  29.115  1.00  0.00     0.064 A 
ATOM     53  C   UNL A   1      36.822  32.160  28.717  1.00  0.00     0.173 A 
ATOM     54  C   UNL A   1      35.995  29.908  28.748  1.00  0.00     0.173 A 
ATOM     55  F   UNL A   1      37.738  33.082  29.047  1.00  0.00    -0.203 F 
ATOM     56  C   UNL A   1      35.702  32.560  27.987  1.00  0.00     0.198 A 
ATOM     57  C   UNL A   1      34.888  30.303  28.000  1.00  0.00     0.198 A 
ATOM     58  F   UNL A   1      36.115  28.617  29.094  1.00  0.00    -0.203 F 
ATOM     59  F   UNL A   1      35.553  33.845  27.638  1.00  0.00    -0.200 F 
ATOM     60  C   UNL A   1      34.740  31.630  27.624  1.00  0.00     0.200 A 
ATOM     61  F   UNL A   1      33.970  29.398  27.636  1.00  0.00    -0.200 F 
ATOM     62  F   UNL A   1      33.671  32.011  26.911  1.00  0.00    -0.200 F 
ENDBRANCH  28  52
BRANCH  40  63
ATOM     63  C   UNL A   1      39.025  31.874  35.709  1.00  0.00     0.064 A 
ATOM     64  C   UNL A   1      39.432  33.211  35.823  1.00  0.00     0.173 A 
ATOM     65  C   UNL A   1      38.202  31.343  36.710  1.00  0.00     0.173 A 
ATOM     66  F   UNL A   1      40.225  33.760  34.889  1.00  0.00    -0.203 F 
ATOM     67  C   UNL A   1      39.058  33.980  36.919  1.00  0.00     0.198 A 
ATOM     68  C   UNL A   1      37.808  32.124  37.791  1.00  0.00     0.198 A 
ATOM     69  F   UNL A   1      37.775  30.074  36.631  1.00  0.00    -0.203 F 
ATOM     70  F   UNL A   1      39.497  35.241  37.032  1.00  0.00    -0.200 F 
ATOM     71  C   UNL A   1      38.246  33.435  37.902  1.00  0.00     0.200 A 
ATOM     72  F   UNL A   1      37.005  31.604  38.731  1.00  0.00    -0.200 F 
ATOM     73  F   UNL A   1      37.889  34.175  38.961  1.00  0.00    -0.200 F 
ENDBRANCH  40  63
ENDBRANCH  14  15
ENDBRANCH   7   9
ENDBRANCH   6   7
ENDBRANCH   5   6
ENDBRANCH   4   5
ENDBRANCH   3   4
ENDBRANCH   2   3
ENDBRANCH   1   2
BRANCH   1  74
ATOM     74  O   UNL A   1      42.440  19.707  25.207  1.00  0.00    -0.376 OA
BRANCH  74  75
ATOM     75  C   UNL A   1      41.481  19.892  26.233  1.00  0.00     0.202 C 
BRANCH  75  76
ATOM     76  C   UNL A   1      40.931  21.286  26.581  1.00  0.00     0.261 C 
BRANCH  76  77
ATOM     77  O   UNL A   1      39.520  21.475  26.439  1.00  0.00    -0.461 OA
BRANCH  77  78
ATOM     78  C   UNL A   1      39.104  22.768  26.342  1.00  0.00     0.335 C 
ATOM     79  O   UNL A   1      39.709  23.731  26.793  1.00  0.00    -0.249 OA
BRANCH  78  80
ATOM     80  C   UNL A   1      37.728  22.862  25.658  1.00  0.00     0.228 C 
ATOM     81  C   UNL A   1      37.360  21.550  24.956  1.00  0.00     0.047 C 
ATOM     82  O   UNL A   1      36.598  23.204  26.480  1.00  0.00    -0.361 OA
ATOM     83  C   UNL A   1      36.052  21.133  25.605  1.00  0.00     0.037 C 
ATOM     84  C   UNL A   1      35.465  22.480  25.939  1.00  0.00     0.138 C 
BRANCH  84  85
ATOM     85  C   UNL A   1      34.264  22.492  26.904  1.00  0.00     0.145 C 
BRANCH  85  86
ATOM     86  N   UNL A   1      33.111  22.909  26.118  1.00  0.00    -0.377 N 
ATOM     87  H   UNL A   1      32.766  22.257  25.465  1.00  0.00     0.160 HD
BRANCH  86  88
ATOM     88  C   UNL A   1      32.448  24.119  26.184  1.00  0.00     0.116 A 
ATOM     89  C   UNL A   1      33.166  25.322  26.091  1.00  0.00     0.033 A 
ATOM     90  C   UNL A   1      31.034  24.208  26.288  1.00  0.00     0.327 A 
ATOM     91  C   UNL A   1      32.511  26.554  25.980  1.00  0.00     0.006 A 
ATOM     92  C   UNL A   1      30.387  25.439  26.136  1.00  0.00     0.202 A 
ATOM     93  C   UNL A   1      31.122  26.607  25.968  1.00  0.00     0.047 A 
ATOM     94  F   UNL A   1      29.053  25.552  26.109  1.00  0.00    -0.199 F 
BRANCH  90  95
ATOM     95  N   UNL A   1      30.219  23.023  26.595  1.00  0.00     0.068 N 
ATOM     96  O   UNL A   1      30.285  22.051  25.826  1.00  0.00    -0.258 OA
ATOM     97  O   UNL A   1      29.526  23.029  27.620  1.00  0.00    -0.258 OA
ENDBRANCH  90  95
ENDBRANCH  86  88
ENDBRANCH  85  86
ENDBRANCH  84  85
ENDBRANCH  78  80
ENDBRANCH  77  78
ENDBRANCH  76  77
ENDBRANCH  75  76
ENDBRANCH  74  75
ENDBRANCH   1  74
TORSDOF 21
ENDMDL
MODEL 2
REMARK VINA RESULT:     -10.4      1.434      2.513
REMARK SMILES O=C(OCCOCCOCCOC(=O)[C@H]1CC[C@@H](CNc2cccc(F)c2[N+](=O)[O-])O1)c1ccc(-c2c3nc(c(-c4c(F)c(F)c(F)c(F)c4F)c4ccc([nH]4)c(-c4c(F)c(F)c(F)c(F)c4F)c4nc(c(-c5c(F)c(F)c(F)c(F)c5F)c5ccc2[nH]5)C=C4)C=C3)cc1
REMARK SMILES IDX 8 1 7 2 6 3 5 4 4 5 3 6 2 7 1 8 32 9 33 10 94 11 34 12 93 13
REMARK SMILES IDX 35 14 36 15 37 16 87 17 38 18 92 19 86 20 88 21 39 22 91 23
REMARK SMILES IDX 85 24 84 25 40 27 72 28 52 29 71 30 53 31 56 32 70 33 89 34
REMARK SMILES IDX 54 35 55 36 69 38 90 39 57 40 41 41 42 42 50 43 43 44 44 45
REMARK SMILES IDX 48 46 51 47 45 48 46 49 49 50 47 51 73 52 74 53 82 54 75 55
REMARK SMILES IDX 76 56 80 57 83 58 77 59 78 60 81 61 79 62 58 63 59 64 67 65
REMARK SMILES IDX 60 66 61 67 65 68 68 69 62 70 63 71 66 72 64 73 9 74 10 75
REMARK SMILES IDX 11 76 12 77 13 78 14 79 15 80 16 81 31 82 17 83 18 84 19 85
REMARK SMILES IDX 20 86 21 88 22 89 27 90 23 91 25 92 24 93 26 94 28 95 29 96
REMARK SMILES IDX 30 97
REMARK H PARENT 88 26 56 37 20 87
REMARK Flexibility Score: inf
ROOT
ATOM      1  C   UNL A   1      43.312  18.866  25.621  1.00  0.00     0.188 C 
ENDROOT
BRANCH   1   2
ATOM      2  C   UNL A   1      44.665  19.268  25.019  1.00  0.00     0.188 C 
BRANCH   2   3
ATOM      3  O   UNL A   1      44.645  20.121  23.883  1.00  0.00    -0.376 OA
BRANCH   3   4
ATOM      4  C   UNL A   1      45.395  21.337  23.979  1.00  0.00     0.202 C 
BRANCH   4   5
ATOM      5  C   UNL A   1      44.784  22.659  23.466  1.00  0.00     0.261 C 
BRANCH   5   6
ATOM      6  O   UNL A   1      44.287  23.563  24.479  1.00  0.00    -0.460 OA
BRANCH   6   7
ATOM      7  C   UNL A   1      43.163  23.493  25.227  1.00  0.00     0.338 C 
ATOM      8  O   UNL A   1      42.320  22.634  24.999  1.00  0.00    -0.246 OA
BRANCH   7   9
ATOM      9  C   UNL A   1      42.913  24.474  26.307  1.00  0.00     0.060 A 
ATOM     10  C   UNL A   1      43.595  25.682  26.416  1.00  0.00     0.016 A 
ATOM     11  C   UNL A   1      41.836  24.243  27.161  1.00  0.00     0.016 A 
ATOM     12  C   UNL A   1      43.333  26.577  27.448  1.00  0.00     0.010 A 
ATOM     13  C   UNL A   1      41.472  25.211  28.099  1.00  0.00     0.010 A 
ATOM     14  C   UNL A   1      42.234  26.382  28.276  1.00  0.00    -0.014 A 
BRANCH  14  15
ATOM     15  C   UNL A   1      41.873  27.363  29.338  1.00  0.00     0.031 A 
ATOM     16  C   UNL A   1      42.620  27.306  30.643  1.00  0.00     0.074 A 
ATOM     17  C   UNL A   1      40.860  28.242  29.181  1.00  0.00     0.049 A 
ATOM     18  N   UNL A   1      42.303  27.792  31.813  1.00  0.00    -0.248 NA
ATOM     19  C   UNL A   1      43.874  26.532  30.638  1.00  0.00     0.031 C 
ATOM     20  C   UNL A   1      40.050  28.419  27.972  1.00  0.00     0.029 A 
ATOM     21  N   UNL A   1      40.306  29.131  30.071  1.00  0.00    -0.354 N 
ATOM     22  C   UNL A   1      43.272  27.317  32.686  1.00  0.00     0.074 A 
ATOM     23  C   UNL A   1      44.140  26.444  31.930  1.00  0.00     0.031 C 
ATOM     24  C   UNL A   1      39.096  29.334  28.200  1.00  0.00     0.029 A 
ATOM     25  C   UNL A   1      39.189  29.773  29.585  1.00  0.00     0.049 A 
ATOM     26  H   UNL A   1      40.672  29.292  30.971  1.00  0.00     0.167 HD
ATOM     27  C   UNL A   1      43.453  27.623  33.992  1.00  0.00     0.037 A 
ATOM     28  C   UNL A   1      38.312  30.589  30.198  1.00  0.00     0.037 A 
ATOM     29  C   UNL A   1      42.653  28.585  34.696  1.00  0.00     0.049 A 
ATOM     30  C   UNL A   1      38.534  30.929  31.645  1.00  0.00     0.074 A 
ATOM     31  C   UNL A   1      42.798  29.047  35.990  1.00  0.00     0.029 A 
ATOM     32  N   UNL A   1      41.572  29.258  34.141  1.00  0.00    -0.354 N 
ATOM     33  N   UNL A   1      39.458  30.486  32.462  1.00  0.00    -0.248 NA
ATOM     34  C   UNL A   1      37.607  31.894  32.250  1.00  0.00     0.031 C 
ATOM     35  C   UNL A   1      41.801  30.000  36.221  1.00  0.00     0.029 A 
ATOM     36  C   UNL A   1      41.054  30.151  35.062  1.00  0.00     0.049 A 
ATOM     37  H   UNL A   1      41.226  29.120  33.230  1.00  0.00     0.167 HD
ATOM     38  C   UNL A   1      39.251  31.146  33.664  1.00  0.00     0.074 A 
ATOM     39  C   UNL A   1      38.112  32.020  33.470  1.00  0.00     0.031 C 
ATOM     40  C   UNL A   1      39.947  31.041  34.822  1.00  0.00     0.037 A 
BRANCH  27  41
ATOM     41  C   UNL A   1      44.587  26.949  34.709  1.00  0.00     0.064 A 
ATOM     42  C   UNL A   1      44.388  25.736  35.385  1.00  0.00     0.173 A 
ATOM     43  C   UNL A   1      45.880  27.496  34.717  1.00  0.00     0.173 A 
ATOM     44  F   UNL A   1      43.172  25.170  35.419  1.00  0.00    -0.203 F 
ATOM     45  C   UNL A   1      45.443  25.090  36.025  1.00  0.00     0.198 A 
ATOM     46  C   UNL A   1      46.940  26.830  35.324  1.00  0.00     0.198 A 
ATOM     47  F   UNL A   1      46.129  28.647  34.074  1.00  0.00    -0.203 F 
ATOM     48  F   UNL A   1      45.229  23.936  36.671  1.00  0.00    -0.200 F 
ATOM     49  C   UNL A   1      46.720  25.630  35.982  1.00  0.00     0.200 A 
ATOM     50  F   UNL A   1      48.178  27.335  35.245  1.00  0.00    -0.200 F 
ATOM     51  F   UNL A   1      47.743  24.986  36.561  1.00  0.00    -0.200 F 
ENDBRANCH  27  41
BRANCH  28  52
ATOM     52  C   UNL A   1      37.168  31.158  29.437  1.00  0.00     0.064 A 
ATOM     53  C   UNL A   1      36.055  30.381  29.084  1.00  0.00     0.173 A 
ATOM     54  C   UNL A   1      37.180  32.499  29.027  1.00  0.00     0.173 A 
ATOM     55  F   UNL A   1      35.994  29.090  29.443  1.00  0.00    -0.203 F 
ATOM     56  C   UNL A   1      35.003  30.921  28.345  1.00  0.00     0.198 A 
ATOM     57  C   UNL A   1      36.119  33.044  28.308  1.00  0.00     0.198 A 
ATOM     58  F   UNL A   1      38.216  33.288  29.352  1.00  0.00    -0.203 F 
ATOM     59  F   UNL A   1      33.962  30.151  27.999  1.00  0.00    -0.200 F 
ATOM     60  C   UNL A   1      35.033  32.254  27.963  1.00  0.00     0.200 A 
ATOM     61  F   UNL A   1      36.143  34.337  27.957  1.00  0.00    -0.200 F 
ATOM     62  F   UNL A   1      34.015  32.777  27.265  1.00  0.00    -0.200 F 
ENDBRANCH  28  52
BRANCH  40  63
ATOM     63  C   UNL A   1      39.553  31.944  35.950  1.00  0.00     0.064 A 
ATOM     64  C   UNL A   1      38.484  31.592  36.787  1.00  0.00     0.173 A 
ATOM     65  C   UNL A   1      40.156  33.195  36.134  1.00  0.00     0.173 A 
ATOM     66  F   UNL A   1      37.873  30.406  36.642  1.00  0.00    -0.203 F 
ATOM     67  C   UNL A   1      38.012  32.475  37.751  1.00  0.00     0.198 A 
ATOM     68  C   UNL A   1      39.699  34.064  37.119  1.00  0.00     0.198 A 
ATOM     69  F   UNL A   1      41.193  33.564  35.368  1.00  0.00    -0.203 F 
ATOM     70  F   UNL A   1      36.959  32.138  38.508  1.00  0.00    -0.200 F 
ATOM     71  C   UNL A   1      38.620  33.710  37.916  1.00  0.00     0.200 A 
ATOM     72  F   UNL A   1      40.300  35.250  37.293  1.00  0.00    -0.200 F 
ATOM     73  F   UNL A   1      38.162  34.564  38.842  1.00  0.00    -0.200 F 
ENDBRANCH  40  63
ENDBRANCH  14  15
ENDBRANCH   7   9
ENDBRANCH   6   7
ENDBRANCH   5   6
ENDBRANCH   4   5
ENDBRANCH   3   4
ENDBRANCH   2   3
ENDBRANCH   1   2
BRANCH   1  74
ATOM     74  O   UNL A   1      42.120  19.512  25.233  1.00  0.00    -0.376 OA
BRANCH  74  75
ATOM     75  C   UNL A   1      40.979  19.483  26.074  1.00  0.00     0.202 C 
BRANCH  75  76
ATOM     76  C   UNL A   1      40.171  20.756  26.381  1.00  0.00     0.261 C 
BRANCH  76  77
ATOM     77  O   UNL A   1      38.987  20.968  25.607  1.00  0.00    -0.461 OA
BRANCH  77  78
ATOM     78  C   UNL A   1      38.381  22.177  25.773  1.00  0.00     0.335 C 
ATOM     79  O   UNL A   1      38.716  23.018  26.597  1.00  0.00    -0.249 OA
BRANCH  78  80
ATOM     80  C   UNL A   1      37.165  22.325  24.840  1.00  0.00     0.228 C 
ATOM     81  C   UNL A   1      36.308  21.054  24.831  1.00  0.00     0.047 C 
ATOM     82  O   UNL A   1      36.260  23.414  25.095  1.00  0.00    -0.361 OA
ATOM     83  C   UNL A   1      34.937  21.525  25.282  1.00  0.00     0.037 C 
ATOM     84  C   UNL A   1      34.937  22.934  24.749  1.00  0.00     0.138 C 
BRANCH  84  85
ATOM     85  C   UNL A   1      33.833  23.873  25.272  1.00  0.00     0.145 C 
BRANCH  85  86
ATOM     86  N   UNL A   1      33.381  24.652  24.127  1.00  0.00    -0.377 N 
ATOM     87  H   UNL A   1      33.964  24.644  23.334  1.00  0.00     0.160 HD
BRANCH  86  88
ATOM     88  C   UNL A   1      32.225  25.401  24.030  1.00  0.00     0.116 A 
ATOM     89  C   UNL A   1      31.033  24.804  23.591  1.00  0.00     0.033 A 
ATOM     90  C   UNL A   1      32.168  26.767  24.417  1.00  0.00     0.327 A 
ATOM     91  C   UNL A   1      29.811  25.487  23.648  1.00  0.00     0.006 A 
ATOM     92  C   UNL A   1      30.939  27.428  24.507  1.00  0.00     0.202 A 
ATOM     93  C   UNL A   1      29.762  26.786  24.139  1.00  0.00     0.047 A 
ATOM     94  F   UNL A   1      30.826  28.677  24.979  1.00  0.00    -0.199 F 
BRANCH  90  95
ATOM     95  N   UNL A   1      33.394  27.530  24.691  1.00  0.00     0.068 N 
ATOM     96  O   UNL A   1      33.539  28.628  24.130  1.00  0.00    -0.258 OA
ATOM     97  O   UNL A   1      34.215  27.066  25.491  1.00  0.00    -0.258 OA
ENDBRANCH  90  95
ENDBRANCH  86  88
ENDBRANCH  85  86
ENDBRANCH  84  85
ENDBRANCH  78  80
ENDBRANCH  77  78
ENDBRANCH  76  77
ENDBRANCH  75  76
ENDBRANCH  74  75
ENDBRANCH   1  74
TORSDOF 21
ENDMDL
MODEL 3
REMARK VINA RESULT:     -10.2      5.404     11.578
REMARK SMILES O=C(OCCOCCOCCOC(=O)[C@H]1CC[C@@H](CNc2cccc(F)c2[N+](=O)[O-])O1)c1ccc(-c2c3nc(c(-c4c(F)c(F)c(F)c(F)c4F)c4ccc([nH]4)c(-c4c(F)c(F)c(F)c(F)c4F)c4nc(c(-c5c(F)c(F)c(F)c(F)c5F)c5ccc2[nH]5)C=C4)C=C3)cc1
REMARK SMILES IDX 8 1 7 2 6 3 5 4 4 5 3 6 2 7 1 8 32 9 33 10 94 11 34 12 93 13
REMARK SMILES IDX 35 14 36 15 37 16 87 17 38 18 92 19 86 20 88 21 39 22 91 23
REMARK SMILES IDX 85 24 84 25 40 27 72 28 52 29 71 30 53 31 56 32 70 33 89 34
REMARK SMILES IDX 54 35 55 36 69 38 90 39 57 40 41 41 42 42 50 43 43 44 44 45
REMARK SMILES IDX 48 46 51 47 45 48 46 49 49 50 47 51 73 52 74 53 82 54 75 55
REMARK SMILES IDX 76 56 80 57 83 58 77 59 78 60 81 61 79 62 58 63 59 64 67 65
REMARK SMILES IDX 60 66 61 67 65 68 68 69 62 70 63 71 66 72 64 73 9 74 10 75
REMARK SMILES IDX 11 76 12 77 13 78 14 79 15 80 16 81 31 82 17 83 18 84 19 85
REMARK SMILES IDX 20 86 21 88 22 89 27 90 23 91 25 92 24 93 26 94 28 95 29 96
REMARK SMILES IDX 30 97
REMARK H PARENT 88 26 56 37 20 87
REMARK Flexibility Score: inf
ROOT
ATOM      1  C   UNL A   1      36.232  33.264  30.440  1.00  0.00     0.188 C 
ENDROOT
BRANCH   1   2
ATOM      2  C   UNL A   1      34.999  34.014  30.959  1.00  0.00     0.188 C 
BRANCH   2   3
ATOM      3  O   UNL A   1      33.841  34.014  30.137  1.00  0.00    -0.376 OA
BRANCH   3   4
ATOM      4  C   UNL A   1      34.057  34.057  28.722  1.00  0.00     0.202 C 
BRANCH   4   5
ATOM      5  C   UNL A   1      33.677  32.840  27.850  1.00  0.00     0.261 C 
BRANCH   5   6
ATOM      6  O   UNL A   1      34.054  31.545  28.370  1.00  0.00    -0.460 OA
BRANCH   6   7
ATOM      7  C   UNL A   1      34.721  30.532  27.774  1.00  0.00     0.338 C 
ATOM      8  O   UNL A   1      34.211  29.916  26.846  1.00  0.00    -0.246 OA
BRANCH   7   9
ATOM      9  C   UNL A   1      36.061  30.124  28.254  1.00  0.00     0.060 A 
ATOM     10  C   UNL A   1      36.275  29.491  29.474  1.00  0.00     0.016 A 
ATOM     11  C   UNL A   1      37.133  30.242  27.371  1.00  0.00     0.016 A 
ATOM     12  C   UNL A   1      37.551  29.125  29.891  1.00  0.00     0.010 A 
ATOM     13  C   UNL A   1      38.384  29.734  27.726  1.00  0.00     0.010 A 
ATOM     14  C   UNL A   1      38.619  29.193  29.004  1.00  0.00    -0.014 A 
BRANCH  14  15
ATOM     15  C   UNL A   1      39.983  28.731  29.389  1.00  0.00     0.031 A 
ATOM     16  C   UNL A   1      40.850  29.663  30.192  1.00  0.00     0.074 A 
ATOM     17  C   UNL A   1      40.474  27.541  28.980  1.00  0.00     0.049 A 
ATOM     18  N   UNL A   1      42.144  29.660  30.370  1.00  0.00    -0.248 NA
ATOM     19  C   UNL A   1      40.161  30.798  30.831  1.00  0.00     0.031 C 
ATOM     20  C   UNL A   1      39.751  26.530  28.203  1.00  0.00     0.029 A 
ATOM     21  N   UNL A   1      41.727  26.997  29.127  1.00  0.00    -0.354 N 
ATOM     22  C   UNL A   1      42.423  30.827  31.069  1.00  0.00     0.074 A 
ATOM     23  C   UNL A   1      41.181  31.548  31.215  1.00  0.00     0.031 C 
ATOM     24  C   UNL A   1      40.571  25.506  27.925  1.00  0.00     0.029 A 
ATOM     25  C   UNL A   1      41.892  25.807  28.455  1.00  0.00     0.049 A 
ATOM     26  H   UNL A   1      42.439  27.418  29.661  1.00  0.00     0.167 HD
ATOM     27  C   UNL A   1      43.604  31.235  31.590  1.00  0.00     0.037 A 
ATOM     28  C   UNL A   1      42.996  25.063  28.249  1.00  0.00     0.037 A 
ATOM     29  C   UNL A   1      44.803  30.447  31.540  1.00  0.00     0.049 A 
ATOM     30  C   UNL A   1      44.296  25.523  28.845  1.00  0.00     0.074 A 
ATOM     31  C   UNL A   1      46.034  30.711  32.112  1.00  0.00     0.029 A 
ATOM     32  N   UNL A   1      44.905  29.217  30.903  1.00  0.00    -0.354 N 
ATOM     33  N   UNL A   1      44.552  26.621  29.515  1.00  0.00    -0.248 NA
ATOM     34  C   UNL A   1      45.455  24.637  28.674  1.00  0.00     0.031 C 
ATOM     35  C   UNL A   1      46.883  29.640  31.817  1.00  0.00     0.029 A 
ATOM     36  C   UNL A   1      46.174  28.698  31.088  1.00  0.00     0.049 A 
ATOM     37  H   UNL A   1      44.183  28.782  30.396  1.00  0.00     0.167 HD
ATOM     38  C   UNL A   1      45.887  26.540  29.881  1.00  0.00     0.074 A 
ATOM     39  C   UNL A   1      46.389  25.286  29.358  1.00  0.00     0.031 C 
ATOM     40  C   UNL A   1      46.629  27.424  30.592  1.00  0.00     0.037 A 
BRANCH  27  41
ATOM     41  C   UNL A   1      43.626  32.559  32.298  1.00  0.00     0.064 A 
ATOM     42  C   UNL A   1      43.743  33.756  31.575  1.00  0.00     0.173 A 
ATOM     43  C   UNL A   1      43.518  32.647  33.695  1.00  0.00     0.173 A 
ATOM     44  F   UNL A   1      43.860  33.733  30.239  1.00  0.00    -0.203 F 
ATOM     45  C   UNL A   1      43.733  34.989  32.224  1.00  0.00     0.198 A 
ATOM     46  C   UNL A   1      43.468  33.881  34.337  1.00  0.00     0.198 A 
ATOM     47  F   UNL A   1      43.389  31.534  34.433  1.00  0.00    -0.203 F 
ATOM     48  F   UNL A   1      43.853  36.120  31.516  1.00  0.00    -0.200 F 
ATOM     49  C   UNL A   1      43.581  35.051  33.601  1.00  0.00     0.200 A 
ATOM     50  F   UNL A   1      43.281  33.936  35.662  1.00  0.00    -0.200 F 
ATOM     51  F   UNL A   1      43.528  36.238  34.220  1.00  0.00    -0.200 F 
ENDBRANCH  27  41
BRANCH  28  52
ATOM     52  C   UNL A   1      42.906  23.799  27.471  1.00  0.00     0.064 A 
ATOM     53  C   UNL A   1      43.200  23.753  26.100  1.00  0.00     0.173 A 
ATOM     54  C   UNL A   1      42.500  22.608  28.089  1.00  0.00     0.173 A 
ATOM     55  F   UNL A   1      43.586  24.863  25.456  1.00  0.00    -0.203 F 
ATOM     56  C   UNL A   1      43.084  22.565  25.377  1.00  0.00     0.198 A 
ATOM     57  C   UNL A   1      42.405  21.418  27.372  1.00  0.00     0.198 A 
ATOM     58  F   UNL A   1      42.220  22.597  29.402  1.00  0.00    -0.203 F 
ATOM     59  F   UNL A   1      43.347  22.552  24.063  1.00  0.00    -0.200 F 
ATOM     60  C   UNL A   1      42.693  21.398  26.015  1.00  0.00     0.200 A 
ATOM     61  F   UNL A   1      42.045  20.288  27.995  1.00  0.00    -0.200 F 
ATOM     62  F   UNL A   1      42.595  20.254  25.323  1.00  0.00    -0.200 F 
ENDBRANCH  28  52
BRANCH  40  63
ATOM     63  C   UNL A   1      48.038  27.039  30.918  1.00  0.00     0.064 A 
ATOM     64  C   UNL A   1      49.080  27.396  30.049  1.00  0.00     0.173 A 
ATOM     65  C   UNL A   1      48.343  26.233  32.023  1.00  0.00     0.173 A 
ATOM     66  F   UNL A   1      48.832  28.162  28.976  1.00  0.00    -0.203 F 
ATOM     67  C   UNL A   1      50.374  26.934  30.258  1.00  0.00     0.198 A 
ATOM     68  C   UNL A   1      49.644  25.796  32.244  1.00  0.00     0.198 A 
ATOM     69  F   UNL A   1      47.380  25.883  32.890  1.00  0.00    -0.203 F 
ATOM     70  F   UNL A   1      51.344  27.248  29.390  1.00  0.00    -0.200 F 
ATOM     71  C   UNL A   1      50.655  26.134  31.355  1.00  0.00     0.200 A 
ATOM     72  F   UNL A   1      49.920  25.040  33.316  1.00  0.00    -0.200 F 
ATOM     73  F   UNL A   1      51.901  25.684  31.555  1.00  0.00    -0.200 F 
ENDBRANCH  40  63
ENDBRANCH  14  15
ENDBRANCH   7   9
ENDBRANCH   6   7
ENDBRANCH   5   6
ENDBRANCH   4   5
ENDBRANCH   3   4
ENDBRANCH   2   3
ENDBRANCH   1   2
BRANCH   1  74
ATOM     74  O   UNL A   1      37.419  33.950  30.107  1.00  0.00    -0.376 OA
BRANCH  74  75
ATOM     75  C   UNL A   1      38.226  34.526  31.120  1.00  0.00     0.202 C 
BRANCH  75  76
ATOM     76  C   UNL A   1      38.512  33.789  32.439  1.00  0.00     0.261 C 
BRANCH  76  77
ATOM     77  O   UNL A   1      39.614  34.265  33.216  1.00  0.00    -0.461 OA
BRANCH  77  78
ATOM     78  C   UNL A   1      39.379  34.410  34.550  1.00  0.00     0.335 C 
ATOM     79  O   UNL A   1      38.919  35.417  35.072  1.00  0.00    -0.249 OA
BRANCH  78  80
ATOM     80  C   UNL A   1      39.839  33.169  35.336  1.00  0.00     0.228 C 
ATOM     81  C   UNL A   1      38.691  32.567  36.156  1.00  0.00     0.047 C 
ATOM     82  O   UNL A   1      40.406  32.079  34.587  1.00  0.00    -0.361 OA
ATOM     83  C   UNL A   1      38.575  31.142  35.647  1.00  0.00     0.037 C 
ATOM     84  C   UNL A   1      40.007  30.864  35.268  1.00  0.00     0.138 C 
BRANCH  84  85
ATOM     85  C   UNL A   1      40.264  29.613  34.405  1.00  0.00     0.145 C 
BRANCH  85  86
ATOM     86  N   UNL A   1      41.215  28.794  35.146  1.00  0.00    -0.377 N 
ATOM     87  H   UNL A   1      41.331  29.011  36.099  1.00  0.00     0.160 HD
BRANCH  86  88
ATOM     88  C   UNL A   1      41.974  27.748  34.658  1.00  0.00     0.116 A 
ATOM     89  C   UNL A   1      42.695  27.898  33.463  1.00  0.00     0.033 A 
ATOM     90  C   UNL A   1      42.109  26.516  35.353  1.00  0.00     0.327 A 
ATOM     91  C   UNL A   1      43.607  26.924  33.036  1.00  0.00     0.006 A 
ATOM     92  C   UNL A   1      43.049  25.567  34.940  1.00  0.00     0.202 A 
ATOM     93  C   UNL A   1      43.807  25.777  33.794  1.00  0.00     0.047 A 
ATOM     94  F   UNL A   1      43.293  24.446  35.632  1.00  0.00    -0.199 F 
BRANCH  90  95
ATOM     95  N   UNL A   1      41.241  26.189  36.494  1.00  0.00     0.068 N 
ATOM     96  O   UNL A   1      41.370  26.850  37.537  1.00  0.00    -0.258 OA
ATOM     97  O   UNL A   1      40.398  25.294  36.362  1.00  0.00    -0.258 OA
ENDBRANCH  90  95
ENDBRANCH  86  88
ENDBRANCH  85  86
ENDBRANCH  84  85
ENDBRANCH  78  80
ENDBRANCH  77  78
ENDBRANCH  76  77
ENDBRANCH  75  76
ENDBRANCH  74  75
ENDBRANCH   1  74
TORSDOF 21
ENDMDL
