MODEL 1
REMARK VINA RESULT:     -11.8      0.000      0.000
REMARK SMILES O=C(OCCOCCOCCOC(=O)[C@@H]1CCCC[C@@H]1NS(=O)(=O)c1ccc2ccccc2c1)c1ccc(-c2c3nc(c(-c4c(F)c(F)c(F)c(F)c4F)c4ccc([nH]4)c(-c4c(F)c(F)c(F)c(F)c4F)c4nc(c(-c5c(F)c(F)c(F)c(F)c5F)c5ccc2[nH]5)C=C4)C=C3)cc1
REMARK SMILES IDX 8 1 7 2 6 3 5 4 4 5 3 6 2 7 1 8 35 9 36 10 97 11 37 12 96 13
REMARK SMILES IDX 38 14 39 15 40 16 90 17 41 18 95 19 89 20 91 21 42 22 94 23
REMARK SMILES IDX 88 24 87 25 43 27 75 28 55 29 74 30 56 31 59 32 73 33 92 34
REMARK SMILES IDX 57 35 58 36 72 38 93 39 60 40 44 41 45 42 53 43 46 44 47 45
REMARK SMILES IDX 51 46 54 47 48 48 49 49 52 50 50 51 76 52 77 53 85 54 78 55
REMARK SMILES IDX 79 56 83 57 86 58 80 59 81 60 84 61 82 62 61 63 62 64 70 65
REMARK SMILES IDX 63 66 64 67 68 68 71 69 65 70 66 71 69 72 67 73 9 74 10 75
REMARK SMILES IDX 11 76 12 77 13 78 14 79 15 80 16 81 20 82 17 83 19 84 18 85
REMARK SMILES IDX 21 86 22 88 23 89 24 90 25 91 26 92 34 93 27 94 33 95 28 96
REMARK SMILES IDX 32 97 29 98 31 99 30 100
REMARK H PARENT 91 26 59 37 21 87
REMARK Flexibility Score: inf
ROOT
ATOM      1  C   UNL A   1      35.801  32.070  28.001  1.00  0.00     0.188 C 
ENDROOT
BRANCH   1   2
ATOM      2  C   UNL A   1      35.488  33.468  28.530  1.00  0.00     0.188 C 
BRANCH   2   3
ATOM      3  O   UNL A   1      34.572  34.080  27.635  1.00  0.00    -0.376 OA
BRANCH   3   4
ATOM      4  C   UNL A   1      33.312  34.398  28.211  1.00  0.00     0.202 C 
BRANCH   4   5
ATOM      5  C   UNL A   1      33.339  35.549  29.222  1.00  0.00     0.261 C 
BRANCH   5   6
ATOM      6  O   UNL A   1      32.482  35.179  30.319  1.00  0.00    -0.460 OA
BRANCH   6   7
ATOM      7  C   UNL A   1      32.494  35.943  31.442  1.00  0.00     0.338 C 
ATOM      8  O   UNL A   1      31.738  36.864  31.689  1.00  0.00    -0.246 OA
BRANCH   7   9
ATOM      9  C   UNL A   1      33.453  35.329  32.424  1.00  0.00     0.060 A 
ATOM     10  C   UNL A   1      34.628  36.000  32.701  1.00  0.00     0.016 A 
ATOM     11  C   UNL A   1      33.365  34.001  32.860  1.00  0.00     0.016 A 
ATOM     12  C   UNL A   1      35.728  35.325  33.242  1.00  0.00     0.010 A 
ATOM     13  C   UNL A   1      34.489  33.339  33.453  1.00  0.00     0.010 A 
ATOM     14  C   UNL A   1      35.728  33.981  33.605  1.00  0.00    -0.014 A 
BRANCH  14  15
ATOM     15  C   UNL A   1      37.075  33.319  33.857  1.00  0.00     0.031 A 
ATOM     16  C   UNL A   1      37.664  33.304  35.239  1.00  0.00     0.074 A 
ATOM     17  C   UNL A   1      37.650  32.434  33.010  1.00  0.00     0.049 A 
ATOM     18  N   UNL A   1      38.894  33.287  35.672  1.00  0.00    -0.248 NA
ATOM     19  C   UNL A   1      36.702  33.261  36.320  1.00  0.00     0.031 C 
ATOM     20  C   UNL A   1      37.168  32.094  31.678  1.00  0.00     0.029 A 
ATOM     21  N   UNL A   1      38.708  31.571  33.193  1.00  0.00    -0.354 N 
ATOM     22  C   UNL A   1      38.796  33.432  37.057  1.00  0.00     0.074 A 
ATOM     23  C   UNL A   1      37.402  33.553  37.397  1.00  0.00     0.031 C 
ATOM     24  C   UNL A   1      37.811  31.005  31.234  1.00  0.00     0.029 A 
ATOM     25  C   UNL A   1      38.896  30.692  32.151  1.00  0.00     0.049 A 
ATOM     26  H   UNL A   1      39.278  31.582  33.996  1.00  0.00     0.167 HD
ATOM     27  C   UNL A   1      39.739  33.272  38.010  1.00  0.00     0.037 A 
ATOM     28  C   UNL A   1      39.878  29.797  31.918  1.00  0.00     0.037 A 
ATOM     29  C   UNL A   1      40.992  32.642  37.747  1.00  0.00     0.049 A 
ATOM     30  C   UNL A   1      41.016  29.746  32.903  1.00  0.00     0.074 A 
ATOM     31  C   UNL A   1      42.078  32.477  38.579  1.00  0.00     0.029 A 
ATOM     32  N   UNL A   1      41.245  31.926  36.587  1.00  0.00    -0.354 N 
ATOM     33  N   UNL A   1      41.120  30.327  34.076  1.00  0.00    -0.248 NA
ATOM     34  C   UNL A   1      42.206  28.989  32.499  1.00  0.00     0.031 C 
ATOM     35  C   UNL A   1      42.984  31.630  37.927  1.00  0.00     0.029 A 
ATOM     36  C   UNL A   1      42.456  31.276  36.693  1.00  0.00     0.049 A 
ATOM     37  H   UNL A   1      40.649  31.889  35.803  1.00  0.00     0.167 HD
ATOM     38  C   UNL A   1      42.391  30.023  34.541  1.00  0.00     0.074 A 
ATOM     39  C   UNL A   1      43.006  29.173  33.539  1.00  0.00     0.031 C 
ATOM     40  C   UNL A   1      43.013  30.427  35.676  1.00  0.00     0.037 A 
BRANCH  27  41
ATOM     41  C   UNL A   1      39.412  33.771  39.385  1.00  0.00     0.064 A 
ATOM     42  C   UNL A   1      38.732  33.006  40.343  1.00  0.00     0.173 A 
ATOM     43  C   UNL A   1      39.724  35.100  39.706  1.00  0.00     0.173 A 
ATOM     44  F   UNL A   1      38.374  31.742  40.069  1.00  0.00    -0.203 F 
ATOM     45  C   UNL A   1      38.328  33.570  41.552  1.00  0.00     0.198 A 
ATOM     46  C   UNL A   1      39.350  35.650  40.929  1.00  0.00     0.198 A 
ATOM     47  F   UNL A   1      40.370  35.873  38.820  1.00  0.00    -0.203 F 
ATOM     48  F   UNL A   1      37.599  32.849  42.416  1.00  0.00    -0.200 F 
ATOM     49  C   UNL A   1      38.639  34.890  41.844  1.00  0.00     0.200 A 
ATOM     50  F   UNL A   1      39.656  36.924  41.209  1.00  0.00    -0.200 F 
ATOM     51  F   UNL A   1      38.237  35.436  43.000  1.00  0.00    -0.200 F 
ENDBRANCH  27  41
BRANCH  28  52
ATOM     52  C   UNL A   1      39.906  29.007  30.649  1.00  0.00     0.064 A 
ATOM     53  C   UNL A   1      40.491  29.506  29.475  1.00  0.00     0.173 A 
ATOM     54  C   UNL A   1      39.344  27.719  30.581  1.00  0.00     0.173 A 
ATOM     55  F   UNL A   1      40.999  30.747  29.455  1.00  0.00    -0.203 F 
ATOM     56  C   UNL A   1      40.531  28.745  28.303  1.00  0.00     0.198 A 
ATOM     57  C   UNL A   1      39.430  26.941  29.428  1.00  0.00     0.198 A 
ATOM     58  F   UNL A   1      38.732  27.195  31.654  1.00  0.00    -0.203 F 
ATOM     59  F   UNL A   1      41.059  29.263  27.187  1.00  0.00    -0.200 F 
ATOM     60  C   UNL A   1      40.019  27.457  28.288  1.00  0.00     0.200 A 
ATOM     61  F   UNL A   1      38.951  25.690  29.434  1.00  0.00    -0.200 F 
ATOM     62  F   UNL A   1      40.087  26.714  27.174  1.00  0.00    -0.200 F 
ENDBRANCH  28  52
BRANCH  40  63
ATOM     63  C   UNL A   1      44.410  29.945  35.886  1.00  0.00     0.064 A 
ATOM     64  C   UNL A   1      44.656  28.718  36.514  1.00  0.00     0.173 A 
ATOM     65  C   UNL A   1      45.500  30.690  35.420  1.00  0.00     0.173 A 
ATOM     66  F   UNL A   1      43.637  27.983  36.985  1.00  0.00    -0.203 F 
ATOM     67  C   UNL A   1      45.957  28.259  36.687  1.00  0.00     0.198 A 
ATOM     68  C   UNL A   1      46.799  30.218  35.576  1.00  0.00     0.198 A 
ATOM     69  F   UNL A   1      45.304  31.867  34.805  1.00  0.00    -0.203 F 
ATOM     70  F   UNL A   1      46.177  27.099  37.322  1.00  0.00    -0.200 F 
ATOM     71  C   UNL A   1      47.025  29.007  36.213  1.00  0.00     0.200 A 
ATOM     72  F   UNL A   1      47.830  30.935  35.110  1.00  0.00    -0.200 F 
ATOM     73  F   UNL A   1      48.279  28.562  36.378  1.00  0.00    -0.200 F 
ENDBRANCH  40  63
ENDBRANCH  14  15
ENDBRANCH   7   9
ENDBRANCH   6   7
ENDBRANCH   5   6
ENDBRANCH   4   5
ENDBRANCH   3   4
ENDBRANCH   2   3
ENDBRANCH   1   2
BRANCH   1  74
ATOM     74  O   UNL A   1      34.684  31.373  27.441  1.00  0.00    -0.376 OA
BRANCH  74  75
ATOM     75  C   UNL A   1      34.727  29.943  27.399  1.00  0.00     0.202 C 
BRANCH  75  76
ATOM     76  C   UNL A   1      33.559  29.267  26.686  1.00  0.00     0.261 C 
BRANCH  76  77
ATOM     77  O   UNL A   1      33.277  27.993  27.273  1.00  0.00    -0.463 OA
BRANCH  77  78
ATOM     78  C   UNL A   1      32.009  27.579  27.134  1.00  0.00     0.310 C 
ATOM     79  O   UNL A   1      31.073  27.923  27.852  1.00  0.00    -0.252 OA
BRANCH  78  80
ATOM     80  C   UNL A   1      31.786  26.759  25.895  1.00  0.00     0.117 C 
ATOM     81  C   UNL A   1      30.326  26.252  25.883  1.00  0.00     0.017 C 
ATOM     82  C   UNL A   1      32.877  25.813  25.305  1.00  0.00     0.084 C 
ATOM     83  C   UNL A   1      29.865  25.849  24.492  1.00  0.00     0.001 C 
ATOM     84  C   UNL A   1      32.259  25.495  23.894  1.00  0.00     0.021 C 
ATOM     85  C   UNL A   1      30.861  24.873  23.922  1.00  0.00     0.002 C 
BRANCH  82  86
ATOM     86  N   UNL A   1      33.266  24.498  25.949  1.00  0.00    -0.207 NA
ATOM     87  H   UNL A   1      32.401  23.958  25.935  1.00  0.00     0.141 HD
BRANCH  86  88
ATOM     88  S   UNL A   1      34.482  23.332  25.550  1.00  0.00     0.240 S 
ATOM     89  O   UNL A   1      35.290  23.865  24.475  1.00  0.00    -0.207 OA
ATOM     90  O   UNL A   1      35.076  23.054  26.843  1.00  0.00    -0.207 OA
BRANCH  88  91
ATOM     91  C   UNL A   1      33.889  21.699  24.998  1.00  0.00     0.083 A 
ATOM     92  C   UNL A   1      32.614  21.551  24.514  1.00  0.00     0.022 A 
ATOM     93  C   UNL A   1      34.638  20.507  25.127  1.00  0.00     0.030 A 
ATOM     94  C   UNL A   1      32.246  20.380  23.819  1.00  0.00     0.010 A 
ATOM     95  C   UNL A   1      34.213  19.258  24.532  1.00  0.00    -0.017 A 
ATOM     96  C   UNL A   1      33.020  19.240  23.799  1.00  0.00    -0.018 A 
ATOM     97  C   UNL A   1      34.922  18.037  24.564  1.00  0.00     0.009 A 
ATOM     98  C   UNL A   1      32.586  18.115  23.067  1.00  0.00     0.009 A 
ATOM     99  C   UNL A   1      34.488  16.903  23.845  1.00  0.00     0.001 A 
ATOM    100  C   UNL A   1      33.332  16.948  23.075  1.00  0.00     0.001 A 
ENDBRANCH  88  91
ENDBRANCH  86  88
ENDBRANCH  82  86
ENDBRANCH  78  80
ENDBRANCH  77  78
ENDBRANCH  76  77
ENDBRANCH  75  76
ENDBRANCH  74  75
ENDBRANCH   1  74
TORSDOF 20
ENDMDL
MODEL 2
REMARK VINA RESULT:     -11.5      2.001      8.085
REMARK SMILES O=C(OCCOCCOCCOC(=O)[C@@H]1CCCC[C@@H]1NS(=O)(=O)c1ccc2ccccc2c1)c1ccc(-c2c3nc(c(-c4c(F)c(F)c(F)c(F)c4F)c4ccc([nH]4)c(-c4c(F)c(F)c(F)c(F)c4F)c4nc(c(-c5c(F)c(F)c(F)c(F)c5F)c5ccc2[nH]5)C=C4)C=C3)cc1
REMARK SMILES IDX 8 1 7 2 6 3 5 4 4 5 3 6 2 7 1 8 35 9 36 10 97 11 37 12 96 13
REMARK SMILES IDX 38 14 39 15 40 16 90 17 41 18 95 19 89 20 91 21 42 22 94 23
REMARK SMILES IDX 88 24 87 25 43 27 75 28 55 29 74 30 56 31 59 32 73 33 92 34
REMARK SMILES IDX 57 35 58 36 72 38 93 39 60 40 44 41 45 42 53 43 46 44 47 45
REMARK SMILES IDX 51 46 54 47 48 48 49 49 52 50 50 51 76 52 77 53 85 54 78 55
REMARK SMILES IDX 79 56 83 57 86 58 80 59 81 60 84 61 82 62 61 63 62 64 70 65
REMARK SMILES IDX 63 66 64 67 68 68 71 69 65 70 66 71 69 72 67 73 9 74 10 75
REMARK SMILES IDX 11 76 12 77 13 78 14 79 15 80 16 81 20 82 17 83 19 84 18 85
REMARK SMILES IDX 21 86 22 88 23 89 24 90 25 91 26 92 34 93 27 94 33 95 28 96
REMARK SMILES IDX 32 97 29 98 31 99 30 100
REMARK H PARENT 91 26 59 37 21 87
REMARK Flexibility Score: inf
ROOT
ATOM      1  C   UNL A   1      34.646  29.668  26.906  1.00  0.00     0.188 C 
ENDROOT
BRANCH   1   2
ATOM      2  C   UNL A   1      35.002  30.641  28.029  1.00  0.00     0.188 C 
BRANCH   2   3
ATOM      3  O   UNL A   1      34.903  31.959  27.513  1.00  0.00    -0.376 OA
BRANCH   3   4
ATOM      4  C   UNL A   1      33.819  32.715  28.038  1.00  0.00     0.202 C 
BRANCH   4   5
ATOM      5  C   UNL A   1      34.199  34.101  28.571  1.00  0.00     0.261 C 
BRANCH   5   6
ATOM      6  O   UNL A   1      33.151  34.519  29.466  1.00  0.00    -0.460 OA
BRANCH   6   7
ATOM      7  C   UNL A   1      33.449  35.415  30.443  1.00  0.00     0.338 C 
ATOM      8  O   UNL A   1      33.074  36.572  30.492  1.00  0.00    -0.246 OA
BRANCH   7   9
ATOM      9  C   UNL A   1      34.138  34.685  31.563  1.00  0.00     0.060 A 
ATOM     10  C   UNL A   1      35.163  35.325  32.230  1.00  0.00     0.016 A 
ATOM     11  C   UNL A   1      33.998  33.310  31.787  1.00  0.00     0.016 A 
ATOM     12  C   UNL A   1      36.109  34.595  32.960  1.00  0.00     0.010 A 
ATOM     13  C   UNL A   1      34.952  32.586  32.574  1.00  0.00     0.010 A 
ATOM     14  C   UNL A   1      36.074  33.215  33.136  1.00  0.00    -0.014 A 
BRANCH  14  15
ATOM     15  C   UNL A   1      37.334  32.540  33.659  1.00  0.00     0.031 A 
ATOM     16  C   UNL A   1      38.154  31.663  32.755  1.00  0.00     0.074 A 
ATOM     17  C   UNL A   1      37.984  32.925  34.781  1.00  0.00     0.049 A 
ATOM     18  N   UNL A   1      38.916  30.629  32.984  1.00  0.00    -0.248 NA
ATOM     19  C   UNL A   1      38.146  32.038  31.357  1.00  0.00     0.031 C 
ATOM     20  C   UNL A   1      37.516  33.918  35.739  1.00  0.00     0.029 A 
ATOM     21  N   UNL A   1      39.241  32.604  35.248  1.00  0.00    -0.354 N 
ATOM     22  C   UNL A   1      39.284  30.160  31.723  1.00  0.00     0.074 A 
ATOM     23  C   UNL A   1      38.659  30.998  30.733  1.00  0.00     0.031 C 
ATOM     24  C   UNL A   1      38.515  34.242  36.572  1.00  0.00     0.029 A 
ATOM     25  C   UNL A   1      39.627  33.332  36.349  1.00  0.00     0.049 A 
ATOM     26  H   UNL A   1      39.809  31.916  34.831  1.00  0.00     0.167 HD
ATOM     27  C   UNL A   1      40.222  29.252  31.380  1.00  0.00     0.037 A 
ATOM     28  C   UNL A   1      40.714  33.223  37.142  1.00  0.00     0.037 A 
ATOM     29  C   UNL A   1      41.216  28.796  32.298  1.00  0.00     0.049 A 
ATOM     30  C   UNL A   1      41.670  32.096  36.854  1.00  0.00     0.074 A 
ATOM     31  C   UNL A   1      42.179  27.826  32.131  1.00  0.00     0.029 A 
ATOM     32  N   UNL A   1      41.459  29.418  33.513  1.00  0.00    -0.354 N 
ATOM     33  N   UNL A   1      41.708  31.289  35.819  1.00  0.00    -0.248 NA
ATOM     34  C   UNL A   1      42.679  31.809  37.879  1.00  0.00     0.031 C 
ATOM     35  C   UNL A   1      43.031  27.881  33.242  1.00  0.00     0.029 A 
ATOM     36  C   UNL A   1      42.590  28.884  34.094  1.00  0.00     0.049 A 
ATOM     37  H   UNL A   1      40.907  30.135  33.903  1.00  0.00     0.167 HD
ATOM     38  C   UNL A   1      42.729  30.386  36.077  1.00  0.00     0.074 A 
ATOM     39  C   UNL A   1      43.311  30.771  37.349  1.00  0.00     0.031 C 
ATOM     40  C   UNL A   1      43.138  29.316  35.350  1.00  0.00     0.037 A 
BRANCH  27  41
ATOM     41  C   UNL A   1      40.198  28.742  29.971  1.00  0.00     0.064 A 
ATOM     42  C   UNL A   1      39.440  27.635  29.563  1.00  0.00     0.173 A 
ATOM     43  C   UNL A   1      41.042  29.345  29.027  1.00  0.00     0.173 A 
ATOM     44  F   UNL A   1      38.650  26.998  30.439  1.00  0.00    -0.203 F 
ATOM     45  C   UNL A   1      39.569  27.118  28.275  1.00  0.00     0.198 A 
ATOM     46  C   UNL A   1      41.141  28.848  27.731  1.00  0.00     0.198 A 
ATOM     47  F   UNL A   1      41.790  30.404  29.372  1.00  0.00    -0.203 F 
ATOM     48  F   UNL A   1      38.906  26.005  27.932  1.00  0.00    -0.200 F 
ATOM     49  C   UNL A   1      40.417  27.726  27.361  1.00  0.00     0.200 A 
ATOM     50  F   UNL A   1      41.958  29.440  26.850  1.00  0.00    -0.200 F 
ATOM     51  F   UNL A   1      40.551  27.218  26.127  1.00  0.00    -0.200 F 
ENDBRANCH  27  41
BRANCH  28  52
ATOM     52  C   UNL A   1      40.868  34.091  38.350  1.00  0.00     0.064 A 
ATOM     53  C   UNL A   1      40.276  33.764  39.580  1.00  0.00     0.173 A 
ATOM     54  C   UNL A   1      41.621  35.278  38.302  1.00  0.00     0.173 A 
ATOM     55  F   UNL A   1      39.501  32.675  39.683  1.00  0.00    -0.203 F 
ATOM     56  C   UNL A   1      40.450  34.573  40.706  1.00  0.00     0.198 A 
ATOM     57  C   UNL A   1      41.838  36.055  39.438  1.00  0.00     0.198 A 
ATOM     58  F   UNL A   1      42.183  35.672  37.149  1.00  0.00    -0.203 F 
ATOM     59  F   UNL A   1      39.839  34.259  41.857  1.00  0.00    -0.200 F 
ATOM     60  C   UNL A   1      41.247  35.706  40.639  1.00  0.00     0.200 A 
ATOM     61  F   UNL A   1      42.628  37.135  39.363  1.00  0.00    -0.200 F 
ATOM     62  F   UNL A   1      41.441  36.464  41.727  1.00  0.00    -0.200 F 
ENDBRANCH  28  52
BRANCH  40  63
ATOM     63  C   UNL A   1      44.262  28.511  35.912  1.00  0.00     0.064 A 
ATOM     64  C   UNL A   1      44.009  27.382  36.702  1.00  0.00     0.173 A 
ATOM     65  C   UNL A   1      45.592  28.844  35.626  1.00  0.00     0.173 A 
ATOM     66  F   UNL A   1      42.748  27.041  37.008  1.00  0.00    -0.203 F 
ATOM     67  C   UNL A   1      45.056  26.620  37.204  1.00  0.00     0.198 A 
ATOM     68  C   UNL A   1      46.637  28.066  36.112  1.00  0.00     0.198 A 
ATOM     69  F   UNL A   1      45.873  29.913  34.865  1.00  0.00    -0.203 F 
ATOM     70  F   UNL A   1      44.798  25.564  37.988  1.00  0.00    -0.200 F 
ATOM     71  C   UNL A   1      46.368  26.960  36.905  1.00  0.00     0.200 A 
ATOM     72  F   UNL A   1      47.903  28.389  35.816  1.00  0.00    -0.200 F 
ATOM     73  F   UNL A   1      47.378  26.223  37.388  1.00  0.00    -0.200 F 
ENDBRANCH  40  63
ENDBRANCH  14  15
ENDBRANCH   7   9
ENDBRANCH   6   7
ENDBRANCH   5   6
ENDBRANCH   4   5
ENDBRANCH   3   4
ENDBRANCH   2   3
ENDBRANCH   1   2
BRANCH   1  74
ATOM     74  O   UNL A   1      33.828  28.563  27.302  1.00  0.00    -0.376 OA
BRANCH  74  75
ATOM     75  C   UNL A   1      32.406  28.718  27.250  1.00  0.00     0.202 C 
BRANCH  75  76
ATOM     76  C   UNL A   1      31.617  27.464  26.885  1.00  0.00     0.261 C 
BRANCH  76  77
ATOM     77  O   UNL A   1      32.492  26.435  26.413  1.00  0.00    -0.463 OA
BRANCH  77  78
ATOM     78  C   UNL A   1      31.893  25.477  25.689  1.00  0.00     0.310 C 
ATOM     79  O   UNL A   1      30.691  25.428  25.443  1.00  0.00    -0.252 OA
BRANCH  78  80
ATOM     80  C   UNL A   1      32.863  24.523  25.052  1.00  0.00     0.117 C 
ATOM     81  C   UNL A   1      34.279  25.144  25.091  1.00  0.00     0.017 C 
ATOM     82  C   UNL A   1      32.497  23.655  23.809  1.00  0.00     0.084 C 
ATOM     83  C   UNL A   1      35.373  24.101  24.933  1.00  0.00     0.001 C 
ATOM     84  C   UNL A   1      33.703  22.647  23.787  1.00  0.00     0.021 C 
ATOM     85  C   UNL A   1      35.088  23.292  23.695  1.00  0.00     0.002 C 
BRANCH  82  86
ATOM     86  N   UNL A   1      32.347  24.231  22.415  1.00  0.00    -0.207 NA
ATOM     87  H   UNL A   1      31.369  24.055  22.187  1.00  0.00     0.141 HD
BRANCH  86  88
ATOM     88  S   UNL A   1      32.636  25.816  21.784  1.00  0.00     0.240 S 
ATOM     89  O   UNL A   1      34.028  26.148  22.000  1.00  0.00    -0.207 OA
ATOM     90  O   UNL A   1      32.110  25.711  20.437  1.00  0.00    -0.207 OA
BRANCH  88  91
ATOM     91  C   UNL A   1      31.657  27.170  22.513  1.00  0.00     0.083 A 
ATOM     92  C   UNL A   1      32.267  28.132  23.280  1.00  0.00     0.022 A 
ATOM     93  C   UNL A   1      30.249  27.256  22.428  1.00  0.00     0.030 A 
ATOM     94  C   UNL A   1      31.588  29.327  23.598  1.00  0.00     0.010 A 
ATOM     95  C   UNL A   1      29.516  28.423  22.871  1.00  0.00    -0.017 A 
ATOM     96  C   UNL A   1      30.237  29.504  23.396  1.00  0.00    -0.018 A 
ATOM     97  C   UNL A   1      28.121  28.617  22.774  1.00  0.00     0.009 A 
ATOM     98  C   UNL A   1      29.637  30.737  23.727  1.00  0.00     0.009 A 
ATOM     99  C   UNL A   1      27.511  29.842  23.117  1.00  0.00     0.001 A 
ATOM    100  C   UNL A   1      28.272  30.913  23.571  1.00  0.00     0.001 A 
ENDBRANCH  88  91
ENDBRANCH  86  88
ENDBRANCH  82  86
ENDBRANCH  78  80
ENDBRANCH  77  78
ENDBRANCH  76  77
ENDBRANCH  75  76
ENDBRANCH  74  75
ENDBRANCH   1  74
TORSDOF 20
ENDMDL
MODEL 3
REMARK VINA RESULT:     -11.0      6.541     12.043
REMARK SMILES O=C(OCCOCCOCCOC(=O)[C@@H]1CCCC[C@@H]1NS(=O)(=O)c1ccc2ccccc2c1)c1ccc(-c2c3nc(c(-c4c(F)c(F)c(F)c(F)c4F)c4ccc([nH]4)c(-c4c(F)c(F)c(F)c(F)c4F)c4nc(c(-c5c(F)c(F)c(F)c(F)c5F)c5ccc2[nH]5)C=C4)C=C3)cc1
REMARK SMILES IDX 8 1 7 2 6 3 5 4 4 5 3 6 2 7 1 8 35 9 36 10 97 11 37 12 96 13
REMARK SMILES IDX 38 14 39 15 40 16 90 17 41 18 95 19 89 20 91 21 42 22 94 23
REMARK SMILES IDX 88 24 87 25 43 27 75 28 55 29 74 30 56 31 59 32 73 33 92 34
REMARK SMILES IDX 57 35 58 36 72 38 93 39 60 40 44 41 45 42 53 43 46 44 47 45
REMARK SMILES IDX 51 46 54 47 48 48 49 49 52 50 50 51 76 52 77 53 85 54 78 55
REMARK SMILES IDX 79 56 83 57 86 58 80 59 81 60 84 61 82 62 61 63 62 64 70 65
REMARK SMILES IDX 63 66 64 67 68 68 71 69 65 70 66 71 69 72 67 73 9 74 10 75
REMARK SMILES IDX 11 76 12 77 13 78 14 79 15 80 16 81 20 82 17 83 19 84 18 85
REMARK SMILES IDX 21 86 22 88 23 89 24 90 25 91 26 92 34 93 27 94 33 95 28 96
REMARK SMILES IDX 32 97 29 98 31 99 30 100
REMARK H PARENT 91 26 59 37 21 87
REMARK Flexibility Score: inf
ROOT
ATOM      1  C   UNL A   1      47.545  27.134  24.585  1.00  0.00     0.188 C 
ENDROOT
BRANCH   1   2
ATOM      2  C   UNL A   1      48.368  26.996  23.304  1.00  0.00     0.188 C 
BRANCH   2   3
ATOM      3  O   UNL A   1      49.495  27.850  23.415  1.00  0.00    -0.376 OA
BRANCH   3   4
ATOM      4  C   UNL A   1      50.137  27.813  24.683  1.00  0.00     0.202 C 
BRANCH   4   5
ATOM      5  C   UNL A   1      51.425  26.984  24.728  1.00  0.00     0.261 C 
BRANCH   5   6
ATOM      6  O   UNL A   1      51.069  25.660  25.170  1.00  0.00    -0.460 OA
BRANCH   6   7
ATOM      7  C   UNL A   1      51.602  25.196  26.331  1.00  0.00     0.338 C 
ATOM      8  O   UNL A   1      52.751  24.831  26.496  1.00  0.00    -0.246 OA
BRANCH   7   9
ATOM      9  C   UNL A   1      50.600  25.410  27.431  1.00  0.00     0.060 A 
ATOM     10  C   UNL A   1      49.333  24.883  27.277  1.00  0.00     0.016 A 
ATOM     11  C   UNL A   1      50.777  26.337  28.466  1.00  0.00     0.016 A 
ATOM     12  C   UNL A   1      48.254  25.383  28.016  1.00  0.00     0.010 A 
ATOM     13  C   UNL A   1      49.668  26.805  29.243  1.00  0.00     0.010 A 
ATOM     14  C   UNL A   1      48.356  26.372  28.990  1.00  0.00    -0.014 A 
BRANCH  14  15
ATOM     15  C   UNL A   1      47.069  27.036  29.457  1.00  0.00     0.031 A 
ATOM     16  C   UNL A   1      46.449  26.647  30.769  1.00  0.00     0.074 A 
ATOM     17  C   UNL A   1      46.599  28.202  28.957  1.00  0.00     0.049 A 
ATOM     18  N   UNL A   1      45.215  26.635  31.191  1.00  0.00    -0.248 NA
ATOM     19  C   UNL A   1      47.384  26.238  31.796  1.00  0.00     0.031 C 
ATOM     20  C   UNL A   1      47.143  28.918  27.810  1.00  0.00     0.029 A 
ATOM     21  N   UNL A   1      45.619  29.051  29.424  1.00  0.00    -0.354 N 
ATOM     22  C   UNL A   1      45.265  26.030  32.448  1.00  0.00     0.074 A 
ATOM     23  C   UNL A   1      46.633  25.673  32.720  1.00  0.00     0.031 C 
ATOM     24  C   UNL A   1      46.613  30.148  27.758  1.00  0.00     0.029 A 
ATOM     25  C   UNL A   1      45.538  30.239  28.734  1.00  0.00     0.049 A 
ATOM     26  H   UNL A   1      45.030  28.828  30.181  1.00  0.00     0.167 HD
ATOM     27  C   UNL A   1      44.317  25.953  33.406  1.00  0.00     0.037 A 
ATOM     28  C   UNL A   1      44.648  31.250  28.819  1.00  0.00     0.037 A 
ATOM     29  C   UNL A   1      43.133  26.750  33.377  1.00  0.00     0.049 A 
ATOM     30  C   UNL A   1      43.495  31.077  29.772  1.00  0.00     0.074 A 
ATOM     31  C   UNL A   1      42.046  26.731  34.223  1.00  0.00     0.029 A 
ATOM     32  N   UNL A   1      42.976  27.830  32.522  1.00  0.00    -0.354 N 
ATOM     33  N   UNL A   1      43.309  30.153  30.686  1.00  0.00    -0.248 NA
ATOM     34  C   UNL A   1      42.389  32.034  29.650  1.00  0.00     0.031 C 
ATOM     35  C   UNL A   1      41.237  27.828  33.896  1.00  0.00     0.029 A 
ATOM     36  C   UNL A   1      41.827  28.520  32.847  1.00  0.00     0.049 A 
ATOM     37  H   UNL A   1      43.592  28.070  31.792  1.00  0.00     0.167 HD
ATOM     38  C   UNL A   1      42.059  30.404  31.233  1.00  0.00     0.074 A 
ATOM     39  C   UNL A   1      41.550  31.592  30.575  1.00  0.00     0.031 C 
ATOM     40  C   UNL A   1      41.374  29.706  32.174  1.00  0.00     0.037 A 
BRANCH  27  41
ATOM     41  C   UNL A   1      44.562  24.998  34.535  1.00  0.00     0.064 A 
ATOM     42  C   UNL A   1      45.059  25.391  35.785  1.00  0.00     0.173 A 
ATOM     43  C   UNL A   1      44.368  23.628  34.306  1.00  0.00     0.173 A 
ATOM     44  F   UNL A   1      45.301  26.686  36.040  1.00  0.00    -0.203 F 
ATOM     45  C   UNL A   1      45.404  24.442  36.747  1.00  0.00     0.198 A 
ATOM     46  C   UNL A   1      44.680  22.686  35.281  1.00  0.00     0.198 A 
ATOM     47  F   UNL A   1      43.899  23.203  33.123  1.00  0.00    -0.203 F 
ATOM     48  F   UNL A   1      45.963  24.833  37.901  1.00  0.00    -0.200 F 
ATOM     49  C   UNL A   1      45.212  23.092  36.494  1.00  0.00     0.200 A 
ATOM     50  F   UNL A   1      44.489  21.383  35.035  1.00  0.00    -0.200 F 
ATOM     51  F   UNL A   1      45.558  22.180  37.414  1.00  0.00    -0.200 F 
ENDBRANCH  27  41
BRANCH  28  52
ATOM     52  C   UNL A   1      44.724  32.415  27.885  1.00  0.00     0.064 A 
ATOM     53  C   UNL A   1      44.187  32.365  26.589  1.00  0.00     0.173 A 
ATOM     54  C   UNL A   1      45.340  33.619  28.273  1.00  0.00     0.173 A 
ATOM     55  F   UNL A   1      43.633  31.232  26.137  1.00  0.00    -0.203 F 
ATOM     56  C   UNL A   1      44.245  33.472  25.737  1.00  0.00     0.198 A 
ATOM     57  C   UNL A   1      45.350  34.738  27.443  1.00  0.00     0.198 A 
ATOM     58  F   UNL A   1      45.909  33.724  29.483  1.00  0.00    -0.203 F 
ATOM     59  F   UNL A   1      43.761  33.382  24.491  1.00  0.00    -0.200 F 
ATOM     60  C   UNL A   1      44.807  34.662  26.172  1.00  0.00     0.200 A 
ATOM     61  F   UNL A   1      45.877  35.888  27.884  1.00  0.00    -0.200 F 
ATOM     62  F   UNL A   1      44.833  35.733  25.368  1.00  0.00    -0.200 F 
ENDBRANCH  28  52
BRANCH  40  63
ATOM     63  C   UNL A   1      40.023  30.221  32.541  1.00  0.00     0.064 A 
ATOM     64  C   UNL A   1      38.872  29.710  31.927  1.00  0.00     0.173 A 
ATOM     65  C   UNL A   1      39.875  31.194  33.537  1.00  0.00     0.173 A 
ATOM     66  F   UNL A   1      38.976  28.786  30.959  1.00  0.00    -0.203 F 
ATOM     67  C   UNL A   1      37.612  30.173  32.287  1.00  0.00     0.198 A 
ATOM     68  C   UNL A   1      38.611  31.639  33.909  1.00  0.00     0.198 A 
ATOM     69  F   UNL A   1      40.953  31.701  34.154  1.00  0.00    -0.203 F 
ATOM     70  F   UNL A   1      36.523  29.699  31.665  1.00  0.00    -0.200 F 
ATOM     71  C   UNL A   1      37.483  31.133  33.281  1.00  0.00     0.200 A 
ATOM     72  F   UNL A   1      38.486  32.559  34.875  1.00  0.00    -0.200 F 
ATOM     73  F   UNL A   1      36.267  31.576  33.629  1.00  0.00    -0.200 F 
ENDBRANCH  40  63
ENDBRANCH  14  15
ENDBRANCH   7   9
ENDBRANCH   6   7
ENDBRANCH   5   6
ENDBRANCH   4   5
ENDBRANCH   3   4
ENDBRANCH   2   3
ENDBRANCH   1   2
BRANCH   1  74
ATOM     74  O   UNL A   1      46.722  26.006  24.897  1.00  0.00    -0.376 OA
BRANCH  74  75
ATOM     75  C   UNL A   1      45.396  26.247  25.379  1.00  0.00     0.202 C 
BRANCH  75  76
ATOM     76  C   UNL A   1      44.366  25.172  25.043  1.00  0.00     0.261 C 
BRANCH  76  77
ATOM     77  O   UNL A   1      44.758  23.907  25.584  1.00  0.00    -0.463 OA
BRANCH  77  78
ATOM     78  C   UNL A   1      44.909  22.931  24.677  1.00  0.00     0.310 C 
ATOM     79  O   UNL A   1      45.506  23.048  23.609  1.00  0.00    -0.252 OA
BRANCH  78  80
ATOM     80  C   UNL A   1      44.410  21.597  25.154  1.00  0.00     0.117 C 
ATOM     81  C   UNL A   1      44.536  20.572  24.004  1.00  0.00     0.017 C 
ATOM     82  C   UNL A   1      43.190  21.448  26.114  1.00  0.00     0.084 C 
ATOM     83  C   UNL A   1      44.530  19.137  24.504  1.00  0.00     0.001 C 
ATOM     84  C   UNL A   1      43.328  19.939  26.535  1.00  0.00     0.021 C 
ATOM     85  C   UNL A   1      43.319  18.939  25.377  1.00  0.00     0.002 C 
BRANCH  82  86
ATOM     86  N   UNL A   1      41.760  21.680  25.674  1.00  0.00    -0.207 NA
ATOM     87  H   UNL A   1      41.476  20.777  25.293  1.00  0.00     0.141 HD
BRANCH  86  88
ATOM     88  S   UNL A   1      40.358  22.217  26.536  1.00  0.00     0.240 S 
ATOM     89  O   UNL A   1      39.186  21.891  25.752  1.00  0.00    -0.207 OA
ATOM     90  O   UNL A   1      40.553  21.620  27.842  1.00  0.00    -0.207 OA
BRANCH  88  91
ATOM     91  C   UNL A   1      40.264  24.001  26.899  1.00  0.00     0.083 A 
ATOM     92  C   UNL A   1      39.501  24.457  27.945  1.00  0.00     0.022 A 
ATOM     93  C   UNL A   1      40.860  24.999  26.095  1.00  0.00     0.030 A 
ATOM     94  C   UNL A   1      39.650  25.779  28.415  1.00  0.00     0.010 A 
ATOM     95  C   UNL A   1      40.910  26.389  26.496  1.00  0.00    -0.017 A 
ATOM     96  C   UNL A   1      40.350  26.748  27.729  1.00  0.00    -0.018 A 
ATOM     97  C   UNL A   1      41.530  27.440  25.785  1.00  0.00     0.009 A 
ATOM     98  C   UNL A   1      40.465  28.044  28.276  1.00  0.00     0.009 A 
ATOM     99  C   UNL A   1      41.637  28.742  26.319  1.00  0.00     0.001 A 
ATOM    100  C   UNL A   1      41.125  29.039  27.576  1.00  0.00     0.001 A 
ENDBRANCH  88  91
ENDBRANCH  86  88
ENDBRANCH  82  86
ENDBRANCH  78  80
ENDBRANCH  77  78
ENDBRANCH  76  77
ENDBRANCH  75  76
ENDBRANCH  74  75
ENDBRANCH   1  74
TORSDOF 20
ENDMDL
