MODEL 1
REMARK VINA RESULT:     -10.1      0.000      0.000
REMARK SMILES [NH3+][C@H](Cc1cc(F)c(F)c(F)c1)C(=O)OCCOCCOCCOC(=O)c1ccc(-c2c3nc(c(-c4c(F)c(F)c(F)c(F)c4F)c4ccc([nH]4)c(-c4c(F)c(F)c(F)c(F)c4F)c4nc(c(-c5c(F)c(F)c(F)c(F)c5F)c5ccc2[nH]5)C=C4)C=C3)cc1
REMARK SMILES IDX 19 1 18 2 17 3 16 4 15 5 13 6 14 7 2 8 1 9 3 13 4 14 5 15
REMARK SMILES IDX 12 16 6 17 10 18 7 19 8 20 11 21 9 22 20 23 21 24 22 25
REMARK SMILES IDX 23 26 24 27 25 28 26 29 27 30 28 31 89 32 29 33 88 34 30 35
REMARK SMILES IDX 31 36 32 37 82 38 33 39 87 40 81 41 83 42 34 43 86 44 80 45
REMARK SMILES IDX 79 46 35 48 67 49 47 50 66 51 48 52 51 53 65 54 84 55 49 56
REMARK SMILES IDX 50 57 64 59 85 60 52 61 36 62 37 63 45 64 38 65 39 66 43 67
REMARK SMILES IDX 46 68 40 69 41 70 44 71 42 72 68 73 69 74 77 75 70 76 71 77
REMARK SMILES IDX 75 78 78 79 72 80 73 81 76 82 74 83 53 84 54 85 62 86 55 87
REMARK SMILES IDX 56 88 60 89 63 90 57 91 58 92 61 93 59 94
REMARK H PARENT 1 10 1 11 1 12 83 47 51 58
REMARK Flexibility Score: inf
ROOT
ATOM      1  C   UNL A   1      31.133  26.942  23.446  1.00  0.00     0.188 C 
ENDROOT
BRANCH   1   2
ATOM      2  O   UNL A   1      31.136  26.372  24.747  1.00  0.00    -0.376 OA
BRANCH   2   3
ATOM      3  C   UNL A   1      29.989  25.640  25.182  1.00  0.00     0.202 C 
BRANCH   3   4
ATOM      4  C   UNL A   1      30.170  24.540  26.245  1.00  0.00     0.261 C 
BRANCH   4   5
ATOM      5  O   UNL A   1      31.448  24.584  26.910  1.00  0.00    -0.459 OA
BRANCH   5   6
ATOM      6  C   UNL A   1      32.358  23.636  26.553  1.00  0.00     0.365 C 
ATOM      7  O   UNL A   1      32.097  22.441  26.470  1.00  0.00    -0.245 OA
BRANCH   6   8
ATOM      8  C   UNL A   1      33.719  24.258  26.125  1.00  0.00     0.296 C 
BRANCH   8   9
ATOM      9  N   UNL A   1      33.581  25.723  25.963  1.00  0.00    -0.346 N 
ATOM     10  H   UNL A   1      32.764  25.926  25.388  1.00  0.00     0.345 HD
ATOM     11  H   UNL A   1      34.417  26.095  25.510  1.00  0.00     0.345 HD
ATOM     12  H   UNL A   1      33.470  26.157  26.880  1.00  0.00     0.345 HD
ENDBRANCH   8   9
BRANCH   8  13
ATOM     13  C   UNL A   1      34.457  23.570  24.949  1.00  0.00     0.113 C 
BRANCH  13  14
ATOM     14  C   UNL A   1      35.833  23.019  25.216  1.00  0.00    -0.035 A 
ATOM     15  C   UNL A   1      36.806  23.830  25.811  1.00  0.00     0.046 A 
ATOM     16  C   UNL A   1      36.162  21.706  24.843  1.00  0.00     0.046 A 
ATOM     17  C   UNL A   1      38.079  23.319  26.051  1.00  0.00     0.162 A 
ATOM     18  C   UNL A   1      37.440  21.215  25.091  1.00  0.00     0.162 A 
ATOM     19  F   UNL A   1      38.995  24.107  26.629  1.00  0.00    -0.204 F 
ATOM     20  C   UNL A   1      38.397  22.014  25.700  1.00  0.00     0.194 A 
ATOM     21  F   UNL A   1      37.735  19.958  24.735  1.00  0.00    -0.204 F 
ATOM     22  F   UNL A   1      39.622  21.530  25.946  1.00  0.00    -0.200 F 
ENDBRANCH  13  14
ENDBRANCH   8  13
ENDBRANCH   6   8
ENDBRANCH   5   6
ENDBRANCH   4   5
ENDBRANCH   3   4
ENDBRANCH   2   3
ENDBRANCH   1   2
BRANCH   1  23
ATOM     23  C   UNL A   1      31.297  28.463  23.300  1.00  0.00     0.188 C 
BRANCH  23  24
ATOM     24  O   UNL A   1      32.614  28.937  23.450  1.00  0.00    -0.376 OA
BRANCH  24  25
ATOM     25  C   UNL A   1      33.026  29.367  24.740  1.00  0.00     0.202 C 
BRANCH  25  26
ATOM     26  C   UNL A   1      32.007  30.024  25.694  1.00  0.00     0.261 C 
BRANCH  26  27
ATOM     27  O   UNL A   1      32.456  30.319  27.029  1.00  0.00    -0.460 OA
BRANCH  27  28
ATOM     28  C   UNL A   1      33.146  31.473  27.207  1.00  0.00     0.338 C 
ATOM     29  O   UNL A   1      32.712  32.605  27.133  1.00  0.00    -0.246 OA
BRANCH  28  30
ATOM     30  C   UNL A   1      34.466  31.116  27.788  1.00  0.00     0.060 A 
ATOM     31  C   UNL A   1      34.687  29.790  28.192  1.00  0.00     0.016 A 
ATOM     32  C   UNL A   1      35.481  32.067  27.911  1.00  0.00     0.016 A 
ATOM     33  C   UNL A   1      35.912  29.419  28.750  1.00  0.00     0.010 A 
ATOM     34  C   UNL A   1      36.697  31.702  28.498  1.00  0.00     0.010 A 
ATOM     35  C   UNL A   1      36.905  30.386  28.952  1.00  0.00    -0.014 A 
BRANCH  35  36
ATOM     36  C   UNL A   1      38.061  30.079  29.830  1.00  0.00     0.031 A 
ATOM     37  C   UNL A   1      39.124  29.155  29.303  1.00  0.00     0.074 A 
ATOM     38  C   UNL A   1      38.192  30.628  31.050  1.00  0.00     0.049 A 
ATOM     39  N   UNL A   1      40.194  28.690  29.895  1.00  0.00    -0.248 NA
ATOM     40  C   UNL A   1      38.957  28.694  27.915  1.00  0.00     0.031 C 
ATOM     41  C   UNL A   1      37.269  31.585  31.650  1.00  0.00     0.029 A 
ATOM     42  N   UNL A   1      39.164  30.450  32.006  1.00  0.00    -0.354 N 
ATOM     43  C   UNL A   1      40.822  27.884  28.956  1.00  0.00     0.074 A 
ATOM     44  C   UNL A   1      39.998  27.891  27.767  1.00  0.00     0.031 C 
ATOM     45  C   UNL A   1      37.715  31.909  32.877  1.00  0.00     0.029 A 
ATOM     46  C   UNL A   1      38.935  31.153  33.162  1.00  0.00     0.049 A 
ATOM     47  H   UNL A   1      39.950  29.871  31.873  1.00  0.00     0.167 HD
ATOM     48  C   UNL A   1      41.990  27.211  29.068  1.00  0.00     0.037 A 
ATOM     49  C   UNL A   1      39.622  31.169  34.322  1.00  0.00     0.037 A 
ATOM     50  C   UNL A   1      42.807  27.199  30.252  1.00  0.00     0.049 A 
ATOM     51  C   UNL A   1      40.870  30.332  34.461  1.00  0.00     0.074 A 
ATOM     52  C   UNL A   1      44.002  26.535  30.465  1.00  0.00     0.029 A 
ATOM     53  N   UNL A   1      42.512  27.881  31.423  1.00  0.00    -0.354 N 
ATOM     54  N   UNL A   1      41.454  29.564  33.574  1.00  0.00    -0.248 NA
ATOM     55  C   UNL A   1      41.554  30.364  35.764  1.00  0.00     0.031 C 
ATOM     56  C   UNL A   1      44.402  26.771  31.783  1.00  0.00     0.029 A 
ATOM     57  C   UNL A   1      43.492  27.636  32.370  1.00  0.00     0.049 A 
ATOM     58  H   UNL A   1      41.724  28.454  31.560  1.00  0.00     0.167 HD
ATOM     59  C   UNL A   1      42.583  29.046  34.197  1.00  0.00     0.074 A 
ATOM     60  C   UNL A   1      42.609  29.594  35.536  1.00  0.00     0.031 C 
ATOM     61  C   UNL A   1      43.515  28.194  33.699  1.00  0.00     0.037 A 
BRANCH  48  62
ATOM     62  C   UNL A   1      42.452  26.416  27.882  1.00  0.00     0.064 A 
ATOM     63  C   UNL A   1      43.300  26.992  26.925  1.00  0.00     0.173 A 
ATOM     64  C   UNL A   1      42.009  25.103  27.660  1.00  0.00     0.173 A 
ATOM     65  F   UNL A   1      43.752  28.245  27.089  1.00  0.00    -0.203 F 
ATOM     66  C   UNL A   1      43.674  26.291  25.782  1.00  0.00     0.198 A 
ATOM     67  C   UNL A   1      42.410  24.393  26.532  1.00  0.00     0.198 A 
ATOM     68  F   UNL A   1      41.212  24.499  28.553  1.00  0.00    -0.203 F 
ATOM     69  F   UNL A   1      44.457  26.877  24.865  1.00  0.00    -0.200 F 
ATOM     70  C   UNL A   1      43.232  24.991  25.587  1.00  0.00     0.200 A 
ATOM     71  F   UNL A   1      42.007  23.127  26.360  1.00  0.00    -0.200 F 
ATOM     72  F   UNL A   1      43.602  24.313  24.493  1.00  0.00    -0.200 F 
ENDBRANCH  48  62
BRANCH  49  73
ATOM     73  C   UNL A   1      39.147  32.021  35.445  1.00  0.00     0.064 A 
ATOM     74  C   UNL A   1      39.509  33.373  35.539  1.00  0.00     0.173 A 
ATOM     75  C   UNL A   1      38.342  31.491  36.462  1.00  0.00     0.173 A 
ATOM     76  F   UNL A   1      40.272  33.932  34.588  1.00  0.00    -0.203 F 
ATOM     77  C   UNL A   1      39.110  34.153  36.622  1.00  0.00     0.198 A 
ATOM     78  C   UNL A   1      37.920  32.278  37.531  1.00  0.00     0.198 A 
ATOM     79  F   UNL A   1      37.943  30.212  36.401  1.00  0.00    -0.203 F 
ATOM     80  F   UNL A   1      39.502  35.432  36.706  1.00  0.00    -0.200 F 
ATOM     81  C   UNL A   1      38.314  33.605  37.617  1.00  0.00     0.200 A 
ATOM     82  F   UNL A   1      37.127  31.753  38.475  1.00  0.00    -0.200 F 
ATOM     83  F   UNL A   1      37.924  34.357  38.655  1.00  0.00    -0.200 F 
ENDBRANCH  49  73
BRANCH  61  84
ATOM     84  C   UNL A   1      44.670  27.814  34.584  1.00  0.00     0.064 A 
ATOM     85  C   UNL A   1      45.860  28.557  34.554  1.00  0.00     0.173 A 
ATOM     86  C   UNL A   1      44.637  26.663  35.384  1.00  0.00     0.173 A 
ATOM     87  F   UNL A   1      45.950  29.661  33.796  1.00  0.00    -0.203 F 
ATOM     88  C   UNL A   1      46.979  28.152  35.276  1.00  0.00     0.198 A 
ATOM     89  C   UNL A   1      45.748  26.278  36.131  1.00  0.00     0.198 A 
ATOM     90  F   UNL A   1      43.522  25.920  35.454  1.00  0.00    -0.203 F 
ATOM     91  F   UNL A   1      48.118  28.855  35.195  1.00  0.00    -0.200 F 
ATOM     92  C   UNL A   1      46.921  27.015  36.066  1.00  0.00     0.200 A 
ATOM     93  F   UNL A   1      45.684  25.191  36.912  1.00  0.00    -0.200 F 
ATOM     94  F   UNL A   1      47.996  26.630  36.767  1.00  0.00    -0.200 F 
ENDBRANCH  61  84
ENDBRANCH  35  36
ENDBRANCH  28  30
ENDBRANCH  27  28
ENDBRANCH  26  27
ENDBRANCH  25  26
ENDBRANCH  24  25
ENDBRANCH  23  24
ENDBRANCH   1  23
TORSDOF 20
ENDMDL
MODEL 2
REMARK VINA RESULT:     -10.0      0.461      2.188
REMARK SMILES [NH3+][C@H](Cc1cc(F)c(F)c(F)c1)C(=O)OCCOCCOCCOC(=O)c1ccc(-c2c3nc(c(-c4c(F)c(F)c(F)c(F)c4F)c4ccc([nH]4)c(-c4c(F)c(F)c(F)c(F)c4F)c4nc(c(-c5c(F)c(F)c(F)c(F)c5F)c5ccc2[nH]5)C=C4)C=C3)cc1
REMARK SMILES IDX 19 1 18 2 17 3 16 4 15 5 13 6 14 7 2 8 1 9 3 13 4 14 5 15
REMARK SMILES IDX 12 16 6 17 10 18 7 19 8 20 11 21 9 22 20 23 21 24 22 25
REMARK SMILES IDX 23 26 24 27 25 28 26 29 27 30 28 31 89 32 29 33 88 34 30 35
REMARK SMILES IDX 31 36 32 37 82 38 33 39 87 40 81 41 83 42 34 43 86 44 80 45
REMARK SMILES IDX 79 46 35 48 67 49 47 50 66 51 48 52 51 53 65 54 84 55 49 56
REMARK SMILES IDX 50 57 64 59 85 60 52 61 36 62 37 63 45 64 38 65 39 66 43 67
REMARK SMILES IDX 46 68 40 69 41 70 44 71 42 72 68 73 69 74 77 75 70 76 71 77
REMARK SMILES IDX 75 78 78 79 72 80 73 81 76 82 74 83 53 84 54 85 62 86 55 87
REMARK SMILES IDX 56 88 60 89 63 90 57 91 58 92 61 93 59 94
REMARK H PARENT 1 10 1 11 1 12 83 47 51 58
REMARK Flexibility Score: inf
ROOT
ATOM      1  C   UNL A   1      30.512  27.049  24.027  1.00  0.00     0.188 C 
ENDROOT
BRANCH   1   2
ATOM      2  O   UNL A   1      30.384  26.722  25.404  1.00  0.00    -0.376 OA
BRANCH   2   3
ATOM      3  C   UNL A   1      29.971  25.402  25.763  1.00  0.00     0.202 C 
BRANCH   3   4
ATOM      4  C   UNL A   1      31.019  24.426  26.331  1.00  0.00     0.261 C 
BRANCH   4   5
ATOM      5  O   UNL A   1      32.357  24.963  26.352  1.00  0.00    -0.459 OA
BRANCH   5   6
ATOM      6  C   UNL A   1      33.376  24.079  26.165  1.00  0.00     0.365 C 
ATOM      7  O   UNL A   1      33.339  22.912  26.540  1.00  0.00    -0.245 OA
BRANCH   6   8
ATOM      8  C   UNL A   1      34.522  24.675  25.299  1.00  0.00     0.296 C 
BRANCH   8   9
ATOM      9  N   UNL A   1      34.080  25.941  24.671  1.00  0.00    -0.346 N 
ATOM     10  H   UNL A   1      34.735  26.203  23.934  1.00  0.00     0.345 HD
ATOM     11  H   UNL A   1      34.050  26.678  25.377  1.00  0.00     0.345 HD
ATOM     12  H   UNL A   1      33.150  25.815  24.271  1.00  0.00     0.345 HD
ENDBRANCH   8   9
BRANCH   8  13
ATOM     13  C   UNL A   1      35.225  23.707  24.315  1.00  0.00     0.113 C 
BRANCH  13  14
ATOM     14  C   UNL A   1      36.426  22.951  24.818  1.00  0.00    -0.035 A 
ATOM     15  C   UNL A   1      36.590  21.601  24.491  1.00  0.00     0.046 A 
ATOM     16  C   UNL A   1      37.371  23.581  25.645  1.00  0.00     0.046 A 
ATOM     17  C   UNL A   1      37.699  20.905  24.963  1.00  0.00     0.162 A 
ATOM     18  C   UNL A   1      38.472  22.866  26.108  1.00  0.00     0.162 A 
ATOM     19  F   UNL A   1      37.844  19.615  24.632  1.00  0.00    -0.204 F 
ATOM     20  C   UNL A   1      38.643  21.533  25.764  1.00  0.00     0.194 A 
ATOM     21  F   UNL A   1      39.368  23.484  26.889  1.00  0.00    -0.204 F 
ATOM     22  F   UNL A   1      39.712  20.855  26.204  1.00  0.00    -0.200 F 
ENDBRANCH  13  14
ENDBRANCH   8  13
ENDBRANCH   6   8
ENDBRANCH   5   6
ENDBRANCH   4   5
ENDBRANCH   3   4
ENDBRANCH   2   3
ENDBRANCH   1   2
BRANCH   1  23
ATOM     23  C   UNL A   1      30.484  28.527  23.608  1.00  0.00     0.188 C 
BRANCH  23  24
ATOM     24  O   UNL A   1      31.747  29.142  23.508  1.00  0.00    -0.376 OA
BRANCH  24  25
ATOM     25  C   UNL A   1      32.466  29.391  24.708  1.00  0.00     0.202 C 
BRANCH  25  26
ATOM     26  C   UNL A   1      31.900  30.374  25.754  1.00  0.00     0.261 C 
BRANCH  26  27
ATOM     27  O   UNL A   1      32.600  30.471  27.007  1.00  0.00    -0.460 OA
BRANCH  27  28
ATOM     28  C   UNL A   1      33.279  31.620  27.249  1.00  0.00     0.338 C 
ATOM     29  O   UNL A   1      32.836  32.750  27.222  1.00  0.00    -0.246 OA
BRANCH  28  30
ATOM     30  C   UNL A   1      34.593  31.246  27.830  1.00  0.00     0.060 A 
ATOM     31  C   UNL A   1      34.830  29.899  28.148  1.00  0.00     0.016 A 
ATOM     32  C   UNL A   1      35.588  32.203  28.038  1.00  0.00     0.016 A 
ATOM     33  C   UNL A   1      36.051  29.512  28.704  1.00  0.00     0.010 A 
ATOM     34  C   UNL A   1      36.799  31.818  28.624  1.00  0.00     0.010 A 
ATOM     35  C   UNL A   1      37.023  30.478  28.991  1.00  0.00    -0.014 A 
BRANCH  35  36
ATOM     36  C   UNL A   1      38.166  30.132  29.869  1.00  0.00     0.031 A 
ATOM     37  C   UNL A   1      39.223  29.210  29.324  1.00  0.00     0.074 A 
ATOM     38  C   UNL A   1      38.294  30.642  31.106  1.00  0.00     0.049 A 
ATOM     39  N   UNL A   1      40.282  28.714  29.911  1.00  0.00    -0.248 NA
ATOM     40  C   UNL A   1      39.062  28.792  27.922  1.00  0.00     0.031 C 
ATOM     41  C   UNL A   1      37.377  31.593  31.727  1.00  0.00     0.029 A 
ATOM     42  N   UNL A   1      39.255  30.424  32.064  1.00  0.00    -0.354 N 
ATOM     43  C   UNL A   1      40.908  27.929  28.953  1.00  0.00     0.074 A 
ATOM     44  C   UNL A   1      40.095  27.981  27.759  1.00  0.00     0.031 C 
ATOM     45  C   UNL A   1      37.817  31.875  32.966  1.00  0.00     0.029 A 
ATOM     46  C   UNL A   1      39.025  31.096  33.238  1.00  0.00     0.049 A 
ATOM     47  H   UNL A   1      40.035  29.840  31.921  1.00  0.00     0.167 HD
ATOM     48  C   UNL A   1      42.067  27.238  29.056  1.00  0.00     0.037 A 
ATOM     49  C   UNL A   1      39.702  31.069  34.404  1.00  0.00     0.037 A 
ATOM     50  C   UNL A   1      42.874  27.181  30.245  1.00  0.00     0.049 A 
ATOM     51  C   UNL A   1      40.938  30.213  34.529  1.00  0.00     0.074 A 
ATOM     52  C   UNL A   1      44.058  26.496  30.449  1.00  0.00     0.029 A 
ATOM     53  N   UNL A   1      42.577  27.832  31.434  1.00  0.00    -0.354 N 
ATOM     54  N   UNL A   1      41.520  29.464  33.624  1.00  0.00    -0.248 NA
ATOM     55  C   UNL A   1      41.611  30.198  35.838  1.00  0.00     0.031 C 
ATOM     56  C   UNL A   1      44.450  26.688  31.776  1.00  0.00     0.029 A 
ATOM     57  C   UNL A   1      43.545  27.547  32.381  1.00  0.00     0.049 A 
ATOM     58  H   UNL A   1      41.794  28.410  31.581  1.00  0.00     0.167 HD
ATOM     59  C   UNL A   1      42.638  28.913  34.241  1.00  0.00     0.074 A 
ATOM     60  C   UNL A   1      42.659  29.422  35.596  1.00  0.00     0.031 C 
ATOM     61  C   UNL A   1      43.563  28.065  33.727  1.00  0.00     0.037 A 
BRANCH  48  62
ATOM     62  C   UNL A   1      42.530  26.472  27.850  1.00  0.00     0.064 A 
ATOM     63  C   UNL A   1      42.191  25.120  27.692  1.00  0.00     0.173 A 
ATOM     64  C   UNL A   1      43.357  27.059  26.880  1.00  0.00     0.173 A 
ATOM     65  F   UNL A   1      41.402  24.511  28.591  1.00  0.00    -0.203 F 
ATOM     66  C   UNL A   1      42.676  24.380  26.618  1.00  0.00     0.198 A 
ATOM     67  C   UNL A   1      43.814  26.324  25.791  1.00  0.00     0.198 A 
ATOM     68  F   UNL A   1      43.695  28.353  26.975  1.00  0.00    -0.203 F 
ATOM     69  F   UNL A   1      42.367  23.080  26.508  1.00  0.00    -0.200 F 
ATOM     70  C   UNL A   1      43.484  24.982  25.666  1.00  0.00     0.200 A 
ATOM     71  F   UNL A   1      44.571  26.916  24.855  1.00  0.00    -0.200 F 
ATOM     72  F   UNL A   1      43.941  24.272  24.627  1.00  0.00    -0.200 F 
ENDBRANCH  48  62
BRANCH  49  73
ATOM     73  C   UNL A   1      39.227  31.894  35.548  1.00  0.00     0.064 A 
ATOM     74  C   UNL A   1      38.378  31.360  36.530  1.00  0.00     0.173 A 
ATOM     75  C   UNL A   1      39.591  33.241  35.665  1.00  0.00     0.173 A 
ATOM     76  F   UNL A   1      38.006  30.073  36.469  1.00  0.00    -0.203 F 
ATOM     77  C   UNL A   1      37.889  32.151  37.567  1.00  0.00     0.198 A 
ATOM     78  C   UNL A   1      39.124  34.025  36.718  1.00  0.00     0.198 A 
ATOM     79  F   UNL A   1      40.425  33.789  34.769  1.00  0.00    -0.203 F 
ATOM     80  F   UNL A   1      37.051  31.626  38.470  1.00  0.00    -0.200 F 
ATOM     81  C   UNL A   1      38.264  33.483  37.661  1.00  0.00     0.200 A 
ATOM     82  F   UNL A   1      39.511  35.304  36.821  1.00  0.00    -0.200 F 
ATOM     83  F   UNL A   1      37.800  34.243  38.663  1.00  0.00    -0.200 F 
ENDBRANCH  49  73
BRANCH  61  84
ATOM     84  C   UNL A   1      44.705  27.645  34.609  1.00  0.00     0.064 A 
ATOM     85  C   UNL A   1      44.587  26.511  35.429  1.00  0.00     0.173 A 
ATOM     86  C   UNL A   1      45.873  28.413  34.719  1.00  0.00     0.173 A 
ATOM     87  F   UNL A   1      43.486  25.747  35.373  1.00  0.00    -0.203 F 
ATOM     88  C   UNL A   1      45.586  26.174  36.338  1.00  0.00     0.198 A 
ATOM     89  C   UNL A   1      46.885  28.054  35.607  1.00  0.00     0.198 A 
ATOM     90  F   UNL A   1      46.039  29.502  33.954  1.00  0.00    -0.203 F 
ATOM     91  F   UNL A   1      45.429  25.111  37.141  1.00  0.00    -0.200 F 
ATOM     92  C   UNL A   1      46.736  26.944  36.424  1.00  0.00     0.200 A 
ATOM     93  F   UNL A   1      48.005  28.786  35.672  1.00  0.00    -0.200 F 
ATOM     94  F   UNL A   1      47.701  26.615  37.293  1.00  0.00    -0.200 F 
ENDBRANCH  61  84
ENDBRANCH  35  36
ENDBRANCH  28  30
ENDBRANCH  27  28
ENDBRANCH  26  27
ENDBRANCH  25  26
ENDBRANCH  24  25
ENDBRANCH  23  24
ENDBRANCH   1  23
TORSDOF 20
ENDMDL
MODEL 3
REMARK VINA RESULT:      -9.8      4.648      9.592
REMARK SMILES [NH3+][C@H](Cc1cc(F)c(F)c(F)c1)C(=O)OCCOCCOCCOC(=O)c1ccc(-c2c3nc(c(-c4c(F)c(F)c(F)c(F)c4F)c4ccc([nH]4)c(-c4c(F)c(F)c(F)c(F)c4F)c4nc(c(-c5c(F)c(F)c(F)c(F)c5F)c5ccc2[nH]5)C=C4)C=C3)cc1
REMARK SMILES IDX 19 1 18 2 17 3 16 4 15 5 13 6 14 7 2 8 1 9 3 13 4 14 5 15
REMARK SMILES IDX 12 16 6 17 10 18 7 19 8 20 11 21 9 22 20 23 21 24 22 25
REMARK SMILES IDX 23 26 24 27 25 28 26 29 27 30 28 31 89 32 29 33 88 34 30 35
REMARK SMILES IDX 31 36 32 37 82 38 33 39 87 40 81 41 83 42 34 43 86 44 80 45
REMARK SMILES IDX 79 46 35 48 67 49 47 50 66 51 48 52 51 53 65 54 84 55 49 56
REMARK SMILES IDX 50 57 64 59 85 60 52 61 36 62 37 63 45 64 38 65 39 66 43 67
REMARK SMILES IDX 46 68 40 69 41 70 44 71 42 72 68 73 69 74 77 75 70 76 71 77
REMARK SMILES IDX 75 78 78 79 72 80 73 81 76 82 74 83 53 84 54 85 62 86 55 87
REMARK SMILES IDX 56 88 60 89 63 90 57 91 58 92 61 93 59 94
REMARK H PARENT 1 10 1 11 1 12 83 47 51 58
REMARK Flexibility Score: inf
ROOT
ATOM      1  C   UNL A   1      34.065  33.212  27.951  1.00  0.00     0.188 C 
ENDROOT
BRANCH   1   2
ATOM      2  O   UNL A   1      34.032  32.002  28.694  1.00  0.00    -0.376 OA
BRANCH   2   3
ATOM      3  C   UNL A   1      34.103  30.759  27.993  1.00  0.00     0.202 C 
BRANCH   3   4
ATOM      4  C   UNL A   1      32.964  30.389  27.023  1.00  0.00     0.261 C 
BRANCH   4   5
ATOM      5  O   UNL A   1      33.050  29.042  26.518  1.00  0.00    -0.459 OA
BRANCH   5   6
ATOM      6  C   UNL A   1      32.028  28.200  26.837  1.00  0.00     0.365 C 
ATOM      7  O   UNL A   1      31.412  28.252  27.896  1.00  0.00    -0.245 OA
BRANCH   6   8
ATOM      8  C   UNL A   1      31.641  27.266  25.655  1.00  0.00     0.296 C 
BRANCH   8   9
ATOM      9  N   UNL A   1      32.435  26.018  25.712  1.00  0.00    -0.346 N 
ATOM     10  H   UNL A   1      31.808  25.214  25.682  1.00  0.00     0.345 HD
ATOM     11  H   UNL A   1      32.972  25.997  26.580  1.00  0.00     0.345 HD
ATOM     12  H   UNL A   1      33.072  25.983  24.916  1.00  0.00     0.345 HD
ENDBRANCH   8   9
BRANCH   8  13
ATOM     13  C   UNL A   1      31.599  27.911  24.247  1.00  0.00     0.113 C 
BRANCH  13  14
ATOM     14  C   UNL A   1      30.437  28.814  23.928  1.00  0.00    -0.035 A 
ATOM     15  C   UNL A   1      29.292  28.289  23.318  1.00  0.00     0.046 A 
ATOM     16  C   UNL A   1      30.503  30.188  24.206  1.00  0.00     0.046 A 
ATOM     17  C   UNL A   1      28.222  29.128  23.019  1.00  0.00     0.162 A 
ATOM     18  C   UNL A   1      29.422  31.010  23.899  1.00  0.00     0.162 A 
ATOM     19  F   UNL A   1      27.131  28.606  22.443  1.00  0.00    -0.204 F 
ATOM     20  C   UNL A   1      28.280  30.484  23.312  1.00  0.00     0.194 A 
ATOM     21  F   UNL A   1      29.499  32.318  24.177  1.00  0.00    -0.204 F 
ATOM     22  F   UNL A   1      27.239  31.279  23.031  1.00  0.00    -0.200 F 
ENDBRANCH  13  14
ENDBRANCH   8  13
ENDBRANCH   6   8
ENDBRANCH   5   6
ENDBRANCH   4   5
ENDBRANCH   3   4
ENDBRANCH   2   3
ENDBRANCH   1   2
BRANCH   1  23
ATOM     23  C   UNL A   1      33.275  34.425  28.468  1.00  0.00     0.188 C 
BRANCH  23  24
ATOM     24  O   UNL A   1      33.932  35.187  29.453  1.00  0.00    -0.376 OA
BRANCH  24  25
ATOM     25  C   UNL A   1      33.713  34.848  30.816  1.00  0.00     0.202 C 
BRANCH  25  26
ATOM     26  C   UNL A   1      34.876  34.295  31.667  1.00  0.00     0.261 C 
BRANCH  26  27
ATOM     27  O   UNL A   1      35.062  32.868  31.671  1.00  0.00    -0.460 OA
BRANCH  27  28
ATOM     28  C   UNL A   1      35.921  32.360  32.588  1.00  0.00     0.338 C 
ATOM     29  O   UNL A   1      35.776  32.340  33.794  1.00  0.00    -0.246 OA
BRANCH  28  30
ATOM     30  C   UNL A   1      36.945  31.575  31.852  1.00  0.00     0.060 A 
ATOM     31  C   UNL A   1      37.918  30.881  32.589  1.00  0.00     0.016 A 
ATOM     32  C   UNL A   1      36.935  31.504  30.458  1.00  0.00     0.016 A 
ATOM     33  C   UNL A   1      38.902  30.140  31.931  1.00  0.00     0.010 A 
ATOM     34  C   UNL A   1      37.939  30.786  29.800  1.00  0.00     0.010 A 
ATOM     35  C   UNL A   1      38.947  30.130  30.532  1.00  0.00    -0.014 A 
BRANCH  35  36
ATOM     36  C   UNL A   1      40.159  29.631  29.839  1.00  0.00     0.031 A 
ATOM     37  C   UNL A   1      41.319  30.575  29.673  1.00  0.00     0.074 A 
ATOM     38  C   UNL A   1      40.255  28.366  29.395  1.00  0.00     0.049 A 
ATOM     39  N   UNL A   1      42.459  30.396  29.057  1.00  0.00    -0.248 NA
ATOM     40  C   UNL A   1      41.171  31.902  30.292  1.00  0.00     0.031 C 
ATOM     41  C   UNL A   1      39.232  27.336  29.549  1.00  0.00     0.029 A 
ATOM     42  N   UNL A   1      41.271  27.734  28.718  1.00  0.00    -0.354 N 
ATOM     43  C   UNL A   1      43.159  31.585  29.212  1.00  0.00     0.074 A 
ATOM     44  C   UNL A   1      42.305  32.491  29.947  1.00  0.00     0.031 C 
ATOM     45  C   UNL A   1      39.669  26.200  28.978  1.00  0.00     0.029 A 
ATOM     46  C   UNL A   1      40.987  26.433  28.386  1.00  0.00     0.049 A 
ATOM     47  H   UNL A   1      42.122  28.175  28.491  1.00  0.00     0.167 HD
ATOM     48  C   UNL A   1      44.409  31.888  28.792  1.00  0.00     0.037 A 
ATOM     49  C   UNL A   1      41.701  25.541  27.671  1.00  0.00     0.037 A 
ATOM     50  C   UNL A   1      45.257  30.989  28.056  1.00  0.00     0.049 A 
ATOM     51  C   UNL A   1      43.052  25.932  27.127  1.00  0.00     0.074 A 
ATOM     52  C   UNL A   1      46.535  31.211  27.576  1.00  0.00     0.029 A 
ATOM     53  N   UNL A   1      44.910  29.696  27.692  1.00  0.00    -0.354 N 
ATOM     54  N   UNL A   1      43.706  27.061  27.267  1.00  0.00    -0.248 NA
ATOM     55  C   UNL A   1      43.766  24.927  26.324  1.00  0.00     0.031 C 
ATOM     56  C   UNL A   1      46.941  30.074  26.874  1.00  0.00     0.029 A 
ATOM     57  C   UNL A   1      45.943  29.117  26.974  1.00  0.00     0.049 A 
ATOM     58  H   UNL A   1      44.057  29.256  27.910  1.00  0.00     0.167 HD
ATOM     59  C   UNL A   1      44.912  26.893  26.598  1.00  0.00     0.074 A 
ATOM     60  C   UNL A   1      44.907  25.549  26.059  1.00  0.00     0.031 C 
ATOM     61  C   UNL A   1      45.932  27.774  26.448  1.00  0.00     0.037 A 
BRANCH  48  62
ATOM     62  C   UNL A   1      44.935  33.258  29.107  1.00  0.00     0.064 A 
ATOM     63  C   UNL A   1      44.717  34.325  28.222  1.00  0.00     0.173 A 
ATOM     64  C   UNL A   1      45.705  33.504  30.254  1.00  0.00     0.173 A 
ATOM     65  F   UNL A   1      43.988  34.144  27.110  1.00  0.00    -0.203 F 
ATOM     66  C   UNL A   1      45.264  35.582  28.465  1.00  0.00     0.198 A 
ATOM     67  C   UNL A   1      46.224  34.770  30.510  1.00  0.00     0.198 A 
ATOM     68  F   UNL A   1      45.927  32.522  31.141  1.00  0.00    -0.203 F 
ATOM     69  F   UNL A   1      45.071  36.576  27.587  1.00  0.00    -0.200 F 
ATOM     70  C   UNL A   1      46.014  35.804  29.610  1.00  0.00     0.200 A 
ATOM     71  F   UNL A   1      46.923  34.991  31.632  1.00  0.00    -0.200 F 
ATOM     72  F   UNL A   1      46.530  37.017  29.849  1.00  0.00    -0.200 F 
ENDBRANCH  48  62
BRANCH  49  73
ATOM     73  C   UNL A   1      41.152  24.177  27.440  1.00  0.00     0.064 A 
ATOM     74  C   UNL A   1      41.698  23.053  28.076  1.00  0.00     0.173 A 
ATOM     75  C   UNL A   1      40.086  23.971  26.554  1.00  0.00     0.173 A 
ATOM     76  F   UNL A   1      42.714  23.197  28.939  1.00  0.00    -0.203 F 
ATOM     77  C   UNL A   1      41.219  21.771  27.813  1.00  0.00     0.198 A 
ATOM     78  C   UNL A   1      39.589  22.691  26.311  1.00  0.00     0.198 A 
ATOM     79  F   UNL A   1      39.510  25.017  25.945  1.00  0.00    -0.203 F 
ATOM     80  F   UNL A   1      41.784  20.711  28.406  1.00  0.00    -0.200 F 
ATOM     81  C   UNL A   1      40.163  21.592  26.931  1.00  0.00     0.200 A 
ATOM     82  F   UNL A   1      38.551  22.525  25.482  1.00  0.00    -0.200 F 
ATOM     83  F   UNL A   1      39.697  20.360  26.683  1.00  0.00    -0.200 F 
ENDBRANCH  49  73
BRANCH  61  84
ATOM     84  C   UNL A   1      47.155  27.321  25.698  1.00  0.00     0.064 A 
ATOM     85  C   UNL A   1      48.201  26.673  26.374  1.00  0.00     0.173 A 
ATOM     86  C   UNL A   1      47.335  27.613  24.339  1.00  0.00     0.173 A 
ATOM     87  F   UNL A   1      48.085  26.380  27.678  1.00  0.00    -0.203 F 
ATOM     88  C   UNL A   1      49.388  26.352  25.722  1.00  0.00     0.198 A 
ATOM     89  C   UNL A   1      48.512  27.262  23.681  1.00  0.00     0.198 A 
ATOM     90  F   UNL A   1      46.364  28.226  23.645  1.00  0.00    -0.203 F 
ATOM     91  F   UNL A   1      50.389  25.773  26.400  1.00  0.00    -0.200 F 
ATOM     92  C   UNL A   1      49.541  26.644  24.375  1.00  0.00     0.200 A 
ATOM     93  F   UNL A   1      48.650  27.524  22.375  1.00  0.00    -0.200 F 
ATOM     94  F   UNL A   1      50.681  26.328  23.746  1.00  0.00    -0.200 F 
ENDBRANCH  61  84
ENDBRANCH  35  36
ENDBRANCH  28  30
ENDBRANCH  27  28
ENDBRANCH  26  27
ENDBRANCH  25  26
ENDBRANCH  24  25
ENDBRANCH  23  24
ENDBRANCH   1  23
TORSDOF 20
ENDMDL
