MODEL 1
REMARK VINA RESULT:     -12.4      0.000      0.000
REMARK SMILES O=C(C[C@H](NC(=O)[C@]12C[C@H]3C[C@H](C[C@H](C3)C1)C2)c1cccc([N+](=O)[O-])c1)OCCOCCOCCOC(=O)c1ccc(-c2c3nc(c(-c4c(F)c(F)c(F)c(F)c4F)c4ccc([nH]4)c(-c4c(F)c(F)c(F)c(F)c4F)c4nc(c(-c5c(F)c(F)c(F)c(F)c5F)c5ccc2[nH]5)C=C4)C=C3)cc1
REMARK SMILES IDX 31 1 30 2 29 3 28 4 27 5 2 6 1 7 3 8 4 9 18 10 19 11 26 12
REMARK SMILES IDX 20 13 22 14 21 15 23 16 24 17 25 18 5 19 6 20 7 22 8 23 9 24
REMARK SMILES IDX 16 25 17 26 10 27 14 28 12 29 11 30 15 31 13 32 32 33 33 34
REMARK SMILES IDX 34 35 35 36 36 37 37 38 38 39 39 40 40 41 101 42 41 43
REMARK SMILES IDX 100 44 42 45 43 46 44 47 94 48 45 49 99 50 93 51 95 52 46 53
REMARK SMILES IDX 98 54 92 55 91 56 47 58 79 59 59 60 78 61 60 62 63 63 77 64
REMARK SMILES IDX 96 65 61 66 62 67 76 69 97 70 64 71 48 72 49 73 57 74 50 75
REMARK SMILES IDX 51 76 55 77 58 78 52 79 53 80 56 81 54 82 80 83 81 84 89 85
REMARK SMILES IDX 82 86 83 87 87 88 90 89 84 90 85 91 88 92 86 93 65 94 66 95
REMARK SMILES IDX 74 96 67 97 68 98 72 99 75 100 69 101 70 102 73 103 71 104
REMARK H PARENT 5 21 95 57 63 68
REMARK Flexibility Score: inf
ROOT
ATOM      1  C   UNL A   1      34.886  33.179  28.304  1.00  0.00     0.188 C 
ENDROOT
BRANCH   1   2
ATOM      2  O   UNL A   1      33.885  32.220  28.001  1.00  0.00    -0.376 OA
BRANCH   2   3
ATOM      3  C   UNL A   1      34.334  30.939  27.583  1.00  0.00     0.202 C 
BRANCH   3   4
ATOM      4  C   UNL A   1      33.256  30.268  26.729  1.00  0.00     0.261 C 
BRANCH   4   5
ATOM      5  O   UNL A   1      32.882  29.045  27.379  1.00  0.00    -0.463 OA
BRANCH   5   6
ATOM      6  C   UNL A   1      31.888  28.385  26.731  1.00  0.00     0.308 C 
ATOM      7  O   UNL A   1      31.304  27.405  27.166  1.00  0.00    -0.252 OA
BRANCH   6   8
ATOM      8  C   UNL A   1      31.799  28.880  25.312  1.00  0.00     0.152 C 
BRANCH   8   9
ATOM      9  C   UNL A   1      31.463  27.799  24.307  1.00  0.00     0.123 C 
BRANCH   9  10
ATOM     10  C   UNL A   1      30.142  28.240  23.656  1.00  0.00    -0.018 A 
ATOM     11  C   UNL A   1      29.058  27.335  23.645  1.00  0.00     0.006 A 
ATOM     12  C   UNL A   1      29.904  29.572  23.285  1.00  0.00     0.091 A 
ATOM     13  C   UNL A   1      27.765  27.752  23.315  1.00  0.00     0.007 A 
ATOM     14  C   UNL A   1      28.603  29.982  22.942  1.00  0.00     0.269 A 
ATOM     15  C   UNL A   1      27.531  29.079  22.967  1.00  0.00     0.085 A 
BRANCH  14  16
ATOM     16  N   UNL A   1      28.349  31.389  22.610  1.00  0.00     0.062 N 
ATOM     17  O   UNL A   1      28.726  31.796  21.501  1.00  0.00    -0.258 OA
ATOM     18  O   UNL A   1      27.759  32.079  23.453  1.00  0.00    -0.258 OA
ENDBRANCH  14  16
ENDBRANCH   9  10
BRANCH   9  19
ATOM     19  N   UNL A   1      32.462  27.367  23.307  1.00  0.00    -0.348 N 
ATOM     20  C   UNL A   1      33.277  26.332  22.974  1.00  0.00     0.226 C 
ATOM     21  H   UNL A   1      32.580  28.088  22.646  1.00  0.00     0.164 HD
ATOM     22  O   UNL A   1      33.878  26.488  21.904  1.00  0.00    -0.274 OA
BRANCH  20  23
ATOM     23  C   UNL A   1      33.530  25.063  23.808  1.00  0.00     0.050 C 
ATOM     24  C   UNL A   1      32.214  24.259  23.917  1.00  0.00     0.020 C 
ATOM     25  C   UNL A   1      33.920  25.404  25.290  1.00  0.00     0.020 C 
ATOM     26  C   UNL A   1      34.749  24.267  23.298  1.00  0.00     0.020 C 
ATOM     27  C   UNL A   1      32.437  22.955  24.685  1.00  0.00    -0.010 C 
ATOM     28  C   UNL A   1      34.138  24.110  26.119  1.00  0.00    -0.010 C 
ATOM     29  C   UNL A   1      34.880  22.927  24.035  1.00  0.00    -0.010 C 
ATOM     30  C   UNL A   1      33.553  22.149  24.004  1.00  0.00     0.007 C 
ATOM     31  C   UNL A   1      32.841  23.287  26.128  1.00  0.00     0.007 C 
ATOM     32  C   UNL A   1      35.246  23.243  25.492  1.00  0.00     0.007 C 
ENDBRANCH  20  23
ENDBRANCH   9  19
ENDBRANCH   8   9
ENDBRANCH   6   8
ENDBRANCH   5   6
ENDBRANCH   4   5
ENDBRANCH   3   4
ENDBRANCH   2   3
ENDBRANCH   1   2
BRANCH   1  33
ATOM     33  C   UNL A   1      34.348  34.315  29.185  1.00  0.00     0.188 C 
BRANCH  33  34
ATOM     34  O   UNL A   1      33.709  34.044  30.427  1.00  0.00    -0.376 OA
BRANCH  34  35
ATOM     35  C   UNL A   1      33.954  34.879  31.543  1.00  0.00     0.202 C 
BRANCH  35  36
ATOM     36  C   UNL A   1      34.734  34.255  32.703  1.00  0.00     0.261 C 
BRANCH  36  37
ATOM     37  O   UNL A   1      34.878  32.822  32.663  1.00  0.00    -0.460 OA
BRANCH  37  38
ATOM     38  C   UNL A   1      35.979  32.353  33.303  1.00  0.00     0.338 C 
ATOM     39  O   UNL A   1      36.324  32.623  34.441  1.00  0.00    -0.246 OA
BRANCH  38  40
ATOM     40  C   UNL A   1      36.760  31.411  32.460  1.00  0.00     0.060 A 
ATOM     41  C   UNL A   1      37.864  30.788  33.058  1.00  0.00     0.016 A 
ATOM     42  C   UNL A   1      36.538  31.249  31.088  1.00  0.00     0.016 A 
ATOM     43  C   UNL A   1      38.787  30.080  32.283  1.00  0.00     0.010 A 
ATOM     44  C   UNL A   1      37.470  30.538  30.307  1.00  0.00     0.010 A 
ATOM     45  C   UNL A   1      38.626  29.991  30.894  1.00  0.00    -0.014 A 
BRANCH  45  46
ATOM     46  C   UNL A   1      39.792  29.559  30.073  1.00  0.00     0.031 A 
ATOM     47  C   UNL A   1      40.913  30.546  29.857  1.00  0.00     0.074 A 
ATOM     48  C   UNL A   1      39.917  28.312  29.586  1.00  0.00     0.049 A 
ATOM     49  N   UNL A   1      42.079  30.377  29.286  1.00  0.00    -0.248 NA
ATOM     50  C   UNL A   1      40.684  31.908  30.366  1.00  0.00     0.031 C 
ATOM     51  C   UNL A   1      38.940  27.239  29.728  1.00  0.00     0.029 A 
ATOM     52  N   UNL A   1      40.944  27.741  28.867  1.00  0.00    -0.354 N 
ATOM     53  C   UNL A   1      42.731  31.600  29.390  1.00  0.00     0.074 A 
ATOM     54  C   UNL A   1      41.816  32.513  30.040  1.00  0.00     0.031 C 
ATOM     55  C   UNL A   1      39.409  26.138  29.113  1.00  0.00     0.029 A 
ATOM     56  C   UNL A   1      40.720  26.429  28.528  1.00  0.00     0.049 A 
ATOM     57  H   UNL A   1      41.761  28.229  28.619  1.00  0.00     0.167 HD
ATOM     58  C   UNL A   1      43.981  31.936  28.992  1.00  0.00     0.037 A 
ATOM     59  C   UNL A   1      41.484  25.566  27.828  1.00  0.00     0.037 A 
ATOM     60  C   UNL A   1      44.895  31.058  28.313  1.00  0.00     0.049 A 
ATOM     61  C   UNL A   1      42.841  25.994  27.315  1.00  0.00     0.074 A 
ATOM     62  C   UNL A   1      46.181  31.322  27.873  1.00  0.00     0.029 A 
ATOM     63  N   UNL A   1      44.611  29.750  27.954  1.00  0.00    -0.354 N 
ATOM     64  N   UNL A   1      43.475  27.128  27.479  1.00  0.00    -0.248 NA
ATOM     65  C   UNL A   1      43.593  25.004  26.525  1.00  0.00     0.031 C 
ATOM     66  C   UNL A   1      46.656  30.192  27.200  1.00  0.00     0.029 A 
ATOM     67  C   UNL A   1      45.688  29.204  27.273  1.00  0.00     0.049 A 
ATOM     68  H   UNL A   1      43.770  29.279  28.152  1.00  0.00     0.167 HD
ATOM     69  C   UNL A   1      44.712  26.971  26.860  1.00  0.00     0.074 A 
ATOM     70  C   UNL A   1      44.742  25.631  26.317  1.00  0.00     0.031 C 
ATOM     71  C   UNL A   1      45.732  27.860  26.759  1.00  0.00     0.037 A 
BRANCH  58  72
ATOM     72  C   UNL A   1      44.425  33.343  29.264  1.00  0.00     0.064 A 
ATOM     73  C   UNL A   1      44.202  34.374  28.339  1.00  0.00     0.173 A 
ATOM     74  C   UNL A   1      45.066  33.665  30.469  1.00  0.00     0.173 A 
ATOM     75  F   UNL A   1      43.606  34.110  27.166  1.00  0.00    -0.203 F 
ATOM     76  C   UNL A   1      44.631  35.671  28.599  1.00  0.00     0.198 A 
ATOM     77  C   UNL A   1      45.469  34.969  30.736  1.00  0.00     0.198 A 
ATOM     78  F   UNL A   1      45.300  32.715  31.387  1.00  0.00    -0.203 F 
ATOM     79  F   UNL A   1      44.453  36.632  27.680  1.00  0.00    -0.200 F 
ATOM     80  C   UNL A   1      45.259  35.969  29.799  1.00  0.00     0.200 A 
ATOM     81  F   UNL A   1      46.068  35.258  31.901  1.00  0.00    -0.200 F 
ATOM     82  F   UNL A   1      45.673  37.220  30.047  1.00  0.00    -0.200 F 
ENDBRANCH  58  72
BRANCH  59  83
ATOM     83  C   UNL A   1      41.005  24.183  27.564  1.00  0.00     0.064 A 
ATOM     84  C   UNL A   1      41.646  23.074  28.139  1.00  0.00     0.173 A 
ATOM     85  C   UNL A   1      39.948  23.936  26.675  1.00  0.00     0.173 A 
ATOM     86  F   UNL A   1      42.687  23.258  28.963  1.00  0.00    -0.203 F 
ATOM     87  C   UNL A   1      41.266  21.774  27.812  1.00  0.00     0.198 A 
ATOM     88  C   UNL A   1      39.551  22.636  26.372  1.00  0.00     0.198 A 
ATOM     89  F   UNL A   1      39.318  24.961  26.083  1.00  0.00    -0.203 F 
ATOM     90  F   UNL A   1      41.941  20.734  28.321  1.00  0.00    -0.200 F 
ATOM     91  C   UNL A   1      40.218  21.556  26.932  1.00  0.00     0.200 A 
ATOM     92  F   UNL A   1      38.540  22.428  25.518  1.00  0.00    -0.200 F 
ATOM     93  F   UNL A   1      39.863  20.305  26.606  1.00  0.00    -0.200 F 
ENDBRANCH  59  83
BRANCH  71  94
ATOM     94  C   UNL A   1      47.002  27.400  26.097  1.00  0.00     0.064 A 
ATOM     95  C   UNL A   1      47.276  27.661  24.747  1.00  0.00     0.173 A 
ATOM     96  C   UNL A   1      47.982  26.725  26.843  1.00  0.00     0.173 A 
ATOM     97  F   UNL A   1      46.373  28.294  23.984  1.00  0.00    -0.203 F 
ATOM     98  C   UNL A   1      48.469  27.239  24.161  1.00  0.00     0.198 A 
ATOM     99  C   UNL A   1      49.186  26.332  26.264  1.00  0.00     0.198 A 
ATOM    100  F   UNL A   1      47.779  26.459  28.142  1.00  0.00    -0.203 F 
ATOM    101  F   UNL A   1      48.688  27.457  22.857  1.00  0.00    -0.200 F 
ATOM    102  C   UNL A   1      49.425  26.581  24.921  1.00  0.00     0.200 A 
ATOM    103  F   UNL A   1      50.115  25.712  27.004  1.00  0.00    -0.200 F 
ATOM    104  F   UNL A   1      50.574  26.183  24.358  1.00  0.00    -0.200 F 
ENDBRANCH  71  94
ENDBRANCH  45  46
ENDBRANCH  38  40
ENDBRANCH  37  38
ENDBRANCH  36  37
ENDBRANCH  35  36
ENDBRANCH  34  35
ENDBRANCH  33  34
ENDBRANCH   1  33
TORSDOF 22
ENDMDL
MODEL 2
REMARK VINA RESULT:     -11.6      1.335      2.000
REMARK SMILES O=C(C[C@H](NC(=O)[C@]12C[C@H]3C[C@H](C[C@H](C3)C1)C2)c1cccc([N+](=O)[O-])c1)OCCOCCOCCOC(=O)c1ccc(-c2c3nc(c(-c4c(F)c(F)c(F)c(F)c4F)c4ccc([nH]4)c(-c4c(F)c(F)c(F)c(F)c4F)c4nc(c(-c5c(F)c(F)c(F)c(F)c5F)c5ccc2[nH]5)C=C4)C=C3)cc1
REMARK SMILES IDX 31 1 30 2 29 3 28 4 27 5 2 6 1 7 3 8 4 9 18 10 19 11 26 12
REMARK SMILES IDX 20 13 22 14 21 15 23 16 24 17 25 18 5 19 6 20 7 22 8 23 9 24
REMARK SMILES IDX 16 25 17 26 10 27 14 28 12 29 11 30 15 31 13 32 32 33 33 34
REMARK SMILES IDX 34 35 35 36 36 37 37 38 38 39 39 40 40 41 101 42 41 43
REMARK SMILES IDX 100 44 42 45 43 46 44 47 94 48 45 49 99 50 93 51 95 52 46 53
REMARK SMILES IDX 98 54 92 55 91 56 47 58 79 59 59 60 78 61 60 62 63 63 77 64
REMARK SMILES IDX 96 65 61 66 62 67 76 69 97 70 64 71 48 72 49 73 57 74 50 75
REMARK SMILES IDX 51 76 55 77 58 78 52 79 53 80 56 81 54 82 80 83 81 84 89 85
REMARK SMILES IDX 82 86 83 87 87 88 90 89 84 90 85 91 88 92 86 93 65 94 66 95
REMARK SMILES IDX 74 96 67 97 68 98 72 99 75 100 69 101 70 102 73 103 71 104
REMARK H PARENT 5 21 95 57 63 68
REMARK Flexibility Score: inf
ROOT
ATOM      1  C   UNL A   1      36.520  33.251  28.537  1.00  0.00     0.188 C 
ENDROOT
BRANCH   1   2
ATOM      2  O   UNL A   1      35.506  32.801  27.652  1.00  0.00    -0.376 OA
BRANCH   2   3
ATOM      3  C   UNL A   1      35.179  31.420  27.706  1.00  0.00     0.202 C 
BRANCH   3   4
ATOM      4  C   UNL A   1      33.660  31.246  27.627  1.00  0.00     0.261 C 
BRANCH   4   5
ATOM      5  O   UNL A   1      33.335  30.851  26.287  1.00  0.00    -0.463 OA
BRANCH   5   6
ATOM      6  C   UNL A   1      32.455  29.819  26.240  1.00  0.00     0.308 C 
ATOM      7  O   UNL A   1      31.994  29.252  27.218  1.00  0.00    -0.252 OA
BRANCH   6   8
ATOM      8  C   UNL A   1      32.342  29.319  24.824  1.00  0.00     0.152 C 
BRANCH   8   9
ATOM      9  C   UNL A   1      32.524  27.823  24.686  1.00  0.00     0.123 C 
BRANCH   9  10
ATOM     10  C   UNL A   1      31.127  27.218  24.897  1.00  0.00    -0.018 A 
ATOM     11  C   UNL A   1      30.129  27.463  23.929  1.00  0.00     0.006 A 
ATOM     12  C   UNL A   1      30.875  26.253  25.885  1.00  0.00     0.091 A 
ATOM     13  C   UNL A   1      28.933  26.741  23.917  1.00  0.00     0.007 A 
ATOM     14  C   UNL A   1      29.664  25.539  25.875  1.00  0.00     0.269 A 
ATOM     15  C   UNL A   1      28.697  25.772  24.887  1.00  0.00     0.085 A 
BRANCH  14  16
ATOM     16  N   UNL A   1      29.431  24.492  26.877  1.00  0.00     0.062 N 
ATOM     17  O   UNL A   1      30.411  23.842  27.269  1.00  0.00    -0.258 OA
ATOM     18  O   UNL A   1      28.270  24.334  27.281  1.00  0.00    -0.258 OA
ENDBRANCH  14  16
ENDBRANCH   9  10
BRANCH   9  19
ATOM     19  N   UNL A   1      33.206  27.255  23.504  1.00  0.00    -0.348 N 
ATOM     20  C   UNL A   1      33.729  26.102  23.011  1.00  0.00     0.226 C 
ATOM     21  H   UNL A   1      33.326  27.969  22.835  1.00  0.00     0.164 HD
ATOM     22  O   UNL A   1      34.127  26.189  21.841  1.00  0.00    -0.274 OA
BRANCH  20  23
ATOM     23  C   UNL A   1      33.897  24.776  23.772  1.00  0.00     0.050 C 
ATOM     24  C   UNL A   1      34.466  25.068  25.179  1.00  0.00     0.020 C 
ATOM     25  C   UNL A   1      34.959  23.841  23.092  1.00  0.00     0.020 C 
ATOM     26  C   UNL A   1      32.611  23.924  23.744  1.00  0.00     0.020 C 
ATOM     27  C   UNL A   1      34.588  23.780  25.994  1.00  0.00    -0.010 C 
ATOM     28  C   UNL A   1      35.136  22.523  23.895  1.00  0.00    -0.010 C 
ATOM     29  C   UNL A   1      32.748  22.689  24.647  1.00  0.00    -0.010 C 
ATOM     30  C   UNL A   1      33.220  23.086  26.056  1.00  0.00     0.007 C 
ATOM     31  C   UNL A   1      35.610  22.855  25.318  1.00  0.00     0.007 C 
ATOM     32  C   UNL A   1      33.797  21.770  24.004  1.00  0.00     0.007 C 
ENDBRANCH  20  23
ENDBRANCH   9  19
ENDBRANCH   8   9
ENDBRANCH   6   8
ENDBRANCH   5   6
ENDBRANCH   4   5
ENDBRANCH   3   4
ENDBRANCH   2   3
ENDBRANCH   1   2
BRANCH   1  33
ATOM     33  C   UNL A   1      35.953  34.121  29.667  1.00  0.00     0.188 C 
BRANCH  33  34
ATOM     34  O   UNL A   1      34.655  33.883  30.200  1.00  0.00    -0.376 OA
BRANCH  34  35
ATOM     35  C   UNL A   1      34.234  34.570  31.362  1.00  0.00     0.202 C 
BRANCH  35  36
ATOM     36  C   UNL A   1      34.247  33.771  32.668  1.00  0.00     0.261 C 
BRANCH  36  37
ATOM     37  O   UNL A   1      34.721  32.415  32.569  1.00  0.00    -0.460 OA
BRANCH  37  38
ATOM     38  C   UNL A   1      35.900  32.188  33.201  1.00  0.00     0.338 C 
ATOM     39  O   UNL A   1      36.258  32.672  34.262  1.00  0.00    -0.246 OA
BRANCH  38  40
ATOM     40  C   UNL A   1      36.758  31.226  32.462  1.00  0.00     0.060 A 
ATOM     41  C   UNL A   1      37.994  30.903  33.037  1.00  0.00     0.016 A 
ATOM     42  C   UNL A   1      36.458  30.768  31.173  1.00  0.00     0.016 A 
ATOM     43  C   UNL A   1      38.958  30.203  32.306  1.00  0.00     0.010 A 
ATOM     44  C   UNL A   1      37.431  30.065  30.436  1.00  0.00     0.010 A 
ATOM     45  C   UNL A   1      38.704  29.822  30.982  1.00  0.00    -0.014 A 
BRANCH  45  46
ATOM     46  C   UNL A   1      39.857  29.417  30.130  1.00  0.00     0.031 A 
ATOM     47  C   UNL A   1      40.956  30.423  29.895  1.00  0.00     0.074 A 
ATOM     48  C   UNL A   1      39.991  28.175  29.629  1.00  0.00     0.049 A 
ATOM     49  N   UNL A   1      42.111  30.279  29.295  1.00  0.00    -0.248 NA
ATOM     50  C   UNL A   1      40.717  31.778  30.421  1.00  0.00     0.031 C 
ATOM     51  C   UNL A   1      39.036  27.085  29.786  1.00  0.00     0.029 A 
ATOM     52  N   UNL A   1      41.009  27.627  28.880  1.00  0.00    -0.354 N 
ATOM     53  C   UNL A   1      42.745  31.511  29.393  1.00  0.00     0.074 A 
ATOM     54  C   UNL A   1      41.830  32.404  30.073  1.00  0.00     0.031 C 
ATOM     55  C   UNL A   1      39.508  25.997  29.150  1.00  0.00     0.029 A 
ATOM     56  C   UNL A   1      40.799  26.315  28.536  1.00  0.00     0.049 A 
ATOM     57  H   UNL A   1      41.813  28.131  28.617  1.00  0.00     0.167 HD
ATOM     58  C   UNL A   1      43.979  31.872  28.969  1.00  0.00     0.037 A 
ATOM     59  C   UNL A   1      41.561  25.471  27.810  1.00  0.00     0.037 A 
ATOM     60  C   UNL A   1      44.890  31.015  28.260  1.00  0.00     0.049 A 
ATOM     61  C   UNL A   1      42.897  25.926  27.268  1.00  0.00     0.074 A 
ATOM     62  C   UNL A   1      46.160  31.304  27.792  1.00  0.00     0.029 A 
ATOM     63  N   UNL A   1      44.620  29.705  27.897  1.00  0.00    -0.354 N 
ATOM     64  N   UNL A   1      43.516  27.068  27.427  1.00  0.00    -0.248 NA
ATOM     65  C   UNL A   1      43.646  24.955  26.452  1.00  0.00     0.031 C 
ATOM     66  C   UNL A   1      46.638  30.188  27.098  1.00  0.00     0.029 A 
ATOM     67  C   UNL A   1      45.688  29.183  27.185  1.00  0.00     0.049 A 
ATOM     68  H   UNL A   1      43.791  29.219  28.111  1.00  0.00     0.167 HD
ATOM     69  C   UNL A   1      44.740  26.938  26.777  1.00  0.00     0.074 A 
ATOM     70  C   UNL A   1      44.779  25.603  26.222  1.00  0.00     0.031 C 
ATOM     71  C   UNL A   1      45.742  27.844  26.659  1.00  0.00     0.037 A 
BRANCH  58  72
ATOM     72  C   UNL A   1      44.405  33.284  29.242  1.00  0.00     0.064 A 
ATOM     73  C   UNL A   1      44.156  34.316  28.325  1.00  0.00     0.173 A 
ATOM     74  C   UNL A   1      45.057  33.610  30.440  1.00  0.00     0.173 A 
ATOM     75  F   UNL A   1      43.549  34.049  27.158  1.00  0.00    -0.203 F 
ATOM     76  C   UNL A   1      44.569  35.618  28.585  1.00  0.00     0.198 A 
ATOM     77  C   UNL A   1      45.445  34.918  30.708  1.00  0.00     0.198 A 
ATOM     78  F   UNL A   1      45.316  32.659  31.350  1.00  0.00    -0.203 F 
ATOM     79  F   UNL A   1      44.366  36.580  27.674  1.00  0.00    -0.200 F 
ATOM     80  C   UNL A   1      45.209  35.920  29.779  1.00  0.00     0.200 A 
ATOM     81  F   UNL A   1      46.054  35.211  31.867  1.00  0.00    -0.200 F 
ATOM     82  F   UNL A   1      45.607  37.175  30.028  1.00  0.00    -0.200 F 
ENDBRANCH  58  72
BRANCH  59  83
ATOM     83  C   UNL A   1      41.098  24.081  27.546  1.00  0.00     0.064 A 
ATOM     84  C   UNL A   1      41.740  22.982  28.137  1.00  0.00     0.173 A 
ATOM     85  C   UNL A   1      40.059  23.821  26.642  1.00  0.00     0.173 A 
ATOM     86  F   UNL A   1      42.767  23.179  28.977  1.00  0.00    -0.203 F 
ATOM     87  C   UNL A   1      41.378  21.677  27.811  1.00  0.00     0.198 A 
ATOM     88  C   UNL A   1      39.678  22.515  26.339  1.00  0.00     0.198 A 
ATOM     89  F   UNL A   1      39.428  24.836  26.034  1.00  0.00    -0.203 F 
ATOM     90  F   UNL A   1      42.053  20.645  28.337  1.00  0.00    -0.200 F 
ATOM     91  C   UNL A   1      40.345  21.444  26.916  1.00  0.00     0.200 A 
ATOM     92  F   UNL A   1      38.682  22.293  25.470  1.00  0.00    -0.200 F 
ATOM     93  F   UNL A   1      40.008  20.189  26.591  1.00  0.00    -0.200 F 
ENDBRANCH  59  83
BRANCH  71  94
ATOM     94  C   UNL A   1      47.004  27.411  25.962  1.00  0.00     0.064 A 
ATOM     95  C   UNL A   1      47.214  27.634  24.594  1.00  0.00     0.173 A 
ATOM     96  C   UNL A   1      48.039  26.803  26.691  1.00  0.00     0.173 A 
ATOM     97  F   UNL A   1      46.257  28.203  23.847  1.00  0.00    -0.203 F 
ATOM     98  C   UNL A   1      48.400  27.239  23.976  1.00  0.00     0.198 A 
ATOM     99  C   UNL A   1      49.235  26.437  26.078  1.00  0.00     0.198 A 
ATOM    100  F   UNL A   1      47.897  26.575  28.006  1.00  0.00    -0.203 F 
ATOM    101  F   UNL A   1      48.559  27.418  22.657  1.00  0.00    -0.200 F 
ATOM    102  C   UNL A   1      49.410  26.647  24.719  1.00  0.00     0.200 A 
ATOM    103  F   UNL A   1      50.215  25.881  26.802  1.00  0.00    -0.200 F 
ATOM    104  F   UNL A   1      50.553  26.274  24.124  1.00  0.00    -0.200 F 
ENDBRANCH  71  94
ENDBRANCH  45  46
ENDBRANCH  38  40
ENDBRANCH  37  38
ENDBRANCH  36  37
ENDBRANCH  35  36
ENDBRANCH  34  35
ENDBRANCH  33  34
ENDBRANCH   1  33
TORSDOF 22
ENDMDL
MODEL 3
REMARK VINA RESULT:     -11.5      5.458     10.747
REMARK SMILES O=C(C[C@H](NC(=O)[C@]12C[C@H]3C[C@H](C[C@H](C3)C1)C2)c1cccc([N+](=O)[O-])c1)OCCOCCOCCOC(=O)c1ccc(-c2c3nc(c(-c4c(F)c(F)c(F)c(F)c4F)c4ccc([nH]4)c(-c4c(F)c(F)c(F)c(F)c4F)c4nc(c(-c5c(F)c(F)c(F)c(F)c5F)c5ccc2[nH]5)C=C4)C=C3)cc1
REMARK SMILES IDX 31 1 30 2 29 3 28 4 27 5 2 6 1 7 3 8 4 9 18 10 19 11 26 12
REMARK SMILES IDX 20 13 22 14 21 15 23 16 24 17 25 18 5 19 6 20 7 22 8 23 9 24
REMARK SMILES IDX 16 25 17 26 10 27 14 28 12 29 11 30 15 31 13 32 32 33 33 34
REMARK SMILES IDX 34 35 35 36 36 37 37 38 38 39 39 40 40 41 101 42 41 43
REMARK SMILES IDX 100 44 42 45 43 46 44 47 94 48 45 49 99 50 93 51 95 52 46 53
REMARK SMILES IDX 98 54 92 55 91 56 47 58 79 59 59 60 78 61 60 62 63 63 77 64
REMARK SMILES IDX 96 65 61 66 62 67 76 69 97 70 64 71 48 72 49 73 57 74 50 75
REMARK SMILES IDX 51 76 55 77 58 78 52 79 53 80 56 81 54 82 80 83 81 84 89 85
REMARK SMILES IDX 82 86 83 87 87 88 90 89 84 90 85 91 88 92 86 93 65 94 66 95
REMARK SMILES IDX 74 96 67 97 68 98 72 99 75 100 69 101 70 102 73 103 71 104
REMARK H PARENT 5 21 95 57 63 68
REMARK Flexibility Score: inf
ROOT
ATOM      1  C   UNL A   1      40.453  20.147  26.521  1.00  0.00     0.188 C 
ENDROOT
BRANCH   1   2
ATOM      2  O   UNL A   1      39.262  20.422  25.799  1.00  0.00    -0.376 OA
BRANCH   2   3
ATOM      3  C   UNL A   1      38.853  21.781  25.739  1.00  0.00     0.202 C 
BRANCH   3   4
ATOM      4  C   UNL A   1      37.445  21.869  25.146  1.00  0.00     0.261 C 
BRANCH   4   5
ATOM      5  O   UNL A   1      36.591  22.464  26.134  1.00  0.00    -0.463 OA
BRANCH   5   6
ATOM      6  C   UNL A   1      35.336  21.948  26.126  1.00  0.00     0.308 C 
ATOM      7  O   UNL A   1      34.760  21.501  27.106  1.00  0.00    -0.252 OA
BRANCH   6   8
ATOM      8  C   UNL A   1      34.874  21.774  24.704  1.00  0.00     0.152 C 
BRANCH   8   9
ATOM      9  C   UNL A   1      33.374  21.887  24.529  1.00  0.00     0.123 C 
BRANCH   9  10
ATOM     10  C   UNL A   1      32.922  20.528  23.972  1.00  0.00    -0.018 A 
ATOM     11  C   UNL A   1      32.344  20.481  22.684  1.00  0.00     0.006 A 
ATOM     12  C   UNL A   1      33.268  19.317  24.593  1.00  0.00     0.091 A 
ATOM     13  C   UNL A   1      32.155  19.269  22.015  1.00  0.00     0.007 A 
ATOM     14  C   UNL A   1      33.063  18.101  23.918  1.00  0.00     0.269 A 
ATOM     15  C   UNL A   1      32.519  18.073  22.627  1.00  0.00     0.085 A 
BRANCH  14  16
ATOM     16  N   UNL A   1      33.480  16.842  24.549  1.00  0.00     0.062 N 
ATOM     17  O   UNL A   1      32.950  16.535  25.626  1.00  0.00    -0.258 OA
ATOM     18  O   UNL A   1      34.325  16.156  23.956  1.00  0.00    -0.258 OA
ENDBRANCH  14  16
ENDBRANCH   9  10
BRANCH   9  19
ATOM     19  N   UNL A   1      32.520  22.348  25.643  1.00  0.00    -0.348 N 
ATOM     20  C   UNL A   1      31.929  23.455  26.163  1.00  0.00     0.226 C 
ATOM     21  H   UNL A   1      32.303  21.575  26.215  1.00  0.00     0.164 HD
ATOM     22  O   UNL A   1      31.200  23.227  27.138  1.00  0.00    -0.274 OA
BRANCH  20  23
ATOM     23  C   UNL A   1      32.122  24.904  25.683  1.00  0.00     0.050 C 
ATOM     24  C   UNL A   1      31.868  24.972  24.160  1.00  0.00     0.020 C 
ATOM     25  C   UNL A   1      33.603  25.391  25.868  1.00  0.00     0.020 C 
ATOM     26  C   UNL A   1      31.315  25.909  26.531  1.00  0.00     0.020 C 
ATOM     27  C   UNL A   1      31.986  26.410  23.652  1.00  0.00    -0.010 C 
ATOM     28  C   UNL A   1      33.781  26.843  25.347  1.00  0.00    -0.010 C 
ATOM     29  C   UNL A   1      31.389  27.322  25.934  1.00  0.00    -0.010 C 
ATOM     30  C   UNL A   1      31.021  27.308  24.440  1.00  0.00     0.007 C 
ATOM     31  C   UNL A   1      33.429  26.894  23.853  1.00  0.00     0.007 C 
ATOM     32  C   UNL A   1      32.837  27.806  26.091  1.00  0.00     0.007 C 
ENDBRANCH  20  23
ENDBRANCH   9  19
ENDBRANCH   8   9
ENDBRANCH   6   8
ENDBRANCH   5   6
ENDBRANCH   4   5
ENDBRANCH   3   4
ENDBRANCH   2   3
ENDBRANCH   1   2
BRANCH   1  33
ATOM     33  C   UNL A   1      41.598  21.090  26.125  1.00  0.00     0.188 C 
BRANCH  33  34
ATOM     34  O   UNL A   1      42.763  20.601  25.471  1.00  0.00    -0.376 OA
BRANCH  34  35
ATOM     35  C   UNL A   1      43.885  21.446  25.303  1.00  0.00     0.202 C 
BRANCH  35  36
ATOM     36  C   UNL A   1      43.750  22.557  24.257  1.00  0.00     0.261 C 
BRANCH  36  37
ATOM     37  O   UNL A   1      43.401  23.858  24.766  1.00  0.00    -0.460 OA
BRANCH  37  38
ATOM     38  C   UNL A   1      44.463  24.610  25.153  1.00  0.00     0.338 C 
ATOM     39  O   UNL A   1      45.468  24.833  24.499  1.00  0.00    -0.246 OA
BRANCH  38  40
ATOM     40  C   UNL A   1      44.277  25.191  26.508  1.00  0.00     0.060 A 
ATOM     41  C   UNL A   1      43.328  24.579  27.338  1.00  0.00     0.016 A 
ATOM     42  C   UNL A   1      44.880  26.386  26.916  1.00  0.00     0.016 A 
ATOM     43  C   UNL A   1      42.918  25.195  28.524  1.00  0.00     0.010 A 
ATOM     44  C   UNL A   1      44.465  27.007  28.110  1.00  0.00     0.010 A 
ATOM     45  C   UNL A   1      43.446  26.438  28.895  1.00  0.00    -0.014 A 
BRANCH  45  46
ATOM     46  C   UNL A   1      42.736  27.222  29.945  1.00  0.00     0.031 A 
ATOM     47  C   UNL A   1      43.325  27.246  31.334  1.00  0.00     0.074 A 
ATOM     48  C   UNL A   1      41.643  27.962  29.686  1.00  0.00     0.049 A 
ATOM     49  N   UNL A   1      42.967  27.942  32.384  1.00  0.00    -0.248 NA
ATOM     50  C   UNL A   1      44.484  26.367  31.562  1.00  0.00     0.031 C 
ATOM     51  C   UNL A   1      40.970  28.067  28.397  1.00  0.00     0.029 A 
ATOM     52  N   UNL A   1      40.910  28.780  30.518  1.00  0.00    -0.354 N 
ATOM     53  C   UNL A   1      43.868  27.605  33.386  1.00  0.00     0.074 A 
ATOM     54  C   UNL A   1      44.764  26.613  32.832  1.00  0.00     0.031 C 
ATOM     55  C   UNL A   1      39.918  28.898  28.521  1.00  0.00     0.029 A 
ATOM     56  C   UNL A   1      39.840  29.381  29.901  1.00  0.00     0.049 A 
ATOM     57  H   UNL A   1      41.133  28.920  31.466  1.00  0.00     0.167 HD
ATOM     58  C   UNL A   1      43.956  28.082  34.650  1.00  0.00     0.037 A 
ATOM     59  C   UNL A   1      38.908  30.222  30.395  1.00  0.00     0.037 A 
ATOM     60  C   UNL A   1      43.057  29.041  35.234  1.00  0.00     0.049 A 
ATOM     61  C   UNL A   1      38.975  30.671  31.837  1.00  0.00     0.074 A 
ATOM     62  C   UNL A   1      43.075  29.576  36.511  1.00  0.00     0.029 A 
ATOM     63  N   UNL A   1      41.963  29.592  34.586  1.00  0.00    -0.354 N 
ATOM     64  N   UNL A   1      39.871  30.402  32.753  1.00  0.00    -0.248 NA
ATOM     65  C   UNL A   1      37.896  31.557  32.306  1.00  0.00     0.031 C 
ATOM     66  C   UNL A   1      41.961  30.409  36.654  1.00  0.00     0.029 A 
ATOM     67  C   UNL A   1      41.283  30.440  35.446  1.00  0.00     0.049 A 
ATOM     68  H   UNL A   1      41.707  29.408  33.654  1.00  0.00     0.167 HD
ATOM     69  C   UNL A   1      39.493  31.121  33.884  1.00  0.00     0.074 A 
ATOM     70  C   UNL A   1      38.287  31.840  33.540  1.00  0.00     0.031 C 
ATOM     71  C   UNL A   1      40.100  31.181  35.096  1.00  0.00     0.037 A 
BRANCH  58  72
ATOM     72  C   UNL A   1      45.064  27.543  35.504  1.00  0.00     0.064 A 
ATOM     73  C   UNL A   1      44.913  26.359  36.240  1.00  0.00     0.173 A 
ATOM     74  C   UNL A   1      46.296  28.210  35.575  1.00  0.00     0.173 A 
ATOM     75  F   UNL A   1      43.747  25.693  36.216  1.00  0.00    -0.203 F 
ATOM     76  C   UNL A   1      45.945  25.877  37.039  1.00  0.00     0.198 A 
ATOM     77  C   UNL A   1      47.334  27.711  36.355  1.00  0.00     0.198 A 
ATOM     78  F   UNL A   1      46.491  29.346  34.888  1.00  0.00    -0.203 F 
ATOM     79  F   UNL A   1      45.762  24.770  37.773  1.00  0.00    -0.200 F 
ATOM     80  C   UNL A   1      47.156  26.550  37.092  1.00  0.00     0.200 A 
ATOM     81  F   UNL A   1      48.508  28.358  36.397  1.00  0.00    -0.200 F 
ATOM     82  F   UNL A   1      48.149  26.086  37.862  1.00  0.00    -0.200 F 
ENDBRANCH  58  72
BRANCH  59  83
ATOM     83  C   UNL A   1      37.814  30.725  29.521  1.00  0.00     0.064 A 
ATOM     84  C   UNL A   1      37.779  32.066  29.107  1.00  0.00     0.173 A 
ATOM     85  C   UNL A   1      36.745  29.899  29.147  1.00  0.00     0.173 A 
ATOM     86  F   UNL A   1      38.759  32.905  29.474  1.00  0.00    -0.203 F 
ATOM     87  C   UNL A   1      36.703  32.565  28.377  1.00  0.00     0.198 A 
ATOM     88  C   UNL A   1      35.683  30.393  28.392  1.00  0.00     0.198 A 
ATOM     89  F   UNL A   1      36.721  28.616  29.536  1.00  0.00    -0.203 F 
ATOM     90  F   UNL A   1      36.661  33.866  28.054  1.00  0.00    -0.200 F 
ATOM     91  C   UNL A   1      35.658  31.729  28.018  1.00  0.00     0.200 A 
ATOM     92  F   UNL A   1      34.672  29.583  28.049  1.00  0.00    -0.200 F 
ATOM     93  F   UNL A   1      34.615  32.213  27.329  1.00  0.00    -0.200 F 
ENDBRANCH  59  83
BRANCH  71  94
ATOM     94  C   UNL A   1      39.517  32.107  36.129  1.00  0.00     0.064 A 
ATOM     95  C   UNL A   1      39.993  33.413  36.312  1.00  0.00     0.173 A 
ATOM     96  C   UNL A   1      38.432  31.691  36.918  1.00  0.00     0.173 A 
ATOM     97  F   UNL A   1      41.032  33.861  35.593  1.00  0.00    -0.203 F 
ATOM     98  C   UNL A   1      39.425  34.257  37.265  1.00  0.00     0.198 A 
ATOM     99  C   UNL A   1      37.846  32.547  37.847  1.00  0.00     0.198 A 
ATOM    100  F   UNL A   1      37.929  30.455  36.778  1.00  0.00    -0.203 F 
ATOM    101  F   UNL A   1      39.927  35.486  37.455  1.00  0.00    -0.200 F 
ATOM    102  C   UNL A   1      38.348  33.826  38.026  1.00  0.00     0.200 A 
ATOM    103  F   UNL A   1      36.796  32.133  38.570  1.00  0.00    -0.200 F 
ATOM    104  F   UNL A   1      37.798  34.643  38.937  1.00  0.00    -0.200 F 
ENDBRANCH  71  94
ENDBRANCH  45  46
ENDBRANCH  38  40
ENDBRANCH  37  38
ENDBRANCH  36  37
ENDBRANCH  35  36
ENDBRANCH  34  35
ENDBRANCH  33  34
ENDBRANCH   1  33
TORSDOF 22
ENDMDL
