MODEL 1
REMARK VINA RESULT:     -11.0      0.000      0.000
REMARK SMILES Cc1cc(C(=O)NC[C@H]2CC[C@@H](C(=O)OCCOCCOCCOC(=O)c3ccc(-c4c5nc(c(-c6c(F)c(F)c(F)c(F)c6F)c6ccc([nH]6)c(-c6c(F)c(F)c(F)c(F)c6F)c6nc(c(-c7c(F)c(F)c(F)c(F)c7F)c7ccc4[nH]7)C=C6)C=C5)cc3)O2)c(C)s1
REMARK SMILES IDX 19 1 18 2 17 3 16 4 15 5 13 6 14 7 12 8 9 9 10 10 90 11
REMARK SMILES IDX 11 12 8 13 7 14 5 15 6 16 4 18 1 19 2 20 3 21 93 22 91 23
REMARK SMILES IDX 92 24 20 25 21 26 22 27 23 28 24 29 25 30 26 31 27 32 28 33
REMARK SMILES IDX 89 34 29 35 88 36 30 37 31 38 32 39 82 40 33 41 87 42 81 43
REMARK SMILES IDX 83 44 34 45 86 46 80 47 79 48 35 50 67 51 47 52 66 53 48 54
REMARK SMILES IDX 51 55 65 56 84 57 49 58 50 59 64 61 85 62 52 63 36 64 37 65
REMARK SMILES IDX 45 66 38 67 39 68 43 69 46 70 40 71 41 72 44 73 42 74 68 75
REMARK SMILES IDX 69 76 77 77 70 78 71 79 75 80 78 81 72 82 73 83 76 84 74 85
REMARK SMILES IDX 53 86 54 87 62 88 55 89 56 90 60 91 63 92 57 93 58 94 61 95
REMARK SMILES IDX 59 96
REMARK H PARENT 7 17 83 49 51 60
REMARK Flexibility Score: inf
ROOT
ATOM      1  C   UNL A   1      39.873  21.632  26.122  1.00  0.00     0.188 C 
ENDROOT
BRANCH   1   2
ATOM      2  O   UNL A   1      38.470  21.393  26.193  1.00  0.00    -0.376 OA
BRANCH   2   3
ATOM      3  C   UNL A   1      37.695  21.506  25.004  1.00  0.00     0.202 C 
BRANCH   3   4
ATOM      4  C   UNL A   1      36.294  20.880  25.020  1.00  0.00     0.261 C 
BRANCH   4   5
ATOM      5  O   UNL A   1      35.407  21.482  25.982  1.00  0.00    -0.461 OA
BRANCH   5   6
ATOM      6  C   UNL A   1      34.929  22.722  25.697  1.00  0.00     0.335 C 
ATOM      7  O   UNL A   1      35.074  23.710  26.408  1.00  0.00    -0.249 OA
BRANCH   6   8
ATOM      8  C   UNL A   1      34.211  22.779  24.334  1.00  0.00     0.228 C 
ATOM      9  C   UNL A   1      32.225  23.064  23.130  1.00  0.00     0.138 C 
ATOM     10  C   UNL A   1      33.242  24.079  22.621  1.00  0.00     0.037 C 
ATOM     11  O   UNL A   1      32.826  22.445  24.277  1.00  0.00    -0.361 OA
ATOM     12  C   UNL A   1      34.259  24.169  23.739  1.00  0.00     0.047 C 
BRANCH   9  13
ATOM     13  C   UNL A   1      30.855  23.675  23.485  1.00  0.00     0.148 C 
BRANCH  13  14
ATOM     14  N   UNL A   1      30.753  24.043  24.892  1.00  0.00    -0.349 N 
ATOM     15  C   UNL A   1      30.804  25.235  25.574  1.00  0.00     0.252 C 
ATOM     16  O   UNL A   1      30.577  25.146  26.784  1.00  0.00    -0.269 OA
ATOM     17  H   UNL A   1      30.619  23.268  25.483  1.00  0.00     0.163 HD
BRANCH  15  18
ATOM     18  C   UNL A   1      31.084  26.528  24.927  1.00  0.00     0.053 A 
ATOM     19  C   UNL A   1      30.264  29.330  22.475  1.00  0.00     0.056 C 
ATOM     20  C   UNL A   1      30.823  28.398  23.492  1.00  0.00     0.003 A 
ATOM     21  C   UNL A   1      30.300  27.203  23.928  1.00  0.00     0.029 A 
ATOM     22  S   UNL A   1      32.303  28.730  24.247  1.00  0.00    -0.145 S 
ATOM     23  C   UNL A   1      32.253  27.266  25.151  1.00  0.00     0.014 A 
ATOM     24  C   UNL A   1      33.452  26.983  26.007  1.00  0.00     0.057 C 
ENDBRANCH  15  18
ENDBRANCH  13  14
ENDBRANCH   9  13
ENDBRANCH   6   8
ENDBRANCH   5   6
ENDBRANCH   4   5
ENDBRANCH   3   4
ENDBRANCH   2   3
ENDBRANCH   1   2
BRANCH   1  25
ATOM     25  C   UNL A   1      40.785  21.196  27.281  1.00  0.00     0.188 C 
BRANCH  25  26
ATOM     26  O   UNL A   1      41.720  20.191  26.948  1.00  0.00    -0.376 OA
BRANCH  26  27
ATOM     27  C   UNL A   1      42.503  20.449  25.796  1.00  0.00     0.202 C 
BRANCH  27  28
ATOM     28  C   UNL A   1      43.322  21.731  25.945  1.00  0.00     0.261 C 
BRANCH  28  29
ATOM     29  O   UNL A   1      42.775  22.868  25.253  1.00  0.00    -0.460 OA
BRANCH  29  30
ATOM     30  C   UNL A   1      43.556  23.968  25.163  1.00  0.00     0.338 C 
ATOM     31  O   UNL A   1      44.435  24.197  24.353  1.00  0.00    -0.246 OA
BRANCH  30  32
ATOM     32  C   UNL A   1      43.013  24.958  26.114  1.00  0.00     0.060 A 
ATOM     33  C   UNL A   1      43.523  26.264  26.118  1.00  0.00     0.016 A 
ATOM     34  C   UNL A   1      41.975  24.597  26.973  1.00  0.00     0.016 A 
ATOM     35  C   UNL A   1      42.996  27.214  26.996  1.00  0.00     0.010 A 
ATOM     36  C   UNL A   1      41.466  25.538  27.864  1.00  0.00     0.010 A 
ATOM     37  C   UNL A   1      41.989  26.843  27.898  1.00  0.00    -0.014 A 
BRANCH  37  38
ATOM     38  C   UNL A   1      41.604  27.737  29.014  1.00  0.00     0.031 A 
ATOM     39  C   UNL A   1      42.376  27.633  30.298  1.00  0.00     0.074 A 
ATOM     40  C   UNL A   1      40.569  28.587  28.909  1.00  0.00     0.049 A 
ATOM     41  N   UNL A   1      42.155  28.200  31.454  1.00  0.00    -0.248 NA
ATOM     42  C   UNL A   1      43.559  26.754  30.273  1.00  0.00     0.031 C 
ATOM     43  C   UNL A   1      39.767  28.802  27.708  1.00  0.00     0.029 A 
ATOM     44  N   UNL A   1      40.001  29.412  29.849  1.00  0.00    -0.354 N 
ATOM     45  C   UNL A   1      43.159  27.740  32.295  1.00  0.00     0.074 A 
ATOM     46  C   UNL A   1      43.974  26.824  31.527  1.00  0.00     0.031 C 
ATOM     47  C   UNL A   1      38.794  29.688  27.989  1.00  0.00     0.029 A 
ATOM     48  C   UNL A   1      38.882  30.069  29.399  1.00  0.00     0.049 A 
ATOM     49  H   UNL A   1      40.362  29.523  30.759  1.00  0.00     0.167 HD
ATOM     50  C   UNL A   1      43.383  28.056  33.592  1.00  0.00     0.037 A 
ATOM     51  C   UNL A   1      38.014  30.858  30.063  1.00  0.00     0.037 A 
ATOM     52  C   UNL A   1      42.563  28.959  34.354  1.00  0.00     0.049 A 
ATOM     53  C   UNL A   1      38.238  31.132  31.531  1.00  0.00     0.074 A 
ATOM     54  C   UNL A   1      42.714  29.360  35.669  1.00  0.00     0.029 A 
ATOM     55  N   UNL A   1      41.428  29.592  33.869  1.00  0.00    -0.354 N 
ATOM     56  N   UNL A   1      39.204  30.718  32.316  1.00  0.00    -0.248 NA
ATOM     57  C   UNL A   1      37.246  31.982  32.205  1.00  0.00     0.031 C 
ATOM     58  C   UNL A   1      41.638  30.191  35.997  1.00  0.00     0.029 A 
ATOM     59  C   UNL A   1      40.851  30.360  34.868  1.00  0.00     0.049 A 
ATOM     60  H   UNL A   1      41.083  29.508  32.951  1.00  0.00     0.167 HD
ATOM     61  C   UNL A   1      38.956  31.283  33.561  1.00  0.00     0.074 A 
ATOM     62  C   UNL A   1      37.754  32.078  33.426  1.00  0.00     0.031 C 
ATOM     63  C   UNL A   1      39.662  31.157  34.713  1.00  0.00     0.037 A 
BRANCH  50  64
ATOM     64  C   UNL A   1      44.546  27.396  34.273  1.00  0.00     0.064 A 
ATOM     65  C   UNL A   1      44.412  26.166  34.936  1.00  0.00     0.173 A 
ATOM     66  C   UNL A   1      45.816  27.990  34.245  1.00  0.00     0.173 A 
ATOM     67  F   UNL A   1      43.214  25.564  35.007  1.00  0.00    -0.203 F 
ATOM     68  C   UNL A   1      45.501  25.570  35.567  1.00  0.00     0.198 A 
ATOM     69  C   UNL A   1      46.910  27.376  34.849  1.00  0.00     0.198 A 
ATOM     70  F   UNL A   1      45.999  29.165  33.624  1.00  0.00    -0.203 F 
ATOM     71  F   UNL A   1      45.338  24.421  36.238  1.00  0.00    -0.200 F 
ATOM     72  C   UNL A   1      46.750  26.171  35.517  1.00  0.00     0.200 A 
ATOM     73  F   UNL A   1      48.118  27.951  34.787  1.00  0.00    -0.200 F 
ATOM     74  F   UNL A   1      47.798  25.592  36.118  1.00  0.00    -0.200 F 
ENDBRANCH  50  64
BRANCH  51  75
ATOM     75  C   UNL A   1      36.842  31.440  29.357  1.00  0.00     0.064 A 
ATOM     76  C   UNL A   1      35.752  30.639  28.987  1.00  0.00     0.173 A 
ATOM     77  C   UNL A   1      36.797  32.799  29.011  1.00  0.00     0.173 A 
ATOM     78  F   UNL A   1      35.760  29.327  29.269  1.00  0.00    -0.203 F 
ATOM     79  C   UNL A   1      34.673  31.170  28.282  1.00  0.00     0.198 A 
ATOM     80  C   UNL A   1      35.704  33.335  28.332  1.00  0.00     0.198 A 
ATOM     81  F   UNL A   1      37.816  33.609  29.334  1.00  0.00    -0.203 F 
ATOM     82  F   UNL A   1      33.671  30.369  27.894  1.00  0.00    -0.200 F 
ATOM     83  C   UNL A   1      34.646  32.518  27.960  1.00  0.00     0.200 A 
ATOM     84  F   UNL A   1      35.678  34.640  28.031  1.00  0.00    -0.200 F 
ATOM     85  F   UNL A   1      33.609  33.027  27.282  1.00  0.00    -0.200 F 
ENDBRANCH  51  75
BRANCH  63  86
ATOM     86  C   UNL A   1      39.185  31.932  35.910  1.00  0.00     0.064 A 
ATOM     87  C   UNL A   1      39.577  33.258  36.139  1.00  0.00     0.173 A 
ATOM     88  C   UNL A   1      38.275  31.351  36.809  1.00  0.00     0.173 A 
ATOM     89  F   UNL A   1      40.454  33.854  35.316  1.00  0.00    -0.203 F 
ATOM     90  C   UNL A   1      39.097  33.968  37.237  1.00  0.00     0.198 A 
ATOM     91  C   UNL A   1      37.772  32.075  37.887  1.00  0.00     0.198 A 
ATOM     92  F   UNL A   1      37.859  30.089  36.632  1.00  0.00    -0.203 F 
ATOM     93  F   UNL A   1      39.522  35.218  37.462  1.00  0.00    -0.200 F 
ATOM     94  C   UNL A   1      38.189  33.378  38.105  1.00  0.00     0.200 A 
ATOM     95  F   UNL A   1      36.881  31.510  38.713  1.00  0.00    -0.200 F 
ATOM     96  F   UNL A   1      37.718  34.067  39.154  1.00  0.00    -0.200 F 
ENDBRANCH  63  86
ENDBRANCH  37  38
ENDBRANCH  30  32
ENDBRANCH  29  30
ENDBRANCH  28  29
ENDBRANCH  27  28
ENDBRANCH  26  27
ENDBRANCH  25  26
ENDBRANCH   1  25
TORSDOF 20
ENDMDL
MODEL 2
REMARK VINA RESULT:     -10.9      5.017      7.467
REMARK SMILES Cc1cc(C(=O)NC[C@H]2CC[C@@H](C(=O)OCCOCCOCCOC(=O)c3ccc(-c4c5nc(c(-c6c(F)c(F)c(F)c(F)c6F)c6ccc([nH]6)c(-c6c(F)c(F)c(F)c(F)c6F)c6nc(c(-c7c(F)c(F)c(F)c(F)c7F)c7ccc4[nH]7)C=C6)C=C5)cc3)O2)c(C)s1
REMARK SMILES IDX 19 1 18 2 17 3 16 4 15 5 13 6 14 7 12 8 9 9 10 10 90 11
REMARK SMILES IDX 11 12 8 13 7 14 5 15 6 16 4 18 1 19 2 20 3 21 93 22 91 23
REMARK SMILES IDX 92 24 20 25 21 26 22 27 23 28 24 29 25 30 26 31 27 32 28 33
REMARK SMILES IDX 89 34 29 35 88 36 30 37 31 38 32 39 82 40 33 41 87 42 81 43
REMARK SMILES IDX 83 44 34 45 86 46 80 47 79 48 35 50 67 51 47 52 66 53 48 54
REMARK SMILES IDX 51 55 65 56 84 57 49 58 50 59 64 61 85 62 52 63 36 64 37 65
REMARK SMILES IDX 45 66 38 67 39 68 43 69 46 70 40 71 41 72 44 73 42 74 68 75
REMARK SMILES IDX 69 76 77 77 70 78 71 79 75 80 78 81 72 82 73 83 76 84 74 85
REMARK SMILES IDX 53 86 54 87 62 88 55 89 56 90 60 91 63 92 57 93 58 94 61 95
REMARK SMILES IDX 59 96
REMARK H PARENT 7 17 83 49 51 60
REMARK Flexibility Score: inf
ROOT
ATOM      1  C   UNL A   1      40.709  21.608  26.644  1.00  0.00     0.188 C 
ENDROOT
BRANCH   1   2
ATOM      2  O   UNL A   1      39.547  20.992  26.097  1.00  0.00    -0.376 OA
BRANCH   2   3
ATOM      3  C   UNL A   1      38.439  21.812  25.740  1.00  0.00     0.202 C 
BRANCH   3   4
ATOM      4  C   UNL A   1      37.446  21.241  24.720  1.00  0.00     0.261 C 
BRANCH   4   5
ATOM      5  O   UNL A   1      36.261  20.685  25.322  1.00  0.00    -0.461 OA
BRANCH   5   6
ATOM      6  C   UNL A   1      35.228  21.534  25.562  1.00  0.00     0.335 C 
ATOM      7  O   UNL A   1      34.806  21.828  26.676  1.00  0.00    -0.249 OA
BRANCH   6   8
ATOM      8  C   UNL A   1      34.655  22.149  24.270  1.00  0.00     0.228 C 
ATOM      9  C   UNL A   1      32.788  22.847  23.045  1.00  0.00     0.138 C 
ATOM     10  C   UNL A   1      33.750  24.023  23.161  1.00  0.00     0.037 C 
ATOM     11  O   UNL A   1      33.322  21.815  23.889  1.00  0.00    -0.361 OA
ATOM     12  C   UNL A   1      34.631  23.660  24.338  1.00  0.00     0.047 C 
BRANCH   9  13
ATOM     13  C   UNL A   1      31.336  23.185  23.437  1.00  0.00     0.148 C 
BRANCH  13  14
ATOM     14  N   UNL A   1      31.185  23.436  24.864  1.00  0.00    -0.349 N 
ATOM     15  C   UNL A   1      30.957  24.563  25.617  1.00  0.00     0.252 C 
ATOM     16  O   UNL A   1      30.792  24.353  26.822  1.00  0.00    -0.269 OA
ATOM     17  H   UNL A   1      31.262  22.620  25.408  1.00  0.00     0.163 HD
BRANCH  15  18
ATOM     18  C   UNL A   1      30.891  25.920  25.047  1.00  0.00     0.053 A 
ATOM     19  C   UNL A   1      29.229  28.620  22.930  1.00  0.00     0.056 C 
ATOM     20  C   UNL A   1      30.085  27.770  23.801  1.00  0.00     0.003 A 
ATOM     21  C   UNL A   1      29.869  26.471  24.197  1.00  0.00     0.029 A 
ATOM     22  S   UNL A   1      31.551  28.359  24.412  1.00  0.00    -0.145 S 
ATOM     23  C   UNL A   1      31.908  26.870  25.197  1.00  0.00     0.014 A 
ATOM     24  C   UNL A   1      33.237  26.796  25.889  1.00  0.00     0.057 C 
ENDBRANCH  15  18
ENDBRANCH  13  14
ENDBRANCH   9  13
ENDBRANCH   6   8
ENDBRANCH   5   6
ENDBRANCH   4   5
ENDBRANCH   3   4
ENDBRANCH   2   3
ENDBRANCH   1   2
BRANCH   1  25
ATOM     25  C   UNL A   1      41.989  20.781  26.857  1.00  0.00     0.188 C 
BRANCH  25  26
ATOM     26  O   UNL A   1      41.778  19.389  26.966  1.00  0.00    -0.376 OA
BRANCH  26  27
ATOM     27  C   UNL A   1      42.925  18.584  26.756  1.00  0.00     0.202 C 
BRANCH  27  28
ATOM     28  C   UNL A   1      43.340  18.562  25.285  1.00  0.00     0.261 C 
BRANCH  28  29
ATOM     29  O   UNL A   1      44.761  18.484  25.072  1.00  0.00    -0.460 OA
BRANCH  29  30
ATOM     30  C   UNL A   1      45.278  19.251  24.086  1.00  0.00     0.338 C 
ATOM     31  O   UNL A   1      45.618  18.905  22.969  1.00  0.00    -0.246 OA
BRANCH  30  32
ATOM     32  C   UNL A   1      45.171  20.654  24.533  1.00  0.00     0.060 A 
ATOM     33  C   UNL A   1      44.649  21.620  23.660  1.00  0.00     0.016 A 
ATOM     34  C   UNL A   1      45.554  20.999  25.829  1.00  0.00     0.016 A 
ATOM     35  C   UNL A   1      44.519  22.944  24.085  1.00  0.00     0.010 A 
ATOM     36  C   UNL A   1      45.446  22.325  26.244  1.00  0.00     0.010 A 
ATOM     37  C   UNL A   1      44.952  23.307  25.367  1.00  0.00    -0.014 A 
BRANCH  37  38
ATOM     38  C   UNL A   1      45.082  24.732  25.748  1.00  0.00     0.031 A 
ATOM     39  C   UNL A   1      46.439  25.367  25.645  1.00  0.00     0.074 A 
ATOM     40  C   UNL A   1      44.035  25.434  26.217  1.00  0.00     0.049 A 
ATOM     41  N   UNL A   1      46.841  26.546  26.039  1.00  0.00    -0.248 NA
ATOM     42  C   UNL A   1      47.490  24.548  25.017  1.00  0.00     0.031 C 
ATOM     43  C   UNL A   1      42.667  24.940  26.331  1.00  0.00     0.029 A 
ATOM     44  N   UNL A   1      43.977  26.715  26.709  1.00  0.00    -0.354 N 
ATOM     45  C   UNL A   1      48.191  26.607  25.720  1.00  0.00     0.074 A 
ATOM     46  C   UNL A   1      48.548  25.337  25.126  1.00  0.00     0.031 C 
ATOM     47  C   UNL A   1      41.903  25.901  26.881  1.00  0.00     0.029 A 
ATOM     48  C   UNL A   1      42.739  27.061  27.193  1.00  0.00     0.049 A 
ATOM     49  H   UNL A   1      44.748  27.328  26.714  1.00  0.00     0.167 HD
ATOM     50  C   UNL A   1      49.056  27.632  25.902  1.00  0.00     0.037 A 
ATOM     51  C   UNL A   1      42.342  28.173  27.843  1.00  0.00     0.037 A 
ATOM     52  C   UNL A   1      48.698  28.889  26.504  1.00  0.00     0.049 A 
ATOM     53  C   UNL A   1      43.344  29.271  28.108  1.00  0.00     0.074 A 
ATOM     54  C   UNL A   1      49.494  30.000  26.719  1.00  0.00     0.029 A 
ATOM     55  N   UNL A   1      47.439  29.196  26.997  1.00  0.00    -0.354 N 
ATOM     56  N   UNL A   1      44.612  29.337  27.779  1.00  0.00    -0.248 NA
ATOM     57  C   UNL A   1      42.856  30.450  28.840  1.00  0.00     0.031 C 
ATOM     58  C   UNL A   1      48.732  30.957  27.395  1.00  0.00     0.029 A 
ATOM     59  C   UNL A   1      47.443  30.470  27.543  1.00  0.00     0.049 A 
ATOM     60  H   UNL A   1      46.658  28.598  26.965  1.00  0.00     0.167 HD
ATOM     61  C   UNL A   1      45.062  30.572  28.231  1.00  0.00     0.074 A 
ATOM     62  C   UNL A   1      43.929  31.228  28.849  1.00  0.00     0.031 C 
ATOM     63  C   UNL A   1      46.302  31.115  28.141  1.00  0.00     0.037 A 
BRANCH  50  64
ATOM     64  C   UNL A   1      50.478  27.422  25.472  1.00  0.00     0.064 A 
ATOM     65  C   UNL A   1      51.476  27.043  26.383  1.00  0.00     0.173 A 
ATOM     66  C   UNL A   1      50.844  27.581  24.127  1.00  0.00     0.173 A 
ATOM     67  F   UNL A   1      51.182  26.895  27.684  1.00  0.00    -0.203 F 
ATOM     68  C   UNL A   1      52.792  26.857  25.967  1.00  0.00     0.198 A 
ATOM     69  C   UNL A   1      52.153  27.363  23.709  1.00  0.00     0.198 A 
ATOM     70  F   UNL A   1      49.928  27.941  23.215  1.00  0.00    -0.203 F 
ATOM     71  F   UNL A   1      53.739  26.546  26.864  1.00  0.00    -0.200 F 
ATOM     72  C   UNL A   1      53.128  27.010  24.630  1.00  0.00     0.200 A 
ATOM     73  F   UNL A   1      52.473  27.497  22.415  1.00  0.00    -0.200 F 
ATOM     74  F   UNL A   1      54.393  26.823  24.231  1.00  0.00    -0.200 F 
ENDBRANCH  50  64
BRANCH  51  75
ATOM     75  C   UNL A   1      40.935  28.307  28.303  1.00  0.00     0.064 A 
ATOM     76  C   UNL A   1      39.962  28.903  27.487  1.00  0.00     0.173 A 
ATOM     77  C   UNL A   1      40.536  27.872  29.576  1.00  0.00     0.173 A 
ATOM     78  F   UNL A   1      40.298  29.362  26.272  1.00  0.00    -0.203 F 
ATOM     79  C   UNL A   1      38.653  29.075  27.933  1.00  0.00     0.198 A 
ATOM     80  C   UNL A   1      39.220  28.018  30.010  1.00  0.00     0.198 A 
ATOM     81  F   UNL A   1      41.428  27.303  30.401  1.00  0.00    -0.203 F 
ATOM     82  F   UNL A   1      37.758  29.697  27.152  1.00  0.00    -0.200 F 
ATOM     83  C   UNL A   1      38.281  28.628  29.192  1.00  0.00     0.200 A 
ATOM     84  F   UNL A   1      38.863  27.576  31.223  1.00  0.00    -0.200 F 
ATOM     85  F   UNL A   1      37.022  28.794  29.620  1.00  0.00    -0.200 F 
ENDBRANCH  51  75
BRANCH  63  86
ATOM     86  C   UNL A   1      46.493  32.506  28.678  1.00  0.00     0.064 A 
ATOM     87  C   UNL A   1      46.280  33.642  27.885  1.00  0.00     0.173 A 
ATOM     88  C   UNL A   1      46.842  32.701  30.025  1.00  0.00     0.173 A 
ATOM     89  F   UNL A   1      45.957  33.509  26.589  1.00  0.00    -0.203 F 
ATOM     90  C   UNL A   1      46.432  34.922  28.412  1.00  0.00     0.198 A 
ATOM     91  C   UNL A   1      46.960  33.982  30.557  1.00  0.00     0.198 A 
ATOM     92  F   UNL A   1      47.049  31.649  30.830  1.00  0.00    -0.203 F 
ATOM     93  F   UNL A   1      46.268  35.993  27.623  1.00  0.00    -0.200 F 
ATOM     94  C   UNL A   1      46.763  35.091  29.749  1.00  0.00     0.200 A 
ATOM     95  F   UNL A   1      47.262  34.142  31.852  1.00  0.00    -0.200 F 
ATOM     96  F   UNL A   1      46.896  36.324  30.257  1.00  0.00    -0.200 F 
ENDBRANCH  63  86
ENDBRANCH  37  38
ENDBRANCH  30  32
ENDBRANCH  29  30
ENDBRANCH  28  29
ENDBRANCH  27  28
ENDBRANCH  26  27
ENDBRANCH  25  26
ENDBRANCH   1  25
TORSDOF 20
ENDMDL
MODEL 3
REMARK VINA RESULT:     -10.7      5.582     10.920
REMARK SMILES Cc1cc(C(=O)NC[C@H]2CC[C@@H](C(=O)OCCOCCOCCOC(=O)c3ccc(-c4c5nc(c(-c6c(F)c(F)c(F)c(F)c6F)c6ccc([nH]6)c(-c6c(F)c(F)c(F)c(F)c6F)c6nc(c(-c7c(F)c(F)c(F)c(F)c7F)c7ccc4[nH]7)C=C6)C=C5)cc3)O2)c(C)s1
REMARK SMILES IDX 19 1 18 2 17 3 16 4 15 5 13 6 14 7 12 8 9 9 10 10 90 11
REMARK SMILES IDX 11 12 8 13 7 14 5 15 6 16 4 18 1 19 2 20 3 21 93 22 91 23
REMARK SMILES IDX 92 24 20 25 21 26 22 27 23 28 24 29 25 30 26 31 27 32 28 33
REMARK SMILES IDX 89 34 29 35 88 36 30 37 31 38 32 39 82 40 33 41 87 42 81 43
REMARK SMILES IDX 83 44 34 45 86 46 80 47 79 48 35 50 67 51 47 52 66 53 48 54
REMARK SMILES IDX 51 55 65 56 84 57 49 58 50 59 64 61 85 62 52 63 36 64 37 65
REMARK SMILES IDX 45 66 38 67 39 68 43 69 46 70 40 71 41 72 44 73 42 74 68 75
REMARK SMILES IDX 69 76 77 77 70 78 71 79 75 80 78 81 72 82 73 83 76 84 74 85
REMARK SMILES IDX 53 86 54 87 62 88 55 89 56 90 60 91 63 92 57 93 58 94 61 95
REMARK SMILES IDX 59 96
REMARK H PARENT 7 17 83 49 51 60
REMARK Flexibility Score: inf
ROOT
ATOM      1  C   UNL A   1      33.299  34.787  28.932  1.00  0.00     0.188 C 
ENDROOT
BRANCH   1   2
ATOM      2  O   UNL A   1      34.607  34.742  28.370  1.00  0.00    -0.376 OA
BRANCH   2   3
ATOM      3  C   UNL A   1      35.151  33.480  27.998  1.00  0.00     0.202 C 
BRANCH   3   4
ATOM      4  C   UNL A   1      34.527  32.233  28.639  1.00  0.00     0.261 C 
BRANCH   4   5
ATOM      5  O   UNL A   1      33.722  31.460  27.729  1.00  0.00    -0.461 OA
BRANCH   5   6
ATOM      6  C   UNL A   1      34.258  30.306  27.251  1.00  0.00     0.335 C 
ATOM      7  O   UNL A   1      35.393  29.908  27.491  1.00  0.00    -0.249 OA
BRANCH   6   8
ATOM      8  C   UNL A   1      33.260  29.499  26.398  1.00  0.00     0.228 C 
ATOM      9  C   UNL A   1      32.833  27.640  25.044  1.00  0.00     0.138 C 
ATOM     10  C   UNL A   1      31.833  27.632  26.195  1.00  0.00     0.037 C 
ATOM     11  O   UNL A   1      33.766  28.691  25.338  1.00  0.00    -0.361 OA
ATOM     12  C   UNL A   1      32.475  28.519  27.241  1.00  0.00     0.047 C 
BRANCH   9  13
ATOM     13  C   UNL A   1      33.560  26.296  24.838  1.00  0.00     0.148 C 
BRANCH  13  14
ATOM     14  N   UNL A   1      33.596  25.888  23.439  1.00  0.00    -0.349 N 
ATOM     15  C   UNL A   1      33.788  24.687  22.799  1.00  0.00     0.252 C 
ATOM     16  O   UNL A   1      33.651  24.729  21.573  1.00  0.00    -0.269 OA
ATOM     17  H   UNL A   1      33.452  26.636  22.816  1.00  0.00     0.163 HD
BRANCH  15  18
ATOM     18  C   UNL A   1      34.111  23.435  23.504  1.00  0.00     0.053 A 
ATOM     19  C   UNL A   1      36.545  21.046  25.208  1.00  0.00     0.056 C 
ATOM     20  C   UNL A   1      35.395  21.771  24.602  1.00  0.00     0.003 A 
ATOM     21  C   UNL A   1      35.392  23.005  23.996  1.00  0.00     0.029 A 
ATOM     22  S   UNL A   1      33.854  21.068  24.564  1.00  0.00    -0.145 S 
ATOM     23  C   UNL A   1      33.182  22.411  23.724  1.00  0.00     0.014 A 
ATOM     24  C   UNL A   1      31.739  22.283  23.331  1.00  0.00     0.057 C 
ENDBRANCH  15  18
ENDBRANCH  13  14
ENDBRANCH   9  13
ENDBRANCH   6   8
ENDBRANCH   5   6
ENDBRANCH   4   5
ENDBRANCH   3   4
ENDBRANCH   2   3
ENDBRANCH   1   2
BRANCH   1  25
ATOM     25  C   UNL A   1      33.003  35.726  30.114  1.00  0.00     0.188 C 
BRANCH  25  26
ATOM     26  O   UNL A   1      32.649  35.069  31.313  1.00  0.00    -0.376 OA
BRANCH  26  27
ATOM     27  C   UNL A   1      33.696  34.923  32.256  1.00  0.00     0.202 C 
BRANCH  27  28
ATOM     28  C   UNL A   1      34.428  33.591  32.087  1.00  0.00     0.261 C 
BRANCH  28  29
ATOM     29  O   UNL A   1      35.793  33.717  31.649  1.00  0.00    -0.460 OA
BRANCH  29  30
ATOM     30  C   UNL A   1      36.758  33.475  32.564  1.00  0.00     0.338 C 
ATOM     31  O   UNL A   1      36.737  33.721  33.756  1.00  0.00    -0.246 OA
BRANCH  30  32
ATOM     32  C   UNL A   1      37.788  32.657  31.894  1.00  0.00     0.060 A 
ATOM     33  C   UNL A   1      38.651  31.864  32.665  1.00  0.00     0.016 A 
ATOM     34  C   UNL A   1      37.872  32.652  30.502  1.00  0.00     0.016 A 
ATOM     35  C   UNL A   1      39.611  31.067  32.038  1.00  0.00     0.010 A 
ATOM     36  C   UNL A   1      38.845  31.875  29.878  1.00  0.00     0.010 A 
ATOM     37  C   UNL A   1      39.734  31.098  30.642  1.00  0.00    -0.014 A 
BRANCH  37  38
ATOM     38  C   UNL A   1      40.903  30.485  29.972  1.00  0.00     0.031 A 
ATOM     39  C   UNL A   1      42.094  31.358  29.696  1.00  0.00     0.074 A 
ATOM     40  C   UNL A   1      40.894  29.201  29.574  1.00  0.00     0.049 A 
ATOM     41  N   UNL A   1      43.176  31.102  29.010  1.00  0.00    -0.248 NA
ATOM     42  C   UNL A   1      42.048  32.715  30.269  1.00  0.00     0.031 C 
ATOM     43  C   UNL A   1      39.815  28.248  29.813  1.00  0.00     0.029 A 
ATOM     44  N   UNL A   1      41.825  28.488  28.859  1.00  0.00    -0.354 N 
ATOM     45  C   UNL A   1      43.933  32.265  29.057  1.00  0.00     0.074 A 
ATOM     46  C   UNL A   1      43.175  33.238  29.814  1.00  0.00     0.031 C 
ATOM     47  C   UNL A   1      40.135  27.077  29.235  1.00  0.00     0.029 A 
ATOM     48  C   UNL A   1      41.421  27.212  28.552  1.00  0.00     0.049 A 
ATOM     49  H   UNL A   1      42.698  28.856  28.591  1.00  0.00     0.167 HD
ATOM     50  C   UNL A   1      45.153  32.500  28.521  1.00  0.00     0.037 A 
ATOM     51  C   UNL A   1      42.013  26.278  27.780  1.00  0.00     0.037 A 
ATOM     52  C   UNL A   1      45.898  31.533  27.760  1.00  0.00     0.049 A 
ATOM     53  C   UNL A   1      43.336  26.590  27.124  1.00  0.00     0.074 A 
ATOM     54  C   UNL A   1      47.150  31.664  27.187  1.00  0.00     0.029 A 
ATOM     55  N   UNL A   1      45.449  30.256  27.456  1.00  0.00    -0.354 N 
ATOM     56  N   UNL A   1      44.061  27.681  27.195  1.00  0.00    -0.248 NA
ATOM     57  C   UNL A   1      43.919  25.539  26.277  1.00  0.00     0.031 C 
ATOM     58  C   UNL A   1      47.435  30.487  26.488  1.00  0.00     0.029 A 
ATOM     59  C   UNL A   1      46.389  29.598  26.678  1.00  0.00     0.049 A 
ATOM     60  H   UNL A   1      44.590  29.874  27.748  1.00  0.00     0.167 HD
ATOM     61  C   UNL A   1      45.198  27.435  26.433  1.00  0.00     0.074 A 
ATOM     62  C   UNL A   1      45.072  26.089  25.918  1.00  0.00     0.031 C 
ATOM     63  C   UNL A   1      46.253  28.251  26.185  1.00  0.00     0.037 A 
BRANCH  50  64
ATOM     64  C   UNL A   1      45.743  33.866  28.715  1.00  0.00     0.064 A 
ATOM     65  C   UNL A   1      46.574  34.164  29.806  1.00  0.00     0.173 A 
ATOM     66  C   UNL A   1      45.493  34.886  27.784  1.00  0.00     0.173 A 
ATOM     67  F   UNL A   1      46.831  33.229  30.734  1.00  0.00    -0.203 F 
ATOM     68  C   UNL A   1      47.109  35.439  29.972  1.00  0.00     0.198 A 
ATOM     69  C   UNL A   1      46.055  36.150  27.936  1.00  0.00     0.198 A 
ATOM     70  F   UNL A   1      44.707  34.654  26.722  1.00  0.00    -0.203 F 
ATOM     71  F   UNL A   1      47.857  35.714  31.050  1.00  0.00    -0.200 F 
ATOM     72  C   UNL A   1      46.855  36.428  29.034  1.00  0.00     0.200 A 
ATOM     73  F   UNL A   1      45.821  37.100  27.022  1.00  0.00    -0.200 F 
ATOM     74  F   UNL A   1      47.378  37.652  29.192  1.00  0.00    -0.200 F 
ENDBRANCH  50  64
BRANCH  51  75
ATOM     75  C   UNL A   1      41.358  24.960  27.569  1.00  0.00     0.064 A 
ATOM     76  C   UNL A   1      41.865  23.797  28.168  1.00  0.00     0.173 A 
ATOM     77  C   UNL A   1      40.231  24.826  26.744  1.00  0.00     0.173 A 
ATOM     78  F   UNL A   1      42.958  23.867  28.943  1.00  0.00    -0.203 F 
ATOM     79  C   UNL A   1      41.284  22.552  27.934  1.00  0.00     0.198 A 
ATOM     80  C   UNL A   1      39.633  23.585  26.534  1.00  0.00     0.198 A 
ATOM     81  F   UNL A   1      39.708  25.904  26.140  1.00  0.00    -0.203 F 
ATOM     82  F   UNL A   1      41.824  21.452  28.476  1.00  0.00    -0.200 F 
ATOM     83  C   UNL A   1      40.165  22.447  27.122  1.00  0.00     0.200 A 
ATOM     84  F   UNL A   1      38.546  23.489  25.756  1.00  0.00    -0.200 F 
ATOM     85  F   UNL A   1      39.607  21.250  26.898  1.00  0.00    -0.200 F 
ENDBRANCH  51  75
BRANCH  63  86
ATOM     86  C   UNL A   1      47.381  27.698  25.359  1.00  0.00     0.064 A 
ATOM     87  C   UNL A   1      47.421  27.846  23.966  1.00  0.00     0.173 A 
ATOM     88  C   UNL A   1      48.466  27.059  25.983  1.00  0.00     0.173 A 
ATOM     89  F   UNL A   1      46.404  28.437  23.321  1.00  0.00    -0.203 F 
ATOM     90  C   UNL A   1      48.492  27.354  23.223  1.00  0.00     0.198 A 
ATOM     91  C   UNL A   1      49.551  26.599  25.241  1.00  0.00     0.198 A 
ATOM     92  F   UNL A   1      48.483  26.900  27.314  1.00  0.00    -0.203 F 
ATOM     93  F   UNL A   1      48.487  27.465  21.888  1.00  0.00    -0.200 F 
ATOM     94  C   UNL A   1      49.559  26.739  23.863  1.00  0.00     0.200 A 
ATOM     95  F   UNL A   1      50.587  26.022  25.863  1.00  0.00    -0.200 F 
ATOM     96  F   UNL A   1      50.595  26.278  23.148  1.00  0.00    -0.200 F 
ENDBRANCH  63  86
ENDBRANCH  37  38
ENDBRANCH  30  32
ENDBRANCH  29  30
ENDBRANCH  28  29
ENDBRANCH  27  28
ENDBRANCH  26  27
ENDBRANCH  25  26
ENDBRANCH   1  25
TORSDOF 20
ENDMDL
