MODEL 1
REMARK VINA RESULT:     -11.3      0.000      0.000
REMARK SMILES COC(=O)c1ccc(Cl)c(-c2ccc(C(=O)OCCOCCOCCOC(=O)c3ccc(-c4c5nc(c(-c6c(F)c(F)c(F)c(F)c6F)c6ccc([nH]6)c(-c6c(F)c(F)c(F)c(F)c6F)c6nc(c(-c7c(F)c(F)c(F)c(F)c7F)c7ccc4[nH]7)C=C6)C=C5)cc3)nc2)c1
REMARK SMILES IDX 21 1 20 2 19 3 18 4 17 5 15 6 16 7 14 8 11 9 12 10 93 11
REMARK SMILES IDX 13 12 92 13 10 14 5 15 6 16 94 17 7 18 8 19 9 20 3 21 4 22
REMARK SMILES IDX 2 23 1 24 22 25 23 26 24 27 25 28 26 29 27 30 28 31 29 32
REMARK SMILES IDX 30 33 91 34 31 35 90 36 32 37 33 38 34 39 84 40 35 41 89 42
REMARK SMILES IDX 83 43 85 44 36 45 88 46 82 47 81 48 37 50 69 51 49 52 68 53
REMARK SMILES IDX 50 54 53 55 67 56 86 57 51 58 52 59 66 61 87 62 54 63 38 64
REMARK SMILES IDX 39 65 47 66 40 67 41 68 45 69 48 70 42 71 43 72 46 73 44 74
REMARK SMILES IDX 70 75 71 76 79 77 72 78 73 79 77 80 80 81 74 82 75 83 78 84
REMARK SMILES IDX 76 85 55 86 56 87 64 88 57 89 58 90 62 91 65 92 59 93 60 94
REMARK SMILES IDX 63 95 61 96
REMARK H PARENT 85 49 53 60
REMARK Flexibility Score: inf
ROOT
ATOM      1  C   UNL A   1      30.464  25.376  25.344  1.00  0.00     0.188 C 
ENDROOT
BRANCH   1   2
ATOM      2  O   UNL A   1      29.223  25.971  25.010  1.00  0.00    -0.376 OA
BRANCH   2   3
ATOM      3  C   UNL A   1      29.048  26.608  23.753  1.00  0.00     0.202 C 
BRANCH   3   4
ATOM      4  C   UNL A   1      29.989  27.713  23.242  1.00  0.00     0.261 C 
BRANCH   4   5
ATOM      5  O   UNL A   1      30.945  27.300  22.255  1.00  0.00    -0.459 OA
BRANCH   5   6
ATOM      6  C   UNL A   1      32.234  27.646  22.521  1.00  0.00     0.356 C 
ATOM      7  O   UNL A   1      32.681  28.783  22.560  1.00  0.00    -0.244 OA
BRANCH   6   8
ATOM      8  C   UNL A   1      33.014  26.439  22.921  1.00  0.00     0.148 A 
ATOM      9  C   UNL A   1      34.227  24.066  23.634  1.00  0.00     0.002 A 
ATOM     10  C   UNL A   1      34.402  25.209  24.428  1.00  0.00     0.013 A 
ATOM     11  C   UNL A   1      33.506  24.228  22.453  1.00  0.00     0.120 A 
ATOM     12  C   UNL A   1      33.785  26.413  24.076  1.00  0.00     0.037 A 
ATOM     13  N   UNL A   1      32.904  25.379  22.076  1.00  0.00    -0.249 NA
BRANCH   9  14
ATOM     14  C   UNL A   1      34.624  22.725  24.090  1.00  0.00     0.003 A 
ATOM     15  C   UNL A   1      34.047  20.426  24.707  1.00  0.00     0.060 A 
ATOM     16  C   UNL A   1      35.363  20.199  25.124  1.00  0.00     0.017 A 
ATOM     17  C   UNL A   1      33.684  21.680  24.181  1.00  0.00     0.026 A 
ATOM     18  C   UNL A   1      36.308  21.218  25.030  1.00  0.00     0.022 A 
ATOM     19  C   UNL A   1      35.944  22.468  24.526  1.00  0.00     0.048 A 
ATOM     20  Cl  UNL A   1      37.173  23.690  24.502  1.00  0.00    -0.084 Cl
BRANCH  15  21
ATOM     21  C   UNL A   1      33.014  19.362  24.812  1.00  0.00     0.337 C 
ATOM     22  O   UNL A   1      31.852  19.576  25.110  1.00  0.00    -0.246 OA
BRANCH  21  23
ATOM     23  O   UNL A   1      33.578  18.151  24.574  1.00  0.00    -0.465 OA
ATOM     24  C   UNL A   1      33.096  17.092  25.404  1.00  0.00     0.282 C 
ENDBRANCH  21  23
ENDBRANCH  15  21
ENDBRANCH   9  14
ENDBRANCH   6   8
ENDBRANCH   5   6
ENDBRANCH   4   5
ENDBRANCH   3   4
ENDBRANCH   2   3
ENDBRANCH   1   2
BRANCH   1  25
ATOM     25  C   UNL A   1      31.218  25.827  26.612  1.00  0.00     0.188 C 
BRANCH  25  26
ATOM     26  O   UNL A   1      31.079  27.169  27.009  1.00  0.00    -0.376 OA
BRANCH  26  27
ATOM     27  C   UNL A   1      31.754  28.202  26.310  1.00  0.00     0.202 C 
BRANCH  27  28
ATOM     28  C   UNL A   1      31.818  29.691  26.710  1.00  0.00     0.261 C 
BRANCH  28  29
ATOM     29  O   UNL A   1      32.927  30.474  26.265  1.00  0.00    -0.460 OA
BRANCH  29  30
ATOM     30  C   UNL A   1      33.299  31.484  27.088  1.00  0.00     0.338 C 
ATOM     31  O   UNL A   1      32.636  32.444  27.434  1.00  0.00    -0.246 OA
BRANCH  30  32
ATOM     32  C   UNL A   1      34.615  31.158  27.668  1.00  0.00     0.060 A 
ATOM     33  C   UNL A   1      34.908  29.821  27.969  1.00  0.00     0.016 A 
ATOM     34  C   UNL A   1      35.532  32.170  27.951  1.00  0.00     0.016 A 
ATOM     35  C   UNL A   1      36.121  29.492  28.571  1.00  0.00     0.010 A 
ATOM     36  C   UNL A   1      36.739  31.841  28.574  1.00  0.00     0.010 A 
ATOM     37  C   UNL A   1      37.027  30.505  28.911  1.00  0.00    -0.014 A 
BRANCH  37  38
ATOM     38  C   UNL A   1      38.198  30.192  29.764  1.00  0.00     0.031 A 
ATOM     39  C   UNL A   1      39.243  29.250  29.235  1.00  0.00     0.074 A 
ATOM     40  C   UNL A   1      38.338  30.741  30.984  1.00  0.00     0.049 A 
ATOM     41  N   UNL A   1      40.311  28.773  29.823  1.00  0.00    -0.248 NA
ATOM     42  C   UNL A   1      39.054  28.778  27.854  1.00  0.00     0.031 C 
ATOM     43  C   UNL A   1      37.420  31.702  31.588  1.00  0.00     0.029 A 
ATOM     44  N   UNL A   1      39.308  30.552  31.937  1.00  0.00    -0.354 N 
ATOM     45  C   UNL A   1      40.914  27.941  28.890  1.00  0.00     0.074 A 
ATOM     46  C   UNL A   1      40.079  27.953  27.707  1.00  0.00     0.031 C 
ATOM     47  C   UNL A   1      37.860  32.008  32.821  1.00  0.00     0.029 A 
ATOM     48  C   UNL A   1      39.070  31.236  33.103  1.00  0.00     0.049 A 
ATOM     49  H   UNL A   1      40.099  29.981  31.798  1.00  0.00     0.167 HD
ATOM     50  C   UNL A   1      42.065  27.237  29.005  1.00  0.00     0.037 A 
ATOM     51  C   UNL A   1      39.740  31.216  34.273  1.00  0.00     0.037 A 
ATOM     52  C   UNL A   1      42.891  27.225  30.185  1.00  0.00     0.049 A 
ATOM     53  C   UNL A   1      40.973  30.357  34.406  1.00  0.00     0.074 A 
ATOM     54  C   UNL A   1      44.084  26.556  30.394  1.00  0.00     0.029 A 
ATOM     55  N   UNL A   1      42.601  27.905  31.358  1.00  0.00    -0.354 N 
ATOM     56  N   UNL A   1      41.554  29.592  33.513  1.00  0.00    -0.248 NA
ATOM     57  C   UNL A   1      41.645  30.361  35.713  1.00  0.00     0.031 C 
ATOM     58  C   UNL A   1      44.485  26.783  31.715  1.00  0.00     0.029 A 
ATOM     59  C   UNL A   1      43.578  27.648  32.307  1.00  0.00     0.049 A 
ATOM     60  H   UNL A   1      41.819  28.485  31.497  1.00  0.00     0.167 HD
ATOM     61  C   UNL A   1      42.674  29.055  34.136  1.00  0.00     0.074 A 
ATOM     62  C   UNL A   1      42.699  29.591  35.481  1.00  0.00     0.031 C 
ATOM     63  C   UNL A   1      43.600  28.197  33.640  1.00  0.00     0.037 A 
BRANCH  50  64
ATOM     64  C   UNL A   1      42.483  26.394  27.835  1.00  0.00     0.064 A 
ATOM     65  C   UNL A   1      43.377  26.868  26.863  1.00  0.00     0.173 A 
ATOM     66  C   UNL A   1      42.005  25.081  27.701  1.00  0.00     0.173 A 
ATOM     67  F   UNL A   1      43.854  28.120  26.937  1.00  0.00    -0.203 F 
ATOM     68  C   UNL A   1      43.754  26.069  25.787  1.00  0.00     0.198 A 
ATOM     69  C   UNL A   1      42.411  24.275  26.642  1.00  0.00     0.198 A 
ATOM     70  F   UNL A   1      41.151  24.576  28.604  1.00  0.00    -0.203 F 
ATOM     71  F   UNL A   1      44.570  26.560  24.844  1.00  0.00    -0.200 F 
ATOM     72  C   UNL A   1      43.278  24.771  25.681  1.00  0.00     0.200 A 
ATOM     73  F   UNL A   1      41.961  23.015  26.551  1.00  0.00    -0.200 F 
ATOM     74  F   UNL A   1      43.649  24.001  24.649  1.00  0.00    -0.200 F 
ENDBRANCH  50  64
BRANCH  51  75
ATOM     75  C   UNL A   1      39.253  32.023  35.424  1.00  0.00     0.064 A 
ATOM     76  C   UNL A   1      39.610  33.370  35.565  1.00  0.00     0.173 A 
ATOM     77  C   UNL A   1      38.447  31.455  36.422  1.00  0.00     0.173 A 
ATOM     78  F   UNL A   1      40.404  33.952  34.653  1.00  0.00    -0.203 F 
ATOM     79  C   UNL A   1      39.198  34.114  36.671  1.00  0.00     0.198 A 
ATOM     80  C   UNL A   1      38.010  32.207  37.511  1.00  0.00     0.198 A 
ATOM     81  F   UNL A   1      38.083  30.167  36.341  1.00  0.00    -0.203 F 
ATOM     82  F   UNL A   1      39.603  35.383  36.809  1.00  0.00    -0.200 F 
ATOM     83  C   UNL A   1      38.393  33.533  37.639  1.00  0.00     0.200 A 
ATOM     84  F   UNL A   1      37.226  31.644  38.440  1.00  0.00    -0.200 F 
ATOM     85  F   UNL A   1      38.001  34.247  38.702  1.00  0.00    -0.200 F 
ENDBRANCH  51  75
BRANCH  63  86
ATOM     86  C   UNL A   1      44.749  27.820  34.532  1.00  0.00     0.064 A 
ATOM     87  C   UNL A   1      44.701  26.693  35.367  1.00  0.00     0.173 A 
ATOM     88  C   UNL A   1      45.934  28.574  34.517  1.00  0.00     0.173 A 
ATOM     89  F   UNL A   1      43.590  25.946  35.430  1.00  0.00    -0.203 F 
ATOM     90  C   UNL A   1      45.785  26.355  36.174  1.00  0.00     0.198 A 
ATOM     91  C   UNL A   1      47.027  28.211  35.298  1.00  0.00     0.198 A 
ATOM     92  F   UNL A   1      46.037  29.655  33.730  1.00  0.00    -0.203 F 
ATOM     93  F   UNL A   1      45.698  25.305  37.003  1.00  0.00    -0.200 F 
ATOM     94  C   UNL A   1      46.949  27.107  36.133  1.00  0.00     0.200 A 
ATOM     95  F   UNL A   1      48.157  28.930  35.243  1.00  0.00    -0.200 F 
ATOM     96  F   UNL A   1      47.993  26.772  36.902  1.00  0.00    -0.200 F 
ENDBRANCH  63  86
ENDBRANCH  37  38
ENDBRANCH  30  32
ENDBRANCH  29  30
ENDBRANCH  28  29
ENDBRANCH  27  28
ENDBRANCH  26  27
ENDBRANCH  25  26
ENDBRANCH   1  25
TORSDOF 20
ENDMDL
MODEL 2
REMARK VINA RESULT:     -11.0      1.097      2.058
REMARK SMILES COC(=O)c1ccc(Cl)c(-c2ccc(C(=O)OCCOCCOCCOC(=O)c3ccc(-c4c5nc(c(-c6c(F)c(F)c(F)c(F)c6F)c6ccc([nH]6)c(-c6c(F)c(F)c(F)c(F)c6F)c6nc(c(-c7c(F)c(F)c(F)c(F)c7F)c7ccc4[nH]7)C=C6)C=C5)cc3)nc2)c1
REMARK SMILES IDX 21 1 20 2 19 3 18 4 17 5 15 6 16 7 14 8 11 9 12 10 93 11
REMARK SMILES IDX 13 12 92 13 10 14 5 15 6 16 94 17 7 18 8 19 9 20 3 21 4 22
REMARK SMILES IDX 2 23 1 24 22 25 23 26 24 27 25 28 26 29 27 30 28 31 29 32
REMARK SMILES IDX 30 33 91 34 31 35 90 36 32 37 33 38 34 39 84 40 35 41 89 42
REMARK SMILES IDX 83 43 85 44 36 45 88 46 82 47 81 48 37 50 69 51 49 52 68 53
REMARK SMILES IDX 50 54 53 55 67 56 86 57 51 58 52 59 66 61 87 62 54 63 38 64
REMARK SMILES IDX 39 65 47 66 40 67 41 68 45 69 48 70 42 71 43 72 46 73 44 74
REMARK SMILES IDX 70 75 71 76 79 77 72 78 73 79 77 80 80 81 74 82 75 83 78 84
REMARK SMILES IDX 76 85 55 86 56 87 64 88 57 89 58 90 62 91 65 92 59 93 60 94
REMARK SMILES IDX 63 95 61 96
REMARK H PARENT 85 49 53 60
REMARK Flexibility Score: inf
ROOT
ATOM      1  C   UNL A   1      32.961  27.329  22.855  1.00  0.00     0.188 C 
ENDROOT
BRANCH   1   2
ATOM      2  O   UNL A   1      31.776  26.730  22.363  1.00  0.00    -0.376 OA
BRANCH   2   3
ATOM      3  C   UNL A   1      30.521  27.368  22.548  1.00  0.00     0.202 C 
BRANCH   3   4
ATOM      4  C   UNL A   1      29.664  27.166  23.810  1.00  0.00     0.261 C 
BRANCH   4   5
ATOM      5  O   UNL A   1      29.632  25.827  24.325  1.00  0.00    -0.459 OA
BRANCH   5   6
ATOM      6  C   UNL A   1      30.486  25.587  25.358  1.00  0.00     0.356 C 
ATOM      7  O   UNL A   1      30.616  26.275  26.359  1.00  0.00    -0.244 OA
BRANCH   6   8
ATOM      8  C   UNL A   1      31.141  24.258  25.179  1.00  0.00     0.148 A 
ATOM      9  C   UNL A   1      32.580  21.918  24.930  1.00  0.00     0.002 A 
ATOM     10  C   UNL A   1      31.768  22.357  23.874  1.00  0.00     0.013 A 
ATOM     11  C   UNL A   1      32.538  22.664  26.106  1.00  0.00     0.120 A 
ATOM     12  C   UNL A   1      31.041  23.545  23.991  1.00  0.00     0.037 A 
ATOM     13  N   UNL A   1      31.839  23.812  26.258  1.00  0.00    -0.249 NA
BRANCH   9  14
ATOM     14  C   UNL A   1      33.562  20.835  24.766  1.00  0.00     0.003 A 
ATOM     15  C   UNL A   1      34.087  18.474  24.382  1.00  0.00     0.060 A 
ATOM     16  C   UNL A   1      35.443  18.728  24.617  1.00  0.00     0.017 A 
ATOM     17  C   UNL A   1      33.154  19.526  24.445  1.00  0.00     0.026 A 
ATOM     18  C   UNL A   1      35.865  20.019  24.925  1.00  0.00     0.022 A 
ATOM     19  C   UNL A   1      34.937  21.060  25.005  1.00  0.00     0.048 A 
ATOM     20  Cl  UNL A   1      35.548  22.619  25.452  1.00  0.00    -0.084 Cl
BRANCH  15  21
ATOM     21  C   UNL A   1      33.607  17.102  24.068  1.00  0.00     0.337 C 
ATOM     22  O   UNL A   1      33.995  16.454  23.113  1.00  0.00    -0.246 OA
BRANCH  21  23
ATOM     23  O   UNL A   1      32.663  16.730  24.969  1.00  0.00    -0.465 OA
ATOM     24  C   UNL A   1      32.670  15.341  25.306  1.00  0.00     0.282 C 
ENDBRANCH  21  23
ENDBRANCH  15  21
ENDBRANCH   9  14
ENDBRANCH   6   8
ENDBRANCH   5   6
ENDBRANCH   4   5
ENDBRANCH   3   4
ENDBRANCH   2   3
ENDBRANCH   1   2
BRANCH   1  25
ATOM     25  C   UNL A   1      32.937  28.789  23.354  1.00  0.00     0.188 C 
BRANCH  25  26
ATOM     26  O   UNL A   1      32.691  29.005  24.722  1.00  0.00    -0.376 OA
BRANCH  26  27
ATOM     27  C   UNL A   1      31.672  29.898  25.139  1.00  0.00     0.202 C 
BRANCH  27  28
ATOM     28  C   UNL A   1      31.721  30.841  26.360  1.00  0.00     0.261 C 
BRANCH  28  29
ATOM     29  O   UNL A   1      32.787  30.694  27.298  1.00  0.00    -0.460 OA
BRANCH  29  30
ATOM     30  C   UNL A   1      33.535  31.804  27.514  1.00  0.00     0.338 C 
ATOM     31  O   UNL A   1      33.183  32.966  27.431  1.00  0.00    -0.246 OA
BRANCH  30  32
ATOM     32  C   UNL A   1      34.845  31.391  28.051  1.00  0.00     0.060 A 
ATOM     33  C   UNL A   1      35.020  30.060  28.454  1.00  0.00     0.016 A 
ATOM     34  C   UNL A   1      35.875  32.320  28.194  1.00  0.00     0.016 A 
ATOM     35  C   UNL A   1      36.229  29.657  29.019  1.00  0.00     0.010 A 
ATOM     36  C   UNL A   1      37.078  31.920  28.781  1.00  0.00     0.010 A 
ATOM     37  C   UNL A   1      37.251  30.594  29.221  1.00  0.00    -0.014 A 
BRANCH  37  38
ATOM     38  C   UNL A   1      38.434  30.232  30.037  1.00  0.00     0.031 A 
ATOM     39  C   UNL A   1      39.437  29.270  29.464  1.00  0.00     0.074 A 
ATOM     40  C   UNL A   1      38.623  30.755  31.261  1.00  0.00     0.049 A 
ATOM     41  N   UNL A   1      40.506  28.752  30.014  1.00  0.00    -0.248 NA
ATOM     42  C   UNL A   1      39.198  28.828  28.080  1.00  0.00     0.031 C 
ATOM     43  C   UNL A   1      37.750  31.732  31.905  1.00  0.00     0.029 A 
ATOM     44  N   UNL A   1      39.612  30.522  32.184  1.00  0.00    -0.354 N 
ATOM     45  C   UNL A   1      41.059  27.919  29.051  1.00  0.00     0.074 A 
ATOM     46  C   UNL A   1      40.193  27.976  27.892  1.00  0.00     0.031 C 
ATOM     47  C   UNL A   1      38.231  32.003  33.131  1.00  0.00     0.029 A 
ATOM     48  C   UNL A   1      39.425  31.191  33.368  1.00  0.00     0.049 A 
ATOM     49  H   UNL A   1      40.381  29.931  32.014  1.00  0.00     0.167 HD
ATOM     50  C   UNL A   1      42.191  27.180  29.123  1.00  0.00     0.037 A 
ATOM     51  C   UNL A   1      40.124  31.131  34.519  1.00  0.00     0.037 A 
ATOM     52  C   UNL A   1      43.047  27.123  30.280  1.00  0.00     0.049 A 
ATOM     53  C   UNL A   1      41.335  30.235  34.604  1.00  0.00     0.074 A 
ATOM     54  C   UNL A   1      44.225  26.417  30.446  1.00  0.00     0.029 A 
ATOM     55  N   UNL A   1      42.809  27.791  31.472  1.00  0.00    -0.354 N 
ATOM     56  N   UNL A   1      41.870  29.469  33.682  1.00  0.00    -0.248 NA
ATOM     57  C   UNL A   1      42.042  30.197  35.892  1.00  0.00     0.031 C 
ATOM     58  C   UNL A   1      44.668  26.609  31.759  1.00  0.00     0.029 A 
ATOM     59  C   UNL A   1      43.803  27.489  32.389  1.00  0.00     0.049 A 
ATOM     60  H   UNL A   1      42.048  28.391  31.641  1.00  0.00     0.167 HD
ATOM     61  C   UNL A   1      42.989  28.889  34.266  1.00  0.00     0.074 A 
ATOM     62  C   UNL A   1      43.065  29.401  35.618  1.00  0.00     0.031 C 
ATOM     63  C   UNL A   1      43.876  28.014  33.730  1.00  0.00     0.037 A 
BRANCH  50  64
ATOM     64  C   UNL A   1      42.553  26.347  27.928  1.00  0.00     0.064 A 
ATOM     65  C   UNL A   1      43.385  26.835  26.909  1.00  0.00     0.173 A 
ATOM     66  C   UNL A   1      42.084  25.028  27.816  1.00  0.00     0.173 A 
ATOM     67  F   UNL A   1      43.850  28.092  26.961  1.00  0.00    -0.203 F 
ATOM     68  C   UNL A   1      43.711  26.044  25.811  1.00  0.00     0.198 A 
ATOM     69  C   UNL A   1      42.440  24.230  26.733  1.00  0.00     0.198 A 
ATOM     70  F   UNL A   1      41.289  24.510  28.764  1.00  0.00    -0.203 F 
ATOM     71  F   UNL A   1      44.466  26.548  24.825  1.00  0.00    -0.200 F 
ATOM     72  C   UNL A   1      43.245  24.740  25.727  1.00  0.00     0.200 A 
ATOM     73  F   UNL A   1      42.001  22.966  26.662  1.00  0.00    -0.200 F 
ATOM     74  F   UNL A   1      43.567  23.979  24.673  1.00  0.00    -0.200 F 
ENDBRANCH  50  64
BRANCH  51  75
ATOM     75  C   UNL A   1      39.692  31.932  35.696  1.00  0.00     0.064 A 
ATOM     76  C   UNL A   1      40.338  33.128  36.033  1.00  0.00     0.173 A 
ATOM     77  C   UNL A   1      38.646  31.500  36.525  1.00  0.00     0.173 A 
ATOM     78  F   UNL A   1      41.365  33.568  35.290  1.00  0.00    -0.203 F 
ATOM     79  C   UNL A   1      39.969  33.852  37.166  1.00  0.00     0.198 A 
ATOM     80  C   UNL A   1      38.257  32.241  37.639  1.00  0.00     0.198 A 
ATOM     81  F   UNL A   1      38.000  30.357  36.252  1.00  0.00    -0.203 F 
ATOM     82  F   UNL A   1      40.642  34.963  37.497  1.00  0.00    -0.200 F 
ATOM     83  C   UNL A   1      38.924  33.411  37.965  1.00  0.00     0.200 A 
ATOM     84  F   UNL A   1      37.242  31.814  38.404  1.00  0.00    -0.200 F 
ATOM     85  F   UNL A   1      38.573  34.105  39.054  1.00  0.00    -0.200 F 
ENDBRANCH  51  75
BRANCH  63  86
ATOM     86  C   UNL A   1      45.037  27.588  34.585  1.00  0.00     0.064 A 
ATOM     87  C   UNL A   1      46.204  28.360  34.688  1.00  0.00     0.173 A 
ATOM     88  C   UNL A   1      44.960  26.412  35.348  1.00  0.00     0.173 A 
ATOM     89  F   UNL A   1      46.336  29.486  33.972  1.00  0.00    -0.203 F 
ATOM     90  C   UNL A   1      47.261  27.953  35.499  1.00  0.00     0.198 A 
ATOM     91  C   UNL A   1      46.004  26.028  36.184  1.00  0.00     0.198 A 
ATOM     92  F   UNL A   1      43.863  25.642  35.295  1.00  0.00    -0.203 F 
ATOM     93  F   UNL A   1      48.388  28.678  35.542  1.00  0.00    -0.200 F 
ATOM     94  C   UNL A   1      47.158  26.794  36.253  1.00  0.00     0.200 A 
ATOM     95  F   UNL A   1      45.894  24.916  36.924  1.00  0.00    -0.200 F 
ATOM     96  F   UNL A   1      48.172  26.411  37.040  1.00  0.00    -0.200 F 
ENDBRANCH  63  86
ENDBRANCH  37  38
ENDBRANCH  30  32
ENDBRANCH  29  30
ENDBRANCH  28  29
ENDBRANCH  27  28
ENDBRANCH  26  27
ENDBRANCH  25  26
ENDBRANCH   1  25
TORSDOF 20
ENDMDL
MODEL 3
REMARK VINA RESULT:     -11.0      0.722      7.307
REMARK SMILES COC(=O)c1ccc(Cl)c(-c2ccc(C(=O)OCCOCCOCCOC(=O)c3ccc(-c4c5nc(c(-c6c(F)c(F)c(F)c(F)c6F)c6ccc([nH]6)c(-c6c(F)c(F)c(F)c(F)c6F)c6nc(c(-c7c(F)c(F)c(F)c(F)c7F)c7ccc4[nH]7)C=C6)C=C5)cc3)nc2)c1
REMARK SMILES IDX 21 1 20 2 19 3 18 4 17 5 15 6 16 7 14 8 11 9 12 10 93 11
REMARK SMILES IDX 13 12 92 13 10 14 5 15 6 16 94 17 7 18 8 19 9 20 3 21 4 22
REMARK SMILES IDX 2 23 1 24 22 25 23 26 24 27 25 28 26 29 27 30 28 31 29 32
REMARK SMILES IDX 30 33 91 34 31 35 90 36 32 37 33 38 34 39 84 40 35 41 89 42
REMARK SMILES IDX 83 43 85 44 36 45 88 46 82 47 81 48 37 50 69 51 49 52 68 53
REMARK SMILES IDX 50 54 53 55 67 56 86 57 51 58 52 59 66 61 87 62 54 63 38 64
REMARK SMILES IDX 39 65 47 66 40 67 41 68 45 69 48 70 42 71 43 72 46 73 44 74
REMARK SMILES IDX 70 75 71 76 79 77 72 78 73 79 77 80 80 81 74 82 75 83 78 84
REMARK SMILES IDX 76 85 55 86 56 87 64 88 57 89 58 90 62 91 65 92 59 93 60 94
REMARK SMILES IDX 63 95 61 96
REMARK H PARENT 85 49 53 60
REMARK Flexibility Score: inf
ROOT
ATOM      1  C   UNL A   1      30.532  25.732  25.241  1.00  0.00     0.188 C 
ENDROOT
BRANCH   1   2
ATOM      2  O   UNL A   1      29.404  26.439  24.758  1.00  0.00    -0.376 OA
BRANCH   2   3
ATOM      3  C   UNL A   1      29.449  27.083  23.493  1.00  0.00     0.202 C 
BRANCH   3   4
ATOM      4  C   UNL A   1      30.615  27.989  23.062  1.00  0.00     0.261 C 
BRANCH   4   5
ATOM      5  O   UNL A   1      31.678  27.332  22.358  1.00  0.00    -0.459 OA
BRANCH   5   6
ATOM      6  C   UNL A   1      32.923  27.540  22.869  1.00  0.00     0.356 C 
ATOM      7  O   UNL A   1      33.430  28.624  23.112  1.00  0.00    -0.244 OA
BRANCH   6   8
ATOM      8  C   UNL A   1      33.541  26.236  23.249  1.00  0.00     0.148 A 
ATOM      9  C   UNL A   1      34.464  23.708  23.855  1.00  0.00     0.002 A 
ATOM     10  C   UNL A   1      34.499  24.718  24.827  1.00  0.00     0.013 A 
ATOM     11  C   UNL A   1      34.038  24.078  22.581  1.00  0.00     0.120 A 
ATOM     12  C   UNL A   1      34.027  26.000  24.529  1.00  0.00     0.037 A 
ATOM     13  N   UNL A   1      33.586  25.310  22.254  1.00  0.00    -0.249 NA
BRANCH   9  14
ATOM     14  C   UNL A   1      34.692  22.293  24.185  1.00  0.00     0.003 A 
ATOM     15  C   UNL A   1      33.835  20.041  24.622  1.00  0.00     0.060 A 
ATOM     16  C   UNL A   1      35.118  19.612  24.980  1.00  0.00     0.017 A 
ATOM     17  C   UNL A   1      33.627  21.372  24.215  1.00  0.00     0.026 A 
ATOM     18  C   UNL A   1      36.184  20.507  24.945  1.00  0.00     0.022 A 
ATOM     19  C   UNL A   1      35.975  21.833  24.558  1.00  0.00     0.048 A 
ATOM     20  Cl  UNL A   1      37.352  22.885  24.602  1.00  0.00    -0.084 Cl
BRANCH  15  21
ATOM     21  C   UNL A   1      32.674  19.111  24.668  1.00  0.00     0.337 C 
ATOM     22  O   UNL A   1      32.241  18.623  25.696  1.00  0.00    -0.246 OA
BRANCH  21  23
ATOM     23  O   UNL A   1      32.229  18.873  23.408  1.00  0.00    -0.465 OA
ATOM     24  C   UNL A   1      32.880  17.793  22.737  1.00  0.00     0.282 C 
ENDBRANCH  21  23
ENDBRANCH  15  21
ENDBRANCH   9  14
ENDBRANCH   6   8
ENDBRANCH   5   6
ENDBRANCH   4   5
ENDBRANCH   3   4
ENDBRANCH   2   3
ENDBRANCH   1   2
BRANCH   1  25
ATOM     25  C   UNL A   1      31.090  26.040  26.646  1.00  0.00     0.188 C 
BRANCH  25  26
ATOM     26  O   UNL A   1      31.058  27.377  27.081  1.00  0.00    -0.376 OA
BRANCH  26  27
ATOM     27  C   UNL A   1      31.825  28.369  26.419  1.00  0.00     0.202 C 
BRANCH  27  28
ATOM     28  C   UNL A   1      32.055  29.820  26.893  1.00  0.00     0.261 C 
BRANCH  28  29
ATOM     29  O   UNL A   1      33.206  30.522  26.422  1.00  0.00    -0.460 OA
BRANCH  29  30
ATOM     30  C   UNL A   1      33.696  31.471  27.256  1.00  0.00     0.338 C 
ATOM     31  O   UNL A   1      33.131  32.472  27.656  1.00  0.00    -0.246 OA
BRANCH  30  32
ATOM     32  C   UNL A   1      35.001  31.018  27.770  1.00  0.00     0.060 A 
ATOM     33  C   UNL A   1      35.220  29.644  27.941  1.00  0.00     0.016 A 
ATOM     34  C   UNL A   1      35.983  31.944  28.119  1.00  0.00     0.016 A 
ATOM     35  C   UNL A   1      36.423  29.192  28.479  1.00  0.00     0.010 A 
ATOM     36  C   UNL A   1      37.181  31.490  28.679  1.00  0.00     0.010 A 
ATOM     37  C   UNL A   1      37.395  30.115  28.886  1.00  0.00    -0.014 A 
BRANCH  37  38
ATOM     38  C   UNL A   1      38.562  29.658  29.678  1.00  0.00     0.031 A 
ATOM     39  C   UNL A   1      38.771  30.234  31.050  1.00  0.00     0.074 A 
ATOM     40  C   UNL A   1      39.417  28.740  29.193  1.00  0.00     0.049 A 
ATOM     41  N   UNL A   1      39.753  30.044  31.895  1.00  0.00    -0.248 NA
ATOM     42  C   UNL A   1      37.731  31.156  31.534  1.00  0.00     0.031 C 
ATOM     43  C   UNL A   1      39.296  28.074  27.900  1.00  0.00     0.029 A 
ATOM     44  N   UNL A   1      40.566  28.222  29.736  1.00  0.00    -0.354 N 
ATOM     45  C   UNL A   1      39.454  30.826  33.002  1.00  0.00     0.074 A 
ATOM     46  C   UNL A   1      38.215  31.518  32.712  1.00  0.00     0.031 C 
ATOM     47  C   UNL A   1      40.342  27.245  27.738  1.00  0.00     0.029 A 
ATOM     48  C   UNL A   1      41.222  27.352  28.902  1.00  0.00     0.049 A 
ATOM     49  H   UNL A   1      40.889  28.452  30.638  1.00  0.00     0.167 HD
ATOM     50  C   UNL A   1      40.145  30.951  34.159  1.00  0.00     0.037 A 
ATOM     51  C   UNL A   1      42.412  26.736  29.051  1.00  0.00     0.037 A 
ATOM     52  C   UNL A   1      41.379  30.264  34.443  1.00  0.00     0.049 A 
ATOM     53  C   UNL A   1      43.206  26.956  30.315  1.00  0.00     0.074 A 
ATOM     54  C   UNL A   1      42.147  30.311  35.592  1.00  0.00     0.029 A 
ATOM     55  N   UNL A   1      42.030  29.414  33.560  1.00  0.00    -0.354 N 
ATOM     56  N   UNL A   1      42.907  27.676  31.371  1.00  0.00    -0.248 NA
ATOM     57  C   UNL A   1      44.505  26.274  30.409  1.00  0.00     0.031 C 
ATOM     58  C   UNL A   1      43.294  29.538  35.383  1.00  0.00     0.029 A 
ATOM     59  C   UNL A   1      43.207  28.954  34.129  1.00  0.00     0.049 A 
ATOM     60  H   UNL A   1      41.704  29.173  32.664  1.00  0.00     0.167 HD
ATOM     61  C   UNL A   1      43.959  27.506  32.263  1.00  0.00     0.074 A 
ATOM     62  C   UNL A   1      44.899  26.605  31.631  1.00  0.00     0.031 C 
ATOM     63  C   UNL A   1      44.130  28.045  33.495  1.00  0.00     0.037 A 
BRANCH  50  64
ATOM     64  C   UNL A   1      39.599  31.889  35.196  1.00  0.00     0.064 A 
ATOM     65  C   UNL A   1      38.763  31.445  36.232  1.00  0.00     0.173 A 
ATOM     66  C   UNL A   1      39.943  33.250  35.170  1.00  0.00     0.173 A 
ATOM     67  F   UNL A   1      38.395  30.156  36.295  1.00  0.00    -0.203 F 
ATOM     68  C   UNL A   1      38.271  32.331  37.185  1.00  0.00     0.198 A 
ATOM     69  C   UNL A   1      39.475  34.127  36.144  1.00  0.00     0.198 A 
ATOM     70  F   UNL A   1      40.743  33.728  34.205  1.00  0.00    -0.203 F 
ATOM     71  F   UNL A   1      37.433  31.893  38.135  1.00  0.00    -0.200 F 
ATOM     72  C   UNL A   1      38.633  33.670  37.146  1.00  0.00     0.200 A 
ATOM     73  F   UNL A   1      39.839  35.416  36.113  1.00  0.00    -0.200 F 
ATOM     74  F   UNL A   1      38.164  34.519  38.070  1.00  0.00    -0.200 F 
ENDBRANCH  50  64
BRANCH  51  75
ATOM     75  C   UNL A   1      42.939  25.861  27.970  1.00  0.00     0.064 A 
ATOM     76  C   UNL A   1      42.690  24.482  27.970  1.00  0.00     0.173 A 
ATOM     77  C   UNL A   1      43.729  26.380  26.933  1.00  0.00     0.173 A 
ATOM     78  F   UNL A   1      41.966  23.932  28.956  1.00  0.00    -0.203 F 
ATOM     79  C   UNL A   1      43.228  23.652  26.987  1.00  0.00     0.198 A 
ATOM     80  C   UNL A   1      44.240  25.555  25.934  1.00  0.00     0.198 A 
ATOM     81  F   UNL A   1      44.005  27.692  26.891  1.00  0.00    -0.203 F 
ATOM     82  F   UNL A   1      43.022  22.330  27.044  1.00  0.00    -0.200 F 
ATOM     83  C   UNL A   1      43.997  24.191  25.966  1.00  0.00     0.200 A 
ATOM     84  F   UNL A   1      44.976  26.081  24.945  1.00  0.00    -0.200 F 
ATOM     85  F   UNL A   1      44.515  23.393  25.024  1.00  0.00    -0.200 F 
ENDBRANCH  51  75
BRANCH  63  86
ATOM     86  C   UNL A   1      45.353  27.640  34.269  1.00  0.00     0.064 A 
ATOM     87  C   UNL A   1      46.564  28.342  34.165  1.00  0.00     0.173 A 
ATOM     88  C   UNL A   1      45.299  26.558  35.163  1.00  0.00     0.173 A 
ATOM     89  F   UNL A   1      46.675  29.376  33.317  1.00  0.00    -0.203 F 
ATOM     90  C   UNL A   1      47.680  27.958  34.904  1.00  0.00     0.198 A 
ATOM     91  C   UNL A   1      46.406  26.200  35.926  1.00  0.00     0.198 A 
ATOM     92  F   UNL A   1      44.164  25.858  35.309  1.00  0.00    -0.203 F 
ATOM     93  F   UNL A   1      48.840  28.610  34.750  1.00  0.00    -0.200 F 
ATOM     94  C   UNL A   1      47.599  26.894  35.790  1.00  0.00     0.200 A 
ATOM     95  F   UNL A   1      46.319  25.182  36.793  1.00  0.00    -0.200 F 
ATOM     96  F   UNL A   1      48.671  26.532  36.507  1.00  0.00    -0.200 F 
ENDBRANCH  63  86
ENDBRANCH  37  38
ENDBRANCH  30  32
ENDBRANCH  29  30
ENDBRANCH  28  29
ENDBRANCH  27  28
ENDBRANCH  26  27
ENDBRANCH  25  26
ENDBRANCH   1  25
TORSDOF 20
ENDMDL
