MODEL 1
REMARK VINA RESULT:     -11.8      0.000      0.000
REMARK SMILES O=C(OCCOCCOCCOC(=O)[C@H](c1ccccc1)N1C(=O)/C(=C/c2ccc(-c3nc4ccccc4s3)o2)SC1=S)c1ccc(-c2c3nc(c(-c4c(F)c(F)c(F)c(F)c4F)c4ccc([nH]4)c(-c4c(F)c(F)c(F)c(F)c4F)c4nc(c(-c5c(F)c(F)c(F)c(F)c5F)c5ccc2[nH]5)C=C4)C=C3)cc1
REMARK SMILES IDX 8 1 7 2 6 3 5 4 4 5 3 6 2 7 1 8 44 9 45 10 106 11 46 12
REMARK SMILES IDX 105 13 47 14 48 15 49 16 99 17 50 18 104 19 98 20 100 21
REMARK SMILES IDX 51 22 103 23 97 24 96 25 52 27 84 28 64 29 83 30 65 31 68 32
REMARK SMILES IDX 82 33 101 34 66 35 67 36 81 38 102 39 69 40 53 41 54 42
REMARK SMILES IDX 62 43 55 44 56 45 60 46 63 47 57 48 58 49 61 50 59 51 85 52
REMARK SMILES IDX 86 53 94 54 87 55 88 56 92 57 95 58 89 59 90 60 93 61 91 62
REMARK SMILES IDX 70 63 71 64 79 65 72 66 73 67 77 68 80 69 74 70 75 71 78 72
REMARK SMILES IDX 76 73 9 74 10 75 11 76 12 77 13 78 14 79 15 80 22 81 23 82
REMARK SMILES IDX 42 83 24 84 25 85 41 86 43 87 26 88 27 89 28 90 40 91 29 92
REMARK SMILES IDX 30 93 31 94 32 95 39 96 33 97 38 98 34 99 37 100 35 101
REMARK SMILES IDX 36 102 16 103 17 104 21 105 18 106 20 107 19 108
REMARK H PARENT 100 26 68 37
REMARK Flexibility Score: inf
ROOT
ATOM      1  C   UNL A   1      33.631  20.913  26.023  1.00  0.00     0.188 C 
ENDROOT
BRANCH   1   2
ATOM      2  C   UNL A   1      34.319  20.124  24.913  1.00  0.00     0.188 C 
BRANCH   2   3
ATOM      3  O   UNL A   1      35.742  20.169  24.997  1.00  0.00    -0.376 OA
BRANCH   3   4
ATOM      4  C   UNL A   1      36.318  21.471  24.906  1.00  0.00     0.202 C 
BRANCH   4   5
ATOM      5  C   UNL A   1      37.855  21.531  25.000  1.00  0.00     0.261 C 
BRANCH   5   6
ATOM      6  O   UNL A   1      38.388  21.612  26.341  1.00  0.00    -0.460 OA
BRANCH   6   7
ATOM      7  C   UNL A   1      39.638  21.824  26.798  1.00  0.00     0.338 C 
ATOM      8  O   UNL A   1      40.312  20.868  27.180  1.00  0.00    -0.246 OA
BRANCH   7   9
ATOM      9  C   UNL A   1      40.224  23.181  26.937  1.00  0.00     0.060 A 
ATOM     10  C   UNL A   1      39.749  24.309  26.276  1.00  0.00     0.016 A 
ATOM     11  C   UNL A   1      41.205  23.362  27.913  1.00  0.00     0.016 A 
ATOM     12  C   UNL A   1      40.289  25.574  26.479  1.00  0.00     0.010 A 
ATOM     13  C   UNL A   1      41.671  24.644  28.207  1.00  0.00     0.010 A 
ATOM     14  C   UNL A   1      41.243  25.764  27.467  1.00  0.00    -0.014 A 
BRANCH  14  15
ATOM     15  C   UNL A   1      41.885  27.088  27.675  1.00  0.00     0.031 A 
ATOM     16  C   UNL A   1      43.304  27.242  27.214  1.00  0.00     0.074 A 
ATOM     17  C   UNL A   1      41.250  28.119  28.271  1.00  0.00     0.049 A 
ATOM     18  N   UNL A   1      44.171  28.183  27.473  1.00  0.00    -0.248 NA
ATOM     19  C   UNL A   1      43.828  26.160  26.360  1.00  0.00     0.031 C 
ATOM     20  C   UNL A   1      39.846  28.150  28.680  1.00  0.00     0.029 A 
ATOM     21  N   UNL A   1      41.729  29.339  28.685  1.00  0.00    -0.354 N 
ATOM     22  C   UNL A   1      45.331  27.795  26.822  1.00  0.00     0.074 A 
ATOM     23  C   UNL A   1      45.108  26.473  26.287  1.00  0.00     0.031 C 
ATOM     24  C   UNL A   1      39.601  29.275  29.370  1.00  0.00     0.029 A 
ATOM     25  C   UNL A   1      40.832  30.046  29.452  1.00  0.00     0.049 A 
ATOM     26  H   UNL A   1      42.625  29.673  28.456  1.00  0.00     0.167 HD
ATOM     27  C   UNL A   1      46.453  28.515  26.598  1.00  0.00     0.037 A 
ATOM     28  C   UNL A   1      40.997  31.176  30.165  1.00  0.00     0.037 A 
ATOM     29  C   UNL A   1      46.637  29.854  27.074  1.00  0.00     0.049 A 
ATOM     30  C   UNL A   1      42.308  31.901  30.048  1.00  0.00     0.074 A 
ATOM     31  C   UNL A   1      47.701  30.709  26.868  1.00  0.00     0.029 A 
ATOM     32  N   UNL A   1      45.710  30.536  27.852  1.00  0.00    -0.354 N 
ATOM     33  N   UNL A   1      43.383  31.555  29.383  1.00  0.00    -0.248 NA
ATOM     34  C   UNL A   1      42.412  33.196  30.730  1.00  0.00     0.031 C 
ATOM     35  C   UNL A   1      47.433  31.900  27.553  1.00  0.00     0.029 A 
ATOM     36  C   UNL A   1      46.184  31.800  28.148  1.00  0.00     0.049 A 
ATOM     37  H   UNL A   1      44.845  30.173  28.148  1.00  0.00     0.167 HD
ATOM     38  C   UNL A   1      44.259  32.624  29.494  1.00  0.00     0.074 A 
ATOM     39  C   UNL A   1      43.599  33.617  30.318  1.00  0.00     0.031 C 
ATOM     40  C   UNL A   1      45.485  32.783  28.938  1.00  0.00     0.037 A 
BRANCH  27  41
ATOM     41  C   UNL A   1      47.514  27.857  25.768  1.00  0.00     0.064 A 
ATOM     42  C   UNL A   1      48.640  27.262  26.363  1.00  0.00     0.173 A 
ATOM     43  C   UNL A   1      47.454  27.894  24.369  1.00  0.00     0.173 A 
ATOM     44  F   UNL A   1      48.759  27.227  27.699  1.00  0.00    -0.203 F 
ATOM     45  C   UNL A   1      49.696  26.792  25.588  1.00  0.00     0.198 A 
ATOM     46  C   UNL A   1      48.495  27.387  23.597  1.00  0.00     0.198 A 
ATOM     47  F   UNL A   1      46.402  28.452  23.752  1.00  0.00    -0.203 F 
ATOM     48  F   UNL A   1      50.803  26.325  26.182  1.00  0.00    -0.200 F 
ATOM     49  C   UNL A   1      49.623  26.854  24.206  1.00  0.00     0.200 A 
ATOM     50  F   UNL A   1      48.424  27.442  22.259  1.00  0.00    -0.200 F 
ATOM     51  F   UNL A   1      50.649  26.422  23.461  1.00  0.00    -0.200 F 
ENDBRANCH  27  41
BRANCH  28  52
ATOM     52  C   UNL A   1      39.902  31.704  31.022  1.00  0.00     0.064 A 
ATOM     53  C   UNL A   1      39.116  32.789  30.610  1.00  0.00     0.173 A 
ATOM     54  C   UNL A   1      39.651  31.166  32.294  1.00  0.00     0.173 A 
ATOM     55  F   UNL A   1      39.326  33.345  29.408  1.00  0.00    -0.203 F 
ATOM     56  C   UNL A   1      38.149  33.340  31.449  1.00  0.00     0.198 A 
ATOM     57  C   UNL A   1      38.671  31.707  33.125  1.00  0.00     0.198 A 
ATOM     58  F   UNL A   1      40.366  30.120  32.732  1.00  0.00    -0.203 F 
ATOM     59  F   UNL A   1      37.451  34.411  31.047  1.00  0.00    -0.200 F 
ATOM     60  C   UNL A   1      37.929  32.802  32.707  1.00  0.00     0.200 A 
ATOM     61  F   UNL A   1      38.457  31.180  34.339  1.00  0.00    -0.200 F 
ATOM     62  F   UNL A   1      37.012  33.344  33.520  1.00  0.00    -0.200 F 
ENDBRANCH  28  52
BRANCH  40  63
ATOM     63  C   UNL A   1      46.152  34.110  29.120  1.00  0.00     0.064 A 
ATOM     64  C   UNL A   1      47.045  34.353  30.171  1.00  0.00     0.173 A 
ATOM     65  C   UNL A   1      45.937  35.133  28.183  1.00  0.00     0.173 A 
ATOM     66  F   UNL A   1      47.263  33.413  31.103  1.00  0.00    -0.203 F 
ATOM     67  C   UNL A   1      47.691  35.580  30.285  1.00  0.00     0.198 A 
ATOM     68  C   UNL A   1      46.610  36.344  28.281  1.00  0.00     0.198 A 
ATOM     69  F   UNL A   1      45.090  34.945  27.158  1.00  0.00    -0.203 F 
ATOM     70  F   UNL A   1      48.510  35.807  31.320  1.00  0.00    -0.200 F 
ATOM     71  C   UNL A   1      47.484  36.569  29.334  1.00  0.00     0.200 A 
ATOM     72  F   UNL A   1      46.422  37.291  27.351  1.00  0.00    -0.200 F 
ATOM     73  F   UNL A   1      48.124  37.740  29.434  1.00  0.00    -0.200 F 
ENDBRANCH  40  63
ENDBRANCH  14  15
ENDBRANCH   7   9
ENDBRANCH   6   7
ENDBRANCH   5   6
ENDBRANCH   4   5
ENDBRANCH   3   4
ENDBRANCH   2   3
ENDBRANCH   1   2
BRANCH   1  74
ATOM     74  O   UNL A   1      32.894  22.079  25.683  1.00  0.00    -0.376 OA
BRANCH  74  75
ATOM     75  C   UNL A   1      32.847  23.142  26.616  1.00  0.00     0.202 C 
BRANCH  75  76
ATOM     76  C   UNL A   1      31.475  23.776  26.874  1.00  0.00     0.261 C 
BRANCH  76  77
ATOM     77  O   UNL A   1      31.441  25.218  26.788  1.00  0.00    -0.461 OA
BRANCH  77  78
ATOM     78  C   UNL A   1      30.467  25.697  25.960  1.00  0.00     0.334 C 
ATOM     79  O   UNL A   1      29.262  25.585  26.183  1.00  0.00    -0.249 OA
BRANCH  78  80
ATOM     80  C   UNL A   1      30.967  26.464  24.737  1.00  0.00     0.232 C 
BRANCH  80  81
ATOM     81  N   UNL A   1      31.824  27.656  24.903  1.00  0.00    -0.274 N 
ATOM     82  C   UNL A   1      33.091  27.422  25.419  1.00  0.00     0.267 C 
ATOM     83  C   UNL A   1      31.464  28.978  24.817  1.00  0.00     0.149 C 
ATOM     84  O   UNL A   1      33.706  26.362  25.386  1.00  0.00    -0.268 OA
ATOM     85  C   UNL A   1      33.617  28.644  26.059  1.00  0.00     0.084 C 
ATOM     86  S   UNL A   1      32.541  29.952  25.804  1.00  0.00    -0.054 SA
ATOM     87  S   UNL A   1      30.308  29.700  23.870  1.00  0.00    -0.052 S 
ATOM     88  C   UNL A   1      34.774  28.628  26.729  1.00  0.00     0.068 C 
BRANCH  88  89
ATOM     89  C   UNL A   1      35.285  29.783  27.365  1.00  0.00     0.129 A 
ATOM     90  C   UNL A   1      36.600  30.135  27.632  1.00  0.00     0.051 A 
ATOM     91  O   UNL A   1      34.470  30.768  27.859  1.00  0.00    -0.454 OA
ATOM     92  C   UNL A   1      36.572  31.357  28.330  1.00  0.00     0.054 A 
ATOM     93  C   UNL A   1      35.245  31.717  28.466  1.00  0.00     0.163 A 
BRANCH  93  94
ATOM     94  C   UNL A   1      34.735  32.872  29.137  1.00  0.00     0.160 A 
ATOM     95  N   UNL A   1      34.815  32.982  30.444  1.00  0.00    -0.233 NA
ATOM     96  S   UNL A   1      33.924  34.138  28.320  1.00  0.00    -0.111 S 
ATOM     97  C   UNL A   1      34.157  34.121  30.854  1.00  0.00     0.082 A 
ATOM     98  C   UNL A   1      33.567  34.875  29.837  1.00  0.00     0.055 A 
ATOM     99  C   UNL A   1      34.024  34.545  32.189  1.00  0.00     0.030 A 
ATOM    100  C   UNL A   1      32.820  36.031  30.117  1.00  0.00     0.021 A 
ATOM    101  C   UNL A   1      33.284  35.692  32.479  1.00  0.00     0.002 A 
ATOM    102  C   UNL A   1      32.683  36.419  31.454  1.00  0.00     0.002 A 
ENDBRANCH  93  94
ENDBRANCH  88  89
ENDBRANCH  80  81
BRANCH  80 103
ATOM    103  C   UNL A   1      31.368  25.704  23.459  1.00  0.00    -0.014 A 
ATOM    104  C   UNL A   1      31.761  24.359  23.469  1.00  0.00     0.006 A 
ATOM    105  C   UNL A   1      31.689  26.479  22.322  1.00  0.00     0.006 A 
ATOM    106  C   UNL A   1      32.541  23.848  22.422  1.00  0.00     0.000 A 
ATOM    107  C   UNL A   1      32.451  25.961  21.276  1.00  0.00     0.000 A 
ATOM    108  C   UNL A   1      32.902  24.653  21.340  1.00  0.00     0.000 A 
ENDBRANCH  80 103
ENDBRANCH  78  80
ENDBRANCH  77  78
ENDBRANCH  76  77
ENDBRANCH  75  76
ENDBRANCH  74  75
ENDBRANCH   1  74
TORSDOF 21
ENDMDL
MODEL 2
REMARK VINA RESULT:     -10.2      4.596      8.327
REMARK SMILES O=C(OCCOCCOCCOC(=O)[C@H](c1ccccc1)N1C(=O)/C(=C/c2ccc(-c3nc4ccccc4s3)o2)SC1=S)c1ccc(-c2c3nc(c(-c4c(F)c(F)c(F)c(F)c4F)c4ccc([nH]4)c(-c4c(F)c(F)c(F)c(F)c4F)c4nc(c(-c5c(F)c(F)c(F)c(F)c5F)c5ccc2[nH]5)C=C4)C=C3)cc1
REMARK SMILES IDX 8 1 7 2 6 3 5 4 4 5 3 6 2 7 1 8 44 9 45 10 106 11 46 12
REMARK SMILES IDX 105 13 47 14 48 15 49 16 99 17 50 18 104 19 98 20 100 21
REMARK SMILES IDX 51 22 103 23 97 24 96 25 52 27 84 28 64 29 83 30 65 31 68 32
REMARK SMILES IDX 82 33 101 34 66 35 67 36 81 38 102 39 69 40 53 41 54 42
REMARK SMILES IDX 62 43 55 44 56 45 60 46 63 47 57 48 58 49 61 50 59 51 85 52
REMARK SMILES IDX 86 53 94 54 87 55 88 56 92 57 95 58 89 59 90 60 93 61 91 62
REMARK SMILES IDX 70 63 71 64 79 65 72 66 73 67 77 68 80 69 74 70 75 71 78 72
REMARK SMILES IDX 76 73 9 74 10 75 11 76 12 77 13 78 14 79 15 80 22 81 23 82
REMARK SMILES IDX 42 83 24 84 25 85 41 86 43 87 26 88 27 89 28 90 40 91 29 92
REMARK SMILES IDX 30 93 31 94 32 95 39 96 33 97 38 98 34 99 37 100 35 101
REMARK SMILES IDX 36 102 16 103 17 104 21 105 18 106 20 107 19 108
REMARK H PARENT 100 26 68 37
REMARK Flexibility Score: inf
ROOT
ATOM      1  C   UNL A   1      34.687  22.657  25.978  1.00  0.00     0.188 C 
ENDROOT
BRANCH   1   2
ATOM      2  C   UNL A   1      35.351  22.865  24.621  1.00  0.00     0.188 C 
BRANCH   2   3
ATOM      3  O   UNL A   1      36.611  23.527  24.712  1.00  0.00    -0.376 OA
BRANCH   3   4
ATOM      4  C   UNL A   1      37.448  23.101  25.786  1.00  0.00     0.202 C 
BRANCH   4   5
ATOM      5  C   UNL A   1      38.563  24.082  26.195  1.00  0.00     0.261 C 
BRANCH   5   6
ATOM      6  O   UNL A   1      39.335  23.692  27.353  1.00  0.00    -0.460 OA
BRANCH   6   7
ATOM      7  C   UNL A   1      40.397  22.873  27.489  1.00  0.00     0.338 C 
ATOM      8  O   UNL A   1      40.285  21.683  27.197  1.00  0.00    -0.246 OA
BRANCH   7   9
ATOM      9  C   UNL A   1      41.693  23.326  28.054  1.00  0.00     0.060 A 
ATOM     10  C   UNL A   1      42.705  22.470  28.474  1.00  0.00     0.016 A 
ATOM     11  C   UNL A   1      41.971  24.694  28.009  1.00  0.00     0.016 A 
ATOM     12  C   UNL A   1      43.929  22.938  28.943  1.00  0.00     0.010 A 
ATOM     13  C   UNL A   1      43.237  25.162  28.366  1.00  0.00     0.010 A 
ATOM     14  C   UNL A   1      44.221  24.291  28.872  1.00  0.00    -0.014 A 
BRANCH  14  15
ATOM     15  C   UNL A   1      45.493  24.834  29.416  1.00  0.00     0.031 A 
ATOM     16  C   UNL A   1      45.501  25.248  30.858  1.00  0.00     0.074 A 
ATOM     17  C   UNL A   1      46.602  24.982  28.662  1.00  0.00     0.049 A 
ATOM     18  N   UNL A   1      46.375  25.956  31.521  1.00  0.00    -0.248 NA
ATOM     19  C   UNL A   1      44.338  24.823  31.659  1.00  0.00     0.031 C 
ATOM     20  C   UNL A   1      46.774  24.536  27.280  1.00  0.00     0.029 A 
ATOM     21  N   UNL A   1      47.794  25.605  28.946  1.00  0.00    -0.354 N 
ATOM     22  C   UNL A   1      45.857  26.062  32.802  1.00  0.00     0.074 A 
ATOM     23  C   UNL A   1      44.535  25.482  32.786  1.00  0.00     0.031 C 
ATOM     24  C   UNL A   1      47.948  24.981  26.804  1.00  0.00     0.029 A 
ATOM     25  C   UNL A   1      48.613  25.744  27.849  1.00  0.00     0.049 A 
ATOM     26  H   UNL A   1      48.038  25.919  29.846  1.00  0.00     0.167 HD
ATOM     27  C   UNL A   1      46.466  26.511  33.923  1.00  0.00     0.037 A 
ATOM     28  C   UNL A   1      49.756  26.438  27.698  1.00  0.00     0.037 A 
ATOM     29  C   UNL A   1      47.805  27.020  33.940  1.00  0.00     0.049 A 
ATOM     30  C   UNL A   1      50.359  27.081  28.916  1.00  0.00     0.074 A 
ATOM     31  C   UNL A   1      48.553  27.452  35.017  1.00  0.00     0.029 A 
ATOM     32  N   UNL A   1      48.601  27.152  32.810  1.00  0.00    -0.354 N 
ATOM     33  N   UNL A   1      49.890  27.129  30.138  1.00  0.00    -0.248 NA
ATOM     34  C   UNL A   1      51.671  27.716  28.749  1.00  0.00     0.031 C 
ATOM     35  C   UNL A   1      49.794  27.881  34.531  1.00  0.00     0.029 A 
ATOM     36  C   UNL A   1      49.832  27.675  33.160  1.00  0.00     0.049 A 
ATOM     37  H   UNL A   1      48.329  26.910  31.896  1.00  0.00     0.167 HD
ATOM     38  C   UNL A   1      50.883  27.720  30.904  1.00  0.00     0.074 A 
ATOM     39  C   UNL A   1      51.967  28.043  29.998  1.00  0.00     0.031 C 
ATOM     40  C   UNL A   1      50.908  27.947  32.240  1.00  0.00     0.037 A 
BRANCH  27  41
ATOM     41  C   UNL A   1      45.679  26.410  35.195  1.00  0.00     0.064 A 
ATOM     42  C   UNL A   1      44.939  27.502  35.682  1.00  0.00     0.173 A 
ATOM     43  C   UNL A   1      45.731  25.251  35.979  1.00  0.00     0.173 A 
ATOM     44  F   UNL A   1      44.881  28.645  34.982  1.00  0.00    -0.203 F 
ATOM     45  C   UNL A   1      44.339  27.459  36.937  1.00  0.00     0.198 A 
ATOM     46  C   UNL A   1      45.097  25.199  37.218  1.00  0.00     0.198 A 
ATOM     47  F   UNL A   1      46.426  24.183  35.562  1.00  0.00    -0.203 F 
ATOM     48  F   UNL A   1      43.728  28.549  37.422  1.00  0.00    -0.200 F 
ATOM     49  C   UNL A   1      44.418  26.307  37.703  1.00  0.00     0.200 A 
ATOM     50  F   UNL A   1      45.169  24.084  37.959  1.00  0.00    -0.200 F 
ATOM     51  F   UNL A   1      43.860  26.274  38.921  1.00  0.00    -0.200 F 
ENDBRANCH  27  41
BRANCH  28  52
ATOM     52  C   UNL A   1      50.418  26.540  26.370  1.00  0.00     0.064 A 
ATOM     53  C   UNL A   1      49.907  27.376  25.367  1.00  0.00     0.173 A 
ATOM     54  C   UNL A   1      51.547  25.768  26.059  1.00  0.00     0.173 A 
ATOM     55  F   UNL A   1      48.822  28.125  25.612  1.00  0.00    -0.203 F 
ATOM     56  C   UNL A   1      50.474  27.406  24.094  1.00  0.00     0.198 A 
ATOM     57  C   UNL A   1      52.125  25.812  24.791  1.00  0.00     0.198 A 
ATOM     58  F   UNL A   1      52.083  24.961  26.986  1.00  0.00    -0.203 F 
ATOM     59  F   UNL A   1      49.929  28.175  23.141  1.00  0.00    -0.200 F 
ATOM     60  C   UNL A   1      51.580  26.622  23.805  1.00  0.00     0.200 A 
ATOM     61  F   UNL A   1      53.198  25.058  24.516  1.00  0.00    -0.200 F 
ATOM     62  F   UNL A   1      52.113  26.639  22.576  1.00  0.00    -0.200 F 
ENDBRANCH  28  52
BRANCH  40  63
ATOM     63  C   UNL A   1      52.180  28.483  32.819  1.00  0.00     0.064 A 
ATOM     64  C   UNL A   1      53.233  27.641  33.198  1.00  0.00     0.173 A 
ATOM     65  C   UNL A   1      52.365  29.869  32.934  1.00  0.00     0.173 A 
ATOM     66  F   UNL A   1      53.093  26.309  33.127  1.00  0.00    -0.203 F 
ATOM     67  C   UNL A   1      54.425  28.169  33.684  1.00  0.00     0.198 A 
ATOM     68  C   UNL A   1      53.569  30.394  33.387  1.00  0.00     0.198 A 
ATOM     69  F   UNL A   1      51.383  30.714  32.581  1.00  0.00    -0.203 F 
ATOM     70  F   UNL A   1      55.406  27.347  34.080  1.00  0.00    -0.200 F 
ATOM     71  C   UNL A   1      54.597  29.544  33.766  1.00  0.00     0.200 A 
ATOM     72  F   UNL A   1      53.738  31.722  33.448  1.00  0.00    -0.200 F 
ATOM     73  F   UNL A   1      55.752  30.050  34.214  1.00  0.00    -0.200 F 
ENDBRANCH  40  63
ENDBRANCH  14  15
ENDBRANCH   7   9
ENDBRANCH   6   7
ENDBRANCH   5   6
ENDBRANCH   4   5
ENDBRANCH   3   4
ENDBRANCH   2   3
ENDBRANCH   1   2
BRANCH   1  74
ATOM     74  O   UNL A   1      33.308  22.314  26.025  1.00  0.00    -0.376 OA
BRANCH  74  75
ATOM     75  C   UNL A   1      32.559  22.687  27.165  1.00  0.00     0.202 C 
BRANCH  75  76
ATOM     76  C   UNL A   1      31.242  23.431  26.915  1.00  0.00     0.261 C 
BRANCH  76  77
ATOM     77  O   UNL A   1      31.343  24.872  26.914  1.00  0.00    -0.461 OA
BRANCH  77  78
ATOM     78  C   UNL A   1      30.415  25.488  26.124  1.00  0.00     0.334 C 
ATOM     79  O   UNL A   1      29.224  25.588  26.417  1.00  0.00    -0.249 OA
BRANCH  78  80
ATOM     80  C   UNL A   1      30.963  26.127  24.849  1.00  0.00     0.232 C 
BRANCH  80  81
ATOM     81  N   UNL A   1      31.854  27.303  24.927  1.00  0.00    -0.274 N 
ATOM     82  C   UNL A   1      33.074  27.095  25.554  1.00  0.00     0.267 C 
ATOM     83  C   UNL A   1      31.553  28.615  24.655  1.00  0.00     0.149 C 
ATOM     84  O   UNL A   1      33.648  26.021  25.693  1.00  0.00    -0.268 OA
ATOM     85  C   UNL A   1      33.606  28.371  26.074  1.00  0.00     0.084 C 
ATOM     86  S   UNL A   1      32.601  29.670  25.588  1.00  0.00    -0.054 SA
ATOM     87  S   UNL A   1      30.489  29.248  23.550  1.00  0.00    -0.052 S 
ATOM     88  C   UNL A   1      34.715  28.402  26.820  1.00  0.00     0.068 C 
BRANCH  88  89
ATOM     89  C   UNL A   1      35.229  29.610  27.344  1.00  0.00     0.129 A 
ATOM     90  C   UNL A   1      36.546  30.027  27.474  1.00  0.00     0.051 A 
ATOM     91  O   UNL A   1      34.419  30.591  27.853  1.00  0.00    -0.454 OA
ATOM     92  C   UNL A   1      36.527  31.286  28.104  1.00  0.00     0.054 A 
ATOM     93  C   UNL A   1      35.202  31.603  28.336  1.00  0.00     0.163 A 
BRANCH  93  94
ATOM     94  C   UNL A   1      34.702  32.775  28.984  1.00  0.00     0.160 A 
ATOM     95  N   UNL A   1      34.909  32.976  30.267  1.00  0.00    -0.233 NA
ATOM     96  S   UNL A   1      33.747  33.946  28.181  1.00  0.00    -0.111 S 
ATOM     97  C   UNL A   1      34.236  34.108  30.672  1.00  0.00     0.082 A 
ATOM     98  C   UNL A   1      33.507  34.765  29.679  1.00  0.00     0.055 A 
ATOM     99  C   UNL A   1      34.218  34.614  31.985  1.00  0.00     0.030 A 
ATOM    100  C   UNL A   1      32.733  35.901  29.964  1.00  0.00     0.021 A 
ATOM    101  C   UNL A   1      33.451  35.742  32.280  1.00  0.00     0.002 A 
ATOM    102  C   UNL A   1      32.712  36.371  31.282  1.00  0.00     0.002 A 
ENDBRANCH  93  94
ENDBRANCH  88  89
ENDBRANCH  80  81
BRANCH  80 103
ATOM    103  C   UNL A   1      31.364  25.244  23.652  1.00  0.00    -0.014 A 
ATOM    104  C   UNL A   1      31.229  23.849  23.662  1.00  0.00     0.006 A 
ATOM    105  C   UNL A   1      32.213  25.821  22.682  1.00  0.00     0.006 A 
ATOM    106  C   UNL A   1      32.004  23.063  22.797  1.00  0.00     0.000 A 
ATOM    107  C   UNL A   1      32.968  25.035  21.813  1.00  0.00     0.000 A 
ATOM    108  C   UNL A   1      32.886  23.655  21.890  1.00  0.00     0.000 A 
ENDBRANCH  80 103
ENDBRANCH  78  80
ENDBRANCH  77  78
ENDBRANCH  76  77
ENDBRANCH  75  76
ENDBRANCH  74  75
ENDBRANCH   1  74
TORSDOF 21
ENDMDL
MODEL 3
REMARK VINA RESULT:     -10.0      5.847      7.633
REMARK SMILES O=C(OCCOCCOCCOC(=O)[C@H](c1ccccc1)N1C(=O)/C(=C/c2ccc(-c3nc4ccccc4s3)o2)SC1=S)c1ccc(-c2c3nc(c(-c4c(F)c(F)c(F)c(F)c4F)c4ccc([nH]4)c(-c4c(F)c(F)c(F)c(F)c4F)c4nc(c(-c5c(F)c(F)c(F)c(F)c5F)c5ccc2[nH]5)C=C4)C=C3)cc1
REMARK SMILES IDX 8 1 7 2 6 3 5 4 4 5 3 6 2 7 1 8 44 9 45 10 106 11 46 12
REMARK SMILES IDX 105 13 47 14 48 15 49 16 99 17 50 18 104 19 98 20 100 21
REMARK SMILES IDX 51 22 103 23 97 24 96 25 52 27 84 28 64 29 83 30 65 31 68 32
REMARK SMILES IDX 82 33 101 34 66 35 67 36 81 38 102 39 69 40 53 41 54 42
REMARK SMILES IDX 62 43 55 44 56 45 60 46 63 47 57 48 58 49 61 50 59 51 85 52
REMARK SMILES IDX 86 53 94 54 87 55 88 56 92 57 95 58 89 59 90 60 93 61 91 62
REMARK SMILES IDX 70 63 71 64 79 65 72 66 73 67 77 68 80 69 74 70 75 71 78 72
REMARK SMILES IDX 76 73 9 74 10 75 11 76 12 77 13 78 14 79 15 80 22 81 23 82
REMARK SMILES IDX 42 83 24 84 25 85 41 86 43 87 26 88 27 89 28 90 40 91 29 92
REMARK SMILES IDX 30 93 31 94 32 95 39 96 33 97 38 98 34 99 37 100 35 101
REMARK SMILES IDX 36 102 16 103 17 104 21 105 18 106 20 107 19 108
REMARK H PARENT 100 26 68 37
REMARK Flexibility Score: inf
ROOT
ATOM      1  C   UNL A   1      35.564  23.153  26.183  1.00  0.00     0.188 C 
ENDROOT
BRANCH   1   2
ATOM      2  C   UNL A   1      36.502  23.787  25.161  1.00  0.00     0.188 C 
BRANCH   2   3
ATOM      3  O   UNL A   1      37.843  23.905  25.631  1.00  0.00    -0.376 OA
BRANCH   3   4
ATOM      4  C   UNL A   1      38.340  22.775  26.346  1.00  0.00     0.202 C 
BRANCH   4   5
ATOM      5  C   UNL A   1      39.778  22.903  26.885  1.00  0.00     0.261 C 
BRANCH   5   6
ATOM      6  O   UNL A   1      40.366  24.218  26.770  1.00  0.00    -0.460 OA
BRANCH   6   7
ATOM      7  C   UNL A   1      40.568  25.194  27.677  1.00  0.00     0.338 C 
ATOM      8  O   UNL A   1      39.693  26.038  27.863  1.00  0.00    -0.246 OA
BRANCH   7   9
ATOM      9  C   UNL A   1      41.843  25.346  28.422  1.00  0.00     0.060 A 
ATOM     10  C   UNL A   1      42.204  26.488  29.130  1.00  0.00     0.016 A 
ATOM     11  C   UNL A   1      42.652  24.216  28.551  1.00  0.00     0.016 A 
ATOM     12  C   UNL A   1      43.383  26.567  29.863  1.00  0.00     0.010 A 
ATOM     13  C   UNL A   1      43.775  24.250  29.379  1.00  0.00     0.010 A 
ATOM     14  C   UNL A   1      44.174  25.440  30.019  1.00  0.00    -0.014 A 
BRANCH  14  15
ATOM     15  C   UNL A   1      45.469  25.501  30.746  1.00  0.00     0.031 A 
ATOM     16  C   UNL A   1      46.686  25.867  29.949  1.00  0.00     0.074 A 
ATOM     17  C   UNL A   1      45.578  25.221  32.061  1.00  0.00     0.049 A 
ATOM     18  N   UNL A   1      47.950  25.769  30.260  1.00  0.00    -0.248 NA
ATOM     19  C   UNL A   1      46.438  26.394  28.595  1.00  0.00     0.031 C 
ATOM     20  C   UNL A   1      44.475  24.946  32.982  1.00  0.00     0.029 A 
ATOM     21  N   UNL A   1      46.695  25.069  32.849  1.00  0.00    -0.354 N 
ATOM     22  C   UNL A   1      48.633  26.213  29.139  1.00  0.00     0.074 A 
ATOM     23  C   UNL A   1      47.660  26.435  28.096  1.00  0.00     0.031 C 
ATOM     24  C   UNL A   1      44.964  24.565  34.172  1.00  0.00     0.029 A 
ATOM     25  C   UNL A   1      46.417  24.569  34.100  1.00  0.00     0.049 A 
ATOM     26  H   UNL A   1      47.603  25.297  32.547  1.00  0.00     0.167 HD
ATOM     27  C   UNL A   1      49.947  26.509  29.014  1.00  0.00     0.037 A 
ATOM     28  C   UNL A   1      47.246  24.133  35.066  1.00  0.00     0.037 A 
ATOM     29  C   UNL A   1      50.893  26.351  30.077  1.00  0.00     0.049 A 
ATOM     30  C   UNL A   1      48.725  24.311  34.864  1.00  0.00     0.074 A 
ATOM     31  C   UNL A   1      52.237  26.667  30.096  1.00  0.00     0.029 A 
ATOM     32  N   UNL A   1      50.577  25.836  31.328  1.00  0.00    -0.354 N 
ATOM     33  N   UNL A   1      49.361  24.785  33.821  1.00  0.00    -0.248 NA
ATOM     34  C   UNL A   1      49.596  23.950  35.988  1.00  0.00     0.031 C 
ATOM     35  C   UNL A   1      52.744  26.308  31.350  1.00  0.00     0.029 A 
ATOM     36  C   UNL A   1      51.707  25.810  32.124  1.00  0.00     0.049 A 
ATOM     37  H   UNL A   1      49.683  25.534  31.606  1.00  0.00     0.167 HD
ATOM     38  C   UNL A   1      50.695  24.859  34.191  1.00  0.00     0.074 A 
ATOM     39  C   UNL A   1      50.778  24.351  35.545  1.00  0.00     0.031 C 
ATOM     40  C   UNL A   1      51.750  25.335  33.485  1.00  0.00     0.037 A 
BRANCH  27  41
ATOM     41  C   UNL A   1      50.381  27.070  27.693  1.00  0.00     0.064 A 
ATOM     42  C   UNL A   1      50.392  28.456  27.458  1.00  0.00     0.173 A 
ATOM     43  C   UNL A   1      50.705  26.222  26.626  1.00  0.00     0.173 A 
ATOM     44  F   UNL A   1      50.061  29.310  28.439  1.00  0.00    -0.203 F 
ATOM     45  C   UNL A   1      50.643  28.966  26.188  1.00  0.00     0.198 A 
ATOM     46  C   UNL A   1      50.994  26.739  25.366  1.00  0.00     0.198 A 
ATOM     47  F   UNL A   1      50.707  24.892  26.797  1.00  0.00    -0.203 F 
ATOM     48  F   UNL A   1      50.545  30.285  25.968  1.00  0.00    -0.200 F 
ATOM     49  C   UNL A   1      50.945  28.108  25.144  1.00  0.00     0.200 A 
ATOM     50  F   UNL A   1      51.290  25.910  24.356  1.00  0.00    -0.200 F 
ATOM     51  F   UNL A   1      51.164  28.598  23.916  1.00  0.00    -0.200 F 
ENDBRANCH  27  41
BRANCH  28  52
ATOM     52  C   UNL A   1      46.711  23.518  36.310  1.00  0.00     0.064 A 
ATOM     53  C   UNL A   1      46.452  24.292  37.450  1.00  0.00     0.173 A 
ATOM     54  C   UNL A   1      46.494  22.134  36.401  1.00  0.00     0.173 A 
ATOM     55  F   UNL A   1      46.656  25.617  37.416  1.00  0.00    -0.203 F 
ATOM     56  C   UNL A   1      46.035  23.704  38.643  1.00  0.00     0.198 A 
ATOM     57  C   UNL A   1      46.059  21.549  37.591  1.00  0.00     0.198 A 
ATOM     58  F   UNL A   1      46.715  21.350  35.337  1.00  0.00    -0.203 F 
ATOM     59  F   UNL A   1      45.848  24.464  39.731  1.00  0.00    -0.200 F 
ATOM     60  C   UNL A   1      45.842  22.333  38.714  1.00  0.00     0.200 A 
ATOM     61  F   UNL A   1      45.868  20.224  37.654  1.00  0.00    -0.200 F 
ATOM     62  F   UNL A   1      45.458  21.767  39.867  1.00  0.00    -0.200 F 
ENDBRANCH  28  52
BRANCH  40  63
ATOM     63  C   UNL A   1      53.065  25.420  34.195  1.00  0.00     0.064 A 
ATOM     64  C   UNL A   1      54.004  24.382  34.141  1.00  0.00     0.173 A 
ATOM     65  C   UNL A   1      53.410  26.591  34.886  1.00  0.00     0.173 A 
ATOM     66  F   UNL A   1      53.708  23.236  33.511  1.00  0.00    -0.203 F 
ATOM     67  C   UNL A   1      55.241  24.510  34.766  1.00  0.00     0.198 A 
ATOM     68  C   UNL A   1      54.659  26.729  35.479  1.00  0.00     0.198 A 
ATOM     69  F   UNL A   1      52.543  27.613  34.963  1.00  0.00    -0.203 F 
ATOM     70  F   UNL A   1      56.109  23.491  34.738  1.00  0.00    -0.200 F 
ATOM     71  C   UNL A   1      55.572  25.687  35.423  1.00  0.00     0.200 A 
ATOM     72  F   UNL A   1      54.983  27.873  36.098  1.00  0.00    -0.200 F 
ATOM     73  F   UNL A   1      56.771  25.815  36.005  1.00  0.00    -0.200 F 
ENDBRANCH  40  63
ENDBRANCH  14  15
ENDBRANCH   7   9
ENDBRANCH   6   7
ENDBRANCH   5   6
ENDBRANCH   4   5
ENDBRANCH   3   4
ENDBRANCH   2   3
ENDBRANCH   1   2
BRANCH   1  74
ATOM     74  O   UNL A   1      34.219  22.886  25.811  1.00  0.00    -0.376 OA
BRANCH  74  75
ATOM     75  C   UNL A   1      33.288  22.569  26.828  1.00  0.00     0.202 C 
BRANCH  75  76
ATOM     76  C   UNL A   1      31.994  23.389  26.860  1.00  0.00     0.261 C 
BRANCH  76  77
ATOM     77  O   UNL A   1      32.160  24.806  26.627  1.00  0.00    -0.461 OA
BRANCH  77  78
ATOM     78  C   UNL A   1      31.073  25.399  26.050  1.00  0.00     0.334 C 
ATOM     79  O   UNL A   1      29.925  25.293  26.480  1.00  0.00    -0.249 OA
BRANCH  78  80
ATOM     80  C   UNL A   1      31.377  26.286  24.844  1.00  0.00     0.232 C 
BRANCH  80  81
ATOM     81  N   UNL A   1      32.154  27.532  25.010  1.00  0.00    -0.274 N 
ATOM     82  C   UNL A   1      33.472  27.371  25.414  1.00  0.00     0.267 C 
ATOM     83  C   UNL A   1      31.692  28.824  25.025  1.00  0.00     0.149 C 
ATOM     84  O   UNL A   1      34.159  26.366  25.275  1.00  0.00    -0.268 OA
ATOM     85  C   UNL A   1      33.957  28.598  26.079  1.00  0.00     0.084 C 
ATOM     86  S   UNL A   1      32.770  29.829  25.980  1.00  0.00    -0.054 SA
ATOM     87  S   UNL A   1      30.413  29.500  24.211  1.00  0.00    -0.052 S 
ATOM     88  C   UNL A   1      35.162  28.638  26.657  1.00  0.00     0.068 C 
BRANCH  88  89
ATOM     89  C   UNL A   1      35.635  29.796  27.316  1.00  0.00     0.129 A 
ATOM     90  C   UNL A   1      36.920  30.112  27.731  1.00  0.00     0.051 A 
ATOM     91  O   UNL A   1      34.805  30.825  27.676  1.00  0.00    -0.454 OA
ATOM     92  C   UNL A   1      36.855  31.358  28.383  1.00  0.00     0.054 A 
ATOM     93  C   UNL A   1      35.536  31.767  28.344  1.00  0.00     0.163 A 
BRANCH  93  94
ATOM     94  C   UNL A   1      34.993  32.962  28.912  1.00  0.00     0.160 A 
ATOM     95  N   UNL A   1      34.903  33.108  30.215  1.00  0.00    -0.233 NA
ATOM     96  S   UNL A   1      34.356  34.236  27.963  1.00  0.00    -0.111 S 
ATOM     97  C   UNL A   1      34.247  34.285  30.505  1.00  0.00     0.082 A 
ATOM     98  C   UNL A   1      33.832  35.032  29.400  1.00  0.00     0.055 A 
ATOM     99  C   UNL A   1      33.957  34.754  31.799  1.00  0.00     0.030 A 
ATOM    100  C   UNL A   1      33.107  36.225  29.548  1.00  0.00     0.021 A 
ATOM    101  C   UNL A   1      33.236  35.938  31.958  1.00  0.00     0.002 A 
ATOM    102  C   UNL A   1      32.810  36.658  30.845  1.00  0.00     0.002 A 
ENDBRANCH  93  94
ENDBRANCH  88  89
ENDBRANCH  80  81
BRANCH  80 103
ATOM    103  C   UNL A   1      31.691  25.651  23.476  1.00  0.00    -0.014 A 
ATOM    104  C   UNL A   1      32.268  24.380  23.346  1.00  0.00     0.006 A 
ATOM    105  C   UNL A   1      31.730  26.514  22.358  1.00  0.00     0.006 A 
ATOM    106  C   UNL A   1      32.952  24.037  22.171  1.00  0.00     0.000 A 
ATOM    107  C   UNL A   1      32.398  26.161  21.186  1.00  0.00     0.000 A 
ATOM    108  C   UNL A   1      33.034  24.933  21.104  1.00  0.00     0.000 A 
ENDBRANCH  80 103
ENDBRANCH  78  80
ENDBRANCH  77  78
ENDBRANCH  76  77
ENDBRANCH  75  76
ENDBRANCH  74  75
ENDBRANCH   1  74
TORSDOF 21
ENDMDL
