MODEL 1
REMARK VINA RESULT:     -11.8      0.000      0.000
REMARK SMILES CN1N[C@H](C(=O)N[C@@H](CC2=c3ccccc3=NC2)C(=O)OCCOCCOCCOC(=O)c2ccc(-c3c4nc(c(-c5c(F)c(F)c(F)c(F)c5F)c5ccc([nH]5)c(-c5c(F)c(F)c(F)c(F)c5F)c5nc(c(-c6c(F)c(F)c(F)c(F)c6F)c6ccc3[nH]6)C=C5)C=C4)cc2)c2ccccc2C1=O
REMARK SMILES IDX 25 1 24 2 23 3 22 4 21 5 19 6 20 7 8 8 7 9 5 10 6 11 4 13
REMARK SMILES IDX 1 14 2 15 3 16 102 17 101 19 103 20 96 21 100 22 97 23 99 24
REMARK SMILES IDX 98 25 9 26 10 27 11 28 18 29 12 30 16 31 17 32 13 33 15 34
REMARK SMILES IDX 14 35 26 36 27 37 28 38 29 39 30 40 31 41 32 42 33 43 34 44
REMARK SMILES IDX 95 45 35 46 94 47 36 48 37 49 38 50 88 51 39 52 93 53 87 54
REMARK SMILES IDX 89 55 40 56 92 57 86 58 85 59 41 61 73 62 53 63 72 64 54 65
REMARK SMILES IDX 57 66 71 67 90 68 55 69 56 70 70 72 91 73 58 74 42 75 43 76
REMARK SMILES IDX 51 77 44 78 45 79 49 80 52 81 46 82 47 83 50 84 48 85 74 86
REMARK SMILES IDX 75 87 83 88 76 89 77 90 81 91 84 92 78 93 79 94 82 95 80 96
REMARK SMILES IDX 59 97 60 98 68 99 61 100 62 101 66 102 69 103 63 104 64 105
REMARK SMILES IDX 67 106 65 107
REMARK H PARENT 7 12 3 18 89 60 57 71
REMARK Flexibility Score: inf
ROOT
ATOM      1  C   UNL A   1      39.976  21.833  26.899  1.00  0.00     0.188 C 
ENDROOT
BRANCH   1   2
ATOM      2  O   UNL A   1      39.276  21.387  25.743  1.00  0.00    -0.376 OA
BRANCH   2   3
ATOM      3  C   UNL A   1      37.920  21.833  25.638  1.00  0.00     0.202 C 
BRANCH   3   4
ATOM      4  C   UNL A   1      37.585  23.290  25.231  1.00  0.00     0.261 C 
BRANCH   4   5
ATOM      5  O   UNL A   1      36.210  23.535  24.906  1.00  0.00    -0.462 OA
BRANCH   5   6
ATOM      6  C   UNL A   1      35.824  23.324  23.618  1.00  0.00     0.329 C 
ATOM      7  O   UNL A   1      36.569  22.892  22.747  1.00  0.00    -0.250 OA
BRANCH   6   8
ATOM      8  C   UNL A   1      34.393  23.861  23.350  1.00  0.00     0.196 C 
BRANCH   8   9
ATOM      9  N   UNL A   1      34.162  24.943  22.359  1.00  0.00    -0.341 N 
ATOM     10  C   UNL A   1      33.470  26.125  22.429  1.00  0.00     0.244 C 
ATOM     11  O   UNL A   1      33.172  26.663  21.356  1.00  0.00    -0.273 OA
ATOM     12  H   UNL A   1      34.587  24.782  21.486  1.00  0.00     0.164 HD
BRANCH  10  13
ATOM     13  C   UNL A   1      33.148  26.834  23.772  1.00  0.00     0.195 C 
ATOM     14  C   UNL A   1      34.494  29.350  25.959  1.00  0.00     0.169 C 
ATOM     15  N   UNL A   1      33.567  28.858  24.961  1.00  0.00    -0.276 N 
ATOM     16  N   UNL A   1      34.028  28.006  23.917  1.00  0.00    -0.215 NA
ATOM     17  C   UNL A   1      32.257  29.346  24.920  1.00  0.00     0.268 C 
ATOM     18  H   UNL A   1      34.973  27.690  24.135  1.00  0.00     0.149 HD
ATOM     19  C   UNL A   1      31.294  28.490  24.182  1.00  0.00     0.046 A 
ATOM     20  O   UNL A   1      31.862  30.335  25.528  1.00  0.00    -0.268 OA
ATOM     21  C   UNL A   1      31.688  27.201  23.824  1.00  0.00    -0.007 A 
ATOM     22  C   UNL A   1      29.992  28.912  23.921  1.00  0.00     0.014 A 
ATOM     23  C   UNL A   1      30.720  26.279  23.431  1.00  0.00     0.007 A 
ATOM     24  C   UNL A   1      29.078  28.021  23.353  1.00  0.00     0.001 A 
ATOM     25  C   UNL A   1      29.420  26.687  23.177  1.00  0.00     0.000 A 
ENDBRANCH  10  13
ENDBRANCH   8   9
BRANCH   8  26
ATOM     26  C   UNL A   1      33.521  22.633  22.992  1.00  0.00     0.070 C 
BRANCH  26  27
ATOM     27  C   UNL A   1      32.627  21.930  24.052  1.00  0.00    -0.037 C 
ATOM     28  C   UNL A   1      32.613  22.295  25.343  1.00  0.00     0.001 A 
ATOM     29  C   UNL A   1      32.942  20.445  24.040  1.00  0.00     0.174 C 
ATOM     30  C   UNL A   1      31.551  22.702  26.233  1.00  0.00     0.010 A 
ATOM     31  C   UNL A   1      33.532  21.286  25.930  1.00  0.00     0.065 A 
ATOM     32  N   UNL A   1      33.812  20.240  25.221  1.00  0.00    -0.280 NA
ATOM     33  C   UNL A   1      31.807  22.684  27.557  1.00  0.00     0.001 A 
ATOM     34  C   UNL A   1      33.993  21.612  27.294  1.00  0.00     0.028 A 
ATOM     35  C   UNL A   1      33.129  22.312  28.052  1.00  0.00     0.002 A 
ENDBRANCH  26  27
ENDBRANCH   8  26
ENDBRANCH   6   8
ENDBRANCH   5   6
ENDBRANCH   4   5
ENDBRANCH   3   4
ENDBRANCH   2   3
ENDBRANCH   1   2
BRANCH   1  36
ATOM     36  C   UNL A   1      41.486  21.667  26.844  1.00  0.00     0.188 C 
BRANCH  36  37
ATOM     37  O   UNL A   1      41.989  21.532  25.528  1.00  0.00    -0.376 OA
BRANCH  37  38
ATOM     38  C   UNL A   1      43.406  21.432  25.461  1.00  0.00     0.202 C 
BRANCH  38  39
ATOM     39  C   UNL A   1      44.139  22.774  25.606  1.00  0.00     0.261 C 
BRANCH  39  40
ATOM     40  O   UNL A   1      43.378  23.925  25.175  1.00  0.00    -0.460 OA
BRANCH  40  41
ATOM     41  C   UNL A   1      43.972  25.145  25.319  1.00  0.00     0.338 C 
ATOM     42  O   UNL A   1      44.844  25.617  24.618  1.00  0.00    -0.246 OA
BRANCH  41  43
ATOM     43  C   UNL A   1      43.308  25.907  26.415  1.00  0.00     0.060 A 
ATOM     44  C   UNL A   1      42.276  25.352  27.179  1.00  0.00     0.016 A 
ATOM     45  C   UNL A   1      43.724  27.217  26.674  1.00  0.00     0.016 A 
ATOM     46  C   UNL A   1      41.641  26.112  28.175  1.00  0.00     0.010 A 
ATOM     47  C   UNL A   1      43.047  27.995  27.626  1.00  0.00     0.010 A 
ATOM     48  C   UNL A   1      42.001  27.450  28.396  1.00  0.00    -0.014 A 
BRANCH  48  49
ATOM     49  C   UNL A   1      41.466  28.215  29.562  1.00  0.00     0.031 A 
ATOM     50  C   UNL A   1      40.241  29.091  29.515  1.00  0.00     0.074 A 
ATOM     51  C   UNL A   1      42.148  28.113  30.715  1.00  0.00     0.049 A 
ATOM     52  N   UNL A   1      39.764  29.922  30.413  1.00  0.00    -0.248 NA
ATOM     53  C   UNL A   1      39.451  29.040  28.289  1.00  0.00     0.031 C 
ATOM     54  C   UNL A   1      43.322  27.264  30.915  1.00  0.00     0.029 A 
ATOM     55  N   UNL A   1      41.966  28.732  31.922  1.00  0.00    -0.354 N 
ATOM     56  C   UNL A   1      38.657  30.536  29.828  1.00  0.00     0.074 A 
ATOM     57  C   UNL A   1      38.555  30.001  28.486  1.00  0.00     0.031 C 
ATOM     58  C   UNL A   1      43.780  27.442  32.161  1.00  0.00     0.029 A 
ATOM     59  C   UNL A   1      42.927  28.411  32.843  1.00  0.00     0.049 A 
ATOM     60  H   UNL A   1      41.219  29.346  32.109  1.00  0.00     0.167 HD
ATOM     61  C   UNL A   1      37.787  31.426  30.375  1.00  0.00     0.037 A 
ATOM     62  C   UNL A   1      43.104  28.836  34.105  1.00  0.00     0.037 A 
ATOM     63  C   UNL A   1      37.826  31.841  31.761  1.00  0.00     0.049 A 
ATOM     64  C   UNL A   1      42.093  29.754  34.717  1.00  0.00     0.074 A 
ATOM     65  C   UNL A   1      36.929  32.640  32.450  1.00  0.00     0.029 A 
ATOM     66  N   UNL A   1      38.798  31.460  32.675  1.00  0.00    -0.354 N 
ATOM     67  N   UNL A   1      41.047  30.318  34.164  1.00  0.00    -0.248 NA
ATOM     68  C   UNL A   1      42.259  30.056  36.143  1.00  0.00     0.031 C 
ATOM     69  C   UNL A   1      37.370  32.764  33.771  1.00  0.00     0.029 A 
ATOM     70  C   UNL A   1      38.513  31.998  33.922  1.00  0.00     0.049 A 
ATOM     71  H   UNL A   1      39.574  30.891  32.469  1.00  0.00     0.167 HD
ATOM     72  C   UNL A   1      40.408  31.013  35.180  1.00  0.00     0.074 A 
ATOM     73  C   UNL A   1      41.178  30.784  36.387  1.00  0.00     0.031 C 
ATOM     74  C   UNL A   1      39.282  31.765  35.117  1.00  0.00     0.037 A 
BRANCH  61  75
ATOM     75  C   UNL A   1      36.667  31.987  29.527  1.00  0.00     0.064 A 
ATOM     76  C   UNL A   1      35.548  31.218  29.172  1.00  0.00     0.173 A 
ATOM     77  C   UNL A   1      36.639  33.355  29.192  1.00  0.00     0.173 A 
ATOM     78  F   UNL A   1      35.501  29.913  29.476  1.00  0.00    -0.203 F 
ATOM     79  C   UNL A   1      34.463  31.783  28.502  1.00  0.00     0.198 A 
ATOM     80  C   UNL A   1      35.535  33.924  28.555  1.00  0.00     0.198 A 
ATOM     81  F   UNL A   1      37.659  34.157  29.532  1.00  0.00    -0.203 F 
ATOM     82  F   UNL A   1      33.421  31.015  28.153  1.00  0.00    -0.200 F 
ATOM     83  C   UNL A   1      34.450  33.136  28.206  1.00  0.00     0.200 A 
ATOM     84  F   UNL A   1      35.509  35.242  28.307  1.00  0.00    -0.200 F 
ATOM     85  F   UNL A   1      33.388  33.684  27.598  1.00  0.00    -0.200 F 
ENDBRANCH  61  75
BRANCH  62  86
ATOM     86  C   UNL A   1      44.241  28.285  34.877  1.00  0.00     0.064 A 
ATOM     87  C   UNL A   1      44.107  27.078  35.573  1.00  0.00     0.173 A 
ATOM     88  C   UNL A   1      45.507  28.888  34.839  1.00  0.00     0.173 A 
ATOM     89  F   UNL A   1      42.914  26.468  35.632  1.00  0.00    -0.203 F 
ATOM     90  C   UNL A   1      45.197  26.493  36.211  1.00  0.00     0.198 A 
ATOM     91  C   UNL A   1      46.603  28.288  35.452  1.00  0.00     0.198 A 
ATOM     92  F   UNL A   1      45.688  30.030  34.159  1.00  0.00    -0.203 F 
ATOM     93  F   UNL A   1      45.039  25.345  36.883  1.00  0.00    -0.200 F 
ATOM     94  C   UNL A   1      46.446  27.092  36.139  1.00  0.00     0.200 A 
ATOM     95  F   UNL A   1      47.814  28.852  35.356  1.00  0.00    -0.200 F 
ATOM     96  F   UNL A   1      47.501  26.513  36.727  1.00  0.00    -0.200 F 
ENDBRANCH  62  86
BRANCH  74  97
ATOM     97  C   UNL A   1      38.791  32.368  36.403  1.00  0.00     0.064 A 
ATOM     98  C   UNL A   1      39.094  33.690  36.761  1.00  0.00     0.173 A 
ATOM     99  C   UNL A   1      37.992  31.618  37.280  1.00  0.00     0.173 A 
ATOM    100  F   UNL A   1      39.864  34.445  35.962  1.00  0.00    -0.203 F 
ATOM    101  C   UNL A   1      38.650  34.225  37.966  1.00  0.00     0.198 A 
ATOM    102  C   UNL A   1      37.520  32.169  38.469  1.00  0.00     0.198 A 
ATOM    103  F   UNL A   1      37.664  30.351  36.985  1.00  0.00    -0.203 F 
ATOM    104  F   UNL A   1      39.007  35.469  38.315  1.00  0.00    -0.200 F 
ATOM    105  C   UNL A   1      37.860  33.468  38.816  1.00  0.00     0.200 A 
ATOM    106  F   UNL A   1      36.744  31.440  39.283  1.00  0.00    -0.200 F 
ATOM    107  F   UNL A   1      37.433  33.986  39.976  1.00  0.00    -0.200 F 
ENDBRANCH  74  97
ENDBRANCH  48  49
ENDBRANCH  41  43
ENDBRANCH  40  41
ENDBRANCH  39  40
ENDBRANCH  38  39
ENDBRANCH  37  38
ENDBRANCH  36  37
ENDBRANCH   1  36
TORSDOF 21
ENDMDL
MODEL 2
REMARK VINA RESULT:     -11.7      4.936     10.678
REMARK SMILES CN1N[C@H](C(=O)N[C@@H](CC2=c3ccccc3=NC2)C(=O)OCCOCCOCCOC(=O)c2ccc(-c3c4nc(c(-c5c(F)c(F)c(F)c(F)c5F)c5ccc([nH]5)c(-c5c(F)c(F)c(F)c(F)c5F)c5nc(c(-c6c(F)c(F)c(F)c(F)c6F)c6ccc3[nH]6)C=C5)C=C4)cc2)c2ccccc2C1=O
REMARK SMILES IDX 25 1 24 2 23 3 22 4 21 5 19 6 20 7 8 8 7 9 5 10 6 11 4 13
REMARK SMILES IDX 1 14 2 15 3 16 102 17 101 19 103 20 96 21 100 22 97 23 99 24
REMARK SMILES IDX 98 25 9 26 10 27 11 28 18 29 12 30 16 31 17 32 13 33 15 34
REMARK SMILES IDX 14 35 26 36 27 37 28 38 29 39 30 40 31 41 32 42 33 43 34 44
REMARK SMILES IDX 95 45 35 46 94 47 36 48 37 49 38 50 88 51 39 52 93 53 87 54
REMARK SMILES IDX 89 55 40 56 92 57 86 58 85 59 41 61 73 62 53 63 72 64 54 65
REMARK SMILES IDX 57 66 71 67 90 68 55 69 56 70 70 72 91 73 58 74 42 75 43 76
REMARK SMILES IDX 51 77 44 78 45 79 49 80 52 81 46 82 47 83 50 84 48 85 74 86
REMARK SMILES IDX 75 87 83 88 76 89 77 90 81 91 84 92 78 93 79 94 82 95 80 96
REMARK SMILES IDX 59 97 60 98 68 99 61 100 62 101 66 102 69 103 63 104 64 105
REMARK SMILES IDX 67 106 65 107
REMARK H PARENT 7 12 3 18 89 60 57 71
REMARK Flexibility Score: inf
ROOT
ATOM      1  C   UNL A   1      34.629  31.880  28.003  1.00  0.00     0.188 C 
ENDROOT
BRANCH   1   2
ATOM      2  O   UNL A   1      35.632  30.901  27.760  1.00  0.00    -0.376 OA
BRANCH   2   3
ATOM      3  C   UNL A   1      35.158  29.557  27.625  1.00  0.00     0.202 C 
BRANCH   3   4
ATOM      4  C   UNL A   1      34.072  29.191  26.583  1.00  0.00     0.261 C 
BRANCH   4   5
ATOM      5  O   UNL A   1      33.588  27.842  26.648  1.00  0.00    -0.462 OA
BRANCH   5   6
ATOM      6  C   UNL A   1      32.260  27.665  26.883  1.00  0.00     0.329 C 
ATOM      7  O   UNL A   1      31.649  28.219  27.789  1.00  0.00    -0.250 OA
BRANCH   6   8
ATOM      8  C   UNL A   1      31.659  26.551  25.985  1.00  0.00     0.196 C 
BRANCH   8   9
ATOM      9  N   UNL A   1      31.114  25.306  26.583  1.00  0.00    -0.341 N 
ATOM     10  C   UNL A   1      30.931  24.044  26.080  1.00  0.00     0.244 C 
ATOM     11  O   UNL A   1      30.154  23.303  26.694  1.00  0.00    -0.273 OA
ATOM     12  H   UNL A   1      30.830  25.406  27.520  1.00  0.00     0.164 HD
BRANCH  10  13
ATOM     13  C   UNL A   1      31.720  23.503  24.857  1.00  0.00     0.195 C 
ATOM     14  C   UNL A   1      32.802  24.542  21.589  1.00  0.00     0.169 C 
ATOM     15  N   UNL A   1      33.007  24.243  22.991  1.00  0.00    -0.276 N 
ATOM     16  N   UNL A   1      32.030  24.625  23.954  1.00  0.00    -0.215 NA
ATOM     17  C   UNL A   1      34.234  23.730  23.425  1.00  0.00     0.268 C 
ATOM     18  H   UNL A   1      31.178  24.910  23.470  1.00  0.00     0.149 HD
ATOM     19  C   UNL A   1      34.198  23.062  24.751  1.00  0.00     0.046 A 
ATOM     20  O   UNL A   1      35.258  23.707  22.751  1.00  0.00    -0.268 OA
ATOM     21  C   UNL A   1      32.957  22.779  25.319  1.00  0.00    -0.007 A 
ATOM     22  C   UNL A   1      35.362  22.638  25.388  1.00  0.00     0.014 A 
ATOM     23  C   UNL A   1      32.885  21.880  26.382  1.00  0.00     0.007 A 
ATOM     24  C   UNL A   1      35.273  21.886  26.562  1.00  0.00     0.001 A 
ATOM     25  C   UNL A   1      34.038  21.446  27.017  1.00  0.00     0.000 A 
ENDBRANCH  10  13
ENDBRANCH   8   9
BRANCH   8  26
ATOM     26  C   UNL A   1      30.576  27.227  25.109  1.00  0.00     0.070 C 
BRANCH  26  27
ATOM     27  C   UNL A   1      30.881  28.499  24.270  1.00  0.00    -0.037 C 
ATOM     28  C   UNL A   1      29.956  29.437  24.016  1.00  0.00     0.001 A 
ATOM     29  C   UNL A   1      31.422  28.067  22.919  1.00  0.00     0.174 C 
ATOM     30  C   UNL A   1      29.919  30.862  24.248  1.00  0.00     0.010 A 
ATOM     31  C   UNL A   1      29.523  29.041  22.651  1.00  0.00     0.065 A 
ATOM     32  N   UNL A   1      30.275  28.217  21.994  1.00  0.00    -0.280 NA
ATOM     33  C   UNL A   1      28.990  31.576  23.581  1.00  0.00     0.001 A 
ATOM     34  C   UNL A   1      28.269  29.682  22.208  1.00  0.00     0.028 A 
ATOM     35  C   UNL A   1      28.035  30.913  22.699  1.00  0.00     0.002 A 
ENDBRANCH  26  27
ENDBRANCH   8  26
ENDBRANCH   6   8
ENDBRANCH   5   6
ENDBRANCH   4   5
ENDBRANCH   3   4
ENDBRANCH   2   3
ENDBRANCH   1   2
BRANCH   1  36
ATOM     36  C   UNL A   1      35.143  33.296  28.198  1.00  0.00     0.188 C 
BRANCH  36  37
ATOM     37  O   UNL A   1      34.888  33.813  29.492  1.00  0.00    -0.376 OA
BRANCH  37  38
ATOM     38  C   UNL A   1      34.404  32.844  30.414  1.00  0.00     0.202 C 
BRANCH  38  39
ATOM     39  C   UNL A   1      34.654  33.197  31.887  1.00  0.00     0.261 C 
BRANCH  39  40
ATOM     40  O   UNL A   1      36.045  33.396  32.231  1.00  0.00    -0.460 OA
BRANCH  40  41
ATOM     41  C   UNL A   1      36.663  32.385  32.907  1.00  0.00     0.338 C 
ATOM     42  O   UNL A   1      36.364  31.953  34.002  1.00  0.00    -0.246 OA
BRANCH  41  43
ATOM     43  C   UNL A   1      37.718  31.771  32.051  1.00  0.00     0.060 A 
ATOM     44  C   UNL A   1      37.710  31.908  30.659  1.00  0.00     0.016 A 
ATOM     45  C   UNL A   1      38.735  31.030  32.661  1.00  0.00     0.016 A 
ATOM     46  C   UNL A   1      38.694  31.280  29.877  1.00  0.00     0.010 A 
ATOM     47  C   UNL A   1      39.679  30.352  31.874  1.00  0.00     0.010 A 
ATOM     48  C   UNL A   1      39.677  30.475  30.471  1.00  0.00    -0.014 A 
BRANCH  48  49
ATOM     49  C   UNL A   1      40.829  29.948  29.681  1.00  0.00     0.031 A 
ATOM     50  C   UNL A   1      40.911  28.550  29.124  1.00  0.00     0.074 A 
ATOM     51  C   UNL A   1      41.858  30.788  29.480  1.00  0.00     0.049 A 
ATOM     52  N   UNL A   1      41.916  27.927  28.555  1.00  0.00    -0.248 NA
ATOM     53  C   UNL A   1      39.705  27.735  29.232  1.00  0.00     0.031 C 
ATOM     54  C   UNL A   1      41.892  32.183  29.921  1.00  0.00     0.029 A 
ATOM     55  N   UNL A   1      43.069  30.594  28.873  1.00  0.00    -0.354 N 
ATOM     56  C   UNL A   1      41.478  26.628  28.300  1.00  0.00     0.074 A 
ATOM     57  C   UNL A   1      40.124  26.548  28.806  1.00  0.00     0.031 C 
ATOM     58  C   UNL A   1      43.080  32.711  29.604  1.00  0.00     0.029 A 
ATOM     59  C   UNL A   1      43.884  31.694  28.932  1.00  0.00     0.049 A 
ATOM     60  H   UNL A   1      43.328  29.750  28.438  1.00  0.00     0.167 HD
ATOM     61  C   UNL A   1      42.129  25.617  27.665  1.00  0.00     0.037 A 
ATOM     62  C   UNL A   1      45.138  31.875  28.487  1.00  0.00     0.037 A 
ATOM     63  C   UNL A   1      43.428  25.761  27.045  1.00  0.00     0.049 A 
ATOM     64  C   UNL A   1      45.810  30.778  27.722  1.00  0.00     0.074 A 
ATOM     65  C   UNL A   1      44.126  24.844  26.275  1.00  0.00     0.029 A 
ATOM     66  N   UNL A   1      44.206  26.909  27.093  1.00  0.00    -0.354 N 
ATOM     67  N   UNL A   1      45.386  29.562  27.477  1.00  0.00    -0.248 NA
ATOM     68  C   UNL A   1      47.115  31.094  27.130  1.00  0.00     0.031 C 
ATOM     69  C   UNL A   1      45.336  25.425  25.882  1.00  0.00     0.029 A 
ATOM     70  C   UNL A   1      45.370  26.725  26.358  1.00  0.00     0.049 A 
ATOM     71  H   UNL A   1      43.969  27.732  27.578  1.00  0.00     0.167 HD
ATOM     72  C   UNL A   1      46.353  28.979  26.671  1.00  0.00     0.074 A 
ATOM     73  C   UNL A   1      47.377  29.982  26.458  1.00  0.00     0.031 C 
ATOM     74  C   UNL A   1      46.382  27.728  26.151  1.00  0.00     0.037 A 
BRANCH  61  75
ATOM     75  C   UNL A   1      41.456  24.268  27.534  1.00  0.00     0.064 A 
ATOM     76  C   UNL A   1      40.332  24.076  26.717  1.00  0.00     0.173 A 
ATOM     77  C   UNL A   1      42.033  23.121  28.113  1.00  0.00     0.173 A 
ATOM     78  F   UNL A   1      39.743  25.123  26.120  1.00  0.00    -0.203 F 
ATOM     79  C   UNL A   1      39.801  22.804  26.501  1.00  0.00     0.198 A 
ATOM     80  C   UNL A   1      41.522  21.847  27.865  1.00  0.00     0.198 A 
ATOM     81  F   UNL A   1      43.131  23.227  28.877  1.00  0.00    -0.203 F 
ATOM     82  F   UNL A   1      38.710  22.658  25.736  1.00  0.00    -0.200 F 
ATOM     83  C   UNL A   1      40.403  21.690  27.063  1.00  0.00     0.200 A 
ATOM     84  F   UNL A   1      42.132  20.767  28.377  1.00  0.00    -0.200 F 
ATOM     85  F   UNL A   1      39.913  20.466  26.821  1.00  0.00    -0.200 F 
ENDBRANCH  61  75
BRANCH  62  86
ATOM     86  C   UNL A   1      45.765  33.203  28.679  1.00  0.00     0.064 A 
ATOM     87  C   UNL A   1      46.596  33.442  29.779  1.00  0.00     0.173 A 
ATOM     88  C   UNL A   1      45.639  34.214  27.714  1.00  0.00     0.173 A 
ATOM     89  F   UNL A   1      46.745  32.501  30.723  1.00  0.00    -0.203 F 
ATOM     90  C   UNL A   1      47.278  34.648  29.913  1.00  0.00     0.198 A 
ATOM     91  C   UNL A   1      46.344  35.407  27.834  1.00  0.00     0.198 A 
ATOM     92  F   UNL A   1      44.876  34.016  26.629  1.00  0.00    -0.203 F 
ATOM     93  F   UNL A   1      48.057  34.857  30.983  1.00  0.00    -0.200 F 
ATOM     94  C   UNL A   1      47.161  35.624  28.935  1.00  0.00     0.200 A 
ATOM     95  F   UNL A   1      46.254  36.336  26.873  1.00  0.00    -0.200 F 
ATOM     96  F   UNL A   1      47.842  36.772  29.049  1.00  0.00    -0.200 F 
ENDBRANCH  62  86
BRANCH  74  97
ATOM     97  C   UNL A   1      47.547  27.383  25.266  1.00  0.00     0.064 A 
ATOM     98  C   UNL A   1      48.708  26.783  25.775  1.00  0.00     0.173 A 
ATOM     99  C   UNL A   1      47.492  27.640  23.887  1.00  0.00     0.173 A 
ATOM    100  F   UNL A   1      48.815  26.527  27.088  1.00  0.00    -0.203 F 
ATOM    101  C   UNL A   1      49.786  26.492  24.944  1.00  0.00     0.198 A 
ATOM    102  C   UNL A   1      48.559  27.315  23.054  1.00  0.00     0.198 A 
ATOM    103  F   UNL A   1      46.403  28.205  23.344  1.00  0.00    -0.203 F 
ATOM    104  F   UNL A   1      50.910  25.979  25.465  1.00  0.00    -0.200 F 
ATOM    105  C   UNL A   1      49.710  26.752  23.585  1.00  0.00     0.200 A 
ATOM    106  F   UNL A   1      48.478  27.554  21.737  1.00  0.00    -0.200 F 
ATOM    107  F   UNL A   1      50.749  26.470  22.788  1.00  0.00    -0.200 F 
ENDBRANCH  74  97
ENDBRANCH  48  49
ENDBRANCH  41  43
ENDBRANCH  40  41
ENDBRANCH  39  40
ENDBRANCH  38  39
ENDBRANCH  37  38
ENDBRANCH  36  37
ENDBRANCH   1  36
TORSDOF 21
ENDMDL
MODEL 3
REMARK VINA RESULT:     -11.6      3.571      8.235
REMARK SMILES CN1N[C@H](C(=O)N[C@@H](CC2=c3ccccc3=NC2)C(=O)OCCOCCOCCOC(=O)c2ccc(-c3c4nc(c(-c5c(F)c(F)c(F)c(F)c5F)c5ccc([nH]5)c(-c5c(F)c(F)c(F)c(F)c5F)c5nc(c(-c6c(F)c(F)c(F)c(F)c6F)c6ccc3[nH]6)C=C5)C=C4)cc2)c2ccccc2C1=O
REMARK SMILES IDX 25 1 24 2 23 3 22 4 21 5 19 6 20 7 8 8 7 9 5 10 6 11 4 13
REMARK SMILES IDX 1 14 2 15 3 16 102 17 101 19 103 20 96 21 100 22 97 23 99 24
REMARK SMILES IDX 98 25 9 26 10 27 11 28 18 29 12 30 16 31 17 32 13 33 15 34
REMARK SMILES IDX 14 35 26 36 27 37 28 38 29 39 30 40 31 41 32 42 33 43 34 44
REMARK SMILES IDX 95 45 35 46 94 47 36 48 37 49 38 50 88 51 39 52 93 53 87 54
REMARK SMILES IDX 89 55 40 56 92 57 86 58 85 59 41 61 73 62 53 63 72 64 54 65
REMARK SMILES IDX 57 66 71 67 90 68 55 69 56 70 70 72 91 73 58 74 42 75 43 76
REMARK SMILES IDX 51 77 44 78 45 79 49 80 52 81 46 82 47 83 50 84 48 85 74 86
REMARK SMILES IDX 75 87 83 88 76 89 77 90 81 91 84 92 78 93 79 94 82 95 80 96
REMARK SMILES IDX 59 97 60 98 68 99 61 100 62 101 66 102 69 103 63 104 64 105
REMARK SMILES IDX 67 106 65 107
REMARK H PARENT 7 12 3 18 89 60 57 71
REMARK Flexibility Score: inf
ROOT
ATOM      1  C   UNL A   1      32.726  20.231  24.482  1.00  0.00     0.188 C 
ENDROOT
BRANCH   1   2
ATOM      2  O   UNL A   1      32.378  20.357  23.108  1.00  0.00    -0.376 OA
BRANCH   2   3
ATOM      3  C   UNL A   1      31.862  21.635  22.721  1.00  0.00     0.202 C 
BRANCH   3   4
ATOM      4  C   UNL A   1      32.793  22.865  22.577  1.00  0.00     0.261 C 
BRANCH   4   5
ATOM      5  O   UNL A   1      32.126  24.129  22.460  1.00  0.00    -0.462 OA
BRANCH   5   6
ATOM      6  C   UNL A   1      32.904  25.238  22.332  1.00  0.00     0.329 C 
ATOM      7  O   UNL A   1      34.053  25.216  21.906  1.00  0.00    -0.250 OA
BRANCH   6   8
ATOM      8  C   UNL A   1      32.230  26.491  22.951  1.00  0.00     0.196 C 
BRANCH   8   9
ATOM      9  N   UNL A   1      30.818  26.444  23.410  1.00  0.00    -0.341 N 
ATOM     10  C   UNL A   1      29.870  27.420  23.577  1.00  0.00     0.244 C 
ATOM     11  O   UNL A   1      28.895  27.138  24.284  1.00  0.00    -0.273 OA
ATOM     12  H   UNL A   1      30.503  25.539  23.636  1.00  0.00     0.164 HD
BRANCH  10  13
ATOM     13  C   UNL A   1      29.934  28.789  22.849  1.00  0.00     0.195 C 
ATOM     14  C   UNL A   1      28.025  30.783  20.544  1.00  0.00     0.169 C 
ATOM     15  N   UNL A   1      28.529  30.443  21.859  1.00  0.00    -0.276 N 
ATOM     16  N   UNL A   1      28.615  29.079  22.261  1.00  0.00    -0.215 NA
ATOM     17  C   UNL A   1      28.778  31.451  22.796  1.00  0.00     0.268 C 
ATOM     18  H   UNL A   1      28.473  28.482  21.446  1.00  0.00     0.149 HD
ATOM     19  C   UNL A   1      29.680  31.061  23.909  1.00  0.00     0.046 A 
ATOM     20  O   UNL A   1      28.399  32.613  22.688  1.00  0.00    -0.268 OA
ATOM     21  C   UNL A   1      30.385  29.863  23.805  1.00  0.00    -0.007 A 
ATOM     22  C   UNL A   1      29.901  31.900  24.999  1.00  0.00     0.014 A 
ATOM     23  C   UNL A   1      31.462  29.631  24.658  1.00  0.00     0.007 A 
ATOM     24  C   UNL A   1      30.866  31.558  25.950  1.00  0.00     0.001 A 
ATOM     25  C   UNL A   1      31.695  30.464  25.741  1.00  0.00     0.000 A 
ENDBRANCH  10  13
ENDBRANCH   8   9
BRANCH   8  26
ATOM     26  C   UNL A   1      33.141  26.952  24.114  1.00  0.00     0.070 C 
BRANCH  26  27
ATOM     27  C   UNL A   1      33.200  26.179  25.461  1.00  0.00    -0.037 C 
ATOM     28  C   UNL A   1      32.557  25.018  25.657  1.00  0.00     0.001 A 
ATOM     29  C   UNL A   1      32.737  27.106  26.570  1.00  0.00     0.174 C 
ATOM     30  C   UNL A   1      33.005  23.712  26.080  1.00  0.00     0.010 A 
ATOM     31  C   UNL A   1      31.336  25.488  26.360  1.00  0.00     0.065 A 
ATOM     32  N   UNL A   1      31.345  26.687  26.849  1.00  0.00    -0.280 NA
ATOM     33  C   UNL A   1      32.068  22.838  26.501  1.00  0.00     0.001 A 
ATOM     34  C   UNL A   1      30.256  24.484  26.428  1.00  0.00     0.028 A 
ATOM     35  C   UNL A   1      30.653  23.199  26.477  1.00  0.00     0.002 A 
ENDBRANCH  26  27
ENDBRANCH   8  26
ENDBRANCH   6   8
ENDBRANCH   5   6
ENDBRANCH   4   5
ENDBRANCH   3   4
ENDBRANCH   2   3
ENDBRANCH   1   2
BRANCH   1  36
ATOM     36  C   UNL A   1      34.175  19.862  24.750  1.00  0.00     0.188 C 
BRANCH  36  37
ATOM     37  O   UNL A   1      34.871  20.833  25.511  1.00  0.00    -0.376 OA
BRANCH  37  38
ATOM     38  C   UNL A   1      35.704  21.684  24.733  1.00  0.00     0.202 C 
BRANCH  38  39
ATOM     39  C   UNL A   1      37.193  21.611  25.098  1.00  0.00     0.261 C 
BRANCH  39  40
ATOM     40  O   UNL A   1      37.719  22.803  25.726  1.00  0.00    -0.460 OA
BRANCH  40  41
ATOM     41  C   UNL A   1      39.000  22.741  26.190  1.00  0.00     0.338 C 
ATOM     42  O   UNL A   1      39.777  21.816  26.061  1.00  0.00    -0.246 OA
BRANCH  41  43
ATOM     43  C   UNL A   1      39.386  24.048  26.795  1.00  0.00     0.060 A 
ATOM     44  C   UNL A   1      39.016  24.395  28.099  1.00  0.00     0.016 A 
ATOM     45  C   UNL A   1      40.129  24.953  26.030  1.00  0.00     0.016 A 
ATOM     46  C   UNL A   1      39.357  25.652  28.624  1.00  0.00     0.010 A 
ATOM     47  C   UNL A   1      40.413  26.232  26.533  1.00  0.00     0.010 A 
ATOM     48  C   UNL A   1      40.039  26.596  27.842  1.00  0.00    -0.014 A 
BRANCH  48  49
ATOM     49  C   UNL A   1      40.565  27.862  28.435  1.00  0.00     0.031 A 
ATOM     50  C   UNL A   1      42.005  28.090  28.814  1.00  0.00     0.074 A 
ATOM     51  C   UNL A   1      39.672  28.842  28.653  1.00  0.00     0.049 A 
ATOM     52  N   UNL A   1      42.556  29.083  29.474  1.00  0.00    -0.248 NA
ATOM     53  C   UNL A   1      42.955  27.059  28.410  1.00  0.00     0.031 C 
ATOM     54  C   UNL A   1      38.256  28.774  28.290  1.00  0.00     0.029 A 
ATOM     55  N   UNL A   1      39.815  30.071  29.239  1.00  0.00    -0.354 N 
ATOM     56  C   UNL A   1      43.904  28.757  29.617  1.00  0.00     0.074 A 
ATOM     57  C   UNL A   1      44.077  27.458  29.000  1.00  0.00     0.031 C 
ATOM     58  C   UNL A   1      37.649  29.897  28.695  1.00  0.00     0.029 A 
ATOM     59  C   UNL A   1      38.636  30.762  29.337  1.00  0.00     0.049 A 
ATOM     60  H   UNL A   1      40.677  30.423  29.557  1.00  0.00     0.167 HD
ATOM     61  C   UNL A   1      44.905  29.491  30.171  1.00  0.00     0.037 A 
ATOM     62  C   UNL A   1      38.371  31.965  29.872  1.00  0.00     0.037 A 
ATOM     63  C   UNL A   1      44.736  30.844  30.656  1.00  0.00     0.049 A 
ATOM     64  C   UNL A   1      39.498  32.793  30.407  1.00  0.00     0.074 A 
ATOM     65  C   UNL A   1      45.700  31.722  31.124  1.00  0.00     0.029 A 
ATOM     66  N   UNL A   1      43.528  31.525  30.701  1.00  0.00    -0.354 N 
ATOM     67  N   UNL A   1      40.766  32.483  30.527  1.00  0.00    -0.248 NA
ATOM     68  C   UNL A   1      39.165  34.156  30.834  1.00  0.00     0.031 C 
ATOM     69  C   UNL A   1      45.074  32.921  31.477  1.00  0.00     0.029 A 
ATOM     70  C   UNL A   1      43.727  32.814  31.178  1.00  0.00     0.049 A 
ATOM     71  H   UNL A   1      42.658  31.150  30.435  1.00  0.00     0.167 HD
ATOM     72  C   UNL A   1      41.390  33.624  31.009  1.00  0.00     0.074 A 
ATOM     73  C   UNL A   1      40.361  34.636  31.143  1.00  0.00     0.031 C 
ATOM     74  C   UNL A   1      42.699  33.814  31.306  1.00  0.00     0.037 A 
BRANCH  61  75
ATOM     75  C   UNL A   1      46.299  28.909  30.245  1.00  0.00     0.064 A 
ATOM     76  C   UNL A   1      47.262  29.162  29.255  1.00  0.00     0.173 A 
ATOM     77  C   UNL A   1      46.726  28.216  31.394  1.00  0.00     0.173 A 
ATOM     78  F   UNL A   1      46.928  29.833  28.143  1.00  0.00    -0.203 F 
ATOM     79  C   UNL A   1      48.580  28.729  29.399  1.00  0.00     0.198 A 
ATOM     80  C   UNL A   1      48.054  27.818  31.551  1.00  0.00     0.198 A 
ATOM     81  F   UNL A   1      45.868  27.971  32.396  1.00  0.00    -0.203 F 
ATOM     82  F   UNL A   1      49.469  28.963  28.423  1.00  0.00    -0.200 F 
ATOM     83  C   UNL A   1      48.979  28.071  30.551  1.00  0.00     0.200 A 
ATOM     84  F   UNL A   1      48.446  27.217  32.684  1.00  0.00    -0.200 F 
ATOM     85  F   UNL A   1      50.256  27.692  30.702  1.00  0.00    -0.200 F 
ENDBRANCH  61  75
BRANCH  62  86
ATOM     86  C   UNL A   1      36.980  32.469  29.810  1.00  0.00     0.064 A 
ATOM     87  C   UNL A   1      36.113  32.291  30.894  1.00  0.00     0.173 A 
ATOM     88  C   UNL A   1      36.530  33.232  28.723  1.00  0.00     0.173 A 
ATOM     89  F   UNL A   1      36.506  31.570  31.955  1.00  0.00    -0.203 F 
ATOM     90  C   UNL A   1      34.841  32.855  30.894  1.00  0.00     0.198 A 
ATOM     91  C   UNL A   1      35.268  33.819  28.736  1.00  0.00     0.198 A 
ATOM     92  F   UNL A   1      37.338  33.452  27.675  1.00  0.00    -0.203 F 
ATOM     93  F   UNL A   1      34.025  32.658  31.938  1.00  0.00    -0.200 F 
ATOM     94  C   UNL A   1      34.425  33.628  29.821  1.00  0.00     0.200 A 
ATOM     95  F   UNL A   1      34.880  34.591  27.711  1.00  0.00    -0.200 F 
ATOM     96  F   UNL A   1      33.211  34.196  29.834  1.00  0.00    -0.200 F 
ENDBRANCH  62  86
BRANCH  74  97
ATOM     97  C   UNL A   1      43.102  35.184  31.772  1.00  0.00     0.064 A 
ATOM     98  C   UNL A   1      43.072  35.541  33.129  1.00  0.00     0.173 A 
ATOM     99  C   UNL A   1      43.539  36.149  30.851  1.00  0.00     0.173 A 
ATOM    100  F   UNL A   1      42.651  34.660  34.049  1.00  0.00    -0.203 F 
ATOM    101  C   UNL A   1      43.427  36.822  33.540  1.00  0.00     0.198 A 
ATOM    102  C   UNL A   1      43.926  37.418  31.270  1.00  0.00     0.198 A 
ATOM    103  F   UNL A   1      43.595  35.860  29.541  1.00  0.00    -0.203 F 
ATOM    104  F   UNL A   1      43.328  37.159  34.834  1.00  0.00    -0.200 F 
ATOM    105  C   UNL A   1      43.858  37.758  32.613  1.00  0.00     0.200 A 
ATOM    106  F   UNL A   1      44.358  38.317  30.374  1.00  0.00    -0.200 F 
ATOM    107  F   UNL A   1      44.199  38.991  33.012  1.00  0.00    -0.200 F 
ENDBRANCH  74  97
ENDBRANCH  48  49
ENDBRANCH  41  43
ENDBRANCH  40  41
ENDBRANCH  39  40
ENDBRANCH  38  39
ENDBRANCH  37  38
ENDBRANCH  36  37
ENDBRANCH   1  36
TORSDOF 21
ENDMDL
