MODEL 1
REMARK VINA RESULT:     -10.4      0.000      0.000
REMARK SMILES O=C(COc1ccc(/C=C/C(=O)c2ccc(F)cc2F)cc1[N+](=O)[O-])OCCOCCOCCOC(=O)c1ccc(-c2c3nc(c(-c4c(F)c(F)c(F)c(F)c4F)c4ccc([nH]4)c(-c4c(F)c(F)c(F)c(F)c4F)c4nc(c(-c5c(F)c(F)c(F)c(F)c5F)c5ccc2[nH]5)C=C4)C=C3)cc1
REMARK SMILES IDX 29 1 28 2 27 3 26 4 2 5 1 6 3 7 4 8 5 9 6 10 22 11 7 12
REMARK SMILES IDX 21 13 8 14 23 15 24 16 25 17 9 18 10 19 11 20 12 21 13 22
REMARK SMILES IDX 14 23 19 24 15 25 18 26 20 27 16 28 17 29 30 30 31 31 32 32
REMARK SMILES IDX 33 33 34 34 35 35 36 36 37 37 38 38 39 39 100 40 40 41 99 42
REMARK SMILES IDX 41 43 42 44 43 45 93 46 44 47 98 48 92 49 94 50 45 51 97 52
REMARK SMILES IDX 91 53 90 54 46 56 78 57 58 58 77 59 59 60 62 61 76 62 95 63
REMARK SMILES IDX 60 64 61 65 75 67 96 68 63 69 47 70 48 71 56 72 49 73 50 74
REMARK SMILES IDX 54 75 57 76 51 77 52 78 55 79 53 80 79 81 80 82 88 83 81 84
REMARK SMILES IDX 82 85 86 86 89 87 83 88 84 89 87 90 85 91 64 92 65 93 73 94
REMARK SMILES IDX 66 95 67 96 71 97 74 98 68 99 69 100 72 101 70 102
REMARK H PARENT 94 55 62 66
REMARK Flexibility Score: inf
ROOT
ATOM      1  O   UNL A   1      31.893  27.393  24.530  1.00  0.00    -0.376 OA
ENDROOT
BRANCH   1   2
ATOM      2  C   UNL A   1      32.273  26.565  25.607  1.00  0.00     0.202 C 
BRANCH   2   3
ATOM      3  C   UNL A   1      33.063  25.316  25.231  1.00  0.00     0.261 C 
BRANCH   3   4
ATOM      4  O   UNL A   1      32.579  24.040  25.734  1.00  0.00    -0.461 OA
BRANCH   4   5
ATOM      5  C   UNL A   1      32.925  22.781  25.396  1.00  0.00     0.344 C 
ATOM      6  O   UNL A   1      32.128  22.046  24.814  1.00  0.00    -0.248 OA
BRANCH   5   7
ATOM      7  C   UNL A   1      34.279  22.255  25.806  1.00  0.00     0.352 C 
BRANCH   7   8
ATOM      8  O   UNL A   1      35.265  22.387  24.788  1.00  0.00    -0.475 OA
BRANCH   8   9
ATOM      9  C   UNL A   1      36.358  21.657  25.134  1.00  0.00     0.197 A 
ATOM     10  C   UNL A   1      36.273  20.292  24.861  1.00  0.00     0.054 A 
ATOM     11  C   UNL A   1      37.545  22.208  25.617  1.00  0.00     0.311 A 
ATOM     12  C   UNL A   1      37.410  19.503  24.980  1.00  0.00     0.012 A 
ATOM     13  C   UNL A   1      38.691  21.438  25.699  1.00  0.00     0.098 A 
ATOM     14  C   UNL A   1      38.622  20.084  25.371  1.00  0.00    -0.018 A 
BRANCH  11  15
ATOM     15  N   UNL A   1      37.655  23.577  26.066  1.00  0.00     0.066 N 
ATOM     16  O   UNL A   1      37.087  24.436  25.380  1.00  0.00    -0.258 OA
ATOM     17  O   UNL A   1      38.351  23.789  27.065  1.00  0.00    -0.258 OA
ENDBRANCH  11  15
BRANCH  14  18
ATOM     18  C   UNL A   1      39.866  19.347  25.475  1.00  0.00     0.012 C 
ATOM     19  C   UNL A   1      40.936  19.824  26.120  1.00  0.00     0.053 C 
BRANCH  19  20
ATOM     20  C   UNL A   1      42.249  19.160  25.969  1.00  0.00     0.188 C 
ATOM     21  O   UNL A   1      42.357  17.955  26.161  1.00  0.00    -0.289 OA
BRANCH  20  22
ATOM     22  C   UNL A   1      43.420  19.971  25.564  1.00  0.00     0.058 A 
ATOM     23  C   UNL A   1      43.578  21.235  26.140  1.00  0.00     0.018 A 
ATOM     24  C   UNL A   1      44.376  19.495  24.656  1.00  0.00     0.137 A 
ATOM     25  C   UNL A   1      44.703  21.999  25.822  1.00  0.00     0.040 A 
ATOM     26  C   UNL A   1      45.499  20.252  24.343  1.00  0.00     0.079 A 
ATOM     27  F   UNL A   1      44.245  18.292  24.079  1.00  0.00    -0.206 F 
ATOM     28  C   UNL A   1      45.651  21.499  24.931  1.00  0.00     0.126 A 
ATOM     29  F   UNL A   1      46.729  22.237  24.639  1.00  0.00    -0.207 F 
ENDBRANCH  20  22
ENDBRANCH  19  20
ENDBRANCH  14  18
ENDBRANCH   8   9
ENDBRANCH   7   8
ENDBRANCH   5   7
ENDBRANCH   4   5
ENDBRANCH   3   4
ENDBRANCH   2   3
ENDBRANCH   1   2
BRANCH   1  30
ATOM     30  C   UNL A   1      31.915  28.790  24.749  1.00  0.00     0.188 C 
BRANCH  30  31
ATOM     31  C   UNL A   1      32.792  29.245  25.934  1.00  0.00     0.188 C 
BRANCH  31  32
ATOM     32  O   UNL A   1      32.323  30.263  26.804  1.00  0.00    -0.376 OA
BRANCH  32  33
ATOM     33  C   UNL A   1      31.524  31.303  26.275  1.00  0.00     0.202 C 
BRANCH  33  34
ATOM     34  C   UNL A   1      31.565  32.678  26.967  1.00  0.00     0.261 C 
BRANCH  34  35
ATOM     35  O   UNL A   1      32.822  33.393  26.913  1.00  0.00    -0.460 OA
BRANCH  35  36
ATOM     36  C   UNL A   1      33.376  33.752  28.103  1.00  0.00     0.338 C 
ATOM     37  O   UNL A   1      32.897  34.501  28.931  1.00  0.00    -0.246 OA
BRANCH  36  38
ATOM     38  C   UNL A   1      34.611  32.957  28.372  1.00  0.00     0.060 A 
ATOM     39  C   UNL A   1      34.490  31.588  28.669  1.00  0.00     0.016 A 
ATOM     40  C   UNL A   1      35.871  33.554  28.399  1.00  0.00     0.016 A 
ATOM     41  C   UNL A   1      35.609  30.830  29.041  1.00  0.00     0.010 A 
ATOM     42  C   UNL A   1      36.989  32.799  28.800  1.00  0.00     0.010 A 
ATOM     43  C   UNL A   1      36.861  31.444  29.164  1.00  0.00    -0.014 A 
BRANCH  43  44
ATOM     44  C   UNL A   1      37.975  30.754  29.880  1.00  0.00     0.031 A 
ATOM     45  C   UNL A   1      38.216  31.100  31.328  1.00  0.00     0.074 A 
ATOM     46  C   UNL A   1      38.763  29.838  29.284  1.00  0.00     0.049 A 
ATOM     47  N   UNL A   1      39.180  30.722  32.132  1.00  0.00    -0.248 NA
ATOM     48  C   UNL A   1      37.234  32.002  31.951  1.00  0.00     0.031 C 
ATOM     49  C   UNL A   1      38.618  29.359  27.913  1.00  0.00     0.029 A 
ATOM     50  N   UNL A   1      39.862  29.161  29.763  1.00  0.00    -0.354 N 
ATOM     51  C   UNL A   1      38.930  31.354  33.344  1.00  0.00     0.074 A 
ATOM     52  C   UNL A   1      37.742  32.159  33.164  1.00  0.00     0.031 C 
ATOM     53  C   UNL A   1      39.605  28.482  27.653  1.00  0.00     0.029 A 
ATOM     54  C   UNL A   1      40.476  28.367  28.825  1.00  0.00     0.049 A 
ATOM     55  H   UNL A   1      40.179  29.240  30.692  1.00  0.00     0.167 HD
ATOM     56  C   UNL A   1      39.621  31.269  34.506  1.00  0.00     0.037 A 
ATOM     57  C   UNL A   1      41.620  27.654  28.892  1.00  0.00     0.037 A 
ATOM     58  C   UNL A   1      40.802  30.466  34.697  1.00  0.00     0.049 A 
ATOM     59  C   UNL A   1      42.423  27.642  30.173  1.00  0.00     0.074 A 
ATOM     60  C   UNL A   1      41.557  30.303  35.845  1.00  0.00     0.029 A 
ATOM     61  N   UNL A   1      41.404  29.698  33.711  1.00  0.00    -0.354 N 
ATOM     62  N   UNL A   1      42.171  28.228  31.318  1.00  0.00    -0.248 NA
ATOM     63  C   UNL A   1      43.674  26.865  30.168  1.00  0.00     0.031 C 
ATOM     64  C   UNL A   1      42.652  29.491  35.538  1.00  0.00     0.029 A 
ATOM     65  C   UNL A   1      42.539  29.085  34.218  1.00  0.00     0.049 A 
ATOM     66  H   UNL A   1      41.073  29.602  32.789  1.00  0.00     0.167 HD
ATOM     67  C   UNL A   1      43.203  27.858  32.175  1.00  0.00     0.074 A 
ATOM     68  C   UNL A   1      44.080  26.990  31.423  1.00  0.00     0.031 C 
ATOM     69  C   UNL A   1      43.401  28.206  33.471  1.00  0.00     0.037 A 
BRANCH  56  70
ATOM     70  C   UNL A   1      39.139  32.093  35.667  1.00  0.00     0.064 A 
ATOM     71  C   UNL A   1      38.323  31.552  36.671  1.00  0.00     0.173 A 
ATOM     72  C   UNL A   1      39.539  33.432  35.798  1.00  0.00     0.173 A 
ATOM     73  F   UNL A   1      37.903  30.281  36.589  1.00  0.00    -0.203 F 
ATOM     74  C   UNL A   1      37.904  32.329  37.749  1.00  0.00     0.198 A 
ATOM     75  C   UNL A   1      39.147  34.195  36.894  1.00  0.00     0.198 A 
ATOM     76  F   UNL A   1      40.326  33.997  34.869  1.00  0.00    -0.203 F 
ATOM     77  F   UNL A   1      37.085  31.806  38.671  1.00  0.00    -0.200 F 
ATOM     78  C   UNL A   1      38.323  33.646  37.864  1.00  0.00     0.200 A 
ATOM     79  F   UNL A   1      39.570  35.462  37.013  1.00  0.00    -0.200 F 
ATOM     80  F   UNL A   1      37.930  34.388  38.909  1.00  0.00    -0.200 F 
ENDBRANCH  56  70
BRANCH  57  81
ATOM     81  C   UNL A   1      42.108  26.902  27.702  1.00  0.00     0.064 A 
ATOM     82  C   UNL A   1      41.655  25.603  27.428  1.00  0.00     0.173 A 
ATOM     83  C   UNL A   1      43.073  27.446  26.841  1.00  0.00     0.173 A 
ATOM     84  F   UNL A   1      40.755  25.023  28.237  1.00  0.00    -0.203 F 
ATOM     85  C   UNL A   1      42.165  24.870  26.357  1.00  0.00     0.198 A 
ATOM     86  C   UNL A   1      43.557  26.725  25.751  1.00  0.00     0.198 A 
ATOM     87  F   UNL A   1      43.547  28.681  27.057  1.00  0.00    -0.203 F 
ATOM     88  F   UNL A   1      41.757  23.609  26.155  1.00  0.00    -0.200 F 
ATOM     89  C   UNL A   1      43.112  25.434  25.516  1.00  0.00     0.200 A 
ATOM     90  F   UNL A   1      44.460  27.280  24.931  1.00  0.00    -0.200 F 
ATOM     91  F   UNL A   1      43.599  24.732  24.485  1.00  0.00    -0.200 F 
ENDBRANCH  57  81
BRANCH  69  92
ATOM     92  C   UNL A   1      44.579  27.605  34.188  1.00  0.00     0.064 A 
ATOM     93  C   UNL A   1      45.818  28.259  34.266  1.00  0.00     0.173 A 
ATOM     94  C   UNL A   1      44.450  26.372  34.849  1.00  0.00     0.173 A 
ATOM     95  F   UNL A   1      46.001  29.433  33.645  1.00  0.00    -0.203 F 
ATOM     96  C   UNL A   1      46.889  27.690  34.954  1.00  0.00     0.198 A 
ATOM     97  C   UNL A   1      45.511  25.823  35.566  1.00  0.00     0.198 A 
ATOM     98  F   UNL A   1      43.286  25.705  34.816  1.00  0.00    -0.203 F 
ATOM     99  F   UNL A   1      48.077  28.309  34.971  1.00  0.00    -0.200 F 
ATOM    100  C   UNL A   1      46.732  26.478  35.610  1.00  0.00     0.200 A 
ATOM    101  F   UNL A   1      45.351  24.662  36.214  1.00  0.00    -0.200 F 
ATOM    102  F   UNL A   1      47.759  25.938  36.279  1.00  0.00    -0.200 F 
ENDBRANCH  69  92
ENDBRANCH  43  44
ENDBRANCH  36  38
ENDBRANCH  35  36
ENDBRANCH  34  35
ENDBRANCH  33  34
ENDBRANCH  32  33
ENDBRANCH  31  32
ENDBRANCH  30  31
ENDBRANCH   1  30
TORSDOF 23
ENDMDL
MODEL 2
REMARK VINA RESULT:     -10.2      4.895      9.913
REMARK SMILES O=C(COc1ccc(/C=C/C(=O)c2ccc(F)cc2F)cc1[N+](=O)[O-])OCCOCCOCCOC(=O)c1ccc(-c2c3nc(c(-c4c(F)c(F)c(F)c(F)c4F)c4ccc([nH]4)c(-c4c(F)c(F)c(F)c(F)c4F)c4nc(c(-c5c(F)c(F)c(F)c(F)c5F)c5ccc2[nH]5)C=C4)C=C3)cc1
REMARK SMILES IDX 29 1 28 2 27 3 26 4 2 5 1 6 3 7 4 8 5 9 6 10 22 11 7 12
REMARK SMILES IDX 21 13 8 14 23 15 24 16 25 17 9 18 10 19 11 20 12 21 13 22
REMARK SMILES IDX 14 23 19 24 15 25 18 26 20 27 16 28 17 29 30 30 31 31 32 32
REMARK SMILES IDX 33 33 34 34 35 35 36 36 37 37 38 38 39 39 100 40 40 41 99 42
REMARK SMILES IDX 41 43 42 44 43 45 93 46 44 47 98 48 92 49 94 50 45 51 97 52
REMARK SMILES IDX 91 53 90 54 46 56 78 57 58 58 77 59 59 60 62 61 76 62 95 63
REMARK SMILES IDX 60 64 61 65 75 67 96 68 63 69 47 70 48 71 56 72 49 73 50 74
REMARK SMILES IDX 54 75 57 76 51 77 52 78 55 79 53 80 79 81 80 82 88 83 81 84
REMARK SMILES IDX 82 85 86 86 89 87 83 88 84 89 87 90 85 91 64 92 65 93 73 94
REMARK SMILES IDX 66 95 67 96 71 97 74 98 68 99 69 100 72 101 70 102
REMARK H PARENT 94 55 62 66
REMARK Flexibility Score: inf
ROOT
ATOM      1  O   UNL A   1      37.422  31.427  37.218  1.00  0.00    -0.376 OA
ENDROOT
BRANCH   1   2
ATOM      2  C   UNL A   1      38.008  32.123  36.140  1.00  0.00     0.202 C 
BRANCH   2   3
ATOM      3  C   UNL A   1      37.039  32.899  35.253  1.00  0.00     0.261 C 
BRANCH   3   4
ATOM      4  O   UNL A   1      37.162  32.727  33.815  1.00  0.00    -0.461 OA
BRANCH   4   5
ATOM      5  C   UNL A   1      37.731  33.524  32.886  1.00  0.00     0.344 C 
ATOM      6  O   UNL A   1      37.195  34.581  32.554  1.00  0.00    -0.248 OA
BRANCH   5   7
ATOM      7  C   UNL A   1      38.997  33.068  32.202  1.00  0.00     0.352 C 
BRANCH   7   8
ATOM      8  O   UNL A   1      39.484  31.825  32.694  1.00  0.00    -0.475 OA
BRANCH   8   9
ATOM      9  C   UNL A   1      39.597  30.952  31.657  1.00  0.00     0.197 A 
ATOM     10  C   UNL A   1      40.554  31.285  30.700  1.00  0.00     0.054 A 
ATOM     11  C   UNL A   1      38.910  29.740  31.579  1.00  0.00     0.311 A 
ATOM     12  C   UNL A   1      40.889  30.357  29.722  1.00  0.00     0.012 A 
ATOM     13  C   UNL A   1      39.267  28.795  30.634  1.00  0.00     0.098 A 
ATOM     14  C   UNL A   1      40.265  29.104  29.710  1.00  0.00    -0.018 A 
BRANCH  11  15
ATOM     15  N   UNL A   1      37.802  29.402  32.443  1.00  0.00     0.066 N 
ATOM     16  O   UNL A   1      38.069  29.175  33.629  1.00  0.00    -0.258 OA
ATOM     17  O   UNL A   1      36.685  29.314  31.920  1.00  0.00    -0.258 OA
ENDBRANCH  11  15
BRANCH  14  18
ATOM     18  C   UNL A   1      40.587  28.058  28.758  1.00  0.00     0.012 C 
ATOM     19  C   UNL A   1      40.740  26.779  29.116  1.00  0.00     0.053 C 
BRANCH  19  20
ATOM     20  C   UNL A   1      41.325  25.809  28.164  1.00  0.00     0.188 C 
ATOM     21  O   UNL A   1      42.503  25.894  27.843  1.00  0.00    -0.289 OA
BRANCH  20  22
ATOM     22  C   UNL A   1      40.468  24.727  27.627  1.00  0.00     0.058 A 
ATOM     23  C   UNL A   1      39.306  25.086  26.937  1.00  0.00     0.018 A 
ATOM     24  C   UNL A   1      40.806  23.373  27.764  1.00  0.00     0.137 A 
ATOM     25  C   UNL A   1      38.510  24.091  26.368  1.00  0.00     0.040 A 
ATOM     26  C   UNL A   1      40.016  22.382  27.194  1.00  0.00     0.079 A 
ATOM     27  F   UNL A   1      41.908  22.999  28.430  1.00  0.00    -0.206 F 
ATOM     28  C   UNL A   1      38.874  22.752  26.500  1.00  0.00     0.126 A 
ATOM     29  F   UNL A   1      38.106  21.806  25.945  1.00  0.00    -0.207 F 
ENDBRANCH  20  22
ENDBRANCH  19  20
ENDBRANCH  14  18
ENDBRANCH   8   9
ENDBRANCH   7   8
ENDBRANCH   5   7
ENDBRANCH   4   5
ENDBRANCH   3   4
ENDBRANCH   2   3
ENDBRANCH   1   2
BRANCH   1  30
ATOM     30  C   UNL A   1      37.394  32.081  38.472  1.00  0.00     0.188 C 
BRANCH  30  31
ATOM     31  C   UNL A   1      38.495  33.144  38.670  1.00  0.00     0.188 C 
BRANCH  31  32
ATOM     32  O   UNL A   1      39.263  33.145  39.863  1.00  0.00    -0.376 OA
BRANCH  32  33
ATOM     33  C   UNL A   1      39.589  34.383  40.467  1.00  0.00     0.202 C 
BRANCH  33  34
ATOM     34  C   UNL A   1      41.009  34.943  40.260  1.00  0.00     0.261 C 
BRANCH  34  35
ATOM     35  O   UNL A   1      41.105  36.266  39.684  1.00  0.00    -0.460 OA
BRANCH  35  36
ATOM     36  C   UNL A   1      40.280  36.540  38.636  1.00  0.00     0.338 C 
ATOM     37  O   UNL A   1      39.277  37.224  38.661  1.00  0.00    -0.246 OA
BRANCH  36  38
ATOM     38  C   UNL A   1      40.861  36.029  37.359  1.00  0.00     0.060 A 
ATOM     39  C   UNL A   1      39.996  35.536  36.366  1.00  0.00     0.016 A 
ATOM     40  C   UNL A   1      42.240  35.972  37.155  1.00  0.00     0.016 A 
ATOM     41  C   UNL A   1      40.502  34.941  35.202  1.00  0.00     0.010 A 
ATOM     42  C   UNL A   1      42.746  35.349  35.999  1.00  0.00     0.010 A 
ATOM     43  C   UNL A   1      41.884  34.792  35.035  1.00  0.00    -0.014 A 
BRANCH  43  44
ATOM     44  C   UNL A   1      42.424  33.870  33.992  1.00  0.00     0.031 A 
ATOM     45  C   UNL A   1      42.773  34.445  32.641  1.00  0.00     0.074 A 
ATOM     46  C   UNL A   1      42.613  32.555  34.213  1.00  0.00     0.049 A 
ATOM     47  N   UNL A   1      43.153  33.839  31.544  1.00  0.00    -0.248 NA
ATOM     48  C   UNL A   1      42.672  35.908  32.514  1.00  0.00     0.031 C 
ATOM     49  C   UNL A   1      42.378  31.867  35.478  1.00  0.00     0.029 A 
ATOM     50  N   UNL A   1      43.031  31.558  33.360  1.00  0.00    -0.354 N 
ATOM     51  C   UNL A   1      43.318  34.842  30.596  1.00  0.00     0.074 A 
ATOM     52  C   UNL A   1      42.971  36.091  31.237  1.00  0.00     0.031 C 
ATOM     53  C   UNL A   1      42.634  30.556  35.314  1.00  0.00     0.029 A 
ATOM     54  C   UNL A   1      43.013  30.305  33.922  1.00  0.00     0.049 A 
ATOM     55  H   UNL A   1      43.318  31.729  32.433  1.00  0.00     0.167 HD
ATOM     56  C   UNL A   1      43.727  34.736  29.308  1.00  0.00     0.037 A 
ATOM     57  C   UNL A   1      43.244  29.094  33.372  1.00  0.00     0.037 A 
ATOM     58  C   UNL A   1      44.080  33.498  28.662  1.00  0.00     0.049 A 
ATOM     59  C   UNL A   1      43.615  28.991  31.910  1.00  0.00     0.074 A 
ATOM     60  C   UNL A   1      44.523  33.297  27.367  1.00  0.00     0.029 A 
ATOM     61  N   UNL A   1      44.020  32.248  29.261  1.00  0.00    -0.354 N 
ATOM     62  N   UNL A   1      43.785  29.945  31.027  1.00  0.00    -0.248 NA
ATOM     63  C   UNL A   1      43.828  27.638  31.370  1.00  0.00     0.031 C 
ATOM     64  C   UNL A   1      44.669  31.922  27.161  1.00  0.00     0.029 A 
ATOM     65  C   UNL A   1      44.389  31.270  28.351  1.00  0.00     0.049 A 
ATOM     66  H   UNL A   1      43.755  32.081  30.195  1.00  0.00     0.167 HD
ATOM     67  C   UNL A   1      44.163  29.313  29.846  1.00  0.00     0.074 A 
ATOM     68  C   UNL A   1      44.207  27.895  30.126  1.00  0.00     0.031 C 
ATOM     69  C   UNL A   1      44.449  29.860  28.639  1.00  0.00     0.037 A 
BRANCH  56  70
ATOM     70  C   UNL A   1      43.787  35.995  28.490  1.00  0.00     0.064 A 
ATOM     71  C   UNL A   1      44.994  36.672  28.260  1.00  0.00     0.173 A 
ATOM     72  C   UNL A   1      42.625  36.505  27.890  1.00  0.00     0.173 A 
ATOM     73  F   UNL A   1      46.132  36.234  28.819  1.00  0.00    -0.203 F 
ATOM     74  C   UNL A   1      45.030  37.827  27.481  1.00  0.00     0.198 A 
ATOM     75  C   UNL A   1      42.671  37.640  27.084  1.00  0.00     0.198 A 
ATOM     76  F   UNL A   1      41.445  35.893  28.072  1.00  0.00    -0.203 F 
ATOM     77  F   UNL A   1      46.186  38.484  27.315  1.00  0.00    -0.200 F 
ATOM     78  C   UNL A   1      43.871  38.304  26.888  1.00  0.00     0.200 A 
ATOM     79  F   UNL A   1      41.553  38.087  26.496  1.00  0.00    -0.200 F 
ATOM     80  F   UNL A   1      43.910  39.408  26.128  1.00  0.00    -0.200 F 
ENDBRANCH  56  70
BRANCH  57  81
ATOM     81  C   UNL A   1      43.109  27.857  34.193  1.00  0.00     0.064 A 
ATOM     82  C   UNL A   1      41.873  27.208  34.330  1.00  0.00     0.173 A 
ATOM     83  C   UNL A   1      44.201  27.325  34.894  1.00  0.00     0.173 A 
ATOM     84  F   UNL A   1      40.789  27.693  33.705  1.00  0.00    -0.203 F 
ATOM     85  C   UNL A   1      41.729  26.094  35.156  1.00  0.00     0.198 A 
ATOM     86  C   UNL A   1      44.064  26.191  35.692  1.00  0.00     0.198 A 
ATOM     87  F   UNL A   1      45.405  27.907  34.805  1.00  0.00    -0.203 F 
ATOM     88  F   UNL A   1      40.523  25.531  35.315  1.00  0.00    -0.200 F 
ATOM     89  C   UNL A   1      42.826  25.582  35.831  1.00  0.00     0.200 A 
ATOM     90  F   UNL A   1      45.130  25.690  36.331  1.00  0.00    -0.200 F 
ATOM     91  F   UNL A   1      42.690  24.509  36.621  1.00  0.00    -0.200 F 
ENDBRANCH  57  81
BRANCH  69  92
ATOM     92  C   UNL A   1      44.897  28.939  27.537  1.00  0.00     0.064 A 
ATOM     93  C   UNL A   1      46.212  28.457  27.457  1.00  0.00     0.173 A 
ATOM     94  C   UNL A   1      43.980  28.493  26.571  1.00  0.00     0.173 A 
ATOM     95  F   UNL A   1      47.134  28.857  28.346  1.00  0.00    -0.203 F 
ATOM     96  C   UNL A   1      46.598  27.587  26.437  1.00  0.00     0.198 A 
ATOM     97  C   UNL A   1      44.359  27.597  25.575  1.00  0.00     0.198 A 
ATOM     98  F   UNL A   1      42.706  28.915  26.603  1.00  0.00    -0.203 F 
ATOM     99  F   UNL A   1      47.872  27.182  26.352  1.00  0.00    -0.200 F 
ATOM    100  C   UNL A   1      45.670  27.152  25.503  1.00  0.00     0.200 A 
ATOM    101  F   UNL A   1      43.455  27.164  24.686  1.00  0.00    -0.200 F 
ATOM    102  F   UNL A   1      46.040  26.309  24.530  1.00  0.00    -0.200 F 
ENDBRANCH  69  92
ENDBRANCH  43  44
ENDBRANCH  36  38
ENDBRANCH  35  36
ENDBRANCH  34  35
ENDBRANCH  33  34
ENDBRANCH  32  33
ENDBRANCH  31  32
ENDBRANCH  30  31
ENDBRANCH   1  30
TORSDOF 23
ENDMDL
MODEL 3
REMARK VINA RESULT:     -10.1      5.212     12.285
REMARK SMILES O=C(COc1ccc(/C=C/C(=O)c2ccc(F)cc2F)cc1[N+](=O)[O-])OCCOCCOCCOC(=O)c1ccc(-c2c3nc(c(-c4c(F)c(F)c(F)c(F)c4F)c4ccc([nH]4)c(-c4c(F)c(F)c(F)c(F)c4F)c4nc(c(-c5c(F)c(F)c(F)c(F)c5F)c5ccc2[nH]5)C=C4)C=C3)cc1
REMARK SMILES IDX 29 1 28 2 27 3 26 4 2 5 1 6 3 7 4 8 5 9 6 10 22 11 7 12
REMARK SMILES IDX 21 13 8 14 23 15 24 16 25 17 9 18 10 19 11 20 12 21 13 22
REMARK SMILES IDX 14 23 19 24 15 25 18 26 20 27 16 28 17 29 30 30 31 31 32 32
REMARK SMILES IDX 33 33 34 34 35 35 36 36 37 37 38 38 39 39 100 40 40 41 99 42
REMARK SMILES IDX 41 43 42 44 43 45 93 46 44 47 98 48 92 49 94 50 45 51 97 52
REMARK SMILES IDX 91 53 90 54 46 56 78 57 58 58 77 59 59 60 62 61 76 62 95 63
REMARK SMILES IDX 60 64 61 65 75 67 96 68 63 69 47 70 48 71 56 72 49 73 50 74
REMARK SMILES IDX 54 75 57 76 51 77 52 78 55 79 53 80 79 81 80 82 88 83 81 84
REMARK SMILES IDX 82 85 86 86 89 87 83 88 84 89 87 90 85 91 64 92 65 93 73 94
REMARK SMILES IDX 66 95 67 96 71 97 74 98 68 99 69 100 72 101 70 102
REMARK H PARENT 94 55 62 66
REMARK Flexibility Score: inf
ROOT
ATOM      1  O   UNL A   1      39.551  21.956  26.693  1.00  0.00    -0.376 OA
ENDROOT
BRANCH   1   2
ATOM      2  C   UNL A   1      39.149  23.294  26.495  1.00  0.00     0.202 C 
BRANCH   2   3
ATOM      3  C   UNL A   1      37.735  23.484  25.954  1.00  0.00     0.261 C 
BRANCH   3   4
ATOM      4  O   UNL A   1      36.804  22.378  26.110  1.00  0.00    -0.461 OA
BRANCH   4   5
ATOM      5  C   UNL A   1      35.998  21.781  25.207  1.00  0.00     0.344 C 
ATOM      6  O   UNL A   1      35.969  20.555  25.106  1.00  0.00    -0.248 OA
BRANCH   5   7
ATOM      7  C   UNL A   1      35.187  22.639  24.267  1.00  0.00     0.352 C 
BRANCH   7   8
ATOM      8  O   UNL A   1      33.790  22.602  24.539  1.00  0.00    -0.475 OA
BRANCH   8   9
ATOM      9  C   UNL A   1      33.372  23.854  24.868  1.00  0.00     0.197 A 
ATOM     10  C   UNL A   1      33.748  24.861  23.980  1.00  0.00     0.054 A 
ATOM     11  C   UNL A   1      32.526  24.137  25.941  1.00  0.00     0.311 A 
ATOM     12  C   UNL A   1      33.194  26.127  24.115  1.00  0.00     0.012 A 
ATOM     13  C   UNL A   1      31.939  25.384  26.058  1.00  0.00     0.098 A 
ATOM     14  C   UNL A   1      32.270  26.377  25.136  1.00  0.00    -0.018 A 
BRANCH  11  15
ATOM     15  N   UNL A   1      32.224  23.182  26.983  1.00  0.00     0.066 N 
ATOM     16  O   UNL A   1      31.147  23.324  27.574  1.00  0.00    -0.258 OA
ATOM     17  O   UNL A   1      33.086  22.334  27.238  1.00  0.00    -0.258 OA
ENDBRANCH  11  15
BRANCH  14  18
ATOM     18  C   UNL A   1      31.607  27.654  25.321  1.00  0.00     0.012 C 
ATOM     19  C   UNL A   1      31.159  28.390  24.298  1.00  0.00     0.053 C 
BRANCH  19  20
ATOM     20  C   UNL A   1      30.738  29.790  24.522  1.00  0.00     0.188 C 
ATOM     21  O   UNL A   1      31.158  30.414  25.489  1.00  0.00    -0.289 OA
BRANCH  20  22
ATOM     22  C   UNL A   1      29.820  30.426  23.549  1.00  0.00     0.058 A 
ATOM     23  C   UNL A   1      29.260  31.663  23.882  1.00  0.00     0.018 A 
ATOM     24  C   UNL A   1      29.531  29.842  22.308  1.00  0.00     0.137 A 
ATOM     25  C   UNL A   1      28.438  32.314  22.961  1.00  0.00     0.040 A 
ATOM     26  C   UNL A   1      28.716  30.492  21.388  1.00  0.00     0.079 A 
ATOM     27  F   UNL A   1      30.044  28.651  21.967  1.00  0.00    -0.206 F 
ATOM     28  C   UNL A   1      28.177  31.725  21.725  1.00  0.00     0.126 A 
ATOM     29  F   UNL A   1      27.393  32.361  20.846  1.00  0.00    -0.207 F 
ENDBRANCH  20  22
ENDBRANCH  19  20
ENDBRANCH  14  18
ENDBRANCH   8   9
ENDBRANCH   7   8
ENDBRANCH   5   7
ENDBRANCH   4   5
ENDBRANCH   3   4
ENDBRANCH   2   3
ENDBRANCH   1   2
BRANCH   1  30
ATOM     30  C   UNL A   1      40.929  21.669  26.563  1.00  0.00     0.188 C 
BRANCH  30  31
ATOM     31  C   UNL A   1      41.275  20.165  26.527  1.00  0.00     0.188 C 
BRANCH  31  32
ATOM     32  O   UNL A   1      41.912  19.564  27.643  1.00  0.00    -0.376 OA
BRANCH  32  33
ATOM     33  C   UNL A   1      42.712  18.415  27.438  1.00  0.00     0.202 C 
BRANCH  33  34
ATOM     34  C   UNL A   1      43.249  18.144  26.021  1.00  0.00     0.261 C 
BRANCH  34  35
ATOM     35  O   UNL A   1      44.482  18.807  25.659  1.00  0.00    -0.460 OA
BRANCH  35  36
ATOM     36  C   UNL A   1      44.447  19.612  24.562  1.00  0.00     0.338 C 
ATOM     37  O   UNL A   1      43.968  19.343  23.478  1.00  0.00    -0.246 OA
BRANCH  36  38
ATOM     38  C   UNL A   1      44.928  20.985  24.898  1.00  0.00     0.060 A 
ATOM     39  C   UNL A   1      45.182  21.307  26.243  1.00  0.00     0.016 A 
ATOM     40  C   UNL A   1      45.068  21.970  23.920  1.00  0.00     0.016 A 
ATOM     41  C   UNL A   1      45.523  22.614  26.617  1.00  0.00     0.010 A 
ATOM     42  C   UNL A   1      45.382  23.287  24.301  1.00  0.00     0.010 A 
ATOM     43  C   UNL A   1      45.571  23.629  25.654  1.00  0.00    -0.014 A 
BRANCH  43  44
ATOM     44  C   UNL A   1      45.588  25.064  26.068  1.00  0.00     0.031 A 
ATOM     45  C   UNL A   1      46.901  25.805  26.023  1.00  0.00     0.074 A 
ATOM     46  C   UNL A   1      44.480  25.715  26.473  1.00  0.00     0.049 A 
ATOM     47  N   UNL A   1      47.196  27.015  26.431  1.00  0.00    -0.248 NA
ATOM     48  C   UNL A   1      48.038  25.074  25.442  1.00  0.00     0.031 C 
ATOM     49  C   UNL A   1      43.134  25.153  26.514  1.00  0.00     0.029 A 
ATOM     50  N   UNL A   1      44.324  26.999  26.947  1.00  0.00    -0.354 N 
ATOM     51  C   UNL A   1      48.552  27.181  26.173  1.00  0.00     0.074 A 
ATOM     52  C   UNL A   1      49.027  25.941  25.599  1.00  0.00     0.031 C 
ATOM     53  C   UNL A   1      42.292  26.078  27.010  1.00  0.00     0.029 A 
ATOM     54  C   UNL A   1      43.045  27.285  27.357  1.00  0.00     0.049 A 
ATOM     55  H   UNL A   1      45.061  27.650  26.988  1.00  0.00     0.167 HD
ATOM     56  C   UNL A   1      49.331  28.268  26.387  1.00  0.00     0.037 A 
ATOM     57  C   UNL A   1      42.544  28.379  27.969  1.00  0.00     0.037 A 
ATOM     58  C   UNL A   1      48.866  29.508  26.952  1.00  0.00     0.049 A 
ATOM     59  C   UNL A   1      43.452  29.549  28.277  1.00  0.00     0.074 A 
ATOM     60  C   UNL A   1      49.580  30.670  27.188  1.00  0.00     0.029 A 
ATOM     61  N   UNL A   1      47.568  29.745  27.379  1.00  0.00    -0.354 N 
ATOM     62  N   UNL A   1      44.727  29.703  28.014  1.00  0.00    -0.248 NA
ATOM     63  C   UNL A   1      42.846  30.699  28.969  1.00  0.00     0.031 C 
ATOM     64  C   UNL A   1      48.734  31.586  27.817  1.00  0.00     0.029 A 
ATOM     65  C   UNL A   1      47.470  31.024  27.905  1.00  0.00     0.049 A 
ATOM     66  H   UNL A   1      46.826  29.101  27.316  1.00  0.00     0.167 HD
ATOM     67  C   UNL A   1      45.062  30.976  28.468  1.00  0.00     0.074 A 
ATOM     68  C   UNL A   1      43.856  31.556  29.014  1.00  0.00     0.031 C 
ATOM     69  C   UNL A   1      46.262  31.606  28.432  1.00  0.00     0.037 A 
BRANCH  56  70
ATOM     70  C   UNL A   1      50.789  28.160  26.037  1.00  0.00     0.064 A 
ATOM     71  C   UNL A   1      51.248  28.301  24.720  1.00  0.00     0.173 A 
ATOM     72  C   UNL A   1      51.745  27.958  27.046  1.00  0.00     0.173 A 
ATOM     73  F   UNL A   1      50.376  28.484  23.716  1.00  0.00    -0.203 F 
ATOM     74  C   UNL A   1      52.606  28.217  24.421  1.00  0.00     0.198 A 
ATOM     75  C   UNL A   1      53.104  27.910  26.748  1.00  0.00     0.198 A 
ATOM     76  F   UNL A   1      51.362  27.824  28.324  1.00  0.00    -0.203 F 
ATOM     77  F   UNL A   1      53.017  28.306  23.148  1.00  0.00    -0.200 F 
ATOM     78  C   UNL A   1      53.533  28.031  25.435  1.00  0.00     0.200 A 
ATOM     79  F   UNL A   1      53.999  27.749  27.733  1.00  0.00    -0.200 F 
ATOM     80  F   UNL A   1      54.840  27.964  25.147  1.00  0.00    -0.200 F 
ENDBRANCH  56  70
BRANCH  57  81
ATOM     81  C   UNL A   1      41.109  28.429  28.365  1.00  0.00     0.064 A 
ATOM     82  C   UNL A   1      40.142  29.000  27.523  1.00  0.00     0.173 A 
ATOM     83  C   UNL A   1      40.679  27.952  29.613  1.00  0.00     0.173 A 
ATOM     84  F   UNL A   1      40.504  29.500  26.332  1.00  0.00    -0.203 F 
ATOM     85  C   UNL A   1      38.812  29.113  27.923  1.00  0.00     0.198 A 
ATOM     86  C   UNL A   1      39.342  28.034  29.997  1.00  0.00     0.198 A 
ATOM     87  F   UNL A   1      41.560  27.402  30.461  1.00  0.00    -0.203 F 
ATOM     88  F   UNL A   1      37.922  29.717  27.122  1.00  0.00    -0.200 F 
ATOM     89  C   UNL A   1      38.411  28.625  29.157  1.00  0.00     0.200 A 
ATOM     90  F   UNL A   1      38.957  27.547  31.184  1.00  0.00    -0.200 F 
ATOM     91  F   UNL A   1      37.132  28.731  29.540  1.00  0.00    -0.200 F 
ENDBRANCH  57  81
BRANCH  69  92
ATOM     92  C   UNL A   1      46.330  33.020  28.940  1.00  0.00     0.064 A 
ATOM     93  C   UNL A   1      45.981  34.117  28.140  1.00  0.00     0.173 A 
ATOM     94  C   UNL A   1      46.706  33.276  30.269  1.00  0.00     0.173 A 
ATOM     95  F   UNL A   1      45.624  33.933  26.859  1.00  0.00    -0.203 F 
ATOM     96  C   UNL A   1      46.032  35.418  28.640  1.00  0.00     0.198 A 
ATOM     97  C   UNL A   1      46.721  34.573  30.778  1.00  0.00     0.198 A 
ATOM     98  F   UNL A   1      47.042  32.264  31.084  1.00  0.00    -0.203 F 
ATOM     99  F   UNL A   1      45.744  36.453  27.840  1.00  0.00    -0.200 F 
ATOM    100  C   UNL A   1      46.394  35.643  29.960  1.00  0.00     0.200 A 
ATOM    101  F   UNL A   1      47.053  34.785  32.058  1.00  0.00    -0.200 F 
ATOM    102  F   UNL A   1      46.433  36.892  30.442  1.00  0.00    -0.200 F 
ENDBRANCH  69  92
ENDBRANCH  43  44
ENDBRANCH  36  38
ENDBRANCH  35  36
ENDBRANCH  34  35
ENDBRANCH  33  34
ENDBRANCH  32  33
ENDBRANCH  31  32
ENDBRANCH  30  31
ENDBRANCH   1  30
TORSDOF 23
ENDMDL
