MODEL 1
REMARK VINA RESULT:     -12.8      0.000      0.000
REMARK SMILES Cc1ccc(S(=O)(=O)CC(=O)N2CCC(C(=O)OCCOCCOCCOC(=O)c3ccc(-c4c5nc(c(-c6c(F)c(F)c(F)c(F)c6F)c6ccc([nH]6)c(-c6c(F)c(F)c(F)c(F)c6F)c6nc(c(-c7c(F)c(F)c(F)c(F)c7F)c7ccc4[nH]7)C=C6)C=C5)cc3)CC2)cc1
REMARK SMILES IDX 22 1 21 2 20 3 19 4 18 5 16 6 17 7 15 8 10 9 11 10 12 11
REMARK SMILES IDX 13 12 94 13 14 14 93 15 9 16 6 17 7 18 8 19 5 20 1 21 2 22
REMARK SMILES IDX 3 23 96 24 4 25 95 26 23 27 24 28 25 29 26 30 27 31 28 32
REMARK SMILES IDX 29 33 30 34 31 35 92 36 32 37 91 38 33 39 34 40 35 41 85 42
REMARK SMILES IDX 36 43 90 44 84 45 86 46 37 47 89 48 83 49 82 50 38 52 70 53
REMARK SMILES IDX 50 54 69 55 51 56 54 57 68 58 87 59 52 60 53 61 67 63 88 64
REMARK SMILES IDX 55 65 39 66 40 67 48 68 41 69 42 70 46 71 49 72 43 73 44 74
REMARK SMILES IDX 47 75 45 76 71 77 72 78 80 79 73 80 74 81 78 82 81 83 75 84
REMARK SMILES IDX 76 85 79 86 77 87 56 88 57 89 65 90 58 91 59 92 63 93 66 94
REMARK SMILES IDX 60 95 61 96 64 97 62 98
REMARK H PARENT 86 51 54 62
REMARK Flexibility Score: inf
ROOT
ATOM      1  C   UNL A   1      40.508  19.927  26.176  1.00  0.00     0.188 C 
ENDROOT
BRANCH   1   2
ATOM      2  O   UNL A   1      39.611  20.985  26.590  1.00  0.00    -0.376 OA
BRANCH   2   3
ATOM      3  C   UNL A   1      38.795  21.802  25.739  1.00  0.00     0.202 C 
BRANCH   3   4
ATOM      4  C   UNL A   1      37.175  21.530  25.184  1.00  0.00     0.261 C 
BRANCH   4   5
ATOM      5  O   UNL A   1      36.183  20.168  25.021  1.00  0.00    -0.463 OA
BRANCH   5   6
ATOM      6  C   UNL A   1      34.806  19.881  24.950  1.00  0.00     0.309 C 
ATOM      7  O   UNL A   1      34.271  18.936  24.375  1.00  0.00    -0.252 OA
BRANCH   6   8
ATOM      8  C   UNL A   1      33.730  20.621  25.680  1.00  0.00     0.103 C 
ATOM      9  C   UNL A   1      32.977  24.320  25.750  1.00  0.00     0.238 C 
ATOM     10  O   UNL A   1      33.957  24.747  26.367  1.00  0.00    -0.274 OA
ATOM     11  N   UNL A   1      32.422  23.098  26.098  1.00  0.00    -0.342 N 
ATOM     12  C   UNL A   1      32.993  22.371  27.232  1.00  0.00     0.120 C 
ATOM     13  C   UNL A   1      31.760  22.231  25.144  1.00  0.00     0.120 C 
ATOM     14  C   UNL A   1      34.190  21.546  26.767  1.00  0.00     0.037 C 
ATOM     15  C   UNL A   1      32.847  21.349  24.563  1.00  0.00     0.037 C 
BRANCH   9  16
ATOM     16  C   UNL A   1      32.293  25.205  24.759  1.00  0.00     0.242 C 
BRANCH  16  17
ATOM     17  S   UNL A   1      31.223  26.469  25.328  1.00  0.00     0.187 S 
ATOM     18  O   UNL A   1      30.548  25.920  26.494  1.00  0.00    -0.223 OA
ATOM     19  O   UNL A   1      30.418  26.904  24.199  1.00  0.00    -0.223 OA
BRANCH  17  20
ATOM     20  C   UNL A   1      32.016  27.936  25.927  1.00  0.00     0.067 A 
ATOM     21  C   UNL A   1      33.482  31.666  27.511  1.00  0.00     0.044 C 
ATOM     22  C   UNL A   1      32.985  30.375  26.927  1.00  0.00    -0.051 A 
ATOM     23  C   UNL A   1      31.932  30.366  26.010  1.00  0.00     0.005 A 
ATOM     24  C   UNL A   1      33.574  29.160  27.300  1.00  0.00     0.005 A 
ATOM     25  C   UNL A   1      31.454  29.154  25.508  1.00  0.00     0.020 A 
ATOM     26  C   UNL A   1      33.076  27.940  26.824  1.00  0.00     0.020 A 
ENDBRANCH  17  20
ENDBRANCH  16  17
ENDBRANCH   9  16
ENDBRANCH   6   8
ENDBRANCH   5   6
ENDBRANCH   4   5
ENDBRANCH   3   4
ENDBRANCH   2   3
ENDBRANCH   1   2
BRANCH   1  27
ATOM     27  C   UNL A   1      42.027  19.949  26.362  1.00  0.00     0.188 C 
BRANCH  27  28
ATOM     28  O   UNL A   1      42.649  20.684  25.324  1.00  0.00    -0.376 OA
BRANCH  28  29
ATOM     29  C   UNL A   1      43.638  21.613  25.752  1.00  0.00     0.202 C 
BRANCH  29  30
ATOM     30  C   UNL A   1      43.287  23.084  25.431  1.00  0.00     0.261 C 
BRANCH  30  31
ATOM     31  O   UNL A   1      41.908  23.375  25.774  1.00  0.00    -0.460 OA
BRANCH  31  32
ATOM     32  C   UNL A   1      41.620  23.720  27.073  1.00  0.00     0.338 C 
ATOM     33  O   UNL A   1      41.870  23.026  28.048  1.00  0.00    -0.246 OA
BRANCH  32  34
ATOM     34  C   UNL A   1      40.731  24.937  27.096  1.00  0.00     0.060 A 
ATOM     35  C   UNL A   1      41.039  26.226  26.631  1.00  0.00     0.016 A 
ATOM     36  C   UNL A   1      39.717  24.880  27.983  1.00  0.00     0.016 A 
ATOM     37  C   UNL A   1      40.467  27.434  27.241  1.00  0.00     0.010 A 
ATOM     38  C   UNL A   1      39.507  26.047  28.711  1.00  0.00     0.010 A 
ATOM     39  C   UNL A   1      39.730  27.401  28.430  1.00  0.00    -0.014 A 
BRANCH  39  40
ATOM     40  C   UNL A   1      39.379  28.645  29.457  1.00  0.00     0.031 A 
ATOM     41  C   UNL A   1      38.321  29.962  29.415  1.00  0.00     0.074 A 
ATOM     42  C   UNL A   1      40.160  28.696  30.563  1.00  0.00     0.049 A 
ATOM     43  N   UNL A   1      38.631  31.145  29.921  1.00  0.00    -0.248 NA
ATOM     44  C   UNL A   1      36.989  30.160  28.735  1.00  0.00     0.031 C 
ATOM     45  C   UNL A   1      40.071  29.615  31.698  1.00  0.00     0.029 A 
ATOM     46  N   UNL A   1      41.345  27.989  30.803  1.00  0.00    -0.354 N 
ATOM     47  C   UNL A   1      37.565  32.025  29.736  1.00  0.00     0.074 A 
ATOM     48  C   UNL A   1      36.700  31.445  28.803  1.00  0.00     0.031 C 
ATOM     49  C   UNL A   1      41.285  29.707  32.261  1.00  0.00     0.029 A 
ATOM     50  C   UNL A   1      42.187  28.880  31.487  1.00  0.00     0.049 A 
ATOM     51  H   UNL A   1      41.547  27.060  30.546  1.00  0.00     0.167 HD
ATOM     52  C   UNL A   1      37.370  33.188  30.399  1.00  0.00     0.037 A 
ATOM     53  C   UNL A   1      43.398  29.228  30.978  1.00  0.00     0.037 A 
ATOM     54  C   UNL A   1      38.575  33.574  31.067  1.00  0.00     0.049 A 
ATOM     55  C   UNL A   1      43.537  30.718  30.785  1.00  0.00     0.074 A 
ATOM     56  C   UNL A   1      39.002  33.466  32.371  1.00  0.00     0.029 A 
ATOM     57  N   UNL A   1      39.696  33.800  30.277  1.00  0.00    -0.354 N 
ATOM     58  N   UNL A   1      42.543  31.564  30.847  1.00  0.00    -0.248 NA
ATOM     59  C   UNL A   1      44.805  31.371  30.482  1.00  0.00     0.031 C 
ATOM     60  C   UNL A   1      40.424  33.504  32.342  1.00  0.00     0.029 A 
ATOM     61  C   UNL A   1      40.841  33.717  31.037  1.00  0.00     0.049 A 
ATOM     62  H   UNL A   1      39.674  33.992  29.312  1.00  0.00     0.167 HD
ATOM     63  C   UNL A   1      42.992  32.820  30.531  1.00  0.00     0.074 A 
ATOM     64  C   UNL A   1      44.420  32.651  30.350  1.00  0.00     0.031 C 
ATOM     65  C   UNL A   1      42.148  33.889  30.416  1.00  0.00     0.037 A 
BRANCH  52  66
ATOM     66  C   UNL A   1      36.022  33.891  30.457  1.00  0.00     0.064 A 
ATOM     67  C   UNL A   1      35.301  33.988  31.658  1.00  0.00     0.173 A 
ATOM     68  C   UNL A   1      35.352  34.420  29.319  1.00  0.00     0.173 A 
ATOM     69  F   UNL A   1      35.806  33.492  32.796  1.00  0.00    -0.203 F 
ATOM     70  C   UNL A   1      34.034  34.595  31.721  1.00  0.00     0.198 A 
ATOM     71  C   UNL A   1      34.128  35.090  29.398  1.00  0.00     0.198 A 
ATOM     72  F   UNL A   1      35.836  34.272  28.078  1.00  0.00    -0.203 F 
ATOM     73  F   UNL A   1      33.363  34.620  32.880  1.00  0.00    -0.200 F 
ATOM     74  C   UNL A   1      33.461  35.167  30.599  1.00  0.00     0.200 A 
ATOM     75  F   UNL A   1      33.596  35.641  28.295  1.00  0.00    -0.200 F 
ATOM     76  F   UNL A   1      32.263  35.764  30.665  1.00  0.00    -0.200 F 
ENDBRANCH  52  66
BRANCH  53  77
ATOM     77  C   UNL A   1      44.050  28.140  30.188  1.00  0.00     0.064 A 
ATOM     78  C   UNL A   1      44.486  26.987  30.888  1.00  0.00     0.173 A 
ATOM     79  C   UNL A   1      43.986  28.042  28.795  1.00  0.00     0.173 A 
ATOM     80  F   UNL A   1      44.573  27.010  32.229  1.00  0.00    -0.203 F 
ATOM     81  C   UNL A   1      44.715  25.773  30.245  1.00  0.00     0.198 A 
ATOM     82  C   UNL A   1      44.252  26.826  28.146  1.00  0.00     0.198 A 
ATOM     83  F   UNL A   1      43.540  29.069  28.060  1.00  0.00    -0.203 F 
ATOM     84  F   UNL A   1      44.981  24.674  30.966  1.00  0.00    -0.200 F 
ATOM     85  C   UNL A   1      44.585  25.691  28.874  1.00  0.00     0.200 A 
ATOM     86  F   UNL A   1      44.057  26.720  26.823  1.00  0.00    -0.200 F 
ATOM     87  F   UNL A   1      44.706  24.505  28.260  1.00  0.00    -0.200 F 
ENDBRANCH  53  77
BRANCH  65  88
ATOM     88  C   UNL A   1      42.490  35.220  29.777  1.00  0.00     0.064 A 
ATOM     89  C   UNL A   1      43.319  36.191  30.369  1.00  0.00     0.173 A 
ATOM     90  C   UNL A   1      42.085  35.509  28.449  1.00  0.00     0.173 A 
ATOM     91  F   UNL A   1      43.903  35.986  31.556  1.00  0.00    -0.203 F 
ATOM     92  C   UNL A   1      43.627  37.396  29.730  1.00  0.00     0.198 A 
ATOM     93  C   UNL A   1      42.457  36.678  27.786  1.00  0.00     0.198 A 
ATOM     94  F   UNL A   1      41.334  34.653  27.741  1.00  0.00    -0.203 F 
ATOM     95  F   UNL A   1      44.361  38.316  30.372  1.00  0.00    -0.200 F 
ATOM     96  C   UNL A   1      43.204  37.636  28.437  1.00  0.00     0.200 A 
ATOM     97  F   UNL A   1      42.096  36.864  26.509  1.00  0.00    -0.200 F 
ATOM     98  F   UNL A   1      43.535  38.775  27.816  1.00  0.00    -0.200 F 
ENDBRANCH  65  88
ENDBRANCH  39  40
ENDBRANCH  32  34
ENDBRANCH  31  32
ENDBRANCH  30  31
ENDBRANCH  29  30
ENDBRANCH  28  29
ENDBRANCH  27  28
ENDBRANCH   1  27
TORSDOF 20
ENDMDL
MODEL 2
REMARK VINA RESULT:     -12.7      1.355      2.195
REMARK SMILES Cc1ccc(S(=O)(=O)CC(=O)N2CCC(C(=O)OCCOCCOCCOC(=O)c3ccc(-c4c5nc(c(-c6c(F)c(F)c(F)c(F)c6F)c6ccc([nH]6)c(-c6c(F)c(F)c(F)c(F)c6F)c6nc(c(-c7c(F)c(F)c(F)c(F)c7F)c7ccc4[nH]7)C=C6)C=C5)cc3)CC2)cc1
REMARK SMILES IDX 22 1 21 2 20 3 19 4 18 5 16 6 17 7 15 8 10 9 11 10 12 11
REMARK SMILES IDX 13 12 94 13 14 14 93 15 9 16 6 17 7 18 8 19 5 20 1 21 2 22
REMARK SMILES IDX 3 23 96 24 4 25 95 26 23 27 24 28 25 29 26 30 27 31 28 32
REMARK SMILES IDX 29 33 30 34 31 35 92 36 32 37 91 38 33 39 34 40 35 41 85 42
REMARK SMILES IDX 36 43 90 44 84 45 86 46 37 47 89 48 83 49 82 50 38 52 70 53
REMARK SMILES IDX 50 54 69 55 51 56 54 57 68 58 87 59 52 60 53 61 67 63 88 64
REMARK SMILES IDX 55 65 39 66 40 67 48 68 41 69 42 70 46 71 49 72 43 73 44 74
REMARK SMILES IDX 47 75 45 76 71 77 72 78 80 79 73 80 74 81 78 82 81 83 75 84
REMARK SMILES IDX 76 85 79 86 77 87 56 88 57 89 65 90 58 91 59 92 63 93 66 94
REMARK SMILES IDX 60 95 61 96 64 97 62 98
REMARK H PARENT 86 51 54 62
REMARK Flexibility Score: inf
ROOT
ATOM      1  C   UNL A   1      39.494  21.025  26.123  1.00  0.00     0.188 C 
ENDROOT
BRANCH   1   2
ATOM      2  O   UNL A   1      38.454  21.220  25.135  1.00  0.00    -0.376 OA
BRANCH   2   3
ATOM      3  C   UNL A   1      37.383  20.318  24.823  1.00  0.00     0.202 C 
BRANCH   3   4
ATOM      4  C   UNL A   1      35.672  20.546  24.991  1.00  0.00     0.261 C 
BRANCH   4   5
ATOM      5  O   UNL A   1      34.332  19.513  25.058  1.00  0.00    -0.463 OA
BRANCH   5   6
ATOM      6  C   UNL A   1      32.940  19.597  24.867  1.00  0.00     0.309 C 
ATOM      7  O   UNL A   1      32.133  18.670  24.855  1.00  0.00    -0.252 OA
BRANCH   6   8
ATOM      8  C   UNL A   1      32.155  20.867  24.764  1.00  0.00     0.103 C 
ATOM      9  C   UNL A   1      33.363  24.401  24.214  1.00  0.00     0.238 C 
ATOM     10  O   UNL A   1      33.943  24.619  25.282  1.00  0.00    -0.274 OA
ATOM     11  N   UNL A   1      32.202  23.642  24.203  1.00  0.00    -0.342 N 
ATOM     12  C   UNL A   1      31.672  23.162  25.479  1.00  0.00     0.120 C 
ATOM     13  C   UNL A   1      31.810  22.816  23.079  1.00  0.00     0.120 C 
ATOM     14  C   UNL A   1      32.364  21.859  25.869  1.00  0.00     0.037 C 
ATOM     15  C   UNL A   1      32.456  21.465  23.312  1.00  0.00     0.037 C 
BRANCH   9  16
ATOM     16  C   UNL A   1      33.815  25.107  22.976  1.00  0.00     0.242 C 
BRANCH  16  17
ATOM     17  S   UNL A   1      33.016  26.585  22.488  1.00  0.00     0.187 S 
ATOM     18  O   UNL A   1      31.648  26.209  22.166  1.00  0.00    -0.223 OA
ATOM     19  O   UNL A   1      33.830  27.203  21.454  1.00  0.00    -0.223 OA
BRANCH  17  20
ATOM     20  C   UNL A   1      32.848  27.821  23.747  1.00  0.00     0.067 A 
ATOM     21  C   UNL A   1      31.992  30.614  26.915  1.00  0.00     0.044 C 
ATOM     22  C   UNL A   1      32.292  29.669  25.788  1.00  0.00    -0.051 A 
ATOM     23  C   UNL A   1      31.347  29.427  24.790  1.00  0.00     0.005 A 
ATOM     24  C   UNL A   1      33.530  29.015  25.727  1.00  0.00     0.005 A 
ATOM     25  C   UNL A   1      31.625  28.513  23.772  1.00  0.00     0.020 A 
ATOM     26  C   UNL A   1      33.800  28.072  24.726  1.00  0.00     0.020 A 
ENDBRANCH  17  20
ENDBRANCH  16  17
ENDBRANCH   9  16
ENDBRANCH   6   8
ENDBRANCH   5   6
ENDBRANCH   4   5
ENDBRANCH   3   4
ENDBRANCH   2   3
ENDBRANCH   1   2
BRANCH   1  27
ATOM     27  C   UNL A   1      40.427  19.813  26.178  1.00  0.00     0.188 C 
BRANCH  27  28
ATOM     28  O   UNL A   1      41.572  20.096  26.960  1.00  0.00    -0.376 OA
BRANCH  28  29
ATOM     29  C   UNL A   1      42.500  20.995  26.366  1.00  0.00     0.202 C 
BRANCH  29  30
ATOM     30  C   UNL A   1      42.834  22.218  27.252  1.00  0.00     0.261 C 
BRANCH  30  31
ATOM     31  O   UNL A   1      41.864  23.278  27.059  1.00  0.00    -0.460 OA
BRANCH  31  32
ATOM     32  C   UNL A   1      42.105  24.208  26.077  1.00  0.00     0.338 C 
ATOM     33  O   UNL A   1      43.078  24.201  25.335  1.00  0.00    -0.246 OA
BRANCH  32  34
ATOM     34  C   UNL A   1      41.150  25.366  26.219  1.00  0.00     0.060 A 
ATOM     35  C   UNL A   1      41.349  26.692  25.800  1.00  0.00     0.016 A 
ATOM     36  C   UNL A   1      40.206  25.206  27.168  1.00  0.00     0.016 A 
ATOM     37  C   UNL A   1      40.751  27.833  26.506  1.00  0.00     0.010 A 
ATOM     38  C   UNL A   1      39.978  26.324  27.965  1.00  0.00     0.010 A 
ATOM     39  C   UNL A   1      40.102  27.700  27.738  1.00  0.00    -0.014 A 
BRANCH  39  40
ATOM     40  C   UNL A   1      39.751  28.872  28.847  1.00  0.00     0.031 A 
ATOM     41  C   UNL A   1      38.623  30.126  28.937  1.00  0.00     0.074 A 
ATOM     42  C   UNL A   1      40.597  28.916  29.904  1.00  0.00     0.049 A 
ATOM     43  N   UNL A   1      38.900  31.300  29.483  1.00  0.00    -0.248 NA
ATOM     44  C   UNL A   1      37.241  30.280  28.351  1.00  0.00     0.031 C 
ATOM     45  C   UNL A   1      40.532  29.773  31.087  1.00  0.00     0.029 A 
ATOM     46  N   UNL A   1      41.833  28.267  30.034  1.00  0.00    -0.354 N 
ATOM     47  C   UNL A   1      37.778  32.125  29.409  1.00  0.00     0.074 A 
ATOM     48  C   UNL A   1      36.887  31.541  28.503  1.00  0.00     0.031 C 
ATOM     49  C   UNL A   1      41.773  29.907  31.578  1.00  0.00     0.029 A 
ATOM     50  C   UNL A   1      42.667  29.172  30.708  1.00  0.00     0.049 A 
ATOM     51  H   UNL A   1      42.067  27.364  29.718  1.00  0.00     0.167 HD
ATOM     52  C   UNL A   1      37.563  33.243  30.141  1.00  0.00     0.037 A 
ATOM     53  C   UNL A   1      43.822  29.612  30.145  1.00  0.00     0.037 A 
ATOM     54  C   UNL A   1      38.786  33.665  30.752  1.00  0.00     0.049 A 
ATOM     55  C   UNL A   1      43.867  31.115  30.019  1.00  0.00     0.074 A 
ATOM     56  C   UNL A   1      39.301  33.520  32.019  1.00  0.00     0.029 A 
ATOM     57  N   UNL A   1      39.840  33.992  29.907  1.00  0.00    -0.354 N 
ATOM     58  N   UNL A   1      42.835  31.899  30.185  1.00  0.00    -0.248 NA
ATOM     59  C   UNL A   1      45.075  31.853  29.672  1.00  0.00     0.031 C 
ATOM     60  C   UNL A   1      40.714  33.641  31.905  1.00  0.00     0.029 A 
ATOM     61  C   UNL A   1      41.034  33.939  30.589  1.00  0.00     0.049 A 
ATOM     62  H   UNL A   1      39.745  34.228  28.956  1.00  0.00     0.167 HD
ATOM     63  C   UNL A   1      43.193  33.192  29.907  1.00  0.00     0.074 A 
ATOM     64  C   UNL A   1      44.614  33.114  29.629  1.00  0.00     0.031 C 
ATOM     65  C   UNL A   1      42.287  34.215  29.899  1.00  0.00     0.037 A 
BRANCH  52  66
ATOM     66  C   UNL A   1      36.185  33.863  30.317  1.00  0.00     0.064 A 
ATOM     67  C   UNL A   1      35.543  33.871  31.566  1.00  0.00     0.173 A 
ATOM     68  C   UNL A   1      35.411  34.397  29.250  1.00  0.00     0.173 A 
ATOM     69  F   UNL A   1      36.151  33.360  32.646  1.00  0.00    -0.203 F 
ATOM     70  C   UNL A   1      34.252  34.401  31.739  1.00  0.00     0.198 A 
ATOM     71  C   UNL A   1      34.160  34.991  29.438  1.00  0.00     0.198 A 
ATOM     72  F   UNL A   1      35.817  34.326  27.974  1.00  0.00    -0.203 F 
ATOM     73  F   UNL A   1      33.661  34.341  32.939  1.00  0.00    -0.200 F 
ATOM     74  C   UNL A   1      33.573  34.982  30.682  1.00  0.00     0.200 A 
ATOM     75  F   UNL A   1      33.525  35.554  28.398  1.00  0.00    -0.200 F 
ATOM     76  F   UNL A   1      32.352  35.506  30.853  1.00  0.00    -0.200 F 
ENDBRANCH  52  66
BRANCH  53  77
ATOM     77  C   UNL A   1      44.480  28.601  29.261  1.00  0.00     0.064 A 
ATOM     78  C   UNL A   1      44.276  28.715  27.864  1.00  0.00     0.173 A 
ATOM     79  C   UNL A   1      45.510  27.753  29.680  1.00  0.00     0.173 A 
ATOM     80  F   UNL A   1      43.302  29.511  27.391  1.00  0.00    -0.203 F 
ATOM     81  C   UNL A   1      45.133  28.122  26.940  1.00  0.00     0.198 A 
ATOM     82  C   UNL A   1      46.351  27.130  28.746  1.00  0.00     0.198 A 
ATOM     83  F   UNL A   1      45.800  27.625  30.981  1.00  0.00    -0.203 F 
ATOM     84  F   UNL A   1      44.989  28.380  25.632  1.00  0.00    -0.200 F 
ATOM     85  C   UNL A   1      46.180  27.339  27.383  1.00  0.00     0.200 A 
ATOM     86  F   UNL A   1      47.413  26.427  29.170  1.00  0.00    -0.200 F 
ATOM     87  F   UNL A   1      47.068  26.848  26.506  1.00  0.00    -0.200 F 
ENDBRANCH  53  77
BRANCH  65  88
ATOM     88  C   UNL A   1      42.514  35.593  29.308  1.00  0.00     0.064 A 
ATOM     89  C   UNL A   1      41.886  36.066  28.142  1.00  0.00     0.173 A 
ATOM     90  C   UNL A   1      43.299  36.553  29.997  1.00  0.00     0.173 A 
ATOM     91  F   UNL A   1      40.996  35.323  27.473  1.00  0.00    -0.203 F 
ATOM     92  C   UNL A   1      42.109  37.355  27.647  1.00  0.00     0.198 A 
ATOM     93  C   UNL A   1      43.458  37.861  29.541  1.00  0.00     0.198 A 
ATOM     94  F   UNL A   1      43.917  36.259  31.150  1.00  0.00    -0.203 F 
ATOM     95  F   UNL A   1      41.542  37.727  26.491  1.00  0.00    -0.200 F 
ATOM     96  C   UNL A   1      42.887  38.254  28.350  1.00  0.00     0.200 A 
ATOM     97  F   UNL A   1      44.159  38.740  30.271  1.00  0.00    -0.200 F 
ATOM     98  F   UNL A   1      43.065  39.500  27.892  1.00  0.00    -0.200 F 
ENDBRANCH  65  88
ENDBRANCH  39  40
ENDBRANCH  32  34
ENDBRANCH  31  32
ENDBRANCH  30  31
ENDBRANCH  29  30
ENDBRANCH  28  29
ENDBRANCH  27  28
ENDBRANCH   1  27
TORSDOF 20
ENDMDL
MODEL 3
REMARK VINA RESULT:     -12.6      4.130     10.201
REMARK SMILES Cc1ccc(S(=O)(=O)CC(=O)N2CCC(C(=O)OCCOCCOCCOC(=O)c3ccc(-c4c5nc(c(-c6c(F)c(F)c(F)c(F)c6F)c6ccc([nH]6)c(-c6c(F)c(F)c(F)c(F)c6F)c6nc(c(-c7c(F)c(F)c(F)c(F)c7F)c7ccc4[nH]7)C=C6)C=C5)cc3)CC2)cc1
REMARK SMILES IDX 22 1 21 2 20 3 19 4 18 5 16 6 17 7 15 8 10 9 11 10 12 11
REMARK SMILES IDX 13 12 94 13 14 14 93 15 9 16 6 17 7 18 8 19 5 20 1 21 2 22
REMARK SMILES IDX 3 23 96 24 4 25 95 26 23 27 24 28 25 29 26 30 27 31 28 32
REMARK SMILES IDX 29 33 30 34 31 35 92 36 32 37 91 38 33 39 34 40 35 41 85 42
REMARK SMILES IDX 36 43 90 44 84 45 86 46 37 47 89 48 83 49 82 50 38 52 70 53
REMARK SMILES IDX 50 54 69 55 51 56 54 57 68 58 87 59 52 60 53 61 67 63 88 64
REMARK SMILES IDX 55 65 39 66 40 67 48 68 41 69 42 70 46 71 49 72 43 73 44 74
REMARK SMILES IDX 47 75 45 76 71 77 72 78 80 79 73 80 74 81 78 82 81 83 75 84
REMARK SMILES IDX 76 85 79 86 77 87 56 88 57 89 65 90 58 91 59 92 63 93 66 94
REMARK SMILES IDX 60 95 61 96 64 97 62 98
REMARK H PARENT 86 51 54 62
REMARK Flexibility Score: inf
ROOT
ATOM      1  C   UNL A   1      34.276  33.485  28.372  1.00  0.00     0.188 C 
ENDROOT
BRANCH   1   2
ATOM      2  O   UNL A   1      34.409  32.099  28.766  1.00  0.00    -0.376 OA
BRANCH   2   3
ATOM      3  C   UNL A   1      35.308  31.129  28.210  1.00  0.00     0.202 C 
BRANCH   3   4
ATOM      4  C   UNL A   1      34.958  29.576  27.522  1.00  0.00     0.261 C 
BRANCH   4   5
ATOM      5  O   UNL A   1      33.664  28.925  26.646  1.00  0.00    -0.463 OA
BRANCH   5   6
ATOM      6  C   UNL A   1      32.427  28.309  26.914  1.00  0.00     0.309 C 
ATOM      7  O   UNL A   1      31.937  28.071  28.015  1.00  0.00    -0.252 OA
BRANCH   6   8
ATOM      8  C   UNL A   1      31.405  27.937  25.886  1.00  0.00     0.103 C 
ATOM      9  C   UNL A   1      31.609  25.397  23.101  1.00  0.00     0.238 C 
ATOM     10  O   UNL A   1      32.443  25.928  22.360  1.00  0.00    -0.274 OA
ATOM     11  N   UNL A   1      30.691  26.183  23.780  1.00  0.00    -0.342 N 
ATOM     12  C   UNL A   1      30.710  27.629  23.555  1.00  0.00     0.120 C 
ATOM     13  C   UNL A   1      30.140  25.817  25.070  1.00  0.00     0.120 C 
ATOM     14  C   UNL A   1      31.745  28.281  24.467  1.00  0.00     0.037 C 
ATOM     15  C   UNL A   1      31.093  26.384  26.103  1.00  0.00     0.037 C 
BRANCH   9  16
ATOM     16  C   UNL A   1      31.485  23.907  23.114  1.00  0.00     0.242 C 
BRANCH  16  17
ATOM     17  S   UNL A   1      32.883  22.923  22.744  1.00  0.00     0.187 S 
ATOM     18  O   UNL A   1      33.368  23.393  21.455  1.00  0.00    -0.223 OA
ATOM     19  O   UNL A   1      32.487  21.531  22.872  1.00  0.00    -0.223 OA
BRANCH  17  20
ATOM     20  C   UNL A   1      34.269  23.114  23.832  1.00  0.00     0.067 A 
ATOM     21  C   UNL A   1      37.833  23.888  26.128  1.00  0.00     0.044 C 
ATOM     22  C   UNL A   1      36.600  23.583  25.328  1.00  0.00    -0.051 A 
ATOM     23  C   UNL A   1      36.696  23.193  23.991  1.00  0.00     0.005 A 
ATOM     24  C   UNL A   1      35.333  23.690  25.917  1.00  0.00     0.005 A 
ATOM     25  C   UNL A   1      35.537  22.955  23.249  1.00  0.00     0.020 A 
ATOM     26  C   UNL A   1      34.167  23.483  25.167  1.00  0.00     0.020 A 
ENDBRANCH  17  20
ENDBRANCH  16  17
ENDBRANCH   9  16
ENDBRANCH   6   8
ENDBRANCH   5   6
ENDBRANCH   4   5
ENDBRANCH   3   4
ENDBRANCH   2   3
ENDBRANCH   1   2
BRANCH   1  27
ATOM     27  C   UNL A   1      32.974  34.135  27.895  1.00  0.00     0.188 C 
BRANCH  27  28
ATOM     28  O   UNL A   1      32.543  35.126  28.809  1.00  0.00    -0.376 OA
BRANCH  28  29
ATOM     29  C   UNL A   1      33.487  35.467  29.817  1.00  0.00     0.202 C 
BRANCH  29  30
ATOM     30  C   UNL A   1      32.840  35.864  31.164  1.00  0.00     0.261 C 
BRANCH  30  31
ATOM     31  O   UNL A   1      33.069  34.844  32.170  1.00  0.00    -0.460 OA
BRANCH  31  32
ATOM     32  C   UNL A   1      34.103  35.027  33.056  1.00  0.00     0.338 C 
ATOM     33  O   UNL A   1      34.415  36.102  33.549  1.00  0.00    -0.246 OA
BRANCH  32  34
ATOM     34  C   UNL A   1      34.944  33.778  33.128  1.00  0.00     0.060 A 
ATOM     35  C   UNL A   1      35.935  33.472  34.076  1.00  0.00     0.016 A 
ATOM     36  C   UNL A   1      35.029  33.087  31.974  1.00  0.00     0.016 A 
ATOM     37  C   UNL A   1      37.104  32.645  33.745  1.00  0.00     0.010 A 
ATOM     38  C   UNL A   1      36.304  32.627  31.656  1.00  0.00     0.010 A 
ATOM     39  C   UNL A   1      37.409  32.261  32.434  1.00  0.00    -0.014 A 
BRANCH  39  40
ATOM     40  C   UNL A   1      38.845  31.714  31.831  1.00  0.00     0.031 A 
ATOM     41  C   UNL A   1      39.300  30.459  30.796  1.00  0.00     0.074 A 
ATOM     42  C   UNL A   1      39.938  32.345  32.324  1.00  0.00     0.049 A 
ATOM     43  N   UNL A   1      40.416  29.766  30.960  1.00  0.00    -0.248 NA
ATOM     44  C   UNL A   1      38.575  29.776  29.663  1.00  0.00     0.031 C 
ATOM     45  C   UNL A   1      41.340  32.159  31.954  1.00  0.00     0.029 A 
ATOM     46  N   UNL A   1      39.999  33.207  33.427  1.00  0.00    -0.354 N 
ATOM     47  C   UNL A   1      40.518  28.802  29.957  1.00  0.00     0.074 A 
ATOM     48  C   UNL A   1      39.264  28.696  29.348  1.00  0.00     0.031 C 
ATOM     49  C   UNL A   1      42.102  32.522  32.996  1.00  0.00     0.029 A 
ATOM     50  C   UNL A   1      41.213  32.916  34.069  1.00  0.00     0.049 A 
ATOM     51  H   UNL A   1      39.330  33.878  33.697  1.00  0.00     0.167 HD
ATOM     52  C   UNL A   1      41.646  28.149  29.593  1.00  0.00     0.037 A 
ATOM     53  C   UNL A   1      41.239  32.498  35.361  1.00  0.00     0.037 A 
ATOM     54  C   UNL A   1      42.650  28.318  30.598  1.00  0.00     0.049 A 
ATOM     55  C   UNL A   1      41.913  31.159  35.522  1.00  0.00     0.074 A 
ATOM     56  C   UNL A   1      43.744  29.146  30.702  1.00  0.00     0.029 A 
ATOM     57  N   UNL A   1      42.362  27.843  31.872  1.00  0.00    -0.354 N 
ATOM     58  N   UNL A   1      42.213  30.362  34.531  1.00  0.00    -0.248 NA
ATOM     59  C   UNL A   1      42.283  30.599  36.816  1.00  0.00     0.031 C 
ATOM     60  C   UNL A   1      44.038  29.267  32.089  1.00  0.00     0.029 A 
ATOM     61  C   UNL A   1      43.175  28.449  32.803  1.00  0.00     0.049 A 
ATOM     62  H   UNL A   1      41.673  27.171  32.079  1.00  0.00     0.167 HD
ATOM     63  C   UNL A   1      42.728  29.191  35.024  1.00  0.00     0.074 A 
ATOM     64  C   UNL A   1      42.786  29.407  36.457  1.00  0.00     0.031 C 
ATOM     65  C   UNL A   1      43.035  28.131  34.218  1.00  0.00     0.037 A 
BRANCH  52  66
ATOM     66  C   UNL A   1      41.791  27.429  28.261  1.00  0.00     0.064 A 
ATOM     67  C   UNL A   1      41.887  26.030  28.195  1.00  0.00     0.173 A 
ATOM     68  C   UNL A   1      41.923  28.091  27.009  1.00  0.00     0.173 A 
ATOM     69  F   UNL A   1      41.817  25.290  29.311  1.00  0.00    -0.203 F 
ATOM     70  C   UNL A   1      42.064  25.350  26.977  1.00  0.00     0.198 A 
ATOM     71  C   UNL A   1      42.023  27.410  25.793  1.00  0.00     0.198 A 
ATOM     72  F   UNL A   1      42.004  29.426  26.918  1.00  0.00    -0.203 F 
ATOM     73  F   UNL A   1      42.200  24.017  26.969  1.00  0.00    -0.200 F 
ATOM     74  C   UNL A   1      42.107  26.038  25.776  1.00  0.00     0.200 A 
ATOM     75  F   UNL A   1      42.056  28.101  24.642  1.00  0.00    -0.200 F 
ATOM     76  F   UNL A   1      42.254  25.387  24.614  1.00  0.00    -0.200 F 
ENDBRANCH  52  66
BRANCH  53  77
ATOM     77  C   UNL A   1      40.143  33.075  36.198  1.00  0.00     0.064 A 
ATOM     78  C   UNL A   1      39.093  32.211  36.596  1.00  0.00     0.173 A 
ATOM     79  C   UNL A   1      40.232  34.303  36.861  1.00  0.00     0.173 A 
ATOM     80  F   UNL A   1      38.945  31.016  36.001  1.00  0.00    -0.203 F 
ATOM     81  C   UNL A   1      38.266  32.501  37.679  1.00  0.00     0.198 A 
ATOM     82  C   UNL A   1      39.376  34.607  37.930  1.00  0.00     0.198 A 
ATOM     83  F   UNL A   1      41.223  35.159  36.579  1.00  0.00    -0.203 F 
ATOM     84  F   UNL A   1      37.385  31.587  38.112  1.00  0.00    -0.200 F 
ATOM     85  C   UNL A   1      38.417  33.695  38.355  1.00  0.00     0.200 A 
ATOM     86  F   UNL A   1      39.564  35.732  38.637  1.00  0.00    -0.200 F 
ATOM     87  F   UNL A   1      37.695  33.937  39.458  1.00  0.00    -0.200 F 
ENDBRANCH  53  77
BRANCH  65  88
ATOM     88  C   UNL A   1      43.303  26.714  34.685  1.00  0.00     0.064 A 
ATOM     89  C   UNL A   1      42.300  25.803  35.062  1.00  0.00     0.173 A 
ATOM     90  C   UNL A   1      44.614  26.175  34.640  1.00  0.00     0.173 A 
ATOM     91  F   UNL A   1      41.001  26.125  35.002  1.00  0.00    -0.203 F 
ATOM     92  C   UNL A   1      42.594  24.496  35.464  1.00  0.00     0.198 A 
ATOM     93  C   UNL A   1      44.894  24.849  34.968  1.00  0.00     0.198 A 
ATOM     94  F   UNL A   1      45.665  26.913  34.251  1.00  0.00    -0.203 F 
ATOM     95  F   UNL A   1      41.605  23.695  35.883  1.00  0.00    -0.200 F 
ATOM     96  C   UNL A   1      43.888  24.017  35.409  1.00  0.00     0.200 A 
ATOM     97  F   UNL A   1      46.145  24.382  34.843  1.00  0.00    -0.200 F 
ATOM     98  F   UNL A   1      44.159  22.753  35.758  1.00  0.00    -0.200 F 
ENDBRANCH  65  88
ENDBRANCH  39  40
ENDBRANCH  32  34
ENDBRANCH  31  32
ENDBRANCH  30  31
ENDBRANCH  29  30
ENDBRANCH  28  29
ENDBRANCH  27  28
ENDBRANCH   1  27
TORSDOF 20
ENDMDL
