MODEL 1
REMARK VINA RESULT:     -11.9      0.000      0.000
REMARK SMILES Cc1c(C(=O)OCCOCCOCCOC(=O)c2ccc(-c3c4nc(c(-c5c(F)c(F)c(F)c(F)c5F)c5ccc([nH]5)c(-c5c(F)c(F)c(F)c(F)c5F)c5nc(c(-c6c(F)c(F)c(F)c(F)c6F)c6ccc3[nH]6)C=C5)C=C4)cc2)sc2c1=C(CSc1nncn1-c1ccccc1)CC(=O)N=2
REMARK SMILES IDX 10 1 9 2 8 3 7 4 6 5 4 6 5 7 3 8 1 9 2 10 83 11 81 12 82 13
REMARK SMILES IDX 84 14 101 15 98 16 99 17 100 18 85 19 86 20 87 21 88 22
REMARK SMILES IDX 91 23 89 24 90 25 92 26 93 27 97 28 94 29 96 30 95 31 11 32
REMARK SMILES IDX 12 33 13 34 14 35 15 36 16 37 17 38 18 39 19 40 80 41 20 42
REMARK SMILES IDX 79 43 21 44 22 45 23 46 73 47 24 48 78 49 72 50 74 51 25 52
REMARK SMILES IDX 77 53 71 54 70 55 26 57 58 58 38 59 57 60 39 61 42 62 56 63
REMARK SMILES IDX 75 64 40 65 41 66 55 68 76 69 43 70 27 71 28 72 36 73 29 74
REMARK SMILES IDX 30 75 34 76 37 77 31 78 32 79 35 80 33 81 59 82 60 83 68 84
REMARK SMILES IDX 61 85 62 86 66 87 69 88 63 89 64 90 67 91 65 92 44 93 45 94
REMARK SMILES IDX 53 95 46 96 47 97 51 98 54 99 48 100 49 101 52 102 50 103
REMARK H PARENT 74 56 42 67
REMARK Flexibility Score: inf
ROOT
ATOM      1  C   UNL A   1      40.893  21.231  27.246  1.00  0.00     0.188 C 
ENDROOT
BRANCH   1   2
ATOM      2  O   UNL A   1      39.942  22.103  26.658  1.00  0.00    -0.376 OA
BRANCH   2   3
ATOM      3  C   UNL A   1      38.991  21.474  25.803  1.00  0.00     0.202 C 
BRANCH   3   4
ATOM      4  C   UNL A   1      37.699  22.271  25.592  1.00  0.00     0.261 C 
BRANCH   4   5
ATOM      5  O   UNL A   1      36.750  21.673  24.690  1.00  0.00    -0.459 OA
BRANCH   5   6
ATOM      6  C   UNL A   1      36.034  22.492  23.892  1.00  0.00     0.348 C 
ATOM      7  O   UNL A   1      36.421  22.899  22.803  1.00  0.00    -0.245 OA
BRANCH   6   8
ATOM      8  C   UNL A   1      34.705  22.821  24.488  1.00  0.00     0.118 A 
ATOM      9  C   UNL A   1      34.782  25.338  25.052  1.00  0.00     0.047 C 
ATOM     10  C   UNL A   1      34.149  24.002  24.832  1.00  0.00    -0.016 A 
ATOM     11  C   UNL A   1      32.780  23.862  25.280  1.00  0.00     0.016 A 
ATOM     12  S   UNL A   1      33.715  21.449  25.003  1.00  0.00    -0.108 S 
ATOM     13  C   UNL A   1      32.482  22.481  25.717  1.00  0.00     0.128 A 
ATOM     14  C   UNL A   1      31.650  24.553  25.046  1.00  0.00    -0.040 C 
ATOM     15  N   UNL A   1      31.486  22.036  26.388  1.00  0.00    -0.202 NA
ATOM     16  C   UNL A   1      30.495  24.300  26.001  1.00  0.00     0.135 C 
ATOM     17  C   UNL A   1      30.564  22.981  26.780  1.00  0.00     0.251 C 
ATOM     18  O   UNL A   1      29.772  22.781  27.698  1.00  0.00    -0.272 OA
BRANCH  14  19
ATOM     19  C   UNL A   1      31.313  25.555  23.962  1.00  0.00     0.110 C 
BRANCH  19  20
ATOM     20  S   UNL A   1      29.927  26.682  24.308  1.00  0.00    -0.081 SA
BRANCH  20  21
ATOM     21  C   UNL A   1      30.357  27.963  23.213  1.00  0.00     0.195 A 
ATOM     22  N   UNL A   1      29.740  28.169  22.071  1.00  0.00    -0.123 NA
ATOM     23  N   UNL A   1      31.105  29.075  23.557  1.00  0.00    -0.277 N 
ATOM     24  N   UNL A   1      30.030  29.445  21.661  1.00  0.00    -0.138 NA
ATOM     25  C   UNL A   1      30.809  29.984  22.570  1.00  0.00     0.231 A 
BRANCH  23  26
ATOM     26  C   UNL A   1      31.917  29.315  24.692  1.00  0.00     0.049 A 
ATOM     27  C   UNL A   1      33.099  28.590  24.887  1.00  0.00     0.027 A 
ATOM     28  C   UNL A   1      31.491  30.237  25.660  1.00  0.00     0.027 A 
ATOM     29  C   UNL A   1      33.832  28.764  26.063  1.00  0.00     0.002 A 
ATOM     30  C   UNL A   1      32.209  30.372  26.850  1.00  0.00     0.002 A 
ATOM     31  C   UNL A   1      33.375  29.634  27.053  1.00  0.00     0.000 A 
ENDBRANCH  23  26
ENDBRANCH  20  21
ENDBRANCH  19  20
ENDBRANCH  14  19
ENDBRANCH   6   8
ENDBRANCH   5   6
ENDBRANCH   4   5
ENDBRANCH   3   4
ENDBRANCH   2   3
ENDBRANCH   1   2
BRANCH   1  32
ATOM     32  C   UNL A   1      41.046  19.856  26.566  1.00  0.00     0.188 C 
BRANCH  32  33
ATOM     33  O   UNL A   1      41.897  19.637  25.444  1.00  0.00    -0.376 OA
BRANCH  33  34
ATOM     34  C   UNL A   1      43.092  18.877  25.548  1.00  0.00     0.202 C 
BRANCH  34  35
ATOM     35  C   UNL A   1      44.315  19.289  24.739  1.00  0.00     0.261 C 
BRANCH  35  36
ATOM     36  O   UNL A   1      44.909  20.494  25.189  1.00  0.00    -0.460 OA
BRANCH  36  37
ATOM     37  C   UNL A   1      44.476  21.588  24.530  1.00  0.00     0.338 C 
ATOM     38  O   UNL A   1      44.602  21.842  23.343  1.00  0.00    -0.246 OA
BRANCH  37  39
ATOM     39  C   UNL A   1      43.847  22.501  25.488  1.00  0.00     0.060 A 
ATOM     40  C   UNL A   1      42.953  23.442  24.968  1.00  0.00     0.016 A 
ATOM     41  C   UNL A   1      44.311  22.564  26.809  1.00  0.00     0.016 A 
ATOM     42  C   UNL A   1      42.686  24.571  25.709  1.00  0.00     0.010 A 
ATOM     43  C   UNL A   1      44.054  23.698  27.542  1.00  0.00     0.010 A 
ATOM     44  C   UNL A   1      43.320  24.722  26.944  1.00  0.00    -0.014 A 
BRANCH  44  45
ATOM     45  C   UNL A   1      43.261  26.024  27.574  1.00  0.00     0.031 A 
ATOM     46  C   UNL A   1      44.341  26.952  27.201  1.00  0.00     0.074 A 
ATOM     47  C   UNL A   1      42.216  26.359  28.355  1.00  0.00     0.049 A 
ATOM     48  N   UNL A   1      45.183  27.538  27.984  1.00  0.00    -0.248 NA
ATOM     49  C   UNL A   1      44.568  27.198  25.768  1.00  0.00     0.031 C 
ATOM     50  C   UNL A   1      40.977  25.593  28.529  1.00  0.00     0.029 A 
ATOM     51  N   UNL A   1      41.979  27.508  29.052  1.00  0.00    -0.354 N 
ATOM     52  C   UNL A   1      45.921  28.383  27.164  1.00  0.00     0.074 A 
ATOM     53  C   UNL A   1      45.616  28.020  25.806  1.00  0.00     0.031 C 
ATOM     54  C   UNL A   1      40.044  26.387  29.094  1.00  0.00     0.029 A 
ATOM     55  C   UNL A   1      40.650  27.670  29.415  1.00  0.00     0.049 A 
ATOM     56  H   UNL A   1      42.683  28.158  29.277  1.00  0.00     0.167 HD
ATOM     57  C   UNL A   1      46.481  29.511  27.671  1.00  0.00     0.037 A 
ATOM     58  C   UNL A   1      40.064  28.804  29.865  1.00  0.00     0.037 A 
ATOM     59  C   UNL A   1      46.624  29.433  29.101  1.00  0.00     0.049 A 
ATOM     60  C   UNL A   1      41.128  29.695  30.384  1.00  0.00     0.074 A 
ATOM     61  C   UNL A   1      47.354  28.668  29.984  1.00  0.00     0.029 A 
ATOM     62  N   UNL A   1      45.659  30.071  29.833  1.00  0.00    -0.354 N 
ATOM     63  N   UNL A   1      41.813  29.469  31.470  1.00  0.00    -0.248 NA
ATOM     64  C   UNL A   1      41.660  30.745  29.523  1.00  0.00     0.031 C 
ATOM     65  C   UNL A   1      46.613  28.659  31.204  1.00  0.00     0.029 A 
ATOM     66  C   UNL A   1      45.459  29.419  31.018  1.00  0.00     0.049 A 
ATOM     67  H   UNL A   1      45.179  30.881  29.546  1.00  0.00     0.167 HD
ATOM     68  C   UNL A   1      43.055  30.023  31.216  1.00  0.00     0.074 A 
ATOM     69  C   UNL A   1      42.841  30.945  30.113  1.00  0.00     0.031 C 
ATOM     70  C   UNL A   1      44.187  29.438  31.705  1.00  0.00     0.037 A 
BRANCH  57  71
ATOM     71  C   UNL A   1      46.433  30.847  26.959  1.00  0.00     0.064 A 
ATOM     72  C   UNL A   1      47.613  31.617  26.901  1.00  0.00     0.173 A 
ATOM     73  C   UNL A   1      45.237  31.542  26.666  1.00  0.00     0.173 A 
ATOM     74  F   UNL A   1      48.802  31.061  27.175  1.00  0.00    -0.203 F 
ATOM     75  C   UNL A   1      47.582  32.996  26.678  1.00  0.00     0.198 A 
ATOM     76  C   UNL A   1      45.219  32.907  26.387  1.00  0.00     0.198 A 
ATOM     77  F   UNL A   1      44.032  30.969  26.755  1.00  0.00    -0.203 F 
ATOM     78  F   UNL A   1      48.710  33.710  26.782  1.00  0.00    -0.200 F 
ATOM     79  C   UNL A   1      46.384  33.641  26.432  1.00  0.00     0.200 A 
ATOM     80  F   UNL A   1      44.045  33.518  26.170  1.00  0.00    -0.200 F 
ATOM     81  F   UNL A   1      46.342  34.972  26.296  1.00  0.00    -0.200 F 
ENDBRANCH  57  71
BRANCH  58  82
ATOM     82  C   UNL A   1      38.662  29.251  29.693  1.00  0.00     0.064 A 
ATOM     83  C   UNL A   1      37.862  29.560  30.806  1.00  0.00     0.173 A 
ATOM     84  C   UNL A   1      38.146  29.621  28.434  1.00  0.00     0.173 A 
ATOM     85  F   UNL A   1      38.296  29.289  32.045  1.00  0.00    -0.203 F 
ATOM     86  C   UNL A   1      36.635  30.215  30.669  1.00  0.00     0.198 A 
ATOM     87  C   UNL A   1      36.910  30.255  28.298  1.00  0.00     0.198 A 
ATOM     88  F   UNL A   1      38.865  29.460  27.315  1.00  0.00    -0.203 F 
ATOM     89  F   UNL A   1      35.936  30.554  31.760  1.00  0.00    -0.200 F 
ATOM     90  C   UNL A   1      36.162  30.566  29.415  1.00  0.00     0.200 A 
ATOM     91  F   UNL A   1      36.481  30.616  27.079  1.00  0.00    -0.200 F 
ATOM     92  F   UNL A   1      35.011  31.239  29.288  1.00  0.00    -0.200 F 
ENDBRANCH  58  82
BRANCH  70  93
ATOM     93  C   UNL A   1      44.035  28.577  32.921  1.00  0.00     0.064 A 
ATOM     94  C   UNL A   1      43.739  27.206  32.889  1.00  0.00     0.173 A 
ATOM     95  C   UNL A   1      44.264  29.166  34.173  1.00  0.00     0.173 A 
ATOM     96  F   UNL A   1      43.603  26.556  31.726  1.00  0.00    -0.203 F 
ATOM     97  C   UNL A   1      43.613  26.474  34.069  1.00  0.00     0.198 A 
ATOM     98  C   UNL A   1      44.178  28.423  35.346  1.00  0.00     0.198 A 
ATOM     99  F   UNL A   1      44.602  30.463  34.256  1.00  0.00    -0.203 F 
ATOM    100  F   UNL A   1      43.294  25.172  34.020  1.00  0.00    -0.200 F 
ATOM    101  C   UNL A   1      43.835  27.082  35.295  1.00  0.00     0.200 A 
ATOM    102  F   UNL A   1      44.439  29.005  36.524  1.00  0.00    -0.200 F 
ATOM    103  F   UNL A   1      43.740  26.371  36.426  1.00  0.00    -0.200 F 
ENDBRANCH  70  93
ENDBRANCH  44  45
ENDBRANCH  37  39
ENDBRANCH  36  37
ENDBRANCH  35  36
ENDBRANCH  34  35
ENDBRANCH  33  34
ENDBRANCH  32  33
ENDBRANCH   1  32
TORSDOF 21
ENDMDL
MODEL 2
REMARK VINA RESULT:     -11.7      4.276      9.833
REMARK SMILES Cc1c(C(=O)OCCOCCOCCOC(=O)c2ccc(-c3c4nc(c(-c5c(F)c(F)c(F)c(F)c5F)c5ccc([nH]5)c(-c5c(F)c(F)c(F)c(F)c5F)c5nc(c(-c6c(F)c(F)c(F)c(F)c6F)c6ccc3[nH]6)C=C5)C=C4)cc2)sc2c1=C(CSc1nncn1-c1ccccc1)CC(=O)N=2
REMARK SMILES IDX 10 1 9 2 8 3 7 4 6 5 4 6 5 7 3 8 1 9 2 10 83 11 81 12 82 13
REMARK SMILES IDX 84 14 101 15 98 16 99 17 100 18 85 19 86 20 87 21 88 22
REMARK SMILES IDX 91 23 89 24 90 25 92 26 93 27 97 28 94 29 96 30 95 31 11 32
REMARK SMILES IDX 12 33 13 34 14 35 15 36 16 37 17 38 18 39 19 40 80 41 20 42
REMARK SMILES IDX 79 43 21 44 22 45 23 46 73 47 24 48 78 49 72 50 74 51 25 52
REMARK SMILES IDX 77 53 71 54 70 55 26 57 58 58 38 59 57 60 39 61 42 62 56 63
REMARK SMILES IDX 75 64 40 65 41 66 55 68 76 69 43 70 27 71 28 72 36 73 29 74
REMARK SMILES IDX 30 75 34 76 37 77 31 78 32 79 35 80 33 81 59 82 60 83 68 84
REMARK SMILES IDX 61 85 62 86 66 87 69 88 63 89 64 90 67 91 65 92 44 93 45 94
REMARK SMILES IDX 53 95 46 96 47 97 51 98 54 99 48 100 49 101 52 102 50 103
REMARK H PARENT 74 56 42 67
REMARK Flexibility Score: inf
ROOT
ATOM      1  C   UNL A   1      34.114  31.954  28.526  1.00  0.00     0.188 C 
ENDROOT
BRANCH   1   2
ATOM      2  O   UNL A   1      33.660  30.947  27.637  1.00  0.00    -0.376 OA
BRANCH   2   3
ATOM      3  C   UNL A   1      34.573  29.875  27.420  1.00  0.00     0.202 C 
BRANCH   3   4
ATOM      4  C   UNL A   1      34.295  29.048  26.159  1.00  0.00     0.261 C 
BRANCH   4   5
ATOM      5  O   UNL A   1      33.151  29.466  25.392  1.00  0.00    -0.459 OA
BRANCH   5   6
ATOM      6  C   UNL A   1      32.719  28.651  24.406  1.00  0.00     0.348 C 
ATOM      7  O   UNL A   1      32.628  28.986  23.231  1.00  0.00    -0.245 OA
BRANCH   6   8
ATOM      8  C   UNL A   1      32.391  27.289  24.920  1.00  0.00     0.118 A 
ATOM      9  C   UNL A   1      33.609  25.630  23.364  1.00  0.00     0.047 C 
ATOM     10  C   UNL A   1      32.862  26.070  24.580  1.00  0.00    -0.016 A 
ATOM     11  C   UNL A   1      32.337  25.017  25.423  1.00  0.00     0.016 A 
ATOM     12  S   UNL A   1      31.039  27.183  26.055  1.00  0.00    -0.108 S 
ATOM     13  C   UNL A   1      31.086  25.425  26.100  1.00  0.00     0.128 A 
ATOM     14  C   UNL A   1      32.885  23.943  26.020  1.00  0.00    -0.040 C 
ATOM     15  N   UNL A   1      30.220  24.707  26.712  1.00  0.00    -0.202 NA
ATOM     16  C   UNL A   1      31.918  22.881  26.517  1.00  0.00     0.135 C 
ATOM     17  C   UNL A   1      30.475  23.354  26.730  1.00  0.00     0.251 C 
ATOM     18  O   UNL A   1      29.596  22.525  26.955  1.00  0.00    -0.272 OA
BRANCH  14  19
ATOM     19  C   UNL A   1      34.334  23.605  26.304  1.00  0.00     0.110 C 
BRANCH  19  20
ATOM     20  S   UNL A   1      34.657  21.942  26.968  1.00  0.00    -0.081 SA
BRANCH  20  21
ATOM     21  C   UNL A   1      35.902  21.458  25.853  1.00  0.00     0.195 A 
ATOM     22  N   UNL A   1      37.143  21.882  25.934  1.00  0.00    -0.123 NA
ATOM     23  N   UNL A   1      35.829  20.352  25.024  1.00  0.00    -0.277 N 
ATOM     24  N   UNL A   1      37.926  21.032  25.195  1.00  0.00    -0.138 NA
ATOM     25  C   UNL A   1      37.141  20.108  24.693  1.00  0.00     0.231 A 
BRANCH  23  26
ATOM     26  C   UNL A   1      34.716  19.561  24.651  1.00  0.00     0.049 A 
ATOM     27  C   UNL A   1      34.843  18.174  24.511  1.00  0.00     0.027 A 
ATOM     28  C   UNL A   1      33.496  20.188  24.352  1.00  0.00     0.027 A 
ATOM     29  C   UNL A   1      33.764  17.423  24.041  1.00  0.00     0.002 A 
ATOM     30  C   UNL A   1      32.438  19.434  23.843  1.00  0.00     0.002 A 
ATOM     31  C   UNL A   1      32.572  18.054  23.685  1.00  0.00     0.000 A 
ENDBRANCH  23  26
ENDBRANCH  20  21
ENDBRANCH  19  20
ENDBRANCH  14  19
ENDBRANCH   6   8
ENDBRANCH   5   6
ENDBRANCH   4   5
ENDBRANCH   3   4
ENDBRANCH   2   3
ENDBRANCH   1   2
BRANCH   1  32
ATOM     32  C   UNL A   1      34.977  33.063  27.893  1.00  0.00     0.188 C 
BRANCH  32  33
ATOM     33  O   UNL A   1      34.469  34.358  27.586  1.00  0.00    -0.376 OA
BRANCH  33  34
ATOM     34  C   UNL A   1      34.444  35.402  28.550  1.00  0.00     0.202 C 
BRANCH  34  35
ATOM     35  C   UNL A   1      33.176  35.644  29.359  1.00  0.00     0.261 C 
BRANCH  35  36
ATOM     36  O   UNL A   1      33.006  34.731  30.429  1.00  0.00    -0.460 OA
BRANCH  36  37
ATOM     37  C   UNL A   1      33.326  35.246  31.634  1.00  0.00     0.338 C 
ATOM     38  O   UNL A   1      32.831  36.214  32.185  1.00  0.00    -0.246 OA
BRANCH  37  39
ATOM     39  C   UNL A   1      34.438  34.477  32.199  1.00  0.00     0.060 A 
ATOM     40  C   UNL A   1      35.559  35.201  32.613  1.00  0.00     0.016 A 
ATOM     41  C   UNL A   1      34.450  33.079  32.099  1.00  0.00     0.016 A 
ATOM     42  C   UNL A   1      36.762  34.541  32.725  1.00  0.00     0.010 A 
ATOM     43  C   UNL A   1      35.654  32.422  32.198  1.00  0.00     0.010 A 
ATOM     44  C   UNL A   1      36.804  33.179  32.421  1.00  0.00    -0.014 A 
BRANCH  44  45
ATOM     45  C   UNL A   1      38.106  32.566  32.262  1.00  0.00     0.031 A 
ATOM     46  C   UNL A   1      38.911  32.474  33.492  1.00  0.00     0.074 A 
ATOM     47  C   UNL A   1      38.471  32.033  31.081  1.00  0.00     0.049 A 
ATOM     48  N   UNL A   1      40.089  32.955  33.700  1.00  0.00    -0.248 NA
ATOM     49  C   UNL A   1      38.296  31.836  34.666  1.00  0.00     0.031 C 
ATOM     50  C   UNL A   1      37.610  31.834  29.910  1.00  0.00     0.029 A 
ATOM     51  N   UNL A   1      39.644  31.438  30.716  1.00  0.00    -0.354 N 
ATOM     52  C   UNL A   1      40.449  32.512  34.967  1.00  0.00     0.074 A 
ATOM     53  C   UNL A   1      39.262  31.971  35.574  1.00  0.00     0.031 C 
ATOM     54  C   UNL A   1      38.214  30.979  29.059  1.00  0.00     0.029 A 
ATOM     55  C   UNL A   1      39.537  30.659  29.573  1.00  0.00     0.049 A 
ATOM     56  H   UNL A   1      40.485  31.551  31.215  1.00  0.00     0.167 HD
ATOM     57  C   UNL A   1      41.757  32.345  35.287  1.00  0.00     0.037 A 
ATOM     58  C   UNL A   1      40.433  29.750  29.124  1.00  0.00     0.037 A 
ATOM     59  C   UNL A   1      42.616  33.103  34.415  1.00  0.00     0.049 A 
ATOM     60  C   UNL A   1      41.746  30.057  29.737  1.00  0.00     0.074 A 
ATOM     61  C   UNL A   1      42.843  34.438  34.162  1.00  0.00     0.029 A 
ATOM     62  N   UNL A   1      43.198  32.401  33.394  1.00  0.00    -0.354 N 
ATOM     63  N   UNL A   1      42.470  31.101  29.442  1.00  0.00    -0.248 NA
ATOM     64  C   UNL A   1      42.160  29.334  30.933  1.00  0.00     0.031 C 
ATOM     65  C   UNL A   1      43.328  34.508  32.822  1.00  0.00     0.029 A 
ATOM     66  C   UNL A   1      43.378  33.213  32.308  1.00  0.00     0.049 A 
ATOM     67  H   UNL A   1      43.448  31.450  33.435  1.00  0.00     0.167 HD
ATOM     68  C   UNL A   1      43.130  31.405  30.619  1.00  0.00     0.074 A 
ATOM     69  C   UNL A   1      43.056  30.194  31.420  1.00  0.00     0.031 C 
ATOM     70  C   UNL A   1      43.383  32.704  30.954  1.00  0.00     0.037 A 
BRANCH  57  71
ATOM     71  C   UNL A   1      42.274  31.138  36.042  1.00  0.00     0.064 A 
ATOM     72  C   UNL A   1      43.276  31.335  37.014  1.00  0.00     0.173 A 
ATOM     73  C   UNL A   1      42.102  29.803  35.607  1.00  0.00     0.173 A 
ATOM     74  F   UNL A   1      43.534  32.563  37.486  1.00  0.00    -0.203 F 
ATOM     75  C   UNL A   1      44.110  30.295  37.434  1.00  0.00     0.198 A 
ATOM     76  C   UNL A   1      42.899  28.760  36.072  1.00  0.00     0.198 A 
ATOM     77  F   UNL A   1      41.247  29.468  34.634  1.00  0.00    -0.203 F 
ATOM     78  F   UNL A   1      45.143  30.559  38.244  1.00  0.00    -0.200 F 
ATOM     79  C   UNL A   1      43.928  29.011  36.954  1.00  0.00     0.200 A 
ATOM     80  F   UNL A   1      42.719  27.525  35.580  1.00  0.00    -0.200 F 
ATOM     81  F   UNL A   1      44.773  28.030  37.293  1.00  0.00    -0.200 F 
ENDBRANCH  57  71
BRANCH  58  82
ATOM     82  C   UNL A   1      40.182  28.509  28.353  1.00  0.00     0.064 A 
ATOM     83  C   UNL A   1      40.775  28.311  27.095  1.00  0.00     0.173 A 
ATOM     84  C   UNL A   1      39.556  27.386  28.929  1.00  0.00     0.173 A 
ATOM     85  F   UNL A   1      41.435  29.311  26.493  1.00  0.00    -0.203 F 
ATOM     86  C   UNL A   1      40.760  27.063  26.464  1.00  0.00     0.198 A 
ATOM     87  C   UNL A   1      39.522  26.147  28.288  1.00  0.00     0.198 A 
ATOM     88  F   UNL A   1      39.042  27.437  30.166  1.00  0.00    -0.203 F 
ATOM     89  F   UNL A   1      41.398  26.898  25.297  1.00  0.00    -0.200 F 
ATOM     90  C   UNL A   1      40.137  25.981  27.063  1.00  0.00     0.200 A 
ATOM     91  F   UNL A   1      38.942  25.101  28.896  1.00  0.00    -0.200 F 
ATOM     92  F   UNL A   1      40.167  24.774  26.484  1.00  0.00    -0.200 F 
ENDBRANCH  58  82
BRANCH  70  93
ATOM     93  C   UNL A   1      43.448  33.695  29.834  1.00  0.00     0.064 A 
ATOM     94  C   UNL A   1      42.346  34.415  29.349  1.00  0.00     0.173 A 
ATOM     95  C   UNL A   1      44.704  33.967  29.272  1.00  0.00     0.173 A 
ATOM     96  F   UNL A   1      41.134  34.278  29.902  1.00  0.00    -0.203 F 
ATOM     97  C   UNL A   1      42.490  35.321  28.299  1.00  0.00     0.198 A 
ATOM     98  C   UNL A   1      44.850  34.901  28.253  1.00  0.00     0.198 A 
ATOM     99  F   UNL A   1      45.799  33.343  29.735  1.00  0.00    -0.203 F 
ATOM    100  F   UNL A   1      41.419  35.974  27.823  1.00  0.00    -0.200 F 
ATOM    101  C   UNL A   1      43.741  35.565  27.754  1.00  0.00     0.200 A 
ATOM    102  F   UNL A   1      46.068  35.167  27.761  1.00  0.00    -0.200 F 
ATOM    103  F   UNL A   1      43.882  36.456  26.763  1.00  0.00    -0.200 F 
ENDBRANCH  70  93
ENDBRANCH  44  45
ENDBRANCH  37  39
ENDBRANCH  36  37
ENDBRANCH  35  36
ENDBRANCH  34  35
ENDBRANCH  33  34
ENDBRANCH  32  33
ENDBRANCH   1  32
TORSDOF 21
ENDMDL
MODEL 3
REMARK VINA RESULT:     -11.6      4.152      9.769
REMARK SMILES Cc1c(C(=O)OCCOCCOCCOC(=O)c2ccc(-c3c4nc(c(-c5c(F)c(F)c(F)c(F)c5F)c5ccc([nH]5)c(-c5c(F)c(F)c(F)c(F)c5F)c5nc(c(-c6c(F)c(F)c(F)c(F)c6F)c6ccc3[nH]6)C=C5)C=C4)cc2)sc2c1=C(CSc1nncn1-c1ccccc1)CC(=O)N=2
REMARK SMILES IDX 10 1 9 2 8 3 7 4 6 5 4 6 5 7 3 8 1 9 2 10 83 11 81 12 82 13
REMARK SMILES IDX 84 14 101 15 98 16 99 17 100 18 85 19 86 20 87 21 88 22
REMARK SMILES IDX 91 23 89 24 90 25 92 26 93 27 97 28 94 29 96 30 95 31 11 32
REMARK SMILES IDX 12 33 13 34 14 35 15 36 16 37 17 38 18 39 19 40 80 41 20 42
REMARK SMILES IDX 79 43 21 44 22 45 23 46 73 47 24 48 78 49 72 50 74 51 25 52
REMARK SMILES IDX 77 53 71 54 70 55 26 57 58 58 38 59 57 60 39 61 42 62 56 63
REMARK SMILES IDX 75 64 40 65 41 66 55 68 76 69 43 70 27 71 28 72 36 73 29 74
REMARK SMILES IDX 30 75 34 76 37 77 31 78 32 79 35 80 33 81 59 82 60 83 68 84
REMARK SMILES IDX 61 85 62 86 66 87 69 88 63 89 64 90 67 91 65 92 44 93 45 94
REMARK SMILES IDX 53 95 46 96 47 97 51 98 54 99 48 100 49 101 52 102 50 103
REMARK H PARENT 74 56 42 67
REMARK Flexibility Score: inf
ROOT
ATOM      1  C   UNL A   1      34.796  32.990  28.144  1.00  0.00     0.188 C 
ENDROOT
BRANCH   1   2
ATOM      2  O   UNL A   1      34.247  31.715  27.856  1.00  0.00    -0.376 OA
BRANCH   2   3
ATOM      3  C   UNL A   1      32.956  31.734  27.253  1.00  0.00     0.202 C 
BRANCH   3   4
ATOM      4  C   UNL A   1      32.406  30.353  26.880  1.00  0.00     0.261 C 
BRANCH   4   5
ATOM      5  O   UNL A   1      32.892  29.816  25.635  1.00  0.00    -0.459 OA
BRANCH   5   6
ATOM      6  C   UNL A   1      33.869  28.887  25.686  1.00  0.00     0.348 C 
ATOM      7  O   UNL A   1      34.857  28.970  26.406  1.00  0.00    -0.245 OA
BRANCH   6   8
ATOM      8  C   UNL A   1      33.586  27.736  24.778  1.00  0.00     0.118 A 
ATOM      9  C   UNL A   1      34.250  25.615  26.089  1.00  0.00     0.047 C 
ATOM     10  C   UNL A   1      33.612  26.403  24.992  1.00  0.00    -0.016 A 
ATOM     11  C   UNL A   1      33.156  25.648  23.845  1.00  0.00     0.016 A 
ATOM     12  S   UNL A   1      33.326  28.127  23.073  1.00  0.00    -0.108 S 
ATOM     13  C   UNL A   1      33.241  26.436  22.596  1.00  0.00     0.128 A 
ATOM     14  C   UNL A   1      32.346  24.584  23.694  1.00  0.00    -0.040 C 
ATOM     15  N   UNL A   1      33.164  26.045  21.380  1.00  0.00    -0.202 NA
ATOM     16  C   UNL A   1      32.416  23.867  22.356  1.00  0.00     0.135 C 
ATOM     17  C   UNL A   1      32.998  24.690  21.199  1.00  0.00     0.251 C 
ATOM     18  O   UNL A   1      33.256  24.135  20.134  1.00  0.00    -0.272 OA
BRANCH  14  19
ATOM     19  C   UNL A   1      31.340  23.968  24.644  1.00  0.00     0.110 C 
BRANCH  19  20
ATOM     20  S   UNL A   1      32.012  23.265  26.182  1.00  0.00    -0.081 SA
BRANCH  20  21
ATOM     21  C   UNL A   1      32.461  21.699  25.574  1.00  0.00     0.195 A 
ATOM     22  N   UNL A   1      31.591  20.742  25.341  1.00  0.00    -0.123 NA
ATOM     23  N   UNL A   1      33.663  21.411  24.951  1.00  0.00    -0.277 N 
ATOM     24  N   UNL A   1      32.188  19.823  24.516  1.00  0.00    -0.138 NA
ATOM     25  C   UNL A   1      33.403  20.251  24.261  1.00  0.00     0.231 A 
BRANCH  23  26
ATOM     26  C   UNL A   1      34.872  22.146  24.914  1.00  0.00     0.049 A 
ATOM     27  C   UNL A   1      35.378  22.626  23.699  1.00  0.00     0.027 A 
ATOM     28  C   UNL A   1      35.601  22.332  26.100  1.00  0.00     0.027 A 
ATOM     29  C   UNL A   1      36.622  23.256  23.668  1.00  0.00     0.002 A 
ATOM     30  C   UNL A   1      36.862  22.927  26.050  1.00  0.00     0.002 A 
ATOM     31  C   UNL A   1      37.374  23.386  24.836  1.00  0.00     0.000 A 
ENDBRANCH  23  26
ENDBRANCH  20  21
ENDBRANCH  19  20
ENDBRANCH  14  19
ENDBRANCH   6   8
ENDBRANCH   5   6
ENDBRANCH   4   5
ENDBRANCH   3   4
ENDBRANCH   2   3
ENDBRANCH   1   2
BRANCH   1  32
ATOM     32  C   UNL A   1      33.788  34.156  28.189  1.00  0.00     0.188 C 
BRANCH  32  33
ATOM     33  O   UNL A   1      34.179  35.508  28.407  1.00  0.00    -0.376 OA
BRANCH  33  34
ATOM     34  C   UNL A   1      33.264  36.485  28.883  1.00  0.00     0.202 C 
BRANCH  34  35
ATOM     35  C   UNL A   1      32.832  36.459  30.343  1.00  0.00     0.261 C 
BRANCH  35  36
ATOM     36  O   UNL A   1      33.830  35.962  31.218  1.00  0.00    -0.460 OA
BRANCH  36  37
ATOM     37  C   UNL A   1      33.366  35.068  32.114  1.00  0.00     0.338 C 
ATOM     38  O   UNL A   1      32.222  34.942  32.517  1.00  0.00    -0.246 OA
BRANCH  37  39
ATOM     39  C   UNL A   1      34.486  34.258  32.601  1.00  0.00     0.060 A 
ATOM     40  C   UNL A   1      35.604  34.950  33.076  1.00  0.00     0.016 A 
ATOM     41  C   UNL A   1      34.507  32.875  32.373  1.00  0.00     0.016 A 
ATOM     42  C   UNL A   1      36.812  34.291  33.122  1.00  0.00     0.010 A 
ATOM     43  C   UNL A   1      35.716  32.222  32.406  1.00  0.00     0.010 A 
ATOM     44  C   UNL A   1      36.862  32.963  32.693  1.00  0.00    -0.014 A 
BRANCH  44  45
ATOM     45  C   UNL A   1      38.167  32.377  32.474  1.00  0.00     0.031 A 
ATOM     46  C   UNL A   1      39.012  32.259  33.673  1.00  0.00     0.074 A 
ATOM     47  C   UNL A   1      38.503  31.888  31.264  1.00  0.00     0.049 A 
ATOM     48  N   UNL A   1      40.190  32.752  33.860  1.00  0.00    -0.248 NA
ATOM     49  C   UNL A   1      38.446  31.573  34.845  1.00  0.00     0.031 C 
ATOM     50  C   UNL A   1      37.607  31.713  30.115  1.00  0.00     0.029 A 
ATOM     51  N   UNL A   1      39.672  31.325  30.844  1.00  0.00    -0.354 N 
ATOM     52  C   UNL A   1      40.596  32.273  35.100  1.00  0.00     0.074 A 
ATOM     53  C   UNL A   1      39.438  31.695  35.726  1.00  0.00     0.031 C 
ATOM     54  C   UNL A   1      38.197  30.896  29.218  1.00  0.00     0.029 A 
ATOM     55  C   UNL A   1      39.540  30.582  29.679  1.00  0.00     0.049 A 
ATOM     56  H   UNL A   1      40.527  31.435  31.319  1.00  0.00     0.167 HD
ATOM     57  C   UNL A   1      41.917  32.118  35.373  1.00  0.00     0.037 A 
ATOM     58  C   UNL A   1      40.435  29.702  29.172  1.00  0.00     0.037 A 
ATOM     59  C   UNL A   1      42.736  32.918  34.500  1.00  0.00     0.049 A 
ATOM     60  C   UNL A   1      41.763  30.011  29.753  1.00  0.00     0.074 A 
ATOM     61  C   UNL A   1      42.934  34.264  34.283  1.00  0.00     0.029 A 
ATOM     62  N   UNL A   1      43.295  32.259  33.438  1.00  0.00    -0.354 N 
ATOM     63  N   UNL A   1      42.461  31.075  29.471  1.00  0.00    -0.248 NA
ATOM     64  C   UNL A   1      42.225  29.256  30.912  1.00  0.00     0.031 C 
ATOM     65  C   UNL A   1      43.374  34.385  32.931  1.00  0.00     0.029 A 
ATOM     66  C   UNL A   1      43.428  33.108  32.374  1.00  0.00     0.049 A 
ATOM     67  H   UNL A   1      43.561  31.311  33.440  1.00  0.00     0.167 HD
ATOM     68  C   UNL A   1      43.154  31.352  30.635  1.00  0.00     0.074 A 
ATOM     69  C   UNL A   1      43.124  30.115  31.398  1.00  0.00     0.031 C 
ATOM     70  C   UNL A   1      43.397  32.643  31.005  1.00  0.00     0.037 A 
BRANCH  57  71
ATOM     71  C   UNL A   1      42.476  30.895  36.071  1.00  0.00     0.064 A 
ATOM     72  C   UNL A   1      43.448  31.084  37.075  1.00  0.00     0.173 A 
ATOM     73  C   UNL A   1      42.377  29.581  35.559  1.00  0.00     0.173 A 
ATOM     74  F   UNL A   1      43.637  32.295  37.620  1.00  0.00    -0.203 F 
ATOM     75  C   UNL A   1      44.322  30.063  37.455  1.00  0.00     0.198 A 
ATOM     76  C   UNL A   1      43.214  28.552  35.983  1.00  0.00     0.198 A 
ATOM     77  F   UNL A   1      41.558  29.262  34.550  1.00  0.00    -0.203 F 
ATOM     78  F   UNL A   1      45.326  30.328  38.301  1.00  0.00    -0.200 F 
ATOM     79  C   UNL A   1      44.212  28.800  36.900  1.00  0.00     0.200 A 
ATOM     80  F   UNL A   1      43.103  27.340  35.420  1.00  0.00    -0.200 F 
ATOM     81  F   UNL A   1      45.096  27.842  37.204  1.00  0.00    -0.200 F 
ENDBRANCH  57  71
BRANCH  58  82
ATOM     82  C   UNL A   1      40.179  28.483  28.369  1.00  0.00     0.064 A 
ATOM     83  C   UNL A   1      40.783  28.308  27.113  1.00  0.00     0.173 A 
ATOM     84  C   UNL A   1      39.535  27.353  28.912  1.00  0.00     0.173 A 
ATOM     85  F   UNL A   1      41.460  29.315  26.542  1.00  0.00    -0.203 F 
ATOM     86  C   UNL A   1      40.760  27.076  26.453  1.00  0.00     0.198 A 
ATOM     87  C   UNL A   1      39.494  26.130  28.242  1.00  0.00     0.198 A 
ATOM     88  F   UNL A   1      39.009  27.380  30.145  1.00  0.00    -0.203 F 
ATOM     89  F   UNL A   1      41.408  26.932  25.288  1.00  0.00    -0.200 F 
ATOM     90  C   UNL A   1      40.120  25.987  27.019  1.00  0.00     0.200 A 
ATOM     91  F   UNL A   1      38.897  25.077  28.819  1.00  0.00    -0.200 F 
ATOM     92  F   UNL A   1      40.143  24.794  26.411  1.00  0.00    -0.200 F 
ENDBRANCH  58  82
BRANCH  70  93
ATOM     93  C   UNL A   1      43.412  33.671  29.916  1.00  0.00     0.064 A 
ATOM     94  C   UNL A   1      42.281  34.379  29.481  1.00  0.00     0.173 A 
ATOM     95  C   UNL A   1      44.646  33.991  29.333  1.00  0.00     0.173 A 
ATOM     96  F   UNL A   1      41.086  34.195  30.059  1.00  0.00    -0.203 F 
ATOM     97  C   UNL A   1      42.377  35.321  28.459  1.00  0.00     0.198 A 
ATOM     98  C   UNL A   1      44.745  34.961  28.342  1.00  0.00     0.198 A 
ATOM     99  F   UNL A   1      45.767  33.380  29.750  1.00  0.00    -0.203 F 
ATOM    100  F   UNL A   1      41.280  35.963  28.031  1.00  0.00    -0.200 F 
ATOM    101  C   UNL A   1      43.608  35.613  27.892  1.00  0.00     0.200 A 
ATOM    102  F   UNL A   1      45.944  35.272  27.830  1.00  0.00    -0.200 F 
ATOM    103  F   UNL A   1      43.704  36.538  26.927  1.00  0.00    -0.200 F 
ENDBRANCH  70  93
ENDBRANCH  44  45
ENDBRANCH  37  39
ENDBRANCH  36  37
ENDBRANCH  35  36
ENDBRANCH  34  35
ENDBRANCH  33  34
ENDBRANCH  32  33
ENDBRANCH   1  32
TORSDOF 21
ENDMDL
