MODEL 1
REMARK VINA RESULT:     -11.3      0.000      0.000
REMARK SMILES C[C@H](C1CC1)n1c(SCC(=O)OCCOCCOCCOC(=O)c2ccc(-c3c4nc(c(-c5c(F)c(F)c(F)c(F)c5F)c5ccc([nH]5)c(-c5c(F)c(F)c(F)c(F)c5F)c5nc(c(-c6c(F)c(F)c(F)c(F)c6F)c6ccc3[nH]6)C=C5)C=C4)cc2)nc2cc(Cl)c(Cl)cc21
REMARK SMILES IDX 16 1 15 2 14 3 13 4 12 5 10 6 11 7 9 8 8 9 7 10 6 11 95 12
REMARK SMILES IDX 87 13 88 14 94 15 89 16 92 17 90 18 93 19 91 20 2 21 1 22
REMARK SMILES IDX 3 23 4 24 5 25 17 26 18 27 19 28 20 29 21 30 22 31 23 32
REMARK SMILES IDX 24 33 25 34 86 35 26 36 85 37 27 38 28 39 29 40 79 41 30 42
REMARK SMILES IDX 84 43 78 44 80 45 31 46 83 47 77 48 76 49 32 51 64 52 44 53
REMARK SMILES IDX 63 54 45 55 48 56 62 57 81 58 46 59 47 60 61 62 82 63 49 64
REMARK SMILES IDX 33 65 34 66 42 67 35 68 36 69 40 70 43 71 37 72 38 73 41 74
REMARK SMILES IDX 39 75 65 76 66 77 74 78 67 79 68 80 72 81 75 82 69 83 70 84
REMARK SMILES IDX 73 85 71 86 50 87 51 88 59 89 52 90 53 91 57 92 60 93 54 94
REMARK SMILES IDX 55 95 58 96 56 97
REMARK H PARENT 80 50 48 61
REMARK Flexibility Score: inf
ROOT
ATOM      1  C   UNL A   1      34.986  23.672  23.693  1.00  0.00     0.188 C 
ENDROOT
BRANCH   1   2
ATOM      2  O   UNL A   1      33.803  22.899  23.646  1.00  0.00    -0.376 OA
BRANCH   2   3
ATOM      3  C   UNL A   1      33.317  22.449  24.902  1.00  0.00     0.202 C 
BRANCH   3   4
ATOM      4  C   UNL A   1      31.793  22.281  25.003  1.00  0.00     0.261 C 
BRANCH   4   5
ATOM      5  O   UNL A   1      31.125  23.563  24.957  1.00  0.00    -0.463 OA
BRANCH   5   6
ATOM      6  C   UNL A   1      30.713  24.128  26.126  1.00  0.00     0.316 C 
ATOM      7  O   UNL A   1      30.969  23.677  27.243  1.00  0.00    -0.251 OA
BRANCH   6   8
ATOM      8  C   UNL A   1      29.831  25.355  25.925  1.00  0.00     0.200 C 
BRANCH   8   9
ATOM      9  S   UNL A   1      30.134  26.168  24.337  1.00  0.00    -0.076 SA
BRANCH   9  10
ATOM     10  C   UNL A   1      31.328  27.423  24.533  1.00  0.00     0.169 A 
ATOM     11  N   UNL A   1      31.063  28.811  24.668  1.00  0.00    -0.316 N 
ATOM     12  C   UNL A   1      32.120  29.281  25.490  1.00  0.00     0.071 A 
ATOM     13  N   UNL A   1      32.514  27.094  24.974  1.00  0.00    -0.222 NA
ATOM     14  C   UNL A   1      32.969  28.175  25.654  1.00  0.00     0.091 A 
ATOM     15  C   UNL A   1      32.499  30.452  26.188  1.00  0.00     0.050 A 
ATOM     16  C   UNL A   1      34.107  28.230  26.491  1.00  0.00     0.052 A 
ATOM     17  C   UNL A   1      33.637  30.514  27.016  1.00  0.00     0.061 A 
ATOM     18  C   UNL A   1      34.425  29.395  27.189  1.00  0.00     0.061 A 
ATOM     19  Cl  UNL A   1      33.979  32.025  27.794  1.00  0.00    -0.083 Cl
ATOM     20  Cl  UNL A   1      35.770  29.366  28.273  1.00  0.00    -0.083 Cl
BRANCH  11  21
ATOM     21  C   UNL A   1      30.176  29.466  23.601  1.00  0.00     0.090 C 
ATOM     22  C   UNL A   1      30.925  29.336  22.326  1.00  0.00     0.032 C 
BRANCH  21  23
ATOM     23  C   UNL A   1      28.988  30.458  23.752  1.00  0.00     0.012 C 
ATOM     24  C   UNL A   1      27.984  31.507  23.188  1.00  0.00     0.006 C 
ATOM     25  C   UNL A   1      27.663  30.094  23.013  1.00  0.00     0.006 C 
ENDBRANCH  21  23
ENDBRANCH  11  21
ENDBRANCH   9  10
ENDBRANCH   8   9
ENDBRANCH   6   8
ENDBRANCH   5   6
ENDBRANCH   4   5
ENDBRANCH   3   4
ENDBRANCH   2   3
ENDBRANCH   1   2
BRANCH   1  26
ATOM     26  C   UNL A   1      36.282  23.012  23.177  1.00  0.00     0.188 C 
BRANCH  26  27
ATOM     27  O   UNL A   1      37.127  22.681  24.294  1.00  0.00    -0.376 OA
BRANCH  27  28
ATOM     28  C   UNL A   1      37.166  21.284  24.653  1.00  0.00     0.202 C 
BRANCH  28  29
ATOM     29  C   UNL A   1      38.205  20.982  25.809  1.00  0.00     0.261 C 
BRANCH  29  30
ATOM     30  O   UNL A   1      39.469  21.750  25.752  1.00  0.00    -0.460 OA
BRANCH  30  31
ATOM     31  C   UNL A   1      40.089  22.234  26.893  1.00  0.00     0.338 C 
ATOM     32  O   UNL A   1      40.407  21.535  27.839  1.00  0.00    -0.246 OA
BRANCH  31  33
ATOM     33  C   UNL A   1      40.203  23.777  26.903  1.00  0.00     0.060 A 
ATOM     34  C   UNL A   1      41.453  24.355  27.108  1.00  0.00     0.016 A 
ATOM     35  C   UNL A   1      39.147  24.686  26.905  1.00  0.00     0.016 A 
ATOM     36  C   UNL A   1      41.562  25.579  27.834  1.00  0.00     0.010 A 
ATOM     37  C   UNL A   1      39.274  25.942  27.534  1.00  0.00     0.010 A 
ATOM     38  C   UNL A   1      40.424  26.274  28.257  1.00  0.00    -0.014 A 
BRANCH  38  39
ATOM     39  C   UNL A   1      40.452  27.498  29.168  1.00  0.00     0.031 A 
ATOM     40  C   UNL A   1      41.509  28.338  28.621  1.00  0.00     0.074 A 
ATOM     41  C   UNL A   1      39.795  28.012  30.273  1.00  0.00     0.049 A 
ATOM     42  N   UNL A   1      42.699  28.345  29.110  1.00  0.00    -0.248 NA
ATOM     43  C   UNL A   1      41.353  28.955  27.301  1.00  0.00     0.031 C 
ATOM     44  C   UNL A   1      38.739  27.463  31.148  1.00  0.00     0.029 A 
ATOM     45  N   UNL A   1      39.886  29.285  30.837  1.00  0.00    -0.354 N 
ATOM     46  C   UNL A   1      43.386  29.190  28.282  1.00  0.00     0.074 A 
ATOM     47  C   UNL A   1      42.616  29.310  27.065  1.00  0.00     0.031 C 
ATOM     48  C   UNL A   1      38.062  28.425  31.809  1.00  0.00     0.029 A 
ATOM     49  C   UNL A   1      38.802  29.653  31.657  1.00  0.00     0.049 A 
ATOM     50  H   UNL A   1      40.652  29.882  30.674  1.00  0.00     0.167 HD
ATOM     51  C   UNL A   1      44.296  30.033  28.823  1.00  0.00     0.037 A 
ATOM     52  C   UNL A   1      38.583  30.772  32.397  1.00  0.00     0.037 A 
ATOM     53  C   UNL A   1      44.649  29.680  30.175  1.00  0.00     0.049 A 
ATOM     54  C   UNL A   1      39.911  31.226  32.832  1.00  0.00     0.074 A 
ATOM     55  C   UNL A   1      45.266  28.598  30.770  1.00  0.00     0.029 A 
ATOM     56  N   UNL A   1      43.938  30.324  31.155  1.00  0.00    -0.354 N 
ATOM     57  N   UNL A   1      40.640  30.581  33.698  1.00  0.00    -0.248 NA
ATOM     58  C   UNL A   1      40.591  32.267  32.077  1.00  0.00     0.031 C 
ATOM     59  C   UNL A   1      44.755  28.515  32.098  1.00  0.00     0.029 A 
ATOM     60  C   UNL A   1      43.858  29.560  32.296  1.00  0.00     0.049 A 
ATOM     61  H   UNL A   1      43.538  31.218  31.056  1.00  0.00     0.167 HD
ATOM     62  C   UNL A   1      41.924  30.784  33.242  1.00  0.00     0.074 A 
ATOM     63  C   UNL A   1      41.850  31.966  32.396  1.00  0.00     0.031 C 
ATOM     64  C   UNL A   1      42.835  29.776  33.297  1.00  0.00     0.037 A 
BRANCH  51  65
ATOM     65  C   UNL A   1      44.443  31.398  28.254  1.00  0.00     0.064 A 
ATOM     66  C   UNL A   1      45.609  31.758  27.583  1.00  0.00     0.173 A 
ATOM     67  C   UNL A   1      43.503  32.425  28.502  1.00  0.00     0.173 A 
ATOM     68  F   UNL A   1      46.590  30.862  27.405  1.00  0.00    -0.203 F 
ATOM     69  C   UNL A   1      45.795  33.062  27.128  1.00  0.00     0.198 A 
ATOM     70  C   UNL A   1      43.650  33.697  27.977  1.00  0.00     0.198 A 
ATOM     71  F   UNL A   1      42.459  32.235  29.325  1.00  0.00    -0.203 F 
ATOM     72  F   UNL A   1      46.952  33.402  26.547  1.00  0.00    -0.200 F 
ATOM     73  C   UNL A   1      44.804  34.020  27.296  1.00  0.00     0.200 A 
ATOM     74  F   UNL A   1      42.693  34.613  28.180  1.00  0.00    -0.200 F 
ATOM     75  F   UNL A   1      44.983  35.268  26.848  1.00  0.00    -0.200 F 
ENDBRANCH  51  65
BRANCH  52  76
ATOM     76  C   UNL A   1      37.339  31.481  32.813  1.00  0.00     0.064 A 
ATOM     77  C   UNL A   1      37.227  32.085  34.083  1.00  0.00     0.173 A 
ATOM     78  C   UNL A   1      36.375  31.869  31.863  1.00  0.00     0.173 A 
ATOM     79  F   UNL A   1      38.095  31.783  35.058  1.00  0.00    -0.203 F 
ATOM     80  C   UNL A   1      36.275  33.077  34.355  1.00  0.00     0.198 A 
ATOM     81  C   UNL A   1      35.422  32.859  32.138  1.00  0.00     0.198 A 
ATOM     82  F   UNL A   1      36.402  31.362  30.623  1.00  0.00    -0.203 F 
ATOM     83  F   UNL A   1      36.268  33.689  35.549  1.00  0.00    -0.200 F 
ATOM     84  C   UNL A   1      35.391  33.482  33.372  1.00  0.00     0.200 A 
ATOM     85  F   UNL A   1      34.580  33.259  31.173  1.00  0.00    -0.200 F 
ATOM     86  F   UNL A   1      34.542  34.495  33.601  1.00  0.00    -0.200 F 
ENDBRANCH  52  76
BRANCH  64  87
ATOM     87  C   UNL A   1      42.651  28.742  34.373  1.00  0.00     0.064 A 
ATOM     88  C   UNL A   1      41.818  27.616  34.276  1.00  0.00     0.173 A 
ATOM     89  C   UNL A   1      43.419  28.876  35.538  1.00  0.00     0.173 A 
ATOM     90  F   UNL A   1      41.099  27.382  33.172  1.00  0.00    -0.203 F 
ATOM     91  C   UNL A   1      41.744  26.682  35.312  1.00  0.00     0.198 A 
ATOM     92  C   UNL A   1      43.367  27.928  36.555  1.00  0.00     0.198 A 
ATOM     93  F   UNL A   1      44.252  29.920  35.675  1.00  0.00    -0.203 F 
ATOM     94  F   UNL A   1      40.933  25.619  35.202  1.00  0.00    -0.200 F 
ATOM     95  C   UNL A   1      42.525  26.835  36.446  1.00  0.00     0.200 A 
ATOM     96  F   UNL A   1      44.152  28.064  37.633  1.00  0.00    -0.200 F 
ATOM     97  F   UNL A   1      42.482  25.918  37.424  1.00  0.00    -0.200 F 
ENDBRANCH  64  87
ENDBRANCH  38  39
ENDBRANCH  31  33
ENDBRANCH  30  31
ENDBRANCH  29  30
ENDBRANCH  28  29
ENDBRANCH  27  28
ENDBRANCH  26  27
ENDBRANCH   1  26
TORSDOF 21
ENDMDL
MODEL 2
REMARK VINA RESULT:     -10.6      1.628      2.641
REMARK SMILES C[C@H](C1CC1)n1c(SCC(=O)OCCOCCOCCOC(=O)c2ccc(-c3c4nc(c(-c5c(F)c(F)c(F)c(F)c5F)c5ccc([nH]5)c(-c5c(F)c(F)c(F)c(F)c5F)c5nc(c(-c6c(F)c(F)c(F)c(F)c6F)c6ccc3[nH]6)C=C5)C=C4)cc2)nc2cc(Cl)c(Cl)cc21
REMARK SMILES IDX 16 1 15 2 14 3 13 4 12 5 10 6 11 7 9 8 8 9 7 10 6 11 95 12
REMARK SMILES IDX 87 13 88 14 94 15 89 16 92 17 90 18 93 19 91 20 2 21 1 22
REMARK SMILES IDX 3 23 4 24 5 25 17 26 18 27 19 28 20 29 21 30 22 31 23 32
REMARK SMILES IDX 24 33 25 34 86 35 26 36 85 37 27 38 28 39 29 40 79 41 30 42
REMARK SMILES IDX 84 43 78 44 80 45 31 46 83 47 77 48 76 49 32 51 64 52 44 53
REMARK SMILES IDX 63 54 45 55 48 56 62 57 81 58 46 59 47 60 61 62 82 63 49 64
REMARK SMILES IDX 33 65 34 66 42 67 35 68 36 69 40 70 43 71 37 72 38 73 41 74
REMARK SMILES IDX 39 75 65 76 66 77 74 78 67 79 68 80 72 81 75 82 69 83 70 84
REMARK SMILES IDX 73 85 71 86 50 87 51 88 59 89 52 90 53 91 57 92 60 93 54 94
REMARK SMILES IDX 55 95 58 96 56 97
REMARK H PARENT 80 50 48 61
REMARK Flexibility Score: inf
ROOT
ATOM      1  C   UNL A   1      34.413  19.962  24.699  1.00  0.00     0.188 C 
ENDROOT
BRANCH   1   2
ATOM      2  O   UNL A   1      33.432  20.626  25.470  1.00  0.00    -0.376 OA
BRANCH   2   3
ATOM      3  C   UNL A   1      33.785  20.877  26.822  1.00  0.00     0.202 C 
BRANCH   3   4
ATOM      4  C   UNL A   1      33.364  22.247  27.376  1.00  0.00     0.261 C 
BRANCH   4   5
ATOM      5  O   UNL A   1      32.555  22.968  26.417  1.00  0.00    -0.463 OA
BRANCH   5   6
ATOM      6  C   UNL A   1      31.358  23.474  26.822  1.00  0.00     0.316 C 
ATOM      7  O   UNL A   1      30.389  22.787  27.151  1.00  0.00    -0.251 OA
BRANCH   6   8
ATOM      8  C   UNL A   1      31.295  24.996  26.765  1.00  0.00     0.200 C 
BRANCH   8   9
ATOM      9  S   UNL A   1      32.756  25.716  25.977  1.00  0.00    -0.076 SA
BRANCH   9  10
ATOM     10  C   UNL A   1      32.267  26.848  24.743  1.00  0.00     0.169 A 
ATOM     11  N   UNL A   1      31.493  26.542  23.593  1.00  0.00    -0.316 N 
ATOM     12  C   UNL A   1      30.768  27.736  23.344  1.00  0.00     0.071 A 
ATOM     13  N   UNL A   1      32.249  28.121  25.036  1.00  0.00    -0.222 NA
ATOM     14  C   UNL A   1      31.268  28.662  24.272  1.00  0.00     0.091 A 
ATOM     15  C   UNL A   1      29.716  28.202  22.520  1.00  0.00     0.050 A 
ATOM     16  C   UNL A   1      30.725  29.962  24.389  1.00  0.00     0.052 A 
ATOM     17  C   UNL A   1      29.179  29.499  22.627  1.00  0.00     0.061 A 
ATOM     18  C   UNL A   1      29.665  30.371  23.580  1.00  0.00     0.061 A 
ATOM     19  Cl  UNL A   1      27.902  29.929  21.535  1.00  0.00    -0.083 Cl
ATOM     20  Cl  UNL A   1      28.982  31.935  23.841  1.00  0.00    -0.083 Cl
BRANCH  11  21
ATOM     21  C   UNL A   1      31.977  25.388  22.705  1.00  0.00     0.090 C 
ATOM     22  C   UNL A   1      31.922  25.904  21.315  1.00  0.00     0.032 C 
BRANCH  21  23
ATOM     23  C   UNL A   1      32.086  23.866  23.007  1.00  0.00     0.012 C 
ATOM     24  C   UNL A   1      32.410  22.397  22.602  1.00  0.00     0.006 C 
ATOM     25  C   UNL A   1      33.518  23.248  23.022  1.00  0.00     0.006 C 
ENDBRANCH  21  23
ENDBRANCH  11  21
ENDBRANCH   9  10
ENDBRANCH   8   9
ENDBRANCH   6   8
ENDBRANCH   5   6
ENDBRANCH   4   5
ENDBRANCH   3   4
ENDBRANCH   2   3
ENDBRANCH   1   2
BRANCH   1  26
ATOM     26  C   UNL A   1      35.890  20.279  25.009  1.00  0.00     0.188 C 
BRANCH  26  27
ATOM     27  O   UNL A   1      36.226  21.570  24.470  1.00  0.00    -0.376 OA
BRANCH  27  28
ATOM     28  C   UNL A   1      37.103  22.377  25.284  1.00  0.00     0.202 C 
BRANCH  28  29
ATOM     29  C   UNL A   1      38.516  21.700  25.509  1.00  0.00     0.261 C 
BRANCH  29  30
ATOM     30  O   UNL A   1      39.040  21.754  26.892  1.00  0.00    -0.460 OA
BRANCH  30  31
ATOM     31  C   UNL A   1      40.277  22.304  27.191  1.00  0.00     0.338 C 
ATOM     32  O   UNL A   1      41.236  21.651  27.565  1.00  0.00    -0.246 OA
BRANCH  31  33
ATOM     33  C   UNL A   1      40.272  23.850  27.140  1.00  0.00     0.060 A 
ATOM     34  C   UNL A   1      41.491  24.523  27.107  1.00  0.00     0.016 A 
ATOM     35  C   UNL A   1      39.166  24.682  27.304  1.00  0.00     0.016 A 
ATOM     36  C   UNL A   1      41.630  25.779  27.770  1.00  0.00     0.010 A 
ATOM     37  C   UNL A   1      39.304  25.967  27.868  1.00  0.00     0.010 A 
ATOM     38  C   UNL A   1      40.533  26.408  28.368  1.00  0.00    -0.014 A 
BRANCH  38  39
ATOM     39  C   UNL A   1      40.625  27.665  29.227  1.00  0.00     0.031 A 
ATOM     40  C   UNL A   1      41.705  28.439  28.631  1.00  0.00     0.074 A 
ATOM     41  C   UNL A   1      40.006  28.251  30.319  1.00  0.00     0.049 A 
ATOM     42  N   UNL A   1      42.903  28.418  29.102  1.00  0.00    -0.248 NA
ATOM     43  C   UNL A   1      41.553  29.008  27.289  1.00  0.00     0.031 C 
ATOM     44  C   UNL A   1      38.943  27.781  31.231  1.00  0.00     0.029 A 
ATOM     45  N   UNL A   1      40.157  29.541  30.829  1.00  0.00    -0.354 N 
ATOM     46  C   UNL A   1      43.610  29.199  28.231  1.00  0.00     0.074 A 
ATOM     47  C   UNL A   1      42.827  29.301  27.021  1.00  0.00     0.031 C 
ATOM     48  C   UNL A   1      38.315  28.796  31.861  1.00  0.00     0.029 A 
ATOM     49  C   UNL A   1      39.102  29.986  31.648  1.00  0.00     0.049 A 
ATOM     50  H   UNL A   1      40.944  30.099  30.630  1.00  0.00     0.167 HD
ATOM     51  C   UNL A   1      44.561  30.025  28.724  1.00  0.00     0.037 A 
ATOM     52  C   UNL A   1      38.940  31.142  32.344  1.00  0.00     0.037 A 
ATOM     53  C   UNL A   1      44.921  29.713  30.084  1.00  0.00     0.049 A 
ATOM     54  C   UNL A   1      40.292  31.559  32.742  1.00  0.00     0.074 A 
ATOM     55  C   UNL A   1      45.503  28.632  30.714  1.00  0.00     0.029 A 
ATOM     56  N   UNL A   1      44.253  30.425  31.047  1.00  0.00    -0.354 N 
ATOM     57  N   UNL A   1      41.008  30.920  33.623  1.00  0.00    -0.248 NA
ATOM     58  C   UNL A   1      41.001  32.540  31.935  1.00  0.00     0.031 C 
ATOM     59  C   UNL A   1      45.011  28.624  32.052  1.00  0.00     0.029 A 
ATOM     60  C   UNL A   1      44.159  29.712  32.219  1.00  0.00     0.049 A 
ATOM     61  H   UNL A   1      43.887  31.330  30.917  1.00  0.00     0.167 HD
ATOM     62  C   UNL A   1      42.291  31.052  33.140  1.00  0.00     0.074 A 
ATOM     63  C   UNL A   1      42.252  32.200  32.248  1.00  0.00     0.031 C 
ATOM     64  C   UNL A   1      43.162  30.010  33.225  1.00  0.00     0.037 A 
BRANCH  51  65
ATOM     65  C   UNL A   1      44.754  31.359  28.097  1.00  0.00     0.064 A 
ATOM     66  C   UNL A   1      45.944  31.660  27.439  1.00  0.00     0.173 A 
ATOM     67  C   UNL A   1      43.834  32.417  28.275  1.00  0.00     0.173 A 
ATOM     68  F   UNL A   1      46.907  30.735  27.325  1.00  0.00    -0.203 F 
ATOM     69  C   UNL A   1      46.172  32.937  26.929  1.00  0.00     0.198 A 
ATOM     70  C   UNL A   1      44.023  33.661  27.697  1.00  0.00     0.198 A 
ATOM     71  F   UNL A   1      42.767  32.290  29.080  1.00  0.00    -0.203 F 
ATOM     72  F   UNL A   1      47.350  33.224  26.361  1.00  0.00    -0.200 F 
ATOM     73  C   UNL A   1      45.201  33.925  27.030  1.00  0.00     0.200 A 
ATOM     74  F   UNL A   1      43.084  34.606  27.835  1.00  0.00    -0.200 F 
ATOM     75  F   UNL A   1      45.419  35.147  26.529  1.00  0.00    -0.200 F 
ENDBRANCH  51  65
BRANCH  52  76
ATOM     76  C   UNL A   1      37.732  31.918  32.748  1.00  0.00     0.064 A 
ATOM     77  C   UNL A   1      37.450  32.185  34.105  1.00  0.00     0.173 A 
ATOM     78  C   UNL A   1      37.022  32.692  31.811  1.00  0.00     0.173 A 
ATOM     79  F   UNL A   1      38.072  31.502  35.075  1.00  0.00    -0.203 F 
ATOM     80  C   UNL A   1      36.588  33.218  34.496  1.00  0.00     0.198 A 
ATOM     81  C   UNL A   1      36.159  33.723  32.205  1.00  0.00     0.198 A 
ATOM     82  F   UNL A   1      37.228  32.523  30.497  1.00  0.00    -0.203 F 
ATOM     83  F   UNL A   1      36.424  33.495  35.799  1.00  0.00    -0.200 F 
ATOM     84  C   UNL A   1      35.964  34.004  33.545  1.00  0.00     0.200 A 
ATOM     85  F   UNL A   1      35.572  34.492  31.276  1.00  0.00    -0.200 F 
ATOM     86  F   UNL A   1      35.213  35.051  33.918  1.00  0.00    -0.200 F 
ENDBRANCH  52  76
BRANCH  64  87
ATOM     87  C   UNL A   1      42.953  29.029  34.345  1.00  0.00     0.064 A 
ATOM     88  C   UNL A   1      42.106  27.911  34.291  1.00  0.00     0.173 A 
ATOM     89  C   UNL A   1      43.711  29.207  35.511  1.00  0.00     0.173 A 
ATOM     90  F   UNL A   1      41.395  27.635  33.191  1.00  0.00    -0.203 F 
ATOM     91  C   UNL A   1      42.009  27.027  35.367  1.00  0.00     0.198 A 
ATOM     92  C   UNL A   1      43.637  28.307  36.570  1.00  0.00     0.198 A 
ATOM     93  F   UNL A   1      44.556  30.246  35.609  1.00  0.00    -0.203 F 
ATOM     94  F   UNL A   1      41.186  25.970  35.297  1.00  0.00    -0.200 F 
ATOM     95  C   UNL A   1      42.781  27.221  36.501  1.00  0.00     0.200 A 
ATOM     96  F   UNL A   1      44.412  28.483  37.649  1.00  0.00    -0.200 F 
ATOM     97  F   UNL A   1      42.716  26.351  37.520  1.00  0.00    -0.200 F 
ENDBRANCH  64  87
ENDBRANCH  38  39
ENDBRANCH  31  33
ENDBRANCH  30  31
ENDBRANCH  29  30
ENDBRANCH  28  29
ENDBRANCH  27  28
ENDBRANCH  26  27
ENDBRANCH   1  26
TORSDOF 21
ENDMDL
MODEL 3
REMARK VINA RESULT:     -10.3      1.508      2.212
REMARK SMILES C[C@H](C1CC1)n1c(SCC(=O)OCCOCCOCCOC(=O)c2ccc(-c3c4nc(c(-c5c(F)c(F)c(F)c(F)c5F)c5ccc([nH]5)c(-c5c(F)c(F)c(F)c(F)c5F)c5nc(c(-c6c(F)c(F)c(F)c(F)c6F)c6ccc3[nH]6)C=C5)C=C4)cc2)nc2cc(Cl)c(Cl)cc21
REMARK SMILES IDX 16 1 15 2 14 3 13 4 12 5 10 6 11 7 9 8 8 9 7 10 6 11 95 12
REMARK SMILES IDX 87 13 88 14 94 15 89 16 92 17 90 18 93 19 91 20 2 21 1 22
REMARK SMILES IDX 3 23 4 24 5 25 17 26 18 27 19 28 20 29 21 30 22 31 23 32
REMARK SMILES IDX 24 33 25 34 86 35 26 36 85 37 27 38 28 39 29 40 79 41 30 42
REMARK SMILES IDX 84 43 78 44 80 45 31 46 83 47 77 48 76 49 32 51 64 52 44 53
REMARK SMILES IDX 63 54 45 55 48 56 62 57 81 58 46 59 47 60 61 62 82 63 49 64
REMARK SMILES IDX 33 65 34 66 42 67 35 68 36 69 40 70 43 71 37 72 38 73 41 74
REMARK SMILES IDX 39 75 65 76 66 77 74 78 67 79 68 80 72 81 75 82 69 83 70 84
REMARK SMILES IDX 73 85 71 86 50 87 51 88 59 89 52 90 53 91 57 92 60 93 54 94
REMARK SMILES IDX 55 95 58 96 56 97
REMARK H PARENT 80 50 48 61
REMARK Flexibility Score: inf
ROOT
ATOM      1  C   UNL A   1      37.023  22.362  25.038  1.00  0.00     0.188 C 
ENDROOT
BRANCH   1   2
ATOM      2  O   UNL A   1      36.281  21.191  24.765  1.00  0.00    -0.376 OA
BRANCH   2   3
ATOM      3  C   UNL A   1      34.876  21.303  24.941  1.00  0.00     0.202 C 
BRANCH   3   4
ATOM      4  C   UNL A   1      34.177  22.348  24.058  1.00  0.00     0.261 C 
BRANCH   4   5
ATOM      5  O   UNL A   1      32.772  22.041  23.903  1.00  0.00    -0.463 OA
BRANCH   5   6
ATOM      6  C   UNL A   1      31.853  22.919  24.392  1.00  0.00     0.316 C 
ATOM      7  O   UNL A   1      31.417  22.898  25.544  1.00  0.00    -0.251 OA
BRANCH   6   8
ATOM      8  C   UNL A   1      31.350  23.910  23.349  1.00  0.00     0.200 C 
BRANCH   8   9
ATOM      9  S   UNL A   1      30.395  25.260  24.084  1.00  0.00    -0.076 SA
BRANCH   9  10
ATOM     10  C   UNL A   1      31.405  26.669  24.267  1.00  0.00     0.169 A 
ATOM     11  N   UNL A   1      30.956  28.015  24.312  1.00  0.00    -0.316 N 
ATOM     12  C   UNL A   1      31.897  28.660  25.155  1.00  0.00     0.071 A 
ATOM     13  N   UNL A   1      32.597  26.521  24.782  1.00  0.00    -0.222 NA
ATOM     14  C   UNL A   1      32.871  27.685  25.421  1.00  0.00     0.091 A 
ATOM     15  C   UNL A   1      32.082  29.903  25.805  1.00  0.00     0.050 A 
ATOM     16  C   UNL A   1      33.945  27.931  26.307  1.00  0.00     0.052 A 
ATOM     17  C   UNL A   1      33.156  30.156  26.682  1.00  0.00     0.061 A 
ATOM     18  C   UNL A   1      34.072  29.160  26.953  1.00  0.00     0.061 A 
ATOM     19  Cl  UNL A   1      33.257  31.735  27.389  1.00  0.00    -0.083 Cl
ATOM     20  Cl  UNL A   1      35.348  29.362  28.100  1.00  0.00    -0.083 Cl
BRANCH  11  21
ATOM     21  C   UNL A   1      30.051  28.494  23.168  1.00  0.00     0.090 C 
ATOM     22  C   UNL A   1      30.854  29.488  22.414  1.00  0.00     0.032 C 
BRANCH  21  23
ATOM     23  C   UNL A   1      28.508  28.393  22.999  1.00  0.00     0.012 C 
ATOM     24  C   UNL A   1      27.050  28.824  23.338  1.00  0.00     0.006 C 
ATOM     25  C   UNL A   1      27.785  29.618  22.359  1.00  0.00     0.006 C 
ENDBRANCH  21  23
ENDBRANCH  11  21
ENDBRANCH   9  10
ENDBRANCH   8   9
ENDBRANCH   6   8
ENDBRANCH   5   6
ENDBRANCH   4   5
ENDBRANCH   3   4
ENDBRANCH   2   3
ENDBRANCH   1   2
BRANCH   1  26
ATOM     26  C   UNL A   1      38.077  22.284  26.163  1.00  0.00     0.188 C 
BRANCH  26  27
ATOM     27  O   UNL A   1      39.318  21.795  25.623  1.00  0.00    -0.376 OA
BRANCH  27  28
ATOM     28  C   UNL A   1      39.644  20.428  25.948  1.00  0.00     0.202 C 
BRANCH  28  29
ATOM     29  C   UNL A   1      41.190  20.219  26.216  1.00  0.00     0.261 C 
BRANCH  29  30
ATOM     30  O   UNL A   1      42.046  21.406  25.994  1.00  0.00    -0.460 OA
BRANCH  30  31
ATOM     31  C   UNL A   1      42.519  22.179  27.042  1.00  0.00     0.338 C 
ATOM     32  O   UNL A   1      42.910  21.719  28.101  1.00  0.00    -0.246 OA
BRANCH  31  33
ATOM     33  C   UNL A   1      42.362  23.697  26.784  1.00  0.00     0.060 A 
ATOM     34  C   UNL A   1      43.447  24.534  27.033  1.00  0.00     0.016 A 
ATOM     35  C   UNL A   1      41.178  24.370  26.490  1.00  0.00     0.016 A 
ATOM     36  C   UNL A   1      43.228  25.854  27.530  1.00  0.00     0.010 A 
ATOM     37  C   UNL A   1      40.987  25.708  26.889  1.00  0.00     0.010 A 
ATOM     38  C   UNL A   1      41.935  26.369  27.676  1.00  0.00    -0.014 A 
BRANCH  38  39
ATOM     39  C   UNL A   1      41.611  27.702  28.343  1.00  0.00     0.031 A 
ATOM     40  C   UNL A   1      42.690  28.590  27.937  1.00  0.00     0.074 A 
ATOM     41  C   UNL A   1      40.641  28.275  29.150  1.00  0.00     0.049 A 
ATOM     42  N   UNL A   1      43.705  28.824  28.693  1.00  0.00    -0.248 NA
ATOM     43  C   UNL A   1      42.830  28.988  26.534  1.00  0.00     0.031 C 
ATOM     44  C   UNL A   1      39.449  27.718  29.822  1.00  0.00     0.029 A 
ATOM     45  N   UNL A   1      40.463  29.615  29.495  1.00  0.00    -0.354 N 
ATOM     46  C   UNL A   1      44.504  29.628  27.927  1.00  0.00     0.074 A 
ATOM     47  C   UNL A   1      44.073  29.471  26.557  1.00  0.00     0.031 C 
ATOM     48  C   UNL A   1      38.535  28.665  30.124  1.00  0.00     0.029 A 
ATOM     49  C   UNL A   1      39.173  29.947  29.950  1.00  0.00     0.049 A 
ATOM     50  H   UNL A   1      41.186  30.280  29.424  1.00  0.00     0.167 HD
ATOM     51  C   UNL A   1      45.157  30.652  28.522  1.00  0.00     0.037 A 
ATOM     52  C   UNL A   1      38.664  31.120  30.412  1.00  0.00     0.037 A 
ATOM     53  C   UNL A   1      45.175  30.543  29.959  1.00  0.00     0.049 A 
ATOM     54  C   UNL A   1      39.784  31.803  31.075  1.00  0.00     0.074 A 
ATOM     55  C   UNL A   1      45.712  29.647  30.862  1.00  0.00     0.029 A 
ATOM     56  N   UNL A   1      44.176  31.218  30.612  1.00  0.00    -0.354 N 
ATOM     57  N   UNL A   1      40.317  31.389  32.190  1.00  0.00    -0.248 NA
ATOM     58  C   UNL A   1      40.538  32.809  30.343  1.00  0.00     0.031 C 
ATOM     59  C   UNL A   1      44.880  29.685  32.019  1.00  0.00     0.029 A 
ATOM     60  C   UNL A   1      43.870  30.619  31.811  1.00  0.00     0.049 A 
ATOM     61  H   UNL A   1      43.734  32.028  30.267  1.00  0.00     0.167 HD
ATOM     62  C   UNL A   1      41.651  31.695  32.033  1.00  0.00     0.074 A 
ATOM     63  C   UNL A   1      41.692  32.726  31.007  1.00  0.00     0.031 C 
ATOM     64  C   UNL A   1      42.605  30.835  32.481  1.00  0.00     0.037 A 
BRANCH  51  65
ATOM     65  C   UNL A   1      45.322  31.931  27.783  1.00  0.00     0.064 A 
ATOM     66  C   UNL A   1      44.230  32.772  27.583  1.00  0.00     0.173 A 
ATOM     67  C   UNL A   1      46.524  32.270  27.120  1.00  0.00     0.173 A 
ATOM     68  F   UNL A   1      43.032  32.458  28.094  1.00  0.00    -0.203 F 
ATOM     69  C   UNL A   1      44.354  33.927  26.811  1.00  0.00     0.198 A 
ATOM     70  C   UNL A   1      46.669  33.458  26.424  1.00  0.00     0.198 A 
ATOM     71  F   UNL A   1      47.560  31.417  27.068  1.00  0.00    -0.203 F 
ATOM     72  F   UNL A   1      43.275  34.684  26.575  1.00  0.00    -0.200 F 
ATOM     73  C   UNL A   1      45.577  34.285  26.261  1.00  0.00     0.200 A 
ATOM     74  F   UNL A   1      47.852  33.766  25.876  1.00  0.00    -0.200 F 
ATOM     75  F   UNL A   1      45.694  35.400  25.530  1.00  0.00    -0.200 F 
ENDBRANCH  51  65
BRANCH  52  76
ATOM     76  C   UNL A   1      37.294  31.708  30.384  1.00  0.00     0.064 A 
ATOM     77  C   UNL A   1      36.428  31.605  31.494  1.00  0.00     0.173 A 
ATOM     78  C   UNL A   1      36.936  32.663  29.414  1.00  0.00     0.173 A 
ATOM     79  F   UNL A   1      36.679  30.726  32.473  1.00  0.00    -0.203 F 
ATOM     80  C   UNL A   1      35.332  32.462  31.664  1.00  0.00     0.198 A 
ATOM     81  C   UNL A   1      35.838  33.516  29.586  1.00  0.00     0.198 A 
ATOM     82  F   UNL A   1      37.701  32.846  28.329  1.00  0.00    -0.203 F 
ATOM     83  F   UNL A   1      34.592  32.387  32.781  1.00  0.00    -0.200 F 
ATOM     84  C   UNL A   1      35.054  33.434  30.722  1.00  0.00     0.200 A 
ATOM     85  F   UNL A   1      35.587  34.470  28.676  1.00  0.00    -0.200 F 
ATOM     86  F   UNL A   1      34.063  34.314  30.929  1.00  0.00    -0.200 F 
ENDBRANCH  52  76
BRANCH  64  87
ATOM     87  C   UNL A   1      42.242  29.948  33.638  1.00  0.00     0.064 A 
ATOM     88  C   UNL A   1      41.762  28.633  33.528  1.00  0.00     0.173 A 
ATOM     89  C   UNL A   1      42.459  30.448  34.930  1.00  0.00     0.173 A 
ATOM     90  F   UNL A   1      41.586  28.060  32.331  1.00  0.00    -0.203 F 
ATOM     91  C   UNL A   1      41.492  27.866  34.663  1.00  0.00     0.198 A 
ATOM     92  C   UNL A   1      42.220  29.670  36.059  1.00  0.00     0.198 A 
ATOM     93  F   UNL A   1      42.940  31.690  35.096  1.00  0.00    -0.203 F 
ATOM     94  F   UNL A   1      41.025  26.615  34.534  1.00  0.00    -0.200 F 
ATOM     95  C   UNL A   1      41.730  28.382  35.927  1.00  0.00     0.200 A 
ATOM     96  F   UNL A   1      42.485  30.165  37.276  1.00  0.00    -0.200 F 
ATOM     97  F   UNL A   1      41.507  27.632  37.016  1.00  0.00    -0.200 F 
ENDBRANCH  64  87
ENDBRANCH  38  39
ENDBRANCH  31  33
ENDBRANCH  30  31
ENDBRANCH  29  30
ENDBRANCH  28  29
ENDBRANCH  27  28
ENDBRANCH  26  27
ENDBRANCH   1  26
TORSDOF 21
ENDMDL
