MODEL 1
REMARK VINA RESULT:     -11.5      0.000      0.000
REMARK SMILES O=C(OCCOCCOCCOC(=O)[C@H]1Cc2[nH]cnc2CN1C(=O)NCc1nc[nH]n1)c1ccc(-c2c3nc(c(-c4c(F)c(F)c(F)c(F)c4F)c4ccc([nH]4)c(-c4c(F)c(F)c(F)c(F)c4F)c4nc(c(-c5c(F)c(F)c(F)c(F)c5F)c5ccc2[nH]5)C=C4)C=C3)cc1
REMARK SMILES IDX 8 1 7 2 6 3 5 4 4 5 3 6 2 7 1 8 33 9 34 10 95 11 35 12 94 13
REMARK SMILES IDX 36 14 37 15 38 16 88 17 39 18 93 19 87 20 89 21 40 22 92 23
REMARK SMILES IDX 86 24 85 25 41 27 73 28 53 29 72 30 54 31 57 32 71 33 90 34
REMARK SMILES IDX 55 35 56 36 70 38 91 39 58 40 42 41 43 42 51 43 44 44 45 45
REMARK SMILES IDX 49 46 52 47 46 48 47 49 50 50 48 51 74 52 75 53 83 54 76 55
REMARK SMILES IDX 77 56 81 57 84 58 78 59 79 60 82 61 80 62 59 63 60 64 68 65
REMARK SMILES IDX 61 66 62 67 66 68 69 69 63 70 64 71 67 72 65 73 9 74 10 75
REMARK SMILES IDX 11 76 12 77 13 78 14 79 15 80 16 81 23 82 17 83 22 84 18 85
REMARK SMILES IDX 21 86 19 87 20 89 24 90 25 91 26 92 27 94 28 95 29 96 32 97
REMARK SMILES IDX 30 98 31 99
REMARK H PARENT 89 26 57 37 18 88 26 93 31 100
REMARK Flexibility Score: inf
ROOT
ATOM      1  C   UNL A   1      39.654  22.166  26.607  1.00  0.00     0.188 C 
ENDROOT
BRANCH   1   2
ATOM      2  C   UNL A   1      40.150  20.740  26.414  1.00  0.00     0.188 C 
BRANCH   2   3
ATOM      3  O   UNL A   1      40.724  20.227  27.625  1.00  0.00    -0.376 OA
BRANCH   3   4
ATOM      4  C   UNL A   1      42.011  19.641  27.459  1.00  0.00     0.202 C 
BRANCH   4   5
ATOM      5  C   UNL A   1      42.428  19.461  26.003  1.00  0.00     0.261 C 
BRANCH   5   6
ATOM      6  O   UNL A   1      43.839  19.607  25.782  1.00  0.00    -0.460 OA
BRANCH   6   7
ATOM      7  C   UNL A   1      44.377  20.358  24.795  1.00  0.00     0.338 C 
ATOM      8  O   UNL A   1      44.563  19.881  23.678  1.00  0.00    -0.246 OA
BRANCH   7   9
ATOM      9  C   UNL A   1      44.697  21.789  25.010  1.00  0.00     0.060 A 
ATOM     10  C   UNL A   1      45.542  22.204  26.041  1.00  0.00     0.016 A 
ATOM     11  C   UNL A   1      43.913  22.730  24.314  1.00  0.00     0.016 A 
ATOM     12  C   UNL A   1      45.529  23.532  26.434  1.00  0.00     0.010 A 
ATOM     13  C   UNL A   1      43.880  24.053  24.720  1.00  0.00     0.010 A 
ATOM     14  C   UNL A   1      44.627  24.418  25.834  1.00  0.00    -0.014 A 
BRANCH  14  15
ATOM     15  C   UNL A   1      44.354  25.652  26.549  1.00  0.00     0.031 A 
ATOM     16  C   UNL A   1      45.327  26.755  26.401  1.00  0.00     0.074 A 
ATOM     17  C   UNL A   1      43.263  25.757  27.334  1.00  0.00     0.049 A 
ATOM     18  N   UNL A   1      46.059  27.297  27.321  1.00  0.00    -0.248 NA
ATOM     19  C   UNL A   1      45.543  27.298  25.056  1.00  0.00     0.031 C 
ATOM     20  C   UNL A   1      42.089  24.879  27.381  1.00  0.00     0.029 A 
ATOM     21  N   UNL A   1      42.951  26.741  28.222  1.00  0.00    -0.354 N 
ATOM     22  C   UNL A   1      46.732  28.348  26.706  1.00  0.00     0.074 A 
ATOM     23  C   UNL A   1      46.449  28.247  25.296  1.00  0.00     0.031 C 
ATOM     24  C   UNL A   1      41.115  25.478  28.102  1.00  0.00     0.029 A 
ATOM     25  C   UNL A   1      41.642  26.706  28.672  1.00  0.00     0.049 A 
ATOM     26  H   UNL A   1      43.600  27.418  28.519  1.00  0.00     0.167 HD
ATOM     27  C   UNL A   1      47.332  29.333  27.428  1.00  0.00     0.037 A 
ATOM     28  C   UNL A   1      41.020  27.662  29.402  1.00  0.00     0.037 A 
ATOM     29  C   UNL A   1      47.613  28.912  28.774  1.00  0.00     0.049 A 
ATOM     30  C   UNL A   1      42.067  28.480  30.063  1.00  0.00     0.074 A 
ATOM     31  C   UNL A   1      48.387  27.913  29.332  1.00  0.00     0.029 A 
ATOM     32  N   UNL A   1      46.805  29.356  29.792  1.00  0.00    -0.354 N 
ATOM     33  N   UNL A   1      42.836  28.048  31.026  1.00  0.00    -0.248 NA
ATOM     34  C   UNL A   1      42.550  29.659  29.360  1.00  0.00     0.031 C 
ATOM     35  C   UNL A   1      47.666  27.481  30.483  1.00  0.00     0.029 A 
ATOM     36  C   UNL A   1      46.516  28.266  30.571  1.00  0.00     0.049 A 
ATOM     37  H   UNL A   1      46.494  30.280  29.934  1.00  0.00     0.167 HD
ATOM     38  C   UNL A   1      44.070  28.633  30.781  1.00  0.00     0.074 A 
ATOM     39  C   UNL A   1      43.808  29.685  29.804  1.00  0.00     0.031 C 
ATOM     40  C   UNL A   1      45.229  28.035  31.181  1.00  0.00     0.037 A 
BRANCH  27  41
ATOM     41  C   UNL A   1      47.386  30.779  27.005  1.00  0.00     0.064 A 
ATOM     42  C   UNL A   1      48.610  31.475  27.068  1.00  0.00     0.173 A 
ATOM     43  C   UNL A   1      46.237  31.581  26.835  1.00  0.00     0.173 A 
ATOM     44  F   UNL A   1      49.765  30.816  27.249  1.00  0.00    -0.203 F 
ATOM     45  C   UNL A   1      48.666  32.871  27.045  1.00  0.00     0.198 A 
ATOM     46  C   UNL A   1      46.303  32.971  26.759  1.00  0.00     0.198 A 
ATOM     47  F   UNL A   1      45.002  31.065  26.853  1.00  0.00    -0.203 F 
ATOM     48  F   UNL A   1      49.838  33.492  27.239  1.00  0.00    -0.200 F 
ATOM     49  C   UNL A   1      47.512  33.617  26.898  1.00  0.00     0.200 A 
ATOM     50  F   UNL A   1      45.172  33.679  26.635  1.00  0.00    -0.200 F 
ATOM     51  F   UNL A   1      47.557  34.955  26.943  1.00  0.00    -0.200 F 
ENDBRANCH  27  41
BRANCH  28  52
ATOM     52  C   UNL A   1      39.611  28.100  29.279  1.00  0.00     0.064 A 
ATOM     53  C   UNL A   1      38.768  28.174  30.398  1.00  0.00     0.173 A 
ATOM     54  C   UNL A   1      39.138  28.707  28.097  1.00  0.00     0.173 A 
ATOM     55  F   UNL A   1      39.164  27.667  31.575  1.00  0.00    -0.203 F 
ATOM     56  C   UNL A   1      37.532  28.827  30.341  1.00  0.00     0.198 A 
ATOM     57  C   UNL A   1      37.902  29.349  28.039  1.00  0.00     0.198 A 
ATOM     58  F   UNL A   1      39.907  28.772  27.001  1.00  0.00    -0.203 F 
ATOM     59  F   UNL A   1      36.778  28.928  31.444  1.00  0.00    -0.200 F 
ATOM     60  C   UNL A   1      37.104  29.420  29.164  1.00  0.00     0.200 A 
ATOM     61  F   UNL A   1      37.520  29.951  26.904  1.00  0.00    -0.200 F 
ATOM     62  F   UNL A   1      35.947  30.093  29.124  1.00  0.00    -0.200 F 
ENDBRANCH  28  52
BRANCH  40  63
ATOM     63  C   UNL A   1      45.129  26.861  32.111  1.00  0.00     0.064 A 
ATOM     64  C   UNL A   1      44.853  25.553  31.677  1.00  0.00     0.173 A 
ATOM     65  C   UNL A   1      45.494  27.032  33.452  1.00  0.00     0.173 A 
ATOM     66  F   UNL A   1      44.599  25.295  30.387  1.00  0.00    -0.203 F 
ATOM     67  C   UNL A   1      44.902  24.474  32.557  1.00  0.00     0.198 A 
ATOM     68  C   UNL A   1      45.575  25.949  34.322  1.00  0.00     0.198 A 
ATOM     69  F   UNL A   1      45.829  28.251  33.908  1.00  0.00    -0.203 F 
ATOM     70  F   UNL A   1      44.634  23.235  32.119  1.00  0.00    -0.200 F 
ATOM     71  C   UNL A   1      45.272  24.672  33.877  1.00  0.00     0.200 A 
ATOM     72  F   UNL A   1      45.985  26.136  35.585  1.00  0.00    -0.200 F 
ATOM     73  F   UNL A   1      45.367  23.627  34.713  1.00  0.00    -0.200 F 
ENDBRANCH  40  63
ENDBRANCH  14  15
ENDBRANCH   7   9
ENDBRANCH   6   7
ENDBRANCH   5   6
ENDBRANCH   4   5
ENDBRANCH   3   4
ENDBRANCH   2   3
ENDBRANCH   1   2
BRANCH   1  74
ATOM     74  O   UNL A   1      38.473  22.471  25.868  1.00  0.00    -0.376 OA
BRANCH  74  75
ATOM     75  C   UNL A   1      37.840  23.702  26.218  1.00  0.00     0.202 C 
BRANCH  75  76
ATOM     76  C   UNL A   1      36.571  23.968  25.391  1.00  0.00     0.261 C 
BRANCH  76  77
ATOM     77  O   UNL A   1      36.482  23.019  24.303  1.00  0.00    -0.462 OA
BRANCH  77  78
ATOM     78  C   UNL A   1      35.330  22.870  23.640  1.00  0.00     0.329 C 
ATOM     79  O   UNL A   1      35.154  23.311  22.505  1.00  0.00    -0.250 OA
BRANCH  78  80
ATOM     80  C   UNL A   1      34.271  21.974  24.350  1.00  0.00     0.203 C 
ATOM     81  C   UNL A   1      35.081  20.708  24.801  1.00  0.00     0.093 C 
ATOM     82  N   UNL A   1      33.097  22.204  25.322  1.00  0.00    -0.305 N 
ATOM     83  C   UNL A   1      34.121  19.596  24.924  1.00  0.00     0.042 A 
ATOM     84  C   UNL A   1      32.087  21.090  25.248  1.00  0.00     0.180 C 
ATOM     85  N   UNL A   1      34.337  18.265  24.750  1.00  0.00    -0.348 N 
ATOM     86  C   UNL A   1      32.772  19.753  25.142  1.00  0.00     0.081 A 
ATOM     87  C   UNL A   1      33.116  17.659  24.873  1.00  0.00     0.197 A 
ATOM     88  H   UNL A   1      35.201  17.826  24.572  1.00  0.00     0.167 HD
ATOM     89  N   UNL A   1      32.153  18.529  25.105  1.00  0.00    -0.240 NA
BRANCH  82  90
ATOM     90  C   UNL A   1      33.152  22.729  26.608  1.00  0.00     0.318 C 
ATOM     91  O   UNL A   1      33.397  22.041  27.601  1.00  0.00    -0.249 OA
ATOM     92  N   UNL A   1      32.653  23.981  26.827  1.00  0.00    -0.331 N 
ATOM     93  H   UNL A   1      32.264  24.170  27.711  1.00  0.00     0.165 HD
BRANCH  92  94
ATOM     94  C   UNL A   1      32.655  25.034  25.866  1.00  0.00     0.197 C 
BRANCH  94  95
ATOM     95  C   UNL A   1      31.371  25.561  25.321  1.00  0.00     0.169 A 
ATOM     96  N   UNL A   1      31.325  26.858  24.836  1.00  0.00    -0.218 NA
ATOM     97  N   UNL A   1      30.288  24.833  25.022  1.00  0.00    -0.157 NA
ATOM     98  C   UNL A   1      30.183  26.912  24.199  1.00  0.00     0.216 A 
ATOM     99  N   UNL A   1      29.558  25.713  24.307  1.00  0.00    -0.266 N 
ATOM    100  H   UNL A   1      28.678  25.510  23.912  1.00  0.00     0.191 HD
ENDBRANCH  94  95
ENDBRANCH  92  94
ENDBRANCH  82  90
ENDBRANCH  78  80
ENDBRANCH  77  78
ENDBRANCH  76  77
ENDBRANCH  75  76
ENDBRANCH  74  75
ENDBRANCH   1  74
TORSDOF 20
ENDMDL
MODEL 2
REMARK VINA RESULT:     -11.4      1.086      3.071
REMARK SMILES O=C(OCCOCCOCCOC(=O)[C@H]1Cc2[nH]cnc2CN1C(=O)NCc1nc[nH]n1)c1ccc(-c2c3nc(c(-c4c(F)c(F)c(F)c(F)c4F)c4ccc([nH]4)c(-c4c(F)c(F)c(F)c(F)c4F)c4nc(c(-c5c(F)c(F)c(F)c(F)c5F)c5ccc2[nH]5)C=C4)C=C3)cc1
REMARK SMILES IDX 8 1 7 2 6 3 5 4 4 5 3 6 2 7 1 8 33 9 34 10 95 11 35 12 94 13
REMARK SMILES IDX 36 14 37 15 38 16 88 17 39 18 93 19 87 20 89 21 40 22 92 23
REMARK SMILES IDX 86 24 85 25 41 27 73 28 53 29 72 30 54 31 57 32 71 33 90 34
REMARK SMILES IDX 55 35 56 36 70 38 91 39 58 40 42 41 43 42 51 43 44 44 45 45
REMARK SMILES IDX 49 46 52 47 46 48 47 49 50 50 48 51 74 52 75 53 83 54 76 55
REMARK SMILES IDX 77 56 81 57 84 58 78 59 79 60 82 61 80 62 59 63 60 64 68 65
REMARK SMILES IDX 61 66 62 67 66 68 69 69 63 70 64 71 67 72 65 73 9 74 10 75
REMARK SMILES IDX 11 76 12 77 13 78 14 79 15 80 16 81 23 82 17 83 22 84 18 85
REMARK SMILES IDX 21 86 19 87 20 89 24 90 25 91 26 92 27 94 28 95 29 96 32 97
REMARK SMILES IDX 30 98 31 99
REMARK H PARENT 89 26 57 37 18 88 26 93 31 100
REMARK Flexibility Score: inf
ROOT
ATOM      1  C   UNL A   1      39.974  21.495  26.430  1.00  0.00     0.188 C 
ENDROOT
BRANCH   1   2
ATOM      2  C   UNL A   1      39.479  20.203  25.792  1.00  0.00     0.188 C 
BRANCH   2   3
ATOM      3  O   UNL A   1      40.527  19.225  25.735  1.00  0.00    -0.376 OA
BRANCH   3   4
ATOM      4  C   UNL A   1      41.791  19.696  26.193  1.00  0.00     0.202 C 
BRANCH   4   5
ATOM      5  C   UNL A   1      42.921  18.682  26.050  1.00  0.00     0.261 C 
BRANCH   5   6
ATOM      6  O   UNL A   1      44.198  19.272  25.761  1.00  0.00    -0.460 OA
BRANCH   6   7
ATOM      7  C   UNL A   1      44.439  20.073  24.700  1.00  0.00     0.338 C 
ATOM      8  O   UNL A   1      44.366  19.631  23.555  1.00  0.00    -0.246 OA
BRANCH   7   9
ATOM      9  C   UNL A   1      44.733  21.515  24.879  1.00  0.00     0.060 A 
ATOM     10  C   UNL A   1      45.672  21.960  25.810  1.00  0.00     0.016 A 
ATOM     11  C   UNL A   1      43.845  22.427  24.275  1.00  0.00     0.016 A 
ATOM     12  C   UNL A   1      45.660  23.288  26.203  1.00  0.00     0.010 A 
ATOM     13  C   UNL A   1      43.813  23.749  24.683  1.00  0.00     0.010 A 
ATOM     14  C   UNL A   1      44.668  24.142  25.707  1.00  0.00    -0.014 A 
BRANCH  14  15
ATOM     15  C   UNL A   1      44.434  25.368  26.449  1.00  0.00     0.031 A 
ATOM     16  C   UNL A   1      45.449  26.438  26.334  1.00  0.00     0.074 A 
ATOM     17  C   UNL A   1      43.341  25.495  27.229  1.00  0.00     0.049 A 
ATOM     18  N   UNL A   1      46.193  26.930  27.272  1.00  0.00    -0.248 NA
ATOM     19  C   UNL A   1      45.695  27.004  25.003  1.00  0.00     0.031 C 
ATOM     20  C   UNL A   1      42.136  24.661  27.247  1.00  0.00     0.029 A 
ATOM     21  N   UNL A   1      43.059  26.469  28.138  1.00  0.00    -0.354 N 
ATOM     22  C   UNL A   1      46.909  27.970  26.686  1.00  0.00     0.074 A 
ATOM     23  C   UNL A   1      46.634  27.912  25.272  1.00  0.00     0.031 C 
ATOM     24  C   UNL A   1      41.178  25.279  27.975  1.00  0.00     0.029 A 
ATOM     25  C   UNL A   1      41.746  26.473  28.577  1.00  0.00     0.049 A 
ATOM     26  H   UNL A   1      43.731  27.115  28.455  1.00  0.00     0.167 HD
ATOM     27  C   UNL A   1      47.539  28.915  27.436  1.00  0.00     0.037 A 
ATOM     28  C   UNL A   1      41.154  27.434  29.325  1.00  0.00     0.037 A 
ATOM     29  C   UNL A   1      47.793  28.452  28.774  1.00  0.00     0.049 A 
ATOM     30  C   UNL A   1      42.226  28.197  30.013  1.00  0.00     0.074 A 
ATOM     31  C   UNL A   1      48.526  27.412  29.313  1.00  0.00     0.029 A 
ATOM     32  N   UNL A   1      46.995  28.903  29.796  1.00  0.00    -0.354 N 
ATOM     33  N   UNL A   1      42.970  27.715  30.970  1.00  0.00    -0.248 NA
ATOM     34  C   UNL A   1      42.758  29.373  29.341  1.00  0.00     0.031 C 
ATOM     35  C   UNL A   1      47.781  26.981  30.449  1.00  0.00     0.029 A 
ATOM     36  C   UNL A   1      46.660  27.806  30.547  1.00  0.00     0.049 A 
ATOM     37  H   UNL A   1      46.717  29.834  29.957  1.00  0.00     0.167 HD
ATOM     38  C   UNL A   1      44.227  28.259  30.749  1.00  0.00     0.074 A 
ATOM     39  C   UNL A   1      44.012  29.342  29.795  1.00  0.00     0.031 C 
ATOM     40  C   UNL A   1      45.360  27.608  31.142  1.00  0.00     0.037 A 
BRANCH  27  41
ATOM     41  C   UNL A   1      47.650  30.367  27.048  1.00  0.00     0.064 A 
ATOM     42  C   UNL A   1      48.894  31.021  27.155  1.00  0.00     0.173 A 
ATOM     43  C   UNL A   1      46.532  31.210  26.869  1.00  0.00     0.173 A 
ATOM     44  F   UNL A   1      50.023  30.320  27.347  1.00  0.00    -0.203 F 
ATOM     45  C   UNL A   1      48.996  32.414  27.165  1.00  0.00     0.198 A 
ATOM     46  C   UNL A   1      46.645  32.598  26.826  1.00  0.00     0.198 A 
ATOM     47  F   UNL A   1      45.281  30.734  26.847  1.00  0.00    -0.203 F 
ATOM     48  F   UNL A   1      50.182  32.992  27.400  1.00  0.00    -0.200 F 
ATOM     49  C   UNL A   1      47.871  33.201  27.009  1.00  0.00     0.200 A 
ATOM     50  F   UNL A   1      45.541  33.346  26.692  1.00  0.00    -0.200 F 
ATOM     51  F   UNL A   1      47.957  34.536  27.085  1.00  0.00    -0.200 F 
ENDBRANCH  27  41
BRANCH  28  52
ATOM     52  C   UNL A   1      39.763  27.927  29.202  1.00  0.00     0.064 A 
ATOM     53  C   UNL A   1      38.914  28.001  30.316  1.00  0.00     0.173 A 
ATOM     54  C   UNL A   1      39.325  28.583  28.034  1.00  0.00     0.173 A 
ATOM     55  F   UNL A   1      39.279  27.447  31.481  1.00  0.00    -0.203 F 
ATOM     56  C   UNL A   1      37.703  28.701  30.267  1.00  0.00     0.198 A 
ATOM     57  C   UNL A   1      38.113  29.272  27.983  1.00  0.00     0.198 A 
ATOM     58  F   UNL A   1      40.106  28.650  26.946  1.00  0.00    -0.203 F 
ATOM     59  F   UNL A   1      36.943  28.799  31.366  1.00  0.00    -0.200 F 
ATOM     60  C   UNL A   1      37.308  29.341  29.103  1.00  0.00     0.200 A 
ATOM     61  F   UNL A   1      37.764  29.918  26.862  1.00  0.00    -0.200 F 
ATOM     62  F   UNL A   1      36.176  30.057  29.072  1.00  0.00    -0.200 F 
ENDBRANCH  28  52
BRANCH  40  63
ATOM     63  C   UNL A   1      45.210  26.418  32.043  1.00  0.00     0.064 A 
ATOM     64  C   UNL A   1      45.206  26.507  33.446  1.00  0.00     0.173 A 
ATOM     65  C   UNL A   1      44.886  25.180  31.474  1.00  0.00     0.173 A 
ATOM     66  F   UNL A   1      45.402  27.681  34.062  1.00  0.00    -0.203 F 
ATOM     67  C   UNL A   1      44.930  25.396  34.240  1.00  0.00     0.198 A 
ATOM     68  C   UNL A   1      44.577  24.079  32.268  1.00  0.00     0.198 A 
ATOM     69  F   UNL A   1      44.814  25.052  30.139  1.00  0.00    -0.203 F 
ATOM     70  F   UNL A   1      44.932  25.506  35.577  1.00  0.00    -0.200 F 
ATOM     71  C   UNL A   1      44.607  24.185  33.650  1.00  0.00     0.200 A 
ATOM     72  F   UNL A   1      44.213  22.923  31.695  1.00  0.00    -0.200 F 
ATOM     73  F   UNL A   1      44.292  23.128  34.413  1.00  0.00    -0.200 F 
ENDBRANCH  40  63
ENDBRANCH  14  15
ENDBRANCH   7   9
ENDBRANCH   6   7
ENDBRANCH   5   6
ENDBRANCH   4   5
ENDBRANCH   3   4
ENDBRANCH   2   3
ENDBRANCH   1   2
BRANCH   1  74
ATOM     74  O   UNL A   1      39.090  22.600  26.253  1.00  0.00    -0.376 OA
BRANCH  74  75
ATOM     75  C   UNL A   1      37.917  22.322  25.488  1.00  0.00     0.202 C 
BRANCH  75  76
ATOM     76  C   UNL A   1      36.711  23.166  25.931  1.00  0.00     0.261 C 
BRANCH  76  77
ATOM     77  O   UNL A   1      36.352  24.101  24.889  1.00  0.00    -0.462 OA
BRANCH  77  78
ATOM     78  C   UNL A   1      35.311  23.843  24.090  1.00  0.00     0.329 C 
ATOM     79  O   UNL A   1      35.426  23.248  23.019  1.00  0.00    -0.250 OA
BRANCH  78  80
ATOM     80  C   UNL A   1      33.918  24.223  24.677  1.00  0.00     0.203 C 
ATOM     81  C   UNL A   1      33.739  25.733  24.294  1.00  0.00     0.093 C 
ATOM     82  N   UNL A   1      32.534  23.550  24.771  1.00  0.00    -0.305 N 
ATOM     83  C   UNL A   1      32.802  26.322  25.268  1.00  0.00     0.042 A 
ATOM     84  C   UNL A   1      31.718  24.110  25.904  1.00  0.00     0.180 C 
ATOM     85  N   UNL A   1      32.735  27.606  25.711  1.00  0.00    -0.348 N 
ATOM     86  C   UNL A   1      31.875  25.606  25.988  1.00  0.00     0.081 A 
ATOM     87  C   UNL A   1      31.768  27.627  26.680  1.00  0.00     0.197 A 
ATOM     88  H   UNL A   1      33.274  28.369  25.396  1.00  0.00     0.167 HD
ATOM     89  N   UNL A   1      31.234  26.437  26.872  1.00  0.00    -0.240 NA
BRANCH  82  90
ATOM     90  C   UNL A   1      31.710  23.159  23.721  1.00  0.00     0.318 C 
ATOM     91  O   UNL A   1      30.888  23.916  23.200  1.00  0.00    -0.249 OA
ATOM     92  N   UNL A   1      31.601  21.829  23.433  1.00  0.00    -0.331 N 
ATOM     93  H   UNL A   1      30.746  21.509  23.066  1.00  0.00     0.165 HD
BRANCH  92  94
ATOM     94  C   UNL A   1      32.639  20.870  23.625  1.00  0.00     0.197 C 
BRANCH  94  95
ATOM     95  C   UNL A   1      32.573  19.904  24.759  1.00  0.00     0.169 A 
ATOM     96  N   UNL A   1      32.279  18.576  24.498  1.00  0.00    -0.218 NA
ATOM     97  N   UNL A   1      33.005  20.128  26.006  1.00  0.00    -0.157 NA
ATOM     98  C   UNL A   1      32.566  17.967  25.620  1.00  0.00     0.216 A 
ATOM     99  N   UNL A   1      32.997  18.883  26.524  1.00  0.00    -0.266 N 
ATOM    100  H   UNL A   1      33.268  18.665  27.446  1.00  0.00     0.191 HD
ENDBRANCH  94  95
ENDBRANCH  92  94
ENDBRANCH  82  90
ENDBRANCH  78  80
ENDBRANCH  77  78
ENDBRANCH  76  77
ENDBRANCH  75  76
ENDBRANCH  74  75
ENDBRANCH   1  74
TORSDOF 20
ENDMDL
MODEL 3
REMARK VINA RESULT:     -11.2      3.700      5.734
REMARK SMILES O=C(OCCOCCOCCOC(=O)[C@H]1Cc2[nH]cnc2CN1C(=O)NCc1nc[nH]n1)c1ccc(-c2c3nc(c(-c4c(F)c(F)c(F)c(F)c4F)c4ccc([nH]4)c(-c4c(F)c(F)c(F)c(F)c4F)c4nc(c(-c5c(F)c(F)c(F)c(F)c5F)c5ccc2[nH]5)C=C4)C=C3)cc1
REMARK SMILES IDX 8 1 7 2 6 3 5 4 4 5 3 6 2 7 1 8 33 9 34 10 95 11 35 12 94 13
REMARK SMILES IDX 36 14 37 15 38 16 88 17 39 18 93 19 87 20 89 21 40 22 92 23
REMARK SMILES IDX 86 24 85 25 41 27 73 28 53 29 72 30 54 31 57 32 71 33 90 34
REMARK SMILES IDX 55 35 56 36 70 38 91 39 58 40 42 41 43 42 51 43 44 44 45 45
REMARK SMILES IDX 49 46 52 47 46 48 47 49 50 50 48 51 74 52 75 53 83 54 76 55
REMARK SMILES IDX 77 56 81 57 84 58 78 59 79 60 82 61 80 62 59 63 60 64 68 65
REMARK SMILES IDX 61 66 62 67 66 68 69 69 63 70 64 71 67 72 65 73 9 74 10 75
REMARK SMILES IDX 11 76 12 77 13 78 14 79 15 80 16 81 23 82 17 83 22 84 18 85
REMARK SMILES IDX 21 86 19 87 20 89 24 90 25 91 26 92 27 94 28 95 29 96 32 97
REMARK SMILES IDX 30 98 31 99
REMARK H PARENT 89 26 57 37 18 88 26 93 31 100
REMARK Flexibility Score: inf
ROOT
ATOM      1  C   UNL A   1      34.186  22.705  25.485  1.00  0.00     0.188 C 
ENDROOT
BRANCH   1   2
ATOM      2  C   UNL A   1      34.811  22.391  24.132  1.00  0.00     0.188 C 
BRANCH   2   3
ATOM      3  O   UNL A   1      36.184  22.001  24.279  1.00  0.00    -0.376 OA
BRANCH   3   4
ATOM      4  C   UNL A   1      36.727  22.251  25.572  1.00  0.00     0.202 C 
BRANCH   4   5
ATOM      5  C   UNL A   1      37.850  23.283  25.585  1.00  0.00     0.261 C 
BRANCH   5   6
ATOM      6  O   UNL A   1      38.645  23.260  26.780  1.00  0.00    -0.460 OA
BRANCH   6   7
ATOM      7  C   UNL A   1      39.994  23.339  26.793  1.00  0.00     0.338 C 
ATOM      8  O   UNL A   1      40.679  22.357  26.515  1.00  0.00    -0.246 OA
BRANCH   7   9
ATOM      9  C   UNL A   1      40.684  24.619  27.078  1.00  0.00     0.060 A 
ATOM     10  C   UNL A   1      41.242  24.888  28.329  1.00  0.00     0.016 A 
ATOM     11  C   UNL A   1      40.523  25.654  26.136  1.00  0.00     0.016 A 
ATOM     12  C   UNL A   1      41.545  26.196  28.669  1.00  0.00     0.010 A 
ATOM     13  C   UNL A   1      40.802  26.965  26.481  1.00  0.00     0.010 A 
ATOM     14  C   UNL A   1      41.230  27.228  27.777  1.00  0.00    -0.014 A 
BRANCH  14  15
ATOM     15  C   UNL A   1      41.168  28.570  28.330  1.00  0.00     0.031 A 
ATOM     16  C   UNL A   1      42.318  29.464  28.077  1.00  0.00     0.074 A 
ATOM     17  C   UNL A   1      40.106  28.955  29.065  1.00  0.00     0.049 A 
ATOM     18  N   UNL A   1      43.125  29.983  28.946  1.00  0.00    -0.248 NA
ATOM     19  C   UNL A   1      42.634  29.792  26.683  1.00  0.00     0.031 C 
ATOM     20  C   UNL A   1      38.798  28.302  29.184  1.00  0.00     0.029 A 
ATOM     21  N   UNL A   1      39.961  30.079  29.819  1.00  0.00    -0.354 N 
ATOM     22  C   UNL A   1      43.974  30.821  28.228  1.00  0.00     0.074 A 
ATOM     23  C   UNL A   1      43.688  30.595  26.833  1.00  0.00     0.031 C 
ATOM     24  C   UNL A   1      37.936  29.143  29.800  1.00  0.00     0.029 A 
ATOM     25  C   UNL A   1      38.663  30.324  30.232  1.00  0.00     0.049 A 
ATOM     26  H   UNL A   1      40.716  30.668  30.050  1.00  0.00     0.167 HD
ATOM     27  C   UNL A   1      44.729  31.771  28.843  1.00  0.00     0.037 A 
ATOM     28  C   UNL A   1      38.209  31.454  30.824  1.00  0.00     0.037 A 
ATOM     29  C   UNL A   1      44.923  31.478  30.238  1.00  0.00     0.049 A 
ATOM     30  C   UNL A   1      39.377  32.158  31.411  1.00  0.00     0.074 A 
ATOM     31  C   UNL A   1      45.510  30.438  30.933  1.00  0.00     0.029 A 
ATOM     32  N   UNL A   1      44.197  32.176  31.171  1.00  0.00    -0.354 N 
ATOM     33  N   UNL A   1      40.052  31.724  32.440  1.00  0.00    -0.248 NA
ATOM     34  C   UNL A   1      40.061  33.141  30.585  1.00  0.00     0.031 C 
ATOM     35  C   UNL A   1      44.717  30.281  32.107  1.00  0.00     0.029 A 
ATOM     36  C   UNL A   1      43.719  31.255  32.067  1.00  0.00     0.049 A 
ATOM     37  H   UNL A   1      44.048  33.149  31.191  1.00  0.00     0.167 HD
ATOM     38  C   UNL A   1      41.370  32.056  32.162  1.00  0.00     0.074 A 
ATOM     39  C   UNL A   1      41.301  33.008  31.058  1.00  0.00     0.031 C 
ATOM     40  C   UNL A   1      42.407  31.323  32.664  1.00  0.00     0.037 A 
BRANCH  27  41
ATOM     41  C   UNL A   1      45.034  33.123  28.251  1.00  0.00     0.064 A 
ATOM     42  C   UNL A   1      46.376  33.506  28.050  1.00  0.00     0.173 A 
ATOM     43  C   UNL A   1      44.084  34.162  28.160  1.00  0.00     0.173 A 
ATOM     44  F   UNL A   1      47.366  32.604  28.134  1.00  0.00    -0.203 F 
ATOM     45  C   UNL A   1      46.741  34.841  27.856  1.00  0.00     0.198 A 
ATOM     46  C   UNL A   1      44.448  35.485  27.912  1.00  0.00     0.198 A 
ATOM     47  F   UNL A   1      42.786  33.963  28.420  1.00  0.00    -0.203 F 
ATOM     48  F   UNL A   1      48.037  35.174  27.800  1.00  0.00    -0.200 F 
ATOM     49  C   UNL A   1      45.777  35.830  27.795  1.00  0.00     0.200 A 
ATOM     50  F   UNL A   1      43.501  36.433  27.875  1.00  0.00    -0.200 F 
ATOM     51  F   UNL A   1      46.128  37.117  27.676  1.00  0.00    -0.200 F 
ENDBRANCH  27  41
BRANCH  28  52
ATOM     52  C   UNL A   1      36.898  32.107  30.608  1.00  0.00     0.064 A 
ATOM     53  C   UNL A   1      35.937  32.171  31.629  1.00  0.00     0.173 A 
ATOM     54  C   UNL A   1      36.663  32.912  29.475  1.00  0.00     0.173 A 
ATOM     55  F   UNL A   1      36.110  31.476  32.762  1.00  0.00    -0.203 F 
ATOM     56  C   UNL A   1      34.816  33.002  31.527  1.00  0.00     0.198 A 
ATOM     57  C   UNL A   1      35.540  33.732  29.370  1.00  0.00     0.198 A 
ATOM     58  F   UNL A   1      37.566  32.992  28.487  1.00  0.00    -0.203 F 
ATOM     59  F   UNL A   1      33.948  33.081  32.545  1.00  0.00    -0.200 F 
ATOM     60  C   UNL A   1      34.623  33.786  30.401  1.00  0.00     0.200 A 
ATOM     61  F   UNL A   1      35.387  34.513  28.291  1.00  0.00    -0.200 F 
ATOM     62  F   UNL A   1      33.579  34.622  30.326  1.00  0.00    -0.200 F 
ENDBRANCH  28  52
BRANCH  40  63
ATOM     63  C   UNL A   1      42.099  30.308  33.725  1.00  0.00     0.064 A 
ATOM     64  C   UNL A   1      41.675  28.998  33.441  1.00  0.00     0.173 A 
ATOM     65  C   UNL A   1      42.409  30.612  35.057  1.00  0.00     0.173 A 
ATOM     66  F   UNL A   1      41.461  28.602  32.179  1.00  0.00    -0.203 F 
ATOM     67  C   UNL A   1      41.530  28.050  34.452  1.00  0.00     0.198 A 
ATOM     68  C   UNL A   1      42.296  29.654  36.061  1.00  0.00     0.198 A 
ATOM     69  F   UNL A   1      42.878  31.829  35.377  1.00  0.00    -0.203 F 
ATOM     70  F   UNL A   1      41.123  26.807  34.156  1.00  0.00    -0.200 F 
ATOM     71  C   UNL A   1      41.850  28.377  35.760  1.00  0.00     0.200 A 
ATOM     72  F   UNL A   1      42.657  29.957  37.316  1.00  0.00    -0.200 F 
ATOM     73  F   UNL A   1      41.758  27.451  36.726  1.00  0.00    -0.200 F 
ENDBRANCH  40  63
ENDBRANCH  14  15
ENDBRANCH   7   9
ENDBRANCH   6   7
ENDBRANCH   5   6
ENDBRANCH   4   5
ENDBRANCH   3   4
ENDBRANCH   2   3
ENDBRANCH   1   2
BRANCH   1  74
ATOM     74  O   UNL A   1      32.805  23.052  25.415  1.00  0.00    -0.376 OA
BRANCH  74  75
ATOM     75  C   UNL A   1      32.115  23.046  26.665  1.00  0.00     0.202 C 
BRANCH  75  76
ATOM     76  C   UNL A   1      30.958  24.059  26.704  1.00  0.00     0.261 C 
BRANCH  76  77
ATOM     77  O   UNL A   1      31.473  25.403  26.573  1.00  0.00    -0.462 OA
BRANCH  77  78
ATOM     78  C   UNL A   1      30.833  26.292  25.806  1.00  0.00     0.329 C 
ATOM     79  O   UNL A   1      29.738  26.062  25.293  1.00  0.00    -0.250 OA
BRANCH  78  80
ATOM     80  C   UNL A   1      31.503  27.697  25.724  1.00  0.00     0.203 C 
ATOM     81  C   UNL A   1      32.946  27.468  26.294  1.00  0.00     0.093 C 
ATOM     82  N   UNL A   1      31.533  28.852  24.704  1.00  0.00    -0.305 N 
ATOM     83  C   UNL A   1      33.425  28.764  26.806  1.00  0.00     0.042 A 
ATOM     84  C   UNL A   1      31.870  30.164  25.359  1.00  0.00     0.180 C 
ATOM     85  N   UNL A   1      34.297  29.007  27.821  1.00  0.00    -0.348 N 
ATOM     86  C   UNL A   1      32.961  29.987  26.382  1.00  0.00     0.081 A 
ATOM     87  C   UNL A   1      34.336  30.367  27.975  1.00  0.00     0.197 A 
ATOM     88  H   UNL A   1      34.799  28.337  28.340  1.00  0.00     0.167 HD
ATOM     89  N   UNL A   1      33.540  30.985  27.126  1.00  0.00    -0.240 NA
BRANCH  82  90
ATOM     90  C   UNL A   1      32.015  28.819  23.400  1.00  0.00     0.318 C 
ATOM     91  O   UNL A   1      33.206  28.650  23.132  1.00  0.00    -0.249 OA
ATOM     92  N   UNL A   1      31.207  29.257  22.391  1.00  0.00    -0.331 N 
ATOM     93  H   UNL A   1      31.637  29.670  21.607  1.00  0.00     0.165 HD
BRANCH  92  94
ATOM     94  C   UNL A   1      29.784  29.161  22.391  1.00  0.00     0.197 C 
BRANCH  94  95
ATOM     95  C   UNL A   1      28.949  30.332  21.999  1.00  0.00     0.169 A 
ATOM     96  N   UNL A   1      28.981  31.476  22.780  1.00  0.00    -0.218 NA
ATOM     97  N   UNL A   1      28.333  30.499  20.822  1.00  0.00    -0.157 NA
ATOM     98  C   UNL A   1      28.385  32.375  22.040  1.00  0.00     0.216 A 
ATOM     99  N   UNL A   1      27.993  31.802  20.874  1.00  0.00    -0.266 N 
ATOM    100  H   UNL A   1      27.518  32.279  20.155  1.00  0.00     0.191 HD
ENDBRANCH  94  95
ENDBRANCH  92  94
ENDBRANCH  82  90
ENDBRANCH  78  80
ENDBRANCH  77  78
ENDBRANCH  76  77
ENDBRANCH  75  76
ENDBRANCH  74  75
ENDBRANCH   1  74
TORSDOF 20
ENDMDL
