MODEL 1
REMARK VINA RESULT:     -12.8      0.000      0.000
REMARK SMILES Cc1ccccc1NC(=S)NN1C(=O)CS[C@H]1c1ccccc1C(=O)OCCOCCOCCOC(=O)c1ccc(-c2c3nc(c(-c4c(F)c(F)c(F)c(F)c4F)c4ccc([nH]4)c(-c4c(F)c(F)c(F)c(F)c4F)c4nc(c(-c5c(F)c(F)c(F)c(F)c5F)c5ccc2[nH]5)C=C4)C=C3)cc1
REMARK SMILES IDX 29 1 28 2 27 3 26 4 24 5 25 6 23 7 18 8 19 9 20 10 22 11
REMARK SMILES IDX 21 12 17 13 12 14 13 15 14 16 15 17 16 18 11 19 9 21 10 22
REMARK SMILES IDX 8 23 7 25 1 26 2 27 3 28 4 29 6 30 5 31 30 32 31 33 32 34
REMARK SMILES IDX 33 35 34 36 35 37 36 38 37 39 38 40 39 41 100 42 40 43 99 44
REMARK SMILES IDX 41 45 42 46 43 47 93 48 44 49 98 50 92 51 94 52 45 53 97 54
REMARK SMILES IDX 91 55 90 56 46 58 78 59 58 60 77 61 59 62 62 63 76 64 95 65
REMARK SMILES IDX 60 66 61 67 75 69 96 70 63 71 47 72 48 73 56 74 49 75 50 76
REMARK SMILES IDX 54 77 57 78 51 79 52 80 55 81 53 82 79 83 80 84 88 85 81 86
REMARK SMILES IDX 82 87 86 88 89 89 83 90 84 91 87 92 85 93 64 94 65 95 73 96
REMARK SMILES IDX 66 97 67 98 71 99 74 100 68 101 69 102 72 103 70 104
REMARK H PARENT 11 20 8 24 94 57 62 68
REMARK Flexibility Score: inf
ROOT
ATOM      1  O   UNL A   1      35.856  22.482  24.993  1.00  0.00    -0.376 OA
ENDROOT
BRANCH   1   2
ATOM      2  C   UNL A   1      35.606  23.653  25.726  1.00  0.00     0.202 C 
BRANCH   2   3
ATOM      3  C   UNL A   1      34.306  24.440  25.468  1.00  0.00     0.261 C 
BRANCH   3   4
ATOM      4  O   UNL A   1      33.974  26.042  25.135  1.00  0.00    -0.460 OA
BRANCH   4   5
ATOM      5  C   UNL A   1      33.705  27.564  24.846  1.00  0.00     0.338 C 
ATOM      6  O   UNL A   1      33.960  27.883  23.709  1.00  0.00    -0.246 OA
BRANCH   5   7
ATOM      7  C   UNL A   1      32.772  28.761  26.021  1.00  0.00     0.066 A 
ATOM      8  C   UNL A   1      31.607  29.945  25.553  1.00  0.00     0.001 A 
ATOM      9  C   UNL A   1      31.736  31.216  26.148  1.00  0.00     0.008 A 
ATOM     10  C   UNL A   1      32.700  31.398  27.153  1.00  0.00     0.000 A 
ATOM     11  C   UNL A   1      33.572  29.052  27.126  1.00  0.00     0.016 A 
ATOM     12  C   UNL A   1      33.548  30.362  27.641  1.00  0.00     0.001 A 
BRANCH   8  13
ATOM     13  C   UNL A   1      30.299  29.912  24.159  1.00  0.00     0.197 C 
ATOM     14  N   UNL A   1      29.189  28.688  23.557  1.00  0.00    -0.236 N 
ATOM     15  C   UNL A   1      28.045  29.138  22.925  1.00  0.00     0.252 C 
ATOM     16  O   UNL A   1      27.073  28.446  22.635  1.00  0.00    -0.272 OA
ATOM     17  C   UNL A   1      28.200  30.575  22.515  1.00  0.00     0.174 C 
ATOM     18  S   UNL A   1      29.249  31.453  23.747  1.00  0.00    -0.120 SA
BRANCH  14  19
ATOM     19  N   UNL A   1      29.226  27.090  23.710  1.00  0.00    -0.270 N 
ATOM     20  H   UNL A   1      28.514  26.672  23.173  1.00  0.00     0.191 HD
BRANCH  19  21
ATOM     21  C   UNL A   1      29.967  26.130  24.375  1.00  0.00     0.189 C 
ATOM     22  S   UNL A   1      30.342  25.893  26.033  1.00  0.00    -0.039 S 
BRANCH  21  23
ATOM     23  N   UNL A   1      31.083  25.596  23.921  1.00  0.00    -0.331 N 
ATOM     24  H   UNL A   1      31.884  26.073  24.236  1.00  0.00     0.169 HD
BRANCH  23  25
ATOM     25  C   UNL A   1      31.382  24.551  23.129  1.00  0.00     0.043 A 
ATOM     26  C   UNL A   1      32.136  26.184  21.428  1.00  0.00     0.046 C 
ATOM     27  C   UNL A   1      32.256  24.861  22.124  1.00  0.00    -0.028 A 
ATOM     28  C   UNL A   1      33.251  23.921  21.962  1.00  0.00     0.005 A 
ATOM     29  C   UNL A   1      33.079  22.625  22.487  1.00  0.00     0.000 A 
ATOM     30  C   UNL A   1      31.066  23.278  23.483  1.00  0.00     0.026 A 
ATOM     31  C   UNL A   1      31.889  22.261  23.103  1.00  0.00     0.002 A 
ENDBRANCH  23  25
ENDBRANCH  21  23
ENDBRANCH  19  21
ENDBRANCH  14  19
ENDBRANCH   8  13
ENDBRANCH   5   7
ENDBRANCH   4   5
ENDBRANCH   3   4
ENDBRANCH   2   3
ENDBRANCH   1   2
BRANCH   1  32
ATOM     32  C   UNL A   1      36.747  21.667  25.698  1.00  0.00     0.188 C 
BRANCH  32  33
ATOM     33  C   UNL A   1      38.154  22.164  25.581  1.00  0.00     0.188 C 
BRANCH  33  34
ATOM     34  O   UNL A   1      39.218  21.308  26.001  1.00  0.00    -0.376 OA
BRANCH  34  35
ATOM     35  C   UNL A   1      40.311  21.658  26.807  1.00  0.00     0.202 C 
BRANCH  35  36
ATOM     36  C   UNL A   1      41.465  20.874  26.326  1.00  0.00     0.261 C 
BRANCH  36  37
ATOM     37  O   UNL A   1      42.362  21.651  25.409  1.00  0.00    -0.460 OA
BRANCH  37  38
ATOM     38  C   UNL A   1      43.714  21.711  25.124  1.00  0.00     0.338 C 
ATOM     39  O   UNL A   1      44.161  20.875  24.333  1.00  0.00    -0.246 OA
BRANCH  38  40
ATOM     40  C   UNL A   1      44.746  22.609  25.822  1.00  0.00     0.060 A 
ATOM     41  C   UNL A   1      44.550  22.938  27.124  1.00  0.00     0.016 A 
ATOM     42  C   UNL A   1      45.730  23.400  25.237  1.00  0.00     0.016 A 
ATOM     43  C   UNL A   1      45.019  24.214  27.532  1.00  0.00     0.010 A 
ATOM     44  C   UNL A   1      45.944  24.842  25.599  1.00  0.00     0.010 A 
ATOM     45  C   UNL A   1      45.482  25.527  26.740  1.00  0.00    -0.014 A 
BRANCH  45  46
ATOM     46  C   UNL A   1      45.353  27.456  27.285  1.00  0.00     0.031 A 
ATOM     47  C   UNL A   1      43.876  28.435  26.783  1.00  0.00     0.074 A 
ATOM     48  C   UNL A   1      46.501  28.347  28.027  1.00  0.00     0.049 A 
ATOM     49  N   UNL A   1      43.504  29.434  27.478  1.00  0.00    -0.248 NA
ATOM     50  C   UNL A   1      42.592  28.295  25.877  1.00  0.00     0.031 C 
ATOM     51  C   UNL A   1      46.721  29.459  29.053  1.00  0.00     0.029 A 
ATOM     52  N   UNL A   1      48.013  28.107  28.084  1.00  0.00    -0.354 N 
ATOM     53  C   UNL A   1      42.117  29.321  27.727  1.00  0.00     0.074 A 
ATOM     54  C   UNL A   1      41.549  28.701  26.609  1.00  0.00     0.031 C 
ATOM     55  C   UNL A   1      48.007  29.869  29.286  1.00  0.00     0.029 A 
ATOM     56  C   UNL A   1      48.830  29.192  28.355  1.00  0.00     0.049 A 
ATOM     57  H   UNL A   1      48.392  27.211  27.933  1.00  0.00     0.167 HD
ATOM     58  C   UNL A   1      41.709  29.678  28.967  1.00  0.00     0.037 A 
ATOM     59  C   UNL A   1      49.556  29.767  27.366  1.00  0.00     0.037 A 
ATOM     60  C   UNL A   1      42.820  30.433  29.548  1.00  0.00     0.049 A 
ATOM     61  C   UNL A   1      48.618  30.935  26.964  1.00  0.00     0.074 A 
ATOM     62  C   UNL A   1      43.572  30.463  30.681  1.00  0.00     0.029 A 
ATOM     63  N   UNL A   1      43.496  31.277  28.683  1.00  0.00    -0.354 N 
ATOM     64  N   UNL A   1      47.290  30.862  26.907  1.00  0.00    -0.248 NA
ATOM     65  C   UNL A   1      49.091  32.301  27.173  1.00  0.00     0.031 C 
ATOM     66  C   UNL A   1      44.751  31.269  30.385  1.00  0.00     0.029 A 
ATOM     67  C   UNL A   1      44.775  31.609  29.024  1.00  0.00     0.049 A 
ATOM     68  H   UNL A   1      43.075  31.621  27.861  1.00  0.00     0.167 HD
ATOM     69  C   UNL A   1      46.753  32.058  27.395  1.00  0.00     0.074 A 
ATOM     70  C   UNL A   1      47.942  32.922  27.481  1.00  0.00     0.031 C 
ATOM     71  C   UNL A   1      45.543  32.385  28.013  1.00  0.00     0.037 A 
BRANCH  58  72
ATOM     72  C   UNL A   1      40.431  29.327  29.706  1.00  0.00     0.064 A 
ATOM     73  C   UNL A   1      39.690  30.412  30.203  1.00  0.00     0.173 A 
ATOM     74  C   UNL A   1      39.916  28.057  30.071  1.00  0.00     0.173 A 
ATOM     75  F   UNL A   1      40.027  31.671  29.899  1.00  0.00    -0.203 F 
ATOM     76  C   UNL A   1      38.553  30.272  30.995  1.00  0.00     0.198 A 
ATOM     77  C   UNL A   1      38.783  27.913  30.904  1.00  0.00     0.198 A 
ATOM     78  F   UNL A   1      40.486  26.919  29.650  1.00  0.00    -0.203 F 
ATOM     79  F   UNL A   1      37.899  31.371  31.390  1.00  0.00    -0.200 F 
ATOM     80  C   UNL A   1      38.095  29.024  31.349  1.00  0.00     0.200 A 
ATOM     81  F   UNL A   1      38.353  26.693  31.269  1.00  0.00    -0.200 F 
ATOM     82  F   UNL A   1      36.976  28.902  32.078  1.00  0.00    -0.200 F 
ENDBRANCH  58  72
BRANCH  59  83
ATOM     83  C   UNL A   1      50.351  28.729  26.599  1.00  0.00     0.064 A 
ATOM     84  C   UNL A   1      51.604  28.275  27.120  1.00  0.00     0.173 A 
ATOM     85  C   UNL A   1      49.779  27.924  25.616  1.00  0.00     0.173 A 
ATOM     86  F   UNL A   1      52.261  29.002  28.043  1.00  0.00    -0.203 F 
ATOM     87  C   UNL A   1      52.109  26.994  26.851  1.00  0.00     0.198 A 
ATOM     88  C   UNL A   1      50.293  26.632  25.334  1.00  0.00     0.198 A 
ATOM     89  F   UNL A   1      48.565  28.245  25.150  1.00  0.00    -0.203 F 
ATOM     90  F   UNL A   1      53.174  26.535  27.530  1.00  0.00    -0.200 F 
ATOM     91  C   UNL A   1      51.397  26.137  26.035  1.00  0.00     0.200 A 
ATOM     92  F   UNL A   1      49.481  25.747  24.719  1.00  0.00    -0.200 F 
ATOM     93  F   UNL A   1      51.595  24.809  26.144  1.00  0.00    -0.200 F 
ENDBRANCH  59  83
BRANCH  71  94
ATOM     94  C   UNL A   1      44.818  33.639  27.483  1.00  0.00     0.064 A 
ATOM     95  C   UNL A   1      44.932  34.888  28.099  1.00  0.00     0.173 A 
ATOM     96  C   UNL A   1      44.031  33.662  26.289  1.00  0.00     0.173 A 
ATOM     97  F   UNL A   1      45.828  35.143  29.059  1.00  0.00    -0.203 F 
ATOM     98  C   UNL A   1      44.155  35.973  27.713  1.00  0.00     0.198 A 
ATOM     99  C   UNL A   1      43.385  34.788  25.820  1.00  0.00     0.198 A 
ATOM    100  F   UNL A   1      43.845  32.630  25.461  1.00  0.00    -0.203 F 
ATOM    101  F   UNL A   1      44.178  37.079  28.463  1.00  0.00    -0.200 F 
ATOM    102  C   UNL A   1      43.387  35.926  26.573  1.00  0.00     0.200 A 
ATOM    103  F   UNL A   1      42.759  34.737  24.636  1.00  0.00    -0.200 F 
ATOM    104  F   UNL A   1      42.674  36.986  26.182  1.00  0.00    -0.200 F 
ENDBRANCH  71  94
ENDBRANCH  45  46
ENDBRANCH  38  40
ENDBRANCH  37  38
ENDBRANCH  36  37
ENDBRANCH  35  36
ENDBRANCH  34  35
ENDBRANCH  33  34
ENDBRANCH  32  33
ENDBRANCH   1  32
TORSDOF 22
ENDMDL
MODEL 2
REMARK VINA RESULT:     -12.6      5.517     10.336
REMARK SMILES Cc1ccccc1NC(=S)NN1C(=O)CS[C@H]1c1ccccc1C(=O)OCCOCCOCCOC(=O)c1ccc(-c2c3nc(c(-c4c(F)c(F)c(F)c(F)c4F)c4ccc([nH]4)c(-c4c(F)c(F)c(F)c(F)c4F)c4nc(c(-c5c(F)c(F)c(F)c(F)c5F)c5ccc2[nH]5)C=C4)C=C3)cc1
REMARK SMILES IDX 29 1 28 2 27 3 26 4 24 5 25 6 23 7 18 8 19 9 20 10 22 11
REMARK SMILES IDX 21 12 17 13 12 14 13 15 14 16 15 17 16 18 11 19 9 21 10 22
REMARK SMILES IDX 8 23 7 25 1 26 2 27 3 28 4 29 6 30 5 31 30 32 31 33 32 34
REMARK SMILES IDX 33 35 34 36 35 37 36 38 37 39 38 40 39 41 100 42 40 43 99 44
REMARK SMILES IDX 41 45 42 46 43 47 93 48 44 49 98 50 92 51 94 52 45 53 97 54
REMARK SMILES IDX 91 55 90 56 46 58 78 59 58 60 77 61 59 62 62 63 76 64 95 65
REMARK SMILES IDX 60 66 61 67 75 69 96 70 63 71 47 72 48 73 56 74 49 75 50 76
REMARK SMILES IDX 54 77 57 78 51 79 52 80 55 81 53 82 79 83 80 84 88 85 81 86
REMARK SMILES IDX 82 87 86 88 89 89 83 90 84 91 87 92 85 93 64 94 65 95 73 96
REMARK SMILES IDX 66 97 67 98 71 99 74 100 68 101 69 102 72 103 70 104
REMARK H PARENT 11 20 8 24 94 57 62 68
REMARK Flexibility Score: inf
ROOT
ATOM      1  O   UNL A   1      37.944  22.651  25.039  1.00  0.00    -0.376 OA
ENDROOT
BRANCH   1   2
ATOM      2  C   UNL A   1      36.892  22.253  24.198  1.00  0.00     0.202 C 
BRANCH   2   3
ATOM      3  C   UNL A   1      36.284  23.275  23.217  1.00  0.00     0.261 C 
BRANCH   3   4
ATOM      4  O   UNL A   1      34.741  23.863  22.972  1.00  0.00    -0.460 OA
BRANCH   4   5
ATOM      5  C   UNL A   1      33.268  24.375  22.768  1.00  0.00     0.338 C 
ATOM      6  O   UNL A   1      33.131  25.037  21.766  1.00  0.00    -0.246 OA
BRANCH   5   7
ATOM      7  C   UNL A   1      31.746  23.787  23.778  1.00  0.00     0.066 A 
ATOM      8  C   UNL A   1      30.586  24.800  24.555  1.00  0.00     0.001 A 
ATOM      9  C   UNL A   1      30.215  24.436  25.865  1.00  0.00     0.008 A 
ATOM     10  C   UNL A   1      30.705  23.230  26.395  1.00  0.00     0.000 A 
ATOM     11  C   UNL A   1      32.027  22.559  24.378  1.00  0.00     0.016 A 
ATOM     12  C   UNL A   1      31.537  22.324  25.677  1.00  0.00     0.001 A 
BRANCH   8  13
ATOM     13  C   UNL A   1      29.884  26.502  24.037  1.00  0.00     0.197 C 
ATOM     14  N   UNL A   1      30.419  27.754  22.924  1.00  0.00    -0.236 N 
ATOM     15  C   UNL A   1      29.444  28.582  22.398  1.00  0.00     0.252 C 
ATOM     16  O   UNL A   1      29.598  29.359  21.460  1.00  0.00    -0.272 OA
ATOM     17  C   UNL A   1      28.187  28.502  23.218  1.00  0.00     0.174 C 
ATOM     18  S   UNL A   1      28.003  26.798  23.893  1.00  0.00    -0.120 SA
BRANCH  14  19
ATOM     19  N   UNL A   1      31.875  28.046  22.313  1.00  0.00    -0.270 N 
ATOM     20  H   UNL A   1      31.887  27.873  21.344  1.00  0.00     0.191 HD
BRANCH  19  21
ATOM     21  C   UNL A   1      33.115  28.471  22.752  1.00  0.00     0.189 C 
ATOM     22  S   UNL A   1      34.701  28.270  22.128  1.00  0.00    -0.039 S 
BRANCH  21  23
ATOM     23  N   UNL A   1      33.488  28.520  24.015  1.00  0.00    -0.331 N 
ATOM     24  H   UNL A   1      34.451  28.350  24.131  1.00  0.00     0.169 HD
BRANCH  23  25
ATOM     25  C   UNL A   1      32.861  28.749  25.183  1.00  0.00     0.043 A 
ATOM     26  C   UNL A   1      33.645  26.522  25.926  1.00  0.00     0.046 C 
ATOM     27  C   UNL A   1      33.304  27.955  26.204  1.00  0.00    -0.028 A 
ATOM     28  C   UNL A   1      33.500  28.645  27.381  1.00  0.00     0.005 A 
ATOM     29  C   UNL A   1      32.886  29.900  27.565  1.00  0.00     0.000 A 
ATOM     30  C   UNL A   1      32.085  29.848  25.368  1.00  0.00     0.026 A 
ATOM     31  C   UNL A   1      32.027  30.417  26.604  1.00  0.00     0.002 A 
ENDBRANCH  23  25
ENDBRANCH  21  23
ENDBRANCH  19  21
ENDBRANCH  14  19
ENDBRANCH   8  13
ENDBRANCH   5   7
ENDBRANCH   4   5
ENDBRANCH   3   4
ENDBRANCH   2   3
ENDBRANCH   1   2
BRANCH   1  32
ATOM     32  C   UNL A   1      38.527  21.525  25.627  1.00  0.00     0.188 C 
BRANCH  32  33
ATOM     33  C   UNL A   1      39.616  21.906  26.580  1.00  0.00     0.188 C 
BRANCH  33  34
ATOM     34  O   UNL A   1      40.254  23.175  26.418  1.00  0.00    -0.376 OA
BRANCH  34  35
ATOM     35  C   UNL A   1      41.471  23.583  26.981  1.00  0.00     0.202 C 
BRANCH  35  36
ATOM     36  C   UNL A   1      41.580  25.037  26.757  1.00  0.00     0.261 C 
BRANCH  36  37
ATOM     37  O   UNL A   1      40.305  25.773  27.042  1.00  0.00    -0.460 OA
BRANCH  37  38
ATOM     38  C   UNL A   1      39.852  26.694  27.969  1.00  0.00     0.338 C 
ATOM     39  O   UNL A   1      38.630  26.853  28.054  1.00  0.00    -0.246 OA
BRANCH  38  40
ATOM     40  C   UNL A   1      40.723  27.660  28.784  1.00  0.00     0.060 A 
ATOM     41  C   UNL A   1      41.121  27.289  30.027  1.00  0.00     0.016 A 
ATOM     42  C   UNL A   1      40.941  29.016  28.560  1.00  0.00     0.016 A 
ATOM     43  C   UNL A   1      41.273  28.330  30.980  1.00  0.00     0.010 A 
ATOM     44  C   UNL A   1      40.813  30.055  29.638  1.00  0.00     0.010 A 
ATOM     45  C   UNL A   1      40.798  29.859  31.033  1.00  0.00    -0.014 A 
BRANCH  45  46
ATOM     46  C   UNL A   1      40.327  30.992  32.623  1.00  0.00     0.031 A 
ATOM     47  C   UNL A   1      40.760  30.397  34.311  1.00  0.00     0.074 A 
ATOM     48  C   UNL A   1      39.445  32.365  32.625  1.00  0.00     0.049 A 
ATOM     49  N   UNL A   1      40.950  31.231  35.255  1.00  0.00    -0.248 NA
ATOM     50  C   UNL A   1      41.335  29.112  35.022  1.00  0.00     0.031 C 
ATOM     51  C   UNL A   1      39.306  33.735  33.291  1.00  0.00     0.029 A 
ATOM     52  N   UNL A   1      38.442  32.862  31.579  1.00  0.00    -0.354 N 
ATOM     53  C   UNL A   1      42.165  30.911  35.903  1.00  0.00     0.074 A 
ATOM     54  C   UNL A   1      42.306  29.520  35.847  1.00  0.00     0.031 C 
ATOM     55  C   UNL A   1      38.277  34.542  32.882  1.00  0.00     0.029 A 
ATOM     56  C   UNL A   1      37.492  33.785  31.982  1.00  0.00     0.049 A 
ATOM     57  H   UNL A   1      38.472  32.536  30.650  1.00  0.00     0.167 HD
ATOM     58  C   UNL A   1      42.932  31.963  36.272  1.00  0.00     0.037 A 
ATOM     59  C   UNL A   1      36.204  33.404  32.172  1.00  0.00     0.037 A 
ATOM     60  C   UNL A   1      42.058  33.134  36.202  1.00  0.00     0.049 A 
ATOM     61  C   UNL A   1      36.202  33.157  33.702  1.00  0.00     0.074 A 
ATOM     62  C   UNL A   1      42.042  34.386  35.669  1.00  0.00     0.029 A 
ATOM     63  N   UNL A   1      40.753  32.942  36.625  1.00  0.00    -0.354 N 
ATOM     64  N   UNL A   1      37.202  32.610  34.389  1.00  0.00    -0.248 NA
ATOM     65  C   UNL A   1      35.356  34.008  34.536  1.00  0.00     0.031 C 
ATOM     66  C   UNL A   1      40.660  34.847  35.711  1.00  0.00     0.029 A 
ATOM     67  C   UNL A   1      39.818  33.812  36.144  1.00  0.00     0.049 A 
ATOM     68  H   UNL A   1      40.512  32.213  37.243  1.00  0.00     0.167 HD
ATOM     69  C   UNL A   1      37.327  33.279  35.611  1.00  0.00     0.074 A 
ATOM     70  C   UNL A   1      36.101  34.094  35.648  1.00  0.00     0.031 C 
ATOM     71  C   UNL A   1      38.401  33.501  36.478  1.00  0.00     0.037 A 
BRANCH  58  72
ATOM     72  C   UNL A   1      44.411  32.016  36.604  1.00  0.00     0.064 A 
ATOM     73  C   UNL A   1      44.732  32.171  37.964  1.00  0.00     0.173 A 
ATOM     74  C   UNL A   1      45.534  32.039  35.738  1.00  0.00     0.173 A 
ATOM     75  F   UNL A   1      43.781  32.119  38.903  1.00  0.00    -0.203 F 
ATOM     76  C   UNL A   1      46.030  32.345  38.435  1.00  0.00     0.198 A 
ATOM     77  C   UNL A   1      46.849  32.252  36.211  1.00  0.00     0.198 A 
ATOM     78  F   UNL A   1      45.405  31.870  34.414  1.00  0.00    -0.203 F 
ATOM     79  F   UNL A   1      46.231  32.450  39.755  1.00  0.00    -0.200 F 
ATOM     80  C   UNL A   1      47.093  32.386  37.563  1.00  0.00     0.200 A 
ATOM     81  F   UNL A   1      47.882  32.317  35.354  1.00  0.00    -0.200 F 
ATOM     82  F   UNL A   1      48.342  32.514  38.034  1.00  0.00    -0.200 F 
ENDBRANCH  58  72
BRANCH  59  83
ATOM     83  C   UNL A   1      35.678  32.645  30.970  1.00  0.00     0.064 A 
ATOM     84  C   UNL A   1      35.381  33.355  29.763  1.00  0.00     0.173 A 
ATOM     85  C   UNL A   1      35.808  31.264  30.841  1.00  0.00     0.173 A 
ATOM     86  F   UNL A   1      35.195  34.687  29.785  1.00  0.00    -0.203 F 
ATOM     87  C   UNL A   1      35.458  32.750  28.499  1.00  0.00     0.198 A 
ATOM     88  C   UNL A   1      35.875  30.648  29.565  1.00  0.00     0.198 A 
ATOM     89  F   UNL A   1      36.172  30.551  31.916  1.00  0.00    -0.203 F 
ATOM     90  F   UNL A   1      35.383  33.503  27.388  1.00  0.00    -0.200 F 
ATOM     91  C   UNL A   1      35.804  31.417  28.399  1.00  0.00     0.200 A 
ATOM     92  F   UNL A   1      36.423  29.418  29.483  1.00  0.00    -0.200 F 
ATOM     93  F   UNL A   1      36.333  30.960  27.248  1.00  0.00    -0.200 F 
ENDBRANCH  59  83
BRANCH  71  94
ATOM     94  C   UNL A   1      38.136  33.251  37.976  1.00  0.00     0.064 A 
ATOM     95  C   UNL A   1      37.601  32.051  38.453  1.00  0.00     0.173 A 
ATOM     96  C   UNL A   1      38.474  34.177  39.013  1.00  0.00     0.173 A 
ATOM     97  F   UNL A   1      37.471  30.961  37.689  1.00  0.00    -0.203 F 
ATOM     98  C   UNL A   1      37.218  31.891  39.779  1.00  0.00     0.198 A 
ATOM     99  C   UNL A   1      38.234  33.946  40.353  1.00  0.00     0.198 A 
ATOM    100  F   UNL A   1      39.085  35.351  38.837  1.00  0.00    -0.203 F 
ATOM    101  F   UNL A   1      36.542  30.791  40.125  1.00  0.00    -0.200 F 
ATOM    102  C   UNL A   1      37.538  32.834  40.729  1.00  0.00     0.200 A 
ATOM    103  F   UNL A   1      38.682  34.826  41.258  1.00  0.00    -0.200 F 
ATOM    104  F   UNL A   1      37.206  32.657  42.010  1.00  0.00    -0.200 F 
ENDBRANCH  71  94
ENDBRANCH  45  46
ENDBRANCH  38  40
ENDBRANCH  37  38
ENDBRANCH  36  37
ENDBRANCH  35  36
ENDBRANCH  34  35
ENDBRANCH  33  34
ENDBRANCH  32  33
ENDBRANCH   1  32
TORSDOF 22
ENDMDL
MODEL 3
REMARK VINA RESULT:     -11.7      4.227      6.976
REMARK SMILES Cc1ccccc1NC(=S)NN1C(=O)CS[C@H]1c1ccccc1C(=O)OCCOCCOCCOC(=O)c1ccc(-c2c3nc(c(-c4c(F)c(F)c(F)c(F)c4F)c4ccc([nH]4)c(-c4c(F)c(F)c(F)c(F)c4F)c4nc(c(-c5c(F)c(F)c(F)c(F)c5F)c5ccc2[nH]5)C=C4)C=C3)cc1
REMARK SMILES IDX 29 1 28 2 27 3 26 4 24 5 25 6 23 7 18 8 19 9 20 10 22 11
REMARK SMILES IDX 21 12 17 13 12 14 13 15 14 16 15 17 16 18 11 19 9 21 10 22
REMARK SMILES IDX 8 23 7 25 1 26 2 27 3 28 4 29 6 30 5 31 30 32 31 33 32 34
REMARK SMILES IDX 33 35 34 36 35 37 36 38 37 39 38 40 39 41 100 42 40 43 99 44
REMARK SMILES IDX 41 45 42 46 43 47 93 48 44 49 98 50 92 51 94 52 45 53 97 54
REMARK SMILES IDX 91 55 90 56 46 58 78 59 58 60 77 61 59 62 62 63 76 64 95 65
REMARK SMILES IDX 60 66 61 67 75 69 96 70 63 71 47 72 48 73 56 74 49 75 50 76
REMARK SMILES IDX 54 77 57 78 51 79 52 80 55 81 53 82 79 83 80 84 88 85 81 86
REMARK SMILES IDX 82 87 86 88 89 89 83 90 84 91 87 92 85 93 64 94 65 95 73 96
REMARK SMILES IDX 66 97 67 98 71 99 74 100 68 101 69 102 72 103 70 104
REMARK H PARENT 11 20 8 24 94 57 62 68
REMARK Flexibility Score: inf
ROOT
ATOM      1  O   UNL A   1      33.694  25.635  23.453  1.00  0.00    -0.376 OA
ENDROOT
BRANCH   1   2
ATOM      2  C   UNL A   1      32.985  26.813  23.740  1.00  0.00     0.202 C 
BRANCH   2   3
ATOM      3  C   UNL A   1      33.762  28.081  24.142  1.00  0.00     0.261 C 
BRANCH   3   4
ATOM      4  O   UNL A   1      33.750  29.061  25.494  1.00  0.00    -0.460 OA
BRANCH   4   5
ATOM      5  C   UNL A   1      33.691  30.002  26.753  1.00  0.00     0.338 C 
ATOM      6  O   UNL A   1      32.581  30.426  26.976  1.00  0.00    -0.246 OA
BRANCH   5   7
ATOM      7  C   UNL A   1      35.111  30.234  28.023  1.00  0.00     0.066 A 
ATOM      8  C   UNL A   1      35.574  31.717  28.773  1.00  0.00     0.001 A 
ATOM      9  C   UNL A   1      36.957  31.981  28.834  1.00  0.00     0.008 A 
ATOM     10  C   UNL A   1      37.854  30.987  28.406  1.00  0.00     0.000 A 
ATOM     11  C   UNL A   1      36.116  29.298  27.780  1.00  0.00     0.016 A 
ATOM     12  C   UNL A   1      37.456  29.702  27.939  1.00  0.00     0.001 A 
BRANCH   8  13
ATOM     13  C   UNL A   1      34.515  33.210  29.325  1.00  0.00     0.197 C 
ATOM     14  N   UNL A   1      34.078  33.885  30.889  1.00  0.00    -0.236 N 
ATOM     15  C   UNL A   1      33.761  35.230  30.924  1.00  0.00     0.252 C 
ATOM     16  O   UNL A   1      33.641  35.908  31.940  1.00  0.00    -0.272 OA
ATOM     17  C   UNL A   1      33.448  35.733  29.542  1.00  0.00     0.174 C 
ATOM     18  S   UNL A   1      34.481  34.831  28.314  1.00  0.00    -0.120 SA
BRANCH  14  19
ATOM     19  N   UNL A   1      34.084  33.212  32.347  1.00  0.00    -0.270 N 
ATOM     20  H   UNL A   1      33.226  32.766  32.528  1.00  0.00     0.191 HD
BRANCH  19  21
ATOM     21  C   UNL A   1      34.945  33.076  33.420  1.00  0.00     0.189 C 
ATOM     22  S   UNL A   1      35.502  34.178  34.612  1.00  0.00    -0.039 S 
BRANCH  21  23
ATOM     23  N   UNL A   1      36.038  32.340  33.417  1.00  0.00    -0.331 N 
ATOM     24  H   UNL A   1      36.457  32.283  34.306  1.00  0.00     0.169 HD
BRANCH  23  25
ATOM     25  C   UNL A   1      36.716  31.648  32.484  1.00  0.00     0.043 A 
ATOM     26  C   UNL A   1      38.154  33.642  32.193  1.00  0.00     0.046 C 
ATOM     27  C   UNL A   1      37.959  32.155  32.224  1.00  0.00    -0.028 A 
ATOM     28  C   UNL A   1      38.934  31.185  32.142  1.00  0.00     0.005 A 
ATOM     29  C   UNL A   1      38.566  29.843  31.918  1.00  0.00     0.000 A 
ATOM     30  C   UNL A   1      36.305  30.421  32.071  1.00  0.00     0.026 A 
ATOM     31  C   UNL A   1      37.237  29.497  31.708  1.00  0.00     0.002 A 
ENDBRANCH  23  25
ENDBRANCH  21  23
ENDBRANCH  19  21
ENDBRANCH  14  19
ENDBRANCH   8  13
ENDBRANCH   5   7
ENDBRANCH   4   5
ENDBRANCH   3   4
ENDBRANCH   2   3
ENDBRANCH   1   2
BRANCH   1  32
ATOM     32  C   UNL A   1      34.060  25.004  24.645  1.00  0.00     0.188 C 
BRANCH  32  33
ATOM     33  C   UNL A   1      34.970  23.843  24.394  1.00  0.00     0.188 C 
BRANCH  33  34
ATOM     34  O   UNL A   1      35.648  23.252  25.504  1.00  0.00    -0.376 OA
BRANCH  34  35
ATOM     35  C   UNL A   1      37.026  23.026  25.625  1.00  0.00     0.202 C 
BRANCH  35  36
ATOM     36  C   UNL A   1      37.558  24.084  26.507  1.00  0.00     0.261 C 
BRANCH  36  37
ATOM     37  O   UNL A   1      39.032  24.301  26.340  1.00  0.00    -0.460 OA
BRANCH  37  38
ATOM     38  C   UNL A   1      40.039  24.977  27.005  1.00  0.00     0.338 C 
ATOM     39  O   UNL A   1      41.052  24.335  27.297  1.00  0.00    -0.246 OA
BRANCH  38  40
ATOM     40  C   UNL A   1      39.952  26.405  27.564  1.00  0.00     0.060 A 
ATOM     41  C   UNL A   1      40.510  27.418  26.854  1.00  0.00     0.016 A 
ATOM     42  C   UNL A   1      39.636  26.801  28.860  1.00  0.00     0.016 A 
ATOM     43  C   UNL A   1      41.043  28.498  27.605  1.00  0.00     0.010 A 
ATOM     44  C   UNL A   1      40.460  27.786  29.639  1.00  0.00     0.010 A 
ATOM     45  C   UNL A   1      41.422  28.691  29.150  1.00  0.00    -0.014 A 
BRANCH  45  46
ATOM     46  C   UNL A   1      42.846  29.839  29.979  1.00  0.00     0.031 A 
ATOM     47  C   UNL A   1      42.552  31.649  30.153  1.00  0.00     0.074 A 
ATOM     48  C   UNL A   1      44.352  29.381  30.408  1.00  0.00     0.049 A 
ATOM     49  N   UNL A   1      43.141  32.308  31.070  1.00  0.00    -0.248 NA
ATOM     50  C   UNL A   1      41.499  32.743  29.726  1.00  0.00     0.031 C 
ATOM     51  C   UNL A   1      45.452  29.597  31.449  1.00  0.00     0.029 A 
ATOM     52  N   UNL A   1      45.167  28.182  29.914  1.00  0.00    -0.354 N 
ATOM     53  C   UNL A   1      42.181  33.087  31.755  1.00  0.00     0.074 A 
ATOM     54  C   UNL A   1      41.211  33.459  30.818  1.00  0.00     0.031 C 
ATOM     55  C   UNL A   1      46.626  28.910  31.288  1.00  0.00     0.029 A 
ATOM     56  C   UNL A   1      46.544  28.238  30.046  1.00  0.00     0.049 A 
ATOM     57  H   UNL A   1      44.726  27.396  29.516  1.00  0.00     0.167 HD
ATOM     58  C   UNL A   1      42.333  33.164  33.097  1.00  0.00     0.037 A 
ATOM     59  C   UNL A   1      47.328  28.462  28.964  1.00  0.00     0.037 A 
ATOM     60  C   UNL A   1      43.693  32.699  33.370  1.00  0.00     0.049 A 
ATOM     61  C   UNL A   1      47.539  29.994  29.077  1.00  0.00     0.074 A 
ATOM     62  C   UNL A   1      44.345  31.815  34.173  1.00  0.00     0.029 A 
ATOM     63  N   UNL A   1      44.660  33.089  32.459  1.00  0.00    -0.354 N 
ATOM     64  N   UNL A   1      46.611  30.866  29.463  1.00  0.00    -0.248 NA
ATOM     65  C   UNL A   1      48.895  30.487  29.309  1.00  0.00     0.031 C 
ATOM     66  C   UNL A   1      45.681  31.642  33.616  1.00  0.00     0.029 A 
ATOM     67  C   UNL A   1      45.785  32.319  32.391  1.00  0.00     0.049 A 
ATOM     68  H   UNL A   1      44.542  33.883  31.887  1.00  0.00     0.167 HD
ATOM     69  C   UNL A   1      47.214  31.836  30.271  1.00  0.00     0.074 A 
ATOM     70  C   UNL A   1      48.647  31.560  30.074  1.00  0.00     0.031 C 
ATOM     71  C   UNL A   1      46.743  32.654  31.303  1.00  0.00     0.037 A 
BRANCH  58  72
ATOM     72  C   UNL A   1      41.326  33.545  34.167  1.00  0.00     0.064 A 
ATOM     73  C   UNL A   1      41.191  34.920  34.423  1.00  0.00     0.173 A 
ATOM     74  C   UNL A   1      40.567  32.716  35.033  1.00  0.00     0.173 A 
ATOM     75  F   UNL A   1      41.807  35.825  33.655  1.00  0.00    -0.203 F 
ATOM     76  C   UNL A   1      40.395  35.440  35.441  1.00  0.00     0.198 A 
ATOM     77  C   UNL A   1      39.787  33.241  36.089  1.00  0.00     0.198 A 
ATOM     78  F   UNL A   1      40.558  31.382  34.900  1.00  0.00    -0.203 F 
ATOM     79  F   UNL A   1      40.309  36.769  35.580  1.00  0.00    -0.200 F 
ATOM     80  C   UNL A   1      39.691  34.605  36.277  1.00  0.00     0.200 A 
ATOM     81  F   UNL A   1      39.121  32.421  36.920  1.00  0.00    -0.200 F 
ATOM     82  F   UNL A   1      38.898  35.121  37.227  1.00  0.00    -0.200 F 
ENDBRANCH  58  72
BRANCH  59  83
ATOM     83  C   UNL A   1      46.978  27.517  27.832  1.00  0.00     0.064 A 
ATOM     84  C   UNL A   1      47.290  26.126  27.954  1.00  0.00     0.173 A 
ATOM     85  C   UNL A   1      46.051  27.844  26.843  1.00  0.00     0.173 A 
ATOM     86  F   UNL A   1      48.203  25.709  28.850  1.00  0.00    -0.203 F 
ATOM     87  C   UNL A   1      46.544  25.130  27.304  1.00  0.00     0.198 A 
ATOM     88  C   UNL A   1      45.303  26.839  26.177  1.00  0.00     0.198 A 
ATOM     89  F   UNL A   1      45.650  29.117  26.736  1.00  0.00    -0.203 F 
ATOM     90  F   UNL A   1      46.734  23.837  27.616  1.00  0.00    -0.200 F 
ATOM     91  C   UNL A   1      45.486  25.489  26.493  1.00  0.00     0.200 A 
ATOM     92  F   UNL A   1      44.153  27.201  25.573  1.00  0.00    -0.200 F 
ATOM     93  F   UNL A   1      44.505  24.596  26.259  1.00  0.00    -0.200 F 
ENDBRANCH  59  83
BRANCH  71  94
ATOM     94  C   UNL A   1      47.143  34.141  31.237  1.00  0.00     0.064 A 
ATOM     95  C   UNL A   1      46.656  35.006  30.252  1.00  0.00     0.173 A 
ATOM     96  C   UNL A   1      47.979  34.788  32.200  1.00  0.00     0.173 A 
ATOM     97  F   UNL A   1      45.658  34.674  29.426  1.00  0.00    -0.203 F 
ATOM     98  C   UNL A   1      47.141  36.299  30.102  1.00  0.00     0.198 A 
ATOM     99  C   UNL A   1      48.333  36.121  32.135  1.00  0.00     0.198 A 
ATOM    100  F   UNL A   1      48.492  34.215  33.292  1.00  0.00    -0.203 F 
ATOM    101  F   UNL A   1      46.771  37.004  29.029  1.00  0.00    -0.200 F 
ATOM    102  C   UNL A   1      47.974  36.858  31.045  1.00  0.00     0.200 A 
ATOM    103  F   UNL A   1      49.032  36.661  33.142  1.00  0.00    -0.200 F 
ATOM    104  F   UNL A   1      48.404  38.116  30.919  1.00  0.00    -0.200 F 
ENDBRANCH  71  94
ENDBRANCH  45  46
ENDBRANCH  38  40
ENDBRANCH  37  38
ENDBRANCH  36  37
ENDBRANCH  35  36
ENDBRANCH  34  35
ENDBRANCH  33  34
ENDBRANCH  32  33
ENDBRANCH   1  32
TORSDOF 22
ENDMDL
