MODEL 1
REMARK VINA RESULT:      -9.4      0.000      0.000
REMARK SMILES O=C(OCCOCCOCCOC(=O)c1sccc1[S@](=O)[O-])c1ccc(-c2c3nc(c(-c4c(F)c(F)c(F)c(F)c4F)c4ccc([nH]4)c(-c4c(F)c(F)c(F)c(F)c4F)c4nc(c(-c5c(F)c(F)c(F)c(F)c5F)c5ccc2[nH]5)C=C4)C=C3)cc1
REMARK SMILES IDX 7 1 6 2 5 3 4 4 3 5 2 6 1 7 23 8 24 9 85 10 25 11 84 12
REMARK SMILES IDX 26 13 27 14 28 15 78 16 29 17 83 18 77 19 79 20 30 21 82 22
REMARK SMILES IDX 76 23 75 24 31 26 63 27 43 28 62 29 44 30 47 31 61 32 80 33
REMARK SMILES IDX 45 34 46 35 60 37 81 38 48 39 32 40 33 41 41 42 34 43 35 44
REMARK SMILES IDX 39 45 42 46 36 47 37 48 40 49 38 50 64 51 65 52 73 53 66 54
REMARK SMILES IDX 67 55 71 56 74 57 68 58 69 59 72 60 70 61 49 62 50 63 58 64
REMARK SMILES IDX 51 65 52 66 56 67 59 68 53 69 54 70 57 71 55 72 8 73 9 74
REMARK SMILES IDX 10 75 11 76 12 77 13 78 14 79 15 80 16 81 19 82 17 83 18 84
REMARK SMILES IDX 20 85 22 86 21 87
REMARK H PARENT 79 25 47 36
REMARK Flexibility Score: inf
ROOT
ATOM      1  C   UNL A   1      37.060  21.963  24.663  1.00  0.00     0.188 C 
ENDROOT
BRANCH   1   2
ATOM      2  O   UNL A   1      37.507  20.638  25.001  1.00  0.00    -0.376 OA
BRANCH   2   3
ATOM      3  C   UNL A   1      38.861  20.597  25.467  1.00  0.00     0.202 C 
BRANCH   3   4
ATOM      4  C   UNL A   1      39.364  19.188  25.803  1.00  0.00     0.261 C 
BRANCH   4   5
ATOM      5  O   UNL A   1      40.761  19.042  25.506  1.00  0.00    -0.460 OA
BRANCH   5   6
ATOM      6  C   UNL A   1      41.818  19.443  26.255  1.00  0.00     0.338 C 
ATOM      7  O   UNL A   1      42.574  18.589  26.715  1.00  0.00    -0.246 OA
BRANCH   6   8
ATOM      8  C   UNL A   1      42.166  20.878  26.491  1.00  0.00     0.060 A 
ATOM      9  C   UNL A   1      42.294  21.850  25.496  1.00  0.00     0.016 A 
ATOM     10  C   UNL A   1      42.311  21.282  27.829  1.00  0.00     0.016 A 
ATOM     11  C   UNL A   1      42.689  23.151  25.806  1.00  0.00     0.010 A 
ATOM     12  C   UNL A   1      42.635  22.605  28.152  1.00  0.00     0.010 A 
ATOM     13  C   UNL A   1      42.865  23.539  27.136  1.00  0.00    -0.014 A 
BRANCH  13  14
ATOM     14  C   UNL A   1      43.345  24.904  27.447  1.00  0.00     0.031 A 
ATOM     15  C   UNL A   1      42.389  25.909  28.013  1.00  0.00     0.074 A 
ATOM     16  C   UNL A   1      44.642  25.221  27.280  1.00  0.00     0.049 A 
ATOM     17  N   UNL A   1      42.586  27.170  28.293  1.00  0.00    -0.248 NA
ATOM     18  C   UNL A   1      41.036  25.424  28.324  1.00  0.00     0.031 C 
ATOM     19  C   UNL A   1      45.677  24.296  26.826  1.00  0.00     0.029 A 
ATOM     20  N   UNL A   1      45.310  26.403  27.475  1.00  0.00    -0.354 N 
ATOM     21  C   UNL A   1      41.383  27.631  28.808  1.00  0.00     0.074 A 
ATOM     22  C   UNL A   1      40.453  26.523  28.781  1.00  0.00     0.031 C 
ATOM     23  C   UNL A   1      46.849  24.947  26.773  1.00  0.00     0.029 A 
ATOM     24  C   UNL A   1      46.635  26.344  27.119  1.00  0.00     0.049 A 
ATOM     25  H   UNL A   1      44.883  27.213  27.835  1.00  0.00     0.167 HD
ATOM     26  C   UNL A   1      41.089  28.868  29.270  1.00  0.00     0.037 A 
ATOM     27  C   UNL A   1      47.566  27.312  27.032  1.00  0.00     0.037 A 
ATOM     28  C   UNL A   1      42.021  29.962  29.293  1.00  0.00     0.049 A 
ATOM     29  C   UNL A   1      47.180  28.709  27.424  1.00  0.00     0.074 A 
ATOM     30  C   UNL A   1      41.824  31.257  29.736  1.00  0.00     0.029 A 
ATOM     31  N   UNL A   1      43.332  29.884  28.845  1.00  0.00    -0.354 N 
ATOM     32  N   UNL A   1      46.035  29.143  27.893  1.00  0.00    -0.248 NA
ATOM     33  C   UNL A   1      48.203  29.751  27.272  1.00  0.00     0.031 C 
ATOM     34  C   UNL A   1      43.008  31.974  29.520  1.00  0.00     0.029 A 
ATOM     35  C   UNL A   1      43.950  31.116  28.972  1.00  0.00     0.049 A 
ATOM     36  H   UNL A   1      43.760  29.072  28.488  1.00  0.00     0.167 HD
ATOM     37  C   UNL A   1      46.201  30.503  28.108  1.00  0.00     0.074 A 
ATOM     38  C   UNL A   1      47.563  30.820  27.725  1.00  0.00     0.031 C 
ATOM     39  C   UNL A   1      45.307  31.404  28.582  1.00  0.00     0.037 A 
BRANCH  26  40
ATOM     40  C   UNL A   1      39.689  29.095  29.750  1.00  0.00     0.064 A 
ATOM     41  C   UNL A   1      38.675  29.526  28.881  1.00  0.00     0.173 A 
ATOM     42  C   UNL A   1      39.364  28.902  31.100  1.00  0.00     0.173 A 
ATOM     43  F   UNL A   1      38.945  29.750  27.587  1.00  0.00    -0.203 F 
ATOM     44  C   UNL A   1      37.390  29.780  29.355  1.00  0.00     0.198 A 
ATOM     45  C   UNL A   1      38.073  29.138  31.566  1.00  0.00     0.198 A 
ATOM     46  F   UNL A   1      40.302  28.499  31.970  1.00  0.00    -0.203 F 
ATOM     47  F   UNL A   1      36.448  30.239  28.519  1.00  0.00    -0.200 F 
ATOM     48  C   UNL A   1      37.090  29.584  30.695  1.00  0.00     0.200 A 
ATOM     49  F   UNL A   1      37.785  28.951  32.861  1.00  0.00    -0.200 F 
ATOM     50  F   UNL A   1      35.856  29.839  31.151  1.00  0.00    -0.200 F 
ENDBRANCH  26  40
BRANCH  27  51
ATOM     51  C   UNL A   1      48.918  26.990  26.500  1.00  0.00     0.064 A 
ATOM     52  C   UNL A   1      49.969  26.620  27.347  1.00  0.00     0.173 A 
ATOM     53  C   UNL A   1      49.180  27.036  25.121  1.00  0.00     0.173 A 
ATOM     54  F   UNL A   1      49.778  26.588  28.674  1.00  0.00    -0.203 F 
ATOM     55  C   UNL A   1      51.233  26.322  26.837  1.00  0.00     0.198 A 
ATOM     56  C   UNL A   1      50.436  26.717  24.610  1.00  0.00     0.198 A 
ATOM     57  F   UNL A   1      48.208  27.390  24.265  1.00  0.00    -0.203 F 
ATOM     58  F   UNL A   1      52.236  26.026  27.676  1.00  0.00    -0.200 F 
ATOM     59  C   UNL A   1      51.465  26.367  25.469  1.00  0.00     0.200 A 
ATOM     60  F   UNL A   1      50.651  26.771  23.288  1.00  0.00    -0.200 F 
ATOM     61  F   UNL A   1      52.687  26.106  24.985  1.00  0.00    -0.200 F 
ENDBRANCH  27  51
BRANCH  39  62
ATOM     62  C   UNL A   1      45.782  32.816  28.728  1.00  0.00     0.064 A 
ATOM     63  C   UNL A   1      46.460  33.239  29.879  1.00  0.00     0.173 A 
ATOM     64  C   UNL A   1      45.599  33.738  27.688  1.00  0.00     0.173 A 
ATOM     65  F   UNL A   1      46.642  32.394  30.904  1.00  0.00    -0.203 F 
ATOM     66  C   UNL A   1      46.931  34.545  29.987  1.00  0.00     0.198 A 
ATOM     67  C   UNL A   1      46.088  35.036  27.791  1.00  0.00     0.198 A 
ATOM     68  F   UNL A   1      44.957  33.374  26.567  1.00  0.00    -0.203 F 
ATOM     69  F   UNL A   1      47.553  34.940  31.107  1.00  0.00    -0.200 F 
ATOM     70  C   UNL A   1      46.751  35.439  28.942  1.00  0.00     0.200 A 
ATOM     71  F   UNL A   1      45.922  35.896  26.777  1.00  0.00    -0.200 F 
ATOM     72  F   UNL A   1      47.213  36.693  29.044  1.00  0.00    -0.200 F 
ENDBRANCH  39  62
ENDBRANCH  13  14
ENDBRANCH   6   8
ENDBRANCH   5   6
ENDBRANCH   4   5
ENDBRANCH   3   4
ENDBRANCH   2   3
ENDBRANCH   1   2
BRANCH   1  73
ATOM     73  C   UNL A   1      35.641  21.924  24.085  1.00  0.00     0.188 C 
BRANCH  73  74
ATOM     74  O   UNL A   1      35.015  23.205  23.924  1.00  0.00    -0.376 OA
BRANCH  74  75
ATOM     75  C   UNL A   1      33.634  23.285  24.262  1.00  0.00     0.202 C 
BRANCH  75  76
ATOM     76  C   UNL A   1      33.326  23.320  25.760  1.00  0.00     0.261 C 
BRANCH  76  77
ATOM     77  O   UNL A   1      33.028  24.634  26.257  1.00  0.00    -0.459 OA
BRANCH  77  78
ATOM     78  C   UNL A   1      31.708  24.905  26.417  1.00  0.00     0.349 C 
ATOM     79  O   UNL A   1      30.960  24.318  27.213  1.00  0.00    -0.245 OA
BRANCH  78  80
ATOM     80  C   UNL A   1      31.211  25.867  25.463  1.00  0.00     0.127 A 
ATOM     81  S   UNL A   1      30.378  25.404  24.040  1.00  0.00    -0.136 S 
ATOM     82  C   UNL A   1      31.378  27.237  25.510  1.00  0.00     0.050 A 
ATOM     83  C   UNL A   1      30.329  27.014  23.457  1.00  0.00     0.067 A 
ATOM     84  C   UNL A   1      30.899  27.899  24.345  1.00  0.00     0.029 A 
BRANCH  82  85
ATOM     85  S   UNL A   1      32.051  28.081  26.884  1.00  0.00    -0.020 S 
ATOM     86  O   UNL A   1      31.838  29.531  26.229  1.00  0.00    -0.768 OA
ATOM     87  O   UNL A   1      31.066  27.933  28.003  1.00  0.00    -0.269 OA
ENDBRANCH  82  85
ENDBRANCH  78  80
ENDBRANCH  77  78
ENDBRANCH  76  77
ENDBRANCH  75  76
ENDBRANCH  74  75
ENDBRANCH  73  74
ENDBRANCH   1  73
TORSDOF 18
ENDMDL
MODEL 2
REMARK VINA RESULT:      -9.4      5.540     11.174
REMARK SMILES O=C(OCCOCCOCCOC(=O)c1sccc1[S@](=O)[O-])c1ccc(-c2c3nc(c(-c4c(F)c(F)c(F)c(F)c4F)c4ccc([nH]4)c(-c4c(F)c(F)c(F)c(F)c4F)c4nc(c(-c5c(F)c(F)c(F)c(F)c5F)c5ccc2[nH]5)C=C4)C=C3)cc1
REMARK SMILES IDX 7 1 6 2 5 3 4 4 3 5 2 6 1 7 23 8 24 9 85 10 25 11 84 12
REMARK SMILES IDX 26 13 27 14 28 15 78 16 29 17 83 18 77 19 79 20 30 21 82 22
REMARK SMILES IDX 76 23 75 24 31 26 63 27 43 28 62 29 44 30 47 31 61 32 80 33
REMARK SMILES IDX 45 34 46 35 60 37 81 38 48 39 32 40 33 41 41 42 34 43 35 44
REMARK SMILES IDX 39 45 42 46 36 47 37 48 40 49 38 50 64 51 65 52 73 53 66 54
REMARK SMILES IDX 67 55 71 56 74 57 68 58 69 59 72 60 70 61 49 62 50 63 58 64
REMARK SMILES IDX 51 65 52 66 56 67 59 68 53 69 54 70 57 71 55 72 8 73 9 74
REMARK SMILES IDX 10 75 11 76 12 77 13 78 14 79 15 80 16 81 19 82 17 83 18 84
REMARK SMILES IDX 20 85 22 86 21 87
REMARK H PARENT 79 25 47 36
REMARK Flexibility Score: inf
ROOT
ATOM      1  C   UNL A   1      32.171  30.352  25.917  1.00  0.00     0.188 C 
ENDROOT
BRANCH   1   2
ATOM      2  O   UNL A   1      33.323  30.667  26.718  1.00  0.00    -0.376 OA
BRANCH   2   3
ATOM      3  C   UNL A   1      33.112  31.766  27.610  1.00  0.00     0.202 C 
BRANCH   3   4
ATOM      4  C   UNL A   1      32.502  33.005  26.945  1.00  0.00     0.261 C 
BRANCH   4   5
ATOM      5  O   UNL A   1      32.160  34.010  27.912  1.00  0.00    -0.460 OA
BRANCH   5   6
ATOM      6  C   UNL A   1      33.000  34.811  28.613  1.00  0.00     0.338 C 
ATOM      7  O   UNL A   1      32.709  35.998  28.749  1.00  0.00    -0.246 OA
BRANCH   6   8
ATOM      8  C   UNL A   1      34.231  34.314  29.302  1.00  0.00     0.060 A 
ATOM      9  C   UNL A   1      35.537  34.479  28.836  1.00  0.00     0.016 A 
ATOM     10  C   UNL A   1      34.050  33.687  30.547  1.00  0.00     0.016 A 
ATOM     11  C   UNL A   1      36.621  33.920  29.515  1.00  0.00     0.010 A 
ATOM     12  C   UNL A   1      35.139  33.189  31.270  1.00  0.00     0.010 A 
ATOM     13  C   UNL A   1      36.431  33.268  30.735  1.00  0.00    -0.014 A 
BRANCH  13  14
ATOM     14  C   UNL A   1      37.578  32.626  31.413  1.00  0.00     0.031 A 
ATOM     15  C   UNL A   1      38.307  31.511  30.729  1.00  0.00     0.074 A 
ATOM     16  C   UNL A   1      38.002  33.080  32.607  1.00  0.00     0.049 A 
ATOM     17  N   UNL A   1      39.291  30.772  31.171  1.00  0.00    -0.248 NA
ATOM     18  C   UNL A   1      37.885  31.197  29.355  1.00  0.00     0.031 C 
ATOM     19  C   UNL A   1      37.428  34.218  33.319  1.00  0.00     0.029 A 
ATOM     20  N   UNL A   1      39.011  32.645  33.428  1.00  0.00    -0.354 N 
ATOM     21  C   UNL A   1      39.602  29.904  30.135  1.00  0.00     0.074 A 
ATOM     22  C   UNL A   1      38.690  30.190  29.048  1.00  0.00     0.031 C 
ATOM     23  C   UNL A   1      38.091  34.388  34.473  1.00  0.00     0.029 A 
ATOM     24  C   UNL A   1      39.084  33.334  34.613  1.00  0.00     0.049 A 
ATOM     25  H   UNL A   1      39.623  31.911  33.191  1.00  0.00     0.167 HD
ATOM     26  C   UNL A   1      40.572  28.962  30.094  1.00  0.00     0.037 A 
ATOM     27  C   UNL A   1      39.830  33.117  35.711  1.00  0.00     0.037 A 
ATOM     28  C   UNL A   1      41.475  28.688  31.178  1.00  0.00     0.049 A 
ATOM     29  C   UNL A   1      40.809  31.979  35.695  1.00  0.00     0.074 A 
ATOM     30  C   UNL A   1      42.490  27.751  31.243  1.00  0.00     0.029 A 
ATOM     31  N   UNL A   1      41.461  29.353  32.396  1.00  0.00    -0.354 N 
ATOM     32  N   UNL A   1      41.086  31.149  34.718  1.00  0.00    -0.248 NA
ATOM     33  C   UNL A   1      41.573  31.738  36.925  1.00  0.00     0.031 C 
ATOM     34  C   UNL A   1      43.068  27.825  32.517  1.00  0.00     0.029 A 
ATOM     35  C   UNL A   1      42.432  28.829  33.233  1.00  0.00     0.049 A 
ATOM     36  H   UNL A   1      40.851  30.089  32.631  1.00  0.00     0.167 HD
ATOM     37  C   UNL A   1      42.066  30.299  35.206  1.00  0.00     0.074 A 
ATOM     38  C   UNL A   1      42.341  30.719  36.566  1.00  0.00     0.031 C 
ATOM     39  C   UNL A   1      42.683  29.266  34.582  1.00  0.00     0.037 A 
BRANCH  26  40
ATOM     40  C   UNL A   1      40.668  28.144  28.844  1.00  0.00     0.064 A 
ATOM     41  C   UNL A   1      41.452  28.554  27.755  1.00  0.00     0.173 A 
ATOM     42  C   UNL A   1      39.948  26.946  28.724  1.00  0.00     0.173 A 
ATOM     43  F   UNL A   1      42.137  29.706  27.813  1.00  0.00    -0.203 F 
ATOM     44  C   UNL A   1      41.491  27.805  26.581  1.00  0.00     0.198 A 
ATOM     45  C   UNL A   1      40.005  26.191  27.556  1.00  0.00     0.198 A 
ATOM     46  F   UNL A   1      39.177  26.518  29.736  1.00  0.00    -0.203 F 
ATOM     47  F   UNL A   1      42.207  28.241  25.534  1.00  0.00    -0.200 F 
ATOM     48  C   UNL A   1      40.770  26.625  26.484  1.00  0.00     0.200 A 
ATOM     49  F   UNL A   1      39.306  25.052  27.462  1.00  0.00    -0.200 F 
ATOM     50  F   UNL A   1      40.799  25.912  25.350  1.00  0.00    -0.200 F 
ENDBRANCH  26  40
BRANCH  27  51
ATOM     51  C   UNL A   1      39.626  33.961  36.920  1.00  0.00     0.064 A 
ATOM     52  C   UNL A   1      38.819  33.537  37.982  1.00  0.00     0.173 A 
ATOM     53  C   UNL A   1      40.251  35.214  37.039  1.00  0.00     0.173 A 
ATOM     54  F   UNL A   1      38.177  32.362  37.905  1.00  0.00    -0.203 F 
ATOM     55  C   UNL A   1      38.631  34.339  39.109  1.00  0.00     0.198 A 
ATOM     56  C   UNL A   1      40.083  36.004  38.175  1.00  0.00     0.198 A 
ATOM     57  F   UNL A   1      41.032  35.670  36.048  1.00  0.00    -0.203 F 
ATOM     58  F   UNL A   1      37.808  33.931  40.085  1.00  0.00    -0.200 F 
ATOM     59  C   UNL A   1      39.267  35.569  39.207  1.00  0.00     0.200 A 
ATOM     60  F   UNL A   1      40.695  37.193  38.255  1.00  0.00    -0.200 F 
ATOM     61  F   UNL A   1      39.065  36.347  40.278  1.00  0.00    -0.200 F 
ENDBRANCH  27  51
BRANCH  39  62
ATOM     62  C   UNL A   1      43.728  28.531  35.362  1.00  0.00     0.064 A 
ATOM     63  C   UNL A   1      43.391  27.455  36.195  1.00  0.00     0.173 A 
ATOM     64  C   UNL A   1      45.081  28.876  35.238  1.00  0.00     0.173 A 
ATOM     65  F   UNL A   1      42.108  27.103  36.356  1.00  0.00    -0.203 F 
ATOM     66  C   UNL A   1      44.376  26.755  36.885  1.00  0.00     0.198 A 
ATOM     67  C   UNL A   1      46.065  28.162  35.913  1.00  0.00     0.198 A 
ATOM     68  F   UNL A   1      45.449  29.898  34.449  1.00  0.00    -0.203 F 
ATOM     69  F   UNL A   1      44.033  25.747  37.698  1.00  0.00    -0.200 F 
ATOM     70  C   UNL A   1      45.711  27.103  36.739  1.00  0.00     0.200 A 
ATOM     71  F   UNL A   1      47.354  28.493  35.764  1.00  0.00    -0.200 F 
ATOM     72  F   UNL A   1      46.658  26.421  37.397  1.00  0.00    -0.200 F 
ENDBRANCH  39  62
ENDBRANCH  13  14
ENDBRANCH   6   8
ENDBRANCH   5   6
ENDBRANCH   4   5
ENDBRANCH   3   4
ENDBRANCH   2   3
ENDBRANCH   1   2
BRANCH   1  73
ATOM     73  C   UNL A   1      32.316  28.966  25.280  1.00  0.00     0.188 C 
BRANCH  73  74
ATOM     74  O   UNL A   1      33.644  28.627  24.857  1.00  0.00    -0.376 OA
BRANCH  74  75
ATOM     75  C   UNL A   1      33.766  28.007  23.580  1.00  0.00     0.202 C 
BRANCH  75  76
ATOM     76  C   UNL A   1      33.033  26.673  23.426  1.00  0.00     0.261 C 
BRANCH  76  77
ATOM     77  O   UNL A   1      33.512  25.645  24.306  1.00  0.00    -0.459 OA
BRANCH  77  78
ATOM     78  C   UNL A   1      33.359  24.376  23.850  1.00  0.00     0.349 C 
ATOM     79  O   UNL A   1      32.621  24.051  22.907  1.00  0.00    -0.245 OA
BRANCH  78  80
ATOM     80  C   UNL A   1      34.042  23.398  24.662  1.00  0.00     0.127 A 
ATOM     81  S   UNL A   1      35.593  22.793  24.263  1.00  0.00    -0.136 S 
ATOM     82  C   UNL A   1      33.550  22.778  25.795  1.00  0.00     0.050 A 
ATOM     83  C   UNL A   1      35.557  21.652  25.540  1.00  0.00     0.067 A 
ATOM     84  C   UNL A   1      34.405  21.752  26.287  1.00  0.00     0.029 A 
BRANCH  82  85
ATOM     85  S   UNL A   1      32.061  23.247  26.582  1.00  0.00    -0.020 S 
ATOM     86  O   UNL A   1      31.173  22.197  25.755  1.00  0.00    -0.768 OA
ATOM     87  O   UNL A   1      32.152  22.760  27.995  1.00  0.00    -0.269 OA
ENDBRANCH  82  85
ENDBRANCH  78  80
ENDBRANCH  77  78
ENDBRANCH  76  77
ENDBRANCH  75  76
ENDBRANCH  74  75
ENDBRANCH  73  74
ENDBRANCH   1  73
TORSDOF 18
ENDMDL
MODEL 3
REMARK VINA RESULT:      -9.3      1.292      2.252
REMARK SMILES O=C(OCCOCCOCCOC(=O)c1sccc1[S@](=O)[O-])c1ccc(-c2c3nc(c(-c4c(F)c(F)c(F)c(F)c4F)c4ccc([nH]4)c(-c4c(F)c(F)c(F)c(F)c4F)c4nc(c(-c5c(F)c(F)c(F)c(F)c5F)c5ccc2[nH]5)C=C4)C=C3)cc1
REMARK SMILES IDX 7 1 6 2 5 3 4 4 3 5 2 6 1 7 23 8 24 9 85 10 25 11 84 12
REMARK SMILES IDX 26 13 27 14 28 15 78 16 29 17 83 18 77 19 79 20 30 21 82 22
REMARK SMILES IDX 76 23 75 24 31 26 63 27 43 28 62 29 44 30 47 31 61 32 80 33
REMARK SMILES IDX 45 34 46 35 60 37 81 38 48 39 32 40 33 41 41 42 34 43 35 44
REMARK SMILES IDX 39 45 42 46 36 47 37 48 40 49 38 50 64 51 65 52 73 53 66 54
REMARK SMILES IDX 67 55 71 56 74 57 68 58 69 59 72 60 70 61 49 62 50 63 58 64
REMARK SMILES IDX 51 65 52 66 56 67 59 68 53 69 54 70 57 71 55 72 8 73 9 74
REMARK SMILES IDX 10 75 11 76 12 77 13 78 14 79 15 80 16 81 19 82 17 83 18 84
REMARK SMILES IDX 20 85 22 86 21 87
REMARK H PARENT 79 25 47 36
REMARK Flexibility Score: inf
ROOT
ATOM      1  C   UNL A   1      37.388  21.053  24.617  1.00  0.00     0.188 C 
ENDROOT
BRANCH   1   2
ATOM      2  O   UNL A   1      38.215  19.944  25.012  1.00  0.00    -0.376 OA
BRANCH   2   3
ATOM      3  C   UNL A   1      39.436  20.343  25.646  1.00  0.00     0.202 C 
BRANCH   3   4
ATOM      4  C   UNL A   1      40.181  19.199  26.343  1.00  0.00     0.261 C 
BRANCH   4   5
ATOM      5  O   UNL A   1      41.349  18.803  25.606  1.00  0.00    -0.460 OA
BRANCH   5   6
ATOM      6  C   UNL A   1      42.611  19.286  25.725  1.00  0.00     0.338 C 
ATOM      7  O   UNL A   1      43.556  18.523  25.532  1.00  0.00    -0.246 OA
BRANCH   6   8
ATOM      8  C   UNL A   1      42.922  20.722  26.001  1.00  0.00     0.060 A 
ATOM      9  C   UNL A   1      43.123  21.704  25.029  1.00  0.00     0.016 A 
ATOM     10  C   UNL A   1      42.952  21.115  27.350  1.00  0.00     0.016 A 
ATOM     11  C   UNL A   1      43.477  23.007  25.382  1.00  0.00     0.010 A 
ATOM     12  C   UNL A   1      43.234  22.437  27.711  1.00  0.00     0.010 A 
ATOM     13  C   UNL A   1      43.538  23.383  26.725  1.00  0.00    -0.014 A 
BRANCH  13  14
ATOM     14  C   UNL A   1      43.976  24.750  27.087  1.00  0.00     0.031 A 
ATOM     15  C   UNL A   1      42.969  25.735  27.597  1.00  0.00     0.074 A 
ATOM     16  C   UNL A   1      45.277  25.086  27.017  1.00  0.00     0.049 A 
ATOM     17  N   UNL A   1      43.128  26.995  27.906  1.00  0.00    -0.248 NA
ATOM     18  C   UNL A   1      41.604  25.228  27.805  1.00  0.00     0.031 C 
ATOM     19  C   UNL A   1      46.354  24.181  26.626  1.00  0.00     0.029 A 
ATOM     20  N   UNL A   1      45.914  26.273  27.274  1.00  0.00    -0.354 N 
ATOM     21  C   UNL A   1      41.886  27.433  28.340  1.00  0.00     0.074 A 
ATOM     22  C   UNL A   1      40.975  26.313  28.234  1.00  0.00     0.031 C 
ATOM     23  C   UNL A   1      47.518  24.847  26.663  1.00  0.00     0.029 A 
ATOM     24  C   UNL A   1      47.261  26.236  27.012  1.00  0.00     0.049 A 
ATOM     25  H   UNL A   1      45.451  27.073  27.613  1.00  0.00     0.167 HD
ATOM     26  C   UNL A   1      41.543  28.659  28.797  1.00  0.00     0.037 A 
ATOM     27  C   UNL A   1      48.182  27.217  27.004  1.00  0.00     0.037 A 
ATOM     28  C   UNL A   1      42.456  29.765  28.900  1.00  0.00     0.049 A 
ATOM     29  C   UNL A   1      47.751  28.603  27.385  1.00  0.00     0.074 A 
ATOM     30  C   UNL A   1      42.210  31.051  29.344  1.00  0.00     0.029 A 
ATOM     31  N   UNL A   1      43.796  29.710  28.544  1.00  0.00    -0.354 N 
ATOM     32  N   UNL A   1      46.569  29.017  27.777  1.00  0.00    -0.248 NA
ATOM     33  C   UNL A   1      48.768  29.661  27.320  1.00  0.00     0.031 C 
ATOM     34  C   UNL A   1      43.397  31.786  29.222  1.00  0.00     0.029 A 
ATOM     35  C   UNL A   1      44.387  30.948  28.731  1.00  0.00     0.049 A 
ATOM     36  H   UNL A   1      44.259  28.908  28.208  1.00  0.00     0.167 HD
ATOM     37  C   UNL A   1      46.701  30.375  28.021  1.00  0.00     0.074 A 
ATOM     38  C   UNL A   1      48.082  30.715  27.740  1.00  0.00     0.031 C 
ATOM     39  C   UNL A   1      45.764  31.258  28.442  1.00  0.00     0.037 A 
BRANCH  26  40
ATOM     40  C   UNL A   1      40.110  28.862  29.179  1.00  0.00     0.064 A 
ATOM     41  C   UNL A   1      39.668  28.684  30.499  1.00  0.00     0.173 A 
ATOM     42  C   UNL A   1      39.162  29.217  28.208  1.00  0.00     0.173 A 
ATOM     43  F   UNL A   1      40.534  28.320  31.456  1.00  0.00    -0.203 F 
ATOM     44  C   UNL A   1      38.322  28.830  30.827  1.00  0.00     0.198 A 
ATOM     45  C   UNL A   1      37.821  29.379  28.544  1.00  0.00     0.198 A 
ATOM     46  F   UNL A   1      39.535  29.390  26.931  1.00  0.00    -0.203 F 
ATOM     47  F   UNL A   1      37.913  28.606  32.084  1.00  0.00    -0.200 F 
ATOM     48  C   UNL A   1      37.402  29.179  29.850  1.00  0.00     0.200 A 
ATOM     49  F   UNL A   1      36.931  29.715  27.600  1.00  0.00    -0.200 F 
ATOM     50  F   UNL A   1      36.105  29.307  30.166  1.00  0.00    -0.200 F 
ENDBRANCH  26  40
BRANCH  27  51
ATOM     51  C   UNL A   1      49.573  26.919  26.564  1.00  0.00     0.064 A 
ATOM     52  C   UNL A   1      49.950  27.006  25.219  1.00  0.00     0.173 A 
ATOM     53  C   UNL A   1      50.560  26.551  27.494  1.00  0.00     0.173 A 
ATOM     54  F   UNL A   1      49.038  27.326  24.289  1.00  0.00    -0.203 F 
ATOM     55  C   UNL A   1      51.256  26.721  24.818  1.00  0.00     0.198 A 
ATOM     56  C   UNL A   1      51.869  26.289  27.096  1.00  0.00     0.198 A 
ATOM     57  F   UNL A   1      50.249  26.448  28.796  1.00  0.00    -0.203 F 
ATOM     58  F   UNL A   1      51.574  26.757  23.516  1.00  0.00    -0.200 F 
ATOM     59  C   UNL A   1      52.215  26.367  25.757  1.00  0.00     0.200 A 
ATOM     60  F   UNL A   1      52.785  25.940  28.009  1.00  0.00    -0.200 F 
ATOM     61  F   UNL A   1      53.461  26.069  25.365  1.00  0.00    -0.200 F 
ENDBRANCH  27  51
BRANCH  39  62
ATOM     62  C   UNL A   1      46.208  32.674  28.640  1.00  0.00     0.064 A 
ATOM     63  C   UNL A   1      46.792  33.091  29.843  1.00  0.00     0.173 A 
ATOM     64  C   UNL A   1      46.092  33.606  27.599  1.00  0.00     0.173 A 
ATOM     65  F   UNL A   1      46.907  32.236  30.869  1.00  0.00    -0.203 F 
ATOM     66  C   UNL A   1      47.236  34.401  30.001  1.00  0.00     0.198 A 
ATOM     67  C   UNL A   1      46.555  34.909  27.754  1.00  0.00     0.198 A 
ATOM     68  F   UNL A   1      45.541  33.249  26.429  1.00  0.00    -0.203 F 
ATOM     69  F   UNL A   1      47.767  34.790  31.169  1.00  0.00    -0.200 F 
ATOM     70  C   UNL A   1      47.124  35.306  28.955  1.00  0.00     0.200 A 
ATOM     71  F   UNL A   1      46.454  35.779  26.740  1.00  0.00    -0.200 F 
ATOM     72  F   UNL A   1      47.561  36.564  29.107  1.00  0.00    -0.200 F 
ENDBRANCH  39  62
ENDBRANCH  13  14
ENDBRANCH   6   8
ENDBRANCH   5   6
ENDBRANCH   4   5
ENDBRANCH   3   4
ENDBRANCH   2   3
ENDBRANCH   1   2
BRANCH   1  73
ATOM     73  C   UNL A   1      37.452  22.175  25.659  1.00  0.00     0.188 C 
BRANCH  73  74
ATOM     74  O   UNL A   1      36.267  22.975  25.765  1.00  0.00    -0.376 OA
BRANCH  74  75
ATOM     75  C   UNL A   1      35.981  23.837  24.668  1.00  0.00     0.202 C 
BRANCH  75  76
ATOM     76  C   UNL A   1      34.691  23.524  23.906  1.00  0.00     0.261 C 
BRANCH  76  77
ATOM     77  O   UNL A   1      33.532  23.427  24.748  1.00  0.00    -0.459 OA
BRANCH  77  78
ATOM     78  C   UNL A   1      32.347  23.339  24.092  1.00  0.00     0.349 C 
ATOM     79  O   UNL A   1      32.107  22.536  23.177  1.00  0.00    -0.245 OA
BRANCH  78  80
ATOM     80  C   UNL A   1      31.415  24.372  24.470  1.00  0.00     0.127 A 
ATOM     81  S   UNL A   1      31.177  25.784  23.531  1.00  0.00    -0.136 S 
ATOM     82  C   UNL A   1      30.656  24.418  25.624  1.00  0.00     0.050 A 
ATOM     83  C   UNL A   1      30.142  26.480  24.705  1.00  0.00     0.067 A 
ATOM     84  C   UNL A   1      29.945  25.641  25.779  1.00  0.00     0.029 A 
BRANCH  82  85
ATOM     85  S   UNL A   1      30.530  23.086  26.749  1.00  0.00    -0.020 S 
ATOM     86  O   UNL A   1      31.790  23.567  27.619  1.00  0.00    -0.768 OA
ATOM     87  O   UNL A   1      29.294  23.324  27.559  1.00  0.00    -0.269 OA
ENDBRANCH  82  85
ENDBRANCH  78  80
ENDBRANCH  77  78
ENDBRANCH  76  77
ENDBRANCH  75  76
ENDBRANCH  74  75
ENDBRANCH  73  74
ENDBRANCH   1  73
TORSDOF 18
ENDMDL
