MODEL 1
REMARK VINA RESULT:     -11.2      0.000      0.000
REMARK SMILES CCc1ccsc1CNC(=O)N1[C@@H]2CC[C@H]1[C@H](C(=O)OCCOCCOCCOC(=O)c1ccc(-c3c4nc(c(-c5c(F)c(F)c(F)c(F)c5F)c5ccc([nH]5)c(-c5c(F)c(F)c(F)c(F)c5F)c5nc(c(-c6c(F)c(F)c(F)c(F)c6F)c6ccc3[nH]6)C=C5)C=C4)cc1)C2
REMARK SMILES IDX 24 1 23 2 22 3 21 4 20 5 18 6 19 7 17 8 12 9 13 10 16 11
REMARK SMILES IDX 14 12 95 13 15 14 10 15 9 16 11 18 8 19 7 20 3 21 4 22 5 23
REMARK SMILES IDX 6 24 2 25 1 26 25 27 26 28 27 29 28 30 29 31 30 32 31 33
REMARK SMILES IDX 32 34 33 35 94 36 34 37 93 38 35 39 36 40 37 41 87 42 38 43
REMARK SMILES IDX 92 44 86 45 88 46 39 47 91 48 85 49 84 50 40 52 72 53 52 54
REMARK SMILES IDX 71 55 53 56 56 57 70 58 89 59 54 60 55 61 69 63 90 64 57 65
REMARK SMILES IDX 41 66 42 67 50 68 43 69 44 70 48 71 51 72 45 73 46 74 49 75
REMARK SMILES IDX 47 76 73 77 74 78 82 79 75 80 76 81 80 82 83 83 77 84 78 85
REMARK SMILES IDX 81 86 79 87 58 88 59 89 67 90 60 91 61 92 65 93 68 94 62 95
REMARK SMILES IDX 63 96 66 97 64 98
REMARK H PARENT 9 17 88 51 56 62
REMARK Flexibility Score: inf
ROOT
ATOM      1  C   UNL A   1      39.737  21.465  26.494  1.00  0.00     0.188 C 
ENDROOT
BRANCH   1   2
ATOM      2  O   UNL A   1      38.721  21.493  25.504  1.00  0.00    -0.376 OA
BRANCH   2   3
ATOM      3  C   UNL A   1      37.707  22.500  25.582  1.00  0.00     0.202 C 
BRANCH   3   4
ATOM      4  C   UNL A   1      36.957  22.871  24.305  1.00  0.00     0.261 C 
BRANCH   4   5
ATOM      5  O   UNL A   1      36.095  24.011  24.515  1.00  0.00    -0.463 OA
BRANCH   5   6
ATOM      6  C   UNL A   1      34.820  23.806  24.094  1.00  0.00     0.311 C 
ATOM      7  O   UNL A   1      34.190  24.613  23.417  1.00  0.00    -0.252 OA
BRANCH   6   8
ATOM      8  C   UNL A   1      34.290  22.414  24.365  1.00  0.00     0.124 C 
ATOM      9  N   UNL A   1      32.072  22.476  25.053  1.00  0.00    -0.318 N 
ATOM     10  C   UNL A   1      32.082  21.552  23.934  1.00  0.00     0.088 C 
ATOM     11  C   UNL A   1      33.388  22.201  25.595  1.00  0.00     0.101 C 
ATOM     12  C   UNL A   1      32.381  20.220  24.639  1.00  0.00     0.027 C 
ATOM     13  C   UNL A   1      33.352  22.000  23.201  1.00  0.00     0.042 C 
ATOM     14  C   UNL A   1      33.263  20.671  25.823  1.00  0.00     0.028 C 
BRANCH   9  15
ATOM     15  C   UNL A   1      30.947  23.075  25.494  1.00  0.00     0.318 C 
ATOM     16  N   UNL A   1      30.490  24.231  24.986  1.00  0.00    -0.333 N 
ATOM     17  H   UNL A   1      29.751  24.614  25.513  1.00  0.00     0.165 HD
ATOM     18  O   UNL A   1      30.266  22.566  26.389  1.00  0.00    -0.249 OA
BRANCH  16  19
ATOM     19  C   UNL A   1      30.838  25.038  23.839  1.00  0.00     0.165 C 
BRANCH  19  20
ATOM     20  C   UNL A   1      30.914  26.513  24.151  1.00  0.00     0.027 A 
ATOM     21  C   UNL A   1      31.806  27.217  24.966  1.00  0.00    -0.033 A 
ATOM     22  C   UNL A   1      31.627  28.638  24.800  1.00  0.00     0.016 A 
ATOM     23  C   UNL A   1      30.616  28.967  23.933  1.00  0.00     0.065 A 
ATOM     24  S   UNL A   1      29.856  27.587  23.305  1.00  0.00    -0.147 S 
BRANCH  21  25
ATOM     25  C   UNL A   1      32.916  26.704  25.857  1.00  0.00     0.033 C 
ATOM     26  C   UNL A   1      33.891  27.726  26.410  1.00  0.00     0.009 C 
ENDBRANCH  21  25
ENDBRANCH  19  20
ENDBRANCH  16  19
ENDBRANCH   9  15
ENDBRANCH   6   8
ENDBRANCH   5   6
ENDBRANCH   4   5
ENDBRANCH   3   4
ENDBRANCH   2   3
ENDBRANCH   1   2
BRANCH   1  27
ATOM     27  C   UNL A   1      40.660  20.246  26.467  1.00  0.00     0.188 C 
BRANCH  27  28
ATOM     28  O   UNL A   1      42.027  20.386  26.842  1.00  0.00    -0.376 OA
BRANCH  28  29
ATOM     29  C   UNL A   1      42.966  20.399  25.770  1.00  0.00     0.202 C 
BRANCH  29  30
ATOM     30  C   UNL A   1      43.769  21.675  25.483  1.00  0.00     0.261 C 
BRANCH  30  31
ATOM     31  O   UNL A   1      42.936  22.820  25.354  1.00  0.00    -0.460 OA
BRANCH  31  32
ATOM     32  C   UNL A   1      43.620  23.983  25.241  1.00  0.00     0.338 C 
ATOM     33  O   UNL A   1      44.372  24.321  24.343  1.00  0.00    -0.246 OA
BRANCH  32  34
ATOM     34  C   UNL A   1      43.066  24.899  26.256  1.00  0.00     0.060 A 
ATOM     35  C   UNL A   1      43.545  26.216  26.261  1.00  0.00     0.016 A 
ATOM     36  C   UNL A   1      41.978  24.527  27.055  1.00  0.00     0.016 A 
ATOM     37  C   UNL A   1      42.935  27.169  27.069  1.00  0.00     0.010 A 
ATOM     38  C   UNL A   1      41.376  25.477  27.872  1.00  0.00     0.010 A 
ATOM     39  C   UNL A   1      41.870  26.790  27.898  1.00  0.00    -0.014 A 
BRANCH  39  40
ATOM     40  C   UNL A   1      41.452  27.680  28.995  1.00  0.00     0.031 A 
ATOM     41  C   UNL A   1      42.223  27.574  30.277  1.00  0.00     0.074 A 
ATOM     42  C   UNL A   1      40.417  28.526  28.863  1.00  0.00     0.049 A 
ATOM     43  N   UNL A   1      42.032  28.182  31.417  1.00  0.00    -0.248 NA
ATOM     44  C   UNL A   1      43.362  26.639  30.273  1.00  0.00     0.031 C 
ATOM     45  C   UNL A   1      39.621  28.713  27.653  1.00  0.00     0.029 A 
ATOM     46  N   UNL A   1      39.850  29.376  29.777  1.00  0.00    -0.354 N 
ATOM     47  C   UNL A   1      43.028  27.704  32.258  1.00  0.00     0.074 A 
ATOM     48  C   UNL A   1      43.797  26.733  31.517  1.00  0.00     0.031 C 
ATOM     49  C   UNL A   1      38.653  29.613  27.904  1.00  0.00     0.029 A 
ATOM     50  C   UNL A   1      38.750  30.042  29.298  1.00  0.00     0.049 A 
ATOM     51  H   UNL A   1      40.200  29.497  30.689  1.00  0.00     0.167 HD
ATOM     52  C   UNL A   1      43.279  28.053  33.539  1.00  0.00     0.037 A 
ATOM     53  C   UNL A   1      37.914  30.885  29.935  1.00  0.00     0.037 A 
ATOM     54  C   UNL A   1      42.487  28.998  34.274  1.00  0.00     0.049 A 
ATOM     55  C   UNL A   1      38.175  31.207  31.387  1.00  0.00     0.074 A 
ATOM     56  C   UNL A   1      42.643  29.427  35.577  1.00  0.00     0.029 A 
ATOM     57  N   UNL A   1      41.374  29.649  33.761  1.00  0.00    -0.354 N 
ATOM     58  N   UNL A   1      39.139  30.784  32.170  1.00  0.00    -0.248 NA
ATOM     59  C   UNL A   1      37.232  32.124  32.043  1.00  0.00     0.031 C 
ATOM     60  C   UNL A   1      41.594  30.307  35.868  1.00  0.00     0.029 A 
ATOM     61  C   UNL A   1      40.819  30.465  34.730  1.00  0.00     0.049 A 
ATOM     62  H   UNL A   1      41.032  29.547  32.843  1.00  0.00     0.167 HD
ATOM     63  C   UNL A   1      38.939  31.404  33.397  1.00  0.00     0.074 A 
ATOM     64  C   UNL A   1      37.766  32.241  33.251  1.00  0.00     0.031 C 
ATOM     65  C   UNL A   1      39.656  31.295  34.543  1.00  0.00     0.037 A 
BRANCH  52  66
ATOM     66  C   UNL A   1      44.432  27.377  34.215  1.00  0.00     0.064 A 
ATOM     67  C   UNL A   1      45.723  27.927  34.191  1.00  0.00     0.173 A 
ATOM     68  C   UNL A   1      44.250  26.154  34.876  1.00  0.00     0.173 A 
ATOM     69  F   UNL A   1      45.953  29.081  33.544  1.00  0.00    -0.203 F 
ATOM     70  C   UNL A   1      46.794  27.264  34.782  1.00  0.00     0.198 A 
ATOM     71  C   UNL A   1      45.319  25.508  35.490  1.00  0.00     0.198 A 
ATOM     72  F   UNL A   1      43.038  25.581  34.916  1.00  0.00    -0.203 F 
ATOM     73  F   UNL A   1      48.029  27.779  34.696  1.00  0.00    -0.200 F 
ATOM     74  C   UNL A   1      46.590  26.058  35.435  1.00  0.00     0.200 A 
ATOM     75  F   UNL A   1      45.121  24.343  36.123  1.00  0.00    -0.200 F 
ATOM     76  F   UNL A   1      47.623  25.420  36.001  1.00  0.00    -0.200 F 
ENDBRANCH  52  66
BRANCH  53  77
ATOM     77  C   UNL A   1      36.754  31.478  29.219  1.00  0.00     0.064 A 
ATOM     78  C   UNL A   1      36.736  32.838  28.876  1.00  0.00     0.173 A 
ATOM     79  C   UNL A   1      35.629  30.709  28.887  1.00  0.00     0.173 A 
ATOM     80  F   UNL A   1      37.776  33.622  29.194  1.00  0.00    -0.203 F 
ATOM     81  C   UNL A   1      35.630  33.409  28.248  1.00  0.00     0.198 A 
ATOM     82  C   UNL A   1      34.535  31.275  28.235  1.00  0.00     0.198 A 
ATOM     83  F   UNL A   1      35.594  29.404  29.194  1.00  0.00    -0.203 F 
ATOM     84  F   UNL A   1      35.620  34.721  27.976  1.00  0.00    -0.200 F 
ATOM     85  C   UNL A   1      34.532  32.626  27.924  1.00  0.00     0.200 A 
ATOM     86  F   UNL A   1      33.480  30.513  27.915  1.00  0.00    -0.200 F 
ATOM     87  F   UNL A   1      33.469  33.176  27.322  1.00  0.00    -0.200 F 
ENDBRANCH  53  77
BRANCH  65  88
ATOM     88  C   UNL A   1      39.219  32.129  35.711  1.00  0.00     0.064 A 
ATOM     89  C   UNL A   1      38.362  31.622  36.697  1.00  0.00     0.173 A 
ATOM     90  C   UNL A   1      39.720  33.429  35.875  1.00  0.00     0.173 A 
ATOM     91  F   UNL A   1      37.850  30.387  36.577  1.00  0.00    -0.203 F 
ATOM     92  C   UNL A   1      38.006  32.396  37.798  1.00  0.00     0.198 A 
ATOM     93  C   UNL A   1      39.384  34.189  36.992  1.00  0.00     0.198 A 
ATOM     94  F   UNL A   1      40.552  33.955  34.963  1.00  0.00    -0.203 F 
ATOM     95  F   UNL A   1      37.153  31.906  38.709  1.00  0.00    -0.200 F 
ATOM     96  C   UNL A   1      38.523  33.674  37.948  1.00  0.00     0.200 A 
ATOM     97  F   UNL A   1      39.898  35.417  37.143  1.00  0.00    -0.200 F 
ATOM     98  F   UNL A   1      38.188  34.412  39.015  1.00  0.00    -0.200 F 
ENDBRANCH  65  88
ENDBRANCH  39  40
ENDBRANCH  32  34
ENDBRANCH  31  32
ENDBRANCH  30  31
ENDBRANCH  29  30
ENDBRANCH  28  29
ENDBRANCH  27  28
ENDBRANCH   1  27
TORSDOF 21
ENDMDL
MODEL 2
REMARK VINA RESULT:     -10.6      3.319      8.806
REMARK SMILES CCc1ccsc1CNC(=O)N1[C@@H]2CC[C@H]1[C@H](C(=O)OCCOCCOCCOC(=O)c1ccc(-c3c4nc(c(-c5c(F)c(F)c(F)c(F)c5F)c5ccc([nH]5)c(-c5c(F)c(F)c(F)c(F)c5F)c5nc(c(-c6c(F)c(F)c(F)c(F)c6F)c6ccc3[nH]6)C=C5)C=C4)cc1)C2
REMARK SMILES IDX 24 1 23 2 22 3 21 4 20 5 18 6 19 7 17 8 12 9 13 10 16 11
REMARK SMILES IDX 14 12 95 13 15 14 10 15 9 16 11 18 8 19 7 20 3 21 4 22 5 23
REMARK SMILES IDX 6 24 2 25 1 26 25 27 26 28 27 29 28 30 29 31 30 32 31 33
REMARK SMILES IDX 32 34 33 35 94 36 34 37 93 38 35 39 36 40 37 41 87 42 38 43
REMARK SMILES IDX 92 44 86 45 88 46 39 47 91 48 85 49 84 50 40 52 72 53 52 54
REMARK SMILES IDX 71 55 53 56 56 57 70 58 89 59 54 60 55 61 69 63 90 64 57 65
REMARK SMILES IDX 41 66 42 67 50 68 43 69 44 70 48 71 51 72 45 73 46 74 49 75
REMARK SMILES IDX 47 76 73 77 74 78 82 79 75 80 76 81 80 82 83 83 77 84 78 85
REMARK SMILES IDX 81 86 79 87 58 88 59 89 67 90 60 91 61 92 65 93 68 94 62 95
REMARK SMILES IDX 63 96 66 97 64 98
REMARK H PARENT 9 17 88 51 56 62
REMARK Flexibility Score: inf
ROOT
ATOM      1  C   UNL A   1      33.301  29.584  26.087  1.00  0.00     0.188 C 
ENDROOT
BRANCH   1   2
ATOM      2  O   UNL A   1      32.821  29.732  24.760  1.00  0.00    -0.376 OA
BRANCH   2   3
ATOM      3  C   UNL A   1      31.610  29.068  24.384  1.00  0.00     0.202 C 
BRANCH   3   4
ATOM      4  C   UNL A   1      31.210  29.072  22.911  1.00  0.00     0.261 C 
BRANCH   4   5
ATOM      5  O   UNL A   1      30.762  27.767  22.485  1.00  0.00    -0.463 OA
BRANCH   5   6
ATOM      6  C   UNL A   1      29.709  27.300  23.206  1.00  0.00     0.311 C 
ATOM      7  O   UNL A   1      28.654  27.913  23.342  1.00  0.00    -0.252 OA
BRANCH   6   8
ATOM      8  C   UNL A   1      29.862  25.870  23.680  1.00  0.00     0.124 C 
ATOM      9  N   UNL A   1      32.083  25.364  24.131  1.00  0.00    -0.318 N 
ATOM     10  C   UNL A   1      31.374  25.007  25.345  1.00  0.00     0.088 C 
ATOM     11  C   UNL A   1      31.056  25.049  23.157  1.00  0.00     0.101 C 
ATOM     12  C   UNL A   1      30.983  23.550  25.055  1.00  0.00     0.027 C 
ATOM     13  C   UNL A   1      30.117  25.875  25.210  1.00  0.00     0.042 C 
ATOM     14  C   UNL A   1      30.796  23.564  23.523  1.00  0.00     0.028 C 
BRANCH   9  15
ATOM     15  C   UNL A   1      33.415  25.579  24.100  1.00  0.00     0.318 C 
ATOM     16  N   UNL A   1      34.296  24.638  23.723  1.00  0.00    -0.333 N 
ATOM     17  H   UNL A   1      35.230  24.896  23.900  1.00  0.00     0.165 HD
ATOM     18  O   UNL A   1      33.887  26.678  24.405  1.00  0.00    -0.249 OA
BRANCH  16  19
ATOM     19  C   UNL A   1      34.182  23.332  23.116  1.00  0.00     0.165 C 
BRANCH  19  20
ATOM     20  C   UNL A   1      34.756  22.227  23.969  1.00  0.00     0.027 A 
ATOM     21  C   UNL A   1      34.175  21.032  24.407  1.00  0.00    -0.033 A 
ATOM     22  C   UNL A   1      35.166  20.187  25.026  1.00  0.00     0.016 A 
ATOM     23  C   UNL A   1      36.415  20.753  25.079  1.00  0.00     0.065 A 
ATOM     24  S   UNL A   1      36.429  22.307  24.400  1.00  0.00    -0.147 S 
BRANCH  21  25
ATOM     25  C   UNL A   1      32.761  20.522  24.236  1.00  0.00     0.033 C 
ATOM     26  C   UNL A   1      32.587  19.042  23.953  1.00  0.00     0.009 C 
ENDBRANCH  21  25
ENDBRANCH  19  20
ENDBRANCH  16  19
ENDBRANCH   9  15
ENDBRANCH   6   8
ENDBRANCH   5   6
ENDBRANCH   4   5
ENDBRANCH   3   4
ENDBRANCH   2   3
ENDBRANCH   1   2
BRANCH   1  27
ATOM     27  C   UNL A   1      32.881  30.673  27.075  1.00  0.00     0.188 C 
BRANCH  27  28
ATOM     28  O   UNL A   1      31.586  31.258  26.973  1.00  0.00    -0.376 OA
BRANCH  28  29
ATOM     29  C   UNL A   1      31.558  32.663  26.733  1.00  0.00     0.202 C 
BRANCH  29  30
ATOM     30  C   UNL A   1      32.714  33.539  27.235  1.00  0.00     0.261 C 
BRANCH  30  31
ATOM     31  O   UNL A   1      32.345  34.327  28.359  1.00  0.00    -0.460 OA
BRANCH  31  32
ATOM     32  C   UNL A   1      33.286  35.230  28.726  1.00  0.00     0.338 C 
ATOM     33  O   UNL A   1      33.184  36.444  28.747  1.00  0.00    -0.246 OA
BRANCH  32  34
ATOM     34  C   UNL A   1      34.368  34.470  29.381  1.00  0.00     0.060 A 
ATOM     35  C   UNL A   1      35.667  34.651  28.889  1.00  0.00     0.016 A 
ATOM     36  C   UNL A   1      34.139  33.749  30.559  1.00  0.00     0.016 A 
ATOM     37  C   UNL A   1      36.746  34.107  29.575  1.00  0.00     0.010 A 
ATOM     38  C   UNL A   1      35.217  33.195  31.240  1.00  0.00     0.010 A 
ATOM     39  C   UNL A   1      36.517  33.353  30.735  1.00  0.00    -0.014 A 
BRANCH  39  40
ATOM     40  C   UNL A   1      37.590  32.493  31.265  1.00  0.00     0.031 A 
ATOM     41  C   UNL A   1      38.102  32.825  32.634  1.00  0.00     0.074 A 
ATOM     42  C   UNL A   1      38.101  31.479  30.547  1.00  0.00     0.049 A 
ATOM     43  N   UNL A   1      39.078  32.283  33.313  1.00  0.00    -0.248 NA
ATOM     44  C   UNL A   1      37.424  33.934  33.329  1.00  0.00     0.031 C 
ATOM     45  C   UNL A   1      37.656  31.069  29.218  1.00  0.00     0.029 A 
ATOM     46  N   UNL A   1      39.127  30.619  30.842  1.00  0.00    -0.354 N 
ATOM     47  C   UNL A   1      39.125  32.984  34.510  1.00  0.00     0.074 A 
ATOM     48  C   UNL A   1      38.111  34.009  34.456  1.00  0.00     0.031 C 
ATOM     49  C   UNL A   1      38.419  30.041  28.802  1.00  0.00     0.029 A 
ATOM     50  C   UNL A   1      39.419  29.744  29.826  1.00  0.00     0.049 A 
ATOM     51  H   UNL A   1      39.608  30.628  31.701  1.00  0.00     0.167 HD
ATOM     52  C   UNL A   1      39.943  32.781  35.566  1.00  0.00     0.037 A 
ATOM     53  C   UNL A   1      40.401  28.825  29.741  1.00  0.00     0.037 A 
ATOM     54  C   UNL A   1      40.968  31.778  35.595  1.00  0.00     0.049 A 
ATOM     55  C   UNL A   1      41.346  28.663  30.908  1.00  0.00     0.074 A 
ATOM     56  C   UNL A   1      41.861  31.482  36.607  1.00  0.00     0.029 A 
ATOM     57  N   UNL A   1      41.242  30.912  34.545  1.00  0.00    -0.354 N 
ATOM     58  N   UNL A   1      41.365  29.301  32.054  1.00  0.00    -0.248 NA
ATOM     59  C   UNL A   1      42.406  27.655  30.767  1.00  0.00     0.031 C 
ATOM     60  C   UNL A   1      42.706  30.464  36.151  1.00  0.00     0.029 A 
ATOM     61  C   UNL A   1      42.305  30.092  34.876  1.00  0.00     0.049 A 
ATOM     62  H   UNL A   1      40.751  30.884  33.692  1.00  0.00     0.167 HD
ATOM     63  C   UNL A   1      42.414  28.752  32.783  1.00  0.00     0.074 A 
ATOM     64  C   UNL A   1      43.001  27.723  31.950  1.00  0.00     0.031 C 
ATOM     65  C   UNL A   1      42.855  29.068  34.026  1.00  0.00     0.037 A 
BRANCH  52  66
ATOM     66  C   UNL A   1      39.772  33.691  36.744  1.00  0.00     0.064 A 
ATOM     67  C   UNL A   1      38.950  33.342  37.828  1.00  0.00     0.173 A 
ATOM     68  C   UNL A   1      40.419  34.934  36.782  1.00  0.00     0.173 A 
ATOM     69  F   UNL A   1      38.286  32.175  37.823  1.00  0.00    -0.203 F 
ATOM     70  C   UNL A   1      38.762  34.217  38.892  1.00  0.00     0.198 A 
ATOM     71  C   UNL A   1      40.249  35.795  37.862  1.00  0.00     0.198 A 
ATOM     72  F   UNL A   1      41.204  35.319  35.765  1.00  0.00    -0.203 F 
ATOM     73  F   UNL A   1      37.927  33.889  39.888  1.00  0.00    -0.200 F 
ATOM     74  C   UNL A   1      39.416  35.440  38.912  1.00  0.00     0.200 A 
ATOM     75  F   UNL A   1      40.883  36.975  37.881  1.00  0.00    -0.200 F 
ATOM     76  F   UNL A   1      39.231  36.283  39.937  1.00  0.00    -0.200 F 
ENDBRANCH  52  66
BRANCH  53  77
ATOM     77  C   UNL A   1      40.549  27.993  28.519  1.00  0.00     0.064 A 
ATOM     78  C   UNL A   1      39.990  26.708  28.447  1.00  0.00     0.173 A 
ATOM     79  C   UNL A   1      41.273  28.450  27.408  1.00  0.00     0.173 A 
ATOM     80  F   UNL A   1      39.310  26.215  29.492  1.00  0.00    -0.203 F 
ATOM     81  C   UNL A   1      40.168  25.906  27.321  1.00  0.00     0.198 A 
ATOM     82  C   UNL A   1      41.429  27.656  26.272  1.00  0.00     0.198 A 
ATOM     83  F   UNL A   1      41.830  29.669  27.425  1.00  0.00    -0.203 F 
ATOM     84  F   UNL A   1      39.665  24.664  27.299  1.00  0.00    -0.200 F 
ATOM     85  C   UNL A   1      40.884  26.382  26.233  1.00  0.00     0.200 A 
ATOM     86  F   UNL A   1      42.113  28.124  25.219  1.00  0.00    -0.200 F 
ATOM     87  F   UNL A   1      41.056  25.610  25.151  1.00  0.00    -0.200 F 
ENDBRANCH  53  77
BRANCH  65  88
ATOM     88  C   UNL A   1      43.997  28.266  34.575  1.00  0.00     0.064 A 
ATOM     89  C   UNL A   1      43.788  27.066  35.267  1.00  0.00     0.173 A 
ATOM     90  C   UNL A   1      45.320  28.674  34.344  1.00  0.00     0.173 A 
ATOM     91  F   UNL A   1      42.540  26.641  35.521  1.00  0.00    -0.203 F 
ATOM     92  C   UNL A   1      44.864  26.312  35.728  1.00  0.00     0.198 A 
ATOM     93  C   UNL A   1      46.392  27.902  34.780  1.00  0.00     0.198 A 
ATOM     94  F   UNL A   1      45.571  29.810  33.676  1.00  0.00    -0.203 F 
ATOM     95  F   UNL A   1      44.641  25.187  36.424  1.00  0.00    -0.200 F 
ATOM     96  C   UNL A   1      46.163  26.726  35.477  1.00  0.00     0.200 A 
ATOM     97  F   UNL A   1      47.647  28.295  34.522  1.00  0.00    -0.200 F 
ATOM     98  F   UNL A   1      47.197  25.992  35.910  1.00  0.00    -0.200 F 
ENDBRANCH  65  88
ENDBRANCH  39  40
ENDBRANCH  32  34
ENDBRANCH  31  32
ENDBRANCH  30  31
ENDBRANCH  29  30
ENDBRANCH  28  29
ENDBRANCH  27  28
ENDBRANCH   1  27
TORSDOF 21
ENDMDL
MODEL 3
REMARK VINA RESULT:     -10.6      5.423     10.579
REMARK SMILES CCc1ccsc1CNC(=O)N1[C@@H]2CC[C@H]1[C@H](C(=O)OCCOCCOCCOC(=O)c1ccc(-c3c4nc(c(-c5c(F)c(F)c(F)c(F)c5F)c5ccc([nH]5)c(-c5c(F)c(F)c(F)c(F)c5F)c5nc(c(-c6c(F)c(F)c(F)c(F)c6F)c6ccc3[nH]6)C=C5)C=C4)cc1)C2
REMARK SMILES IDX 24 1 23 2 22 3 21 4 20 5 18 6 19 7 17 8 12 9 13 10 16 11
REMARK SMILES IDX 14 12 95 13 15 14 10 15 9 16 11 18 8 19 7 20 3 21 4 22 5 23
REMARK SMILES IDX 6 24 2 25 1 26 25 27 26 28 27 29 28 30 29 31 30 32 31 33
REMARK SMILES IDX 32 34 33 35 94 36 34 37 93 38 35 39 36 40 37 41 87 42 38 43
REMARK SMILES IDX 92 44 86 45 88 46 39 47 91 48 85 49 84 50 40 52 72 53 52 54
REMARK SMILES IDX 71 55 53 56 56 57 70 58 89 59 54 60 55 61 69 63 90 64 57 65
REMARK SMILES IDX 41 66 42 67 50 68 43 69 44 70 48 71 51 72 45 73 46 74 49 75
REMARK SMILES IDX 47 76 73 77 74 78 82 79 75 80 76 81 80 82 83 83 77 84 78 85
REMARK SMILES IDX 81 86 79 87 58 88 59 89 67 90 60 91 61 92 65 93 68 94 62 95
REMARK SMILES IDX 63 96 66 97 64 98
REMARK H PARENT 9 17 88 51 56 62
REMARK Flexibility Score: inf
ROOT
ATOM      1  C   UNL A   1      35.791  32.717  28.070  1.00  0.00     0.188 C 
ENDROOT
BRANCH   1   2
ATOM      2  O   UNL A   1      35.076  31.492  28.031  1.00  0.00    -0.376 OA
BRANCH   2   3
ATOM      3  C   UNL A   1      33.650  31.527  27.916  1.00  0.00     0.202 C 
BRANCH   3   4
ATOM      4  C   UNL A   1      32.996  30.738  26.785  1.00  0.00     0.261 C 
BRANCH   4   5
ATOM      5  O   UNL A   1      31.829  30.024  27.248  1.00  0.00    -0.463 OA
BRANCH   5   6
ATOM      6  C   UNL A   1      31.990  28.675  27.251  1.00  0.00     0.311 C 
ATOM      7  O   UNL A   1      31.642  27.951  28.180  1.00  0.00    -0.252 OA
BRANCH   6   8
ATOM      8  C   UNL A   1      32.466  28.100  25.934  1.00  0.00     0.124 C 
ATOM      9  N   UNL A   1      31.326  26.147  25.405  1.00  0.00    -0.318 N 
ATOM     10  C   UNL A   1      31.164  26.991  24.237  1.00  0.00     0.088 C 
ATOM     11  C   UNL A   1      32.647  26.575  25.823  1.00  0.00     0.101 C 
ATOM     12  C   UNL A   1      32.409  26.621  23.416  1.00  0.00     0.027 C 
ATOM     13  C   UNL A   1      31.392  28.378  24.849  1.00  0.00     0.042 C 
ATOM     14  C   UNL A   1      33.438  26.292  24.518  1.00  0.00     0.028 C 
BRANCH   9  15
ATOM     15  C   UNL A   1      30.521  25.095  25.663  1.00  0.00     0.318 C 
ATOM     16  N   UNL A   1      30.656  23.907  25.052  1.00  0.00    -0.333 N 
ATOM     17  H   UNL A   1      29.904  23.297  25.233  1.00  0.00     0.165 HD
ATOM     18  O   UNL A   1      29.619  25.178  26.502  1.00  0.00    -0.249 OA
BRANCH  16  19
ATOM     19  C   UNL A   1      31.657  23.323  24.189  1.00  0.00     0.165 C 
BRANCH  19  20
ATOM     20  C   UNL A   1      32.844  22.773  24.943  1.00  0.00     0.027 A 
ATOM     21  C   UNL A   1      34.168  22.595  24.531  1.00  0.00    -0.033 A 
ATOM     22  C   UNL A   1      35.000  22.232  25.652  1.00  0.00     0.016 A 
ATOM     23  C   UNL A   1      34.309  22.107  26.831  1.00  0.00     0.065 A 
ATOM     24  S   UNL A   1      32.654  22.411  26.623  1.00  0.00    -0.147 S 
BRANCH  21  25
ATOM     25  C   UNL A   1      34.800  22.815  23.175  1.00  0.00     0.033 C 
ATOM     26  C   UNL A   1      36.310  22.956  23.126  1.00  0.00     0.009 C 
ENDBRANCH  21  25
ENDBRANCH  19  20
ENDBRANCH  16  19
ENDBRANCH   9  15
ENDBRANCH   6   8
ENDBRANCH   5   6
ENDBRANCH   4   5
ENDBRANCH   3   4
ENDBRANCH   2   3
ENDBRANCH   1   2
BRANCH   1  27
ATOM     27  C   UNL A   1      35.123  33.855  28.843  1.00  0.00     0.188 C 
BRANCH  27  28
ATOM     28  O   UNL A   1      35.365  33.999  30.239  1.00  0.00    -0.376 OA
BRANCH  28  29
ATOM     29  C   UNL A   1      34.509  33.250  31.097  1.00  0.00     0.202 C 
BRANCH  29  30
ATOM     30  C   UNL A   1      34.985  32.889  32.511  1.00  0.00     0.261 C 
BRANCH  30  31
ATOM     31  O   UNL A   1      35.687  31.654  32.546  1.00  0.00    -0.460 OA
BRANCH  31  32
ATOM     32  C   UNL A   1      36.853  31.707  33.232  1.00  0.00     0.338 C 
ATOM     33  O   UNL A   1      37.005  31.832  34.435  1.00  0.00    -0.246 OA
BRANCH  32  34
ATOM     34  C   UNL A   1      37.914  31.290  32.295  1.00  0.00     0.060 A 
ATOM     35  C   UNL A   1      39.023  30.626  32.836  1.00  0.00     0.016 A 
ATOM     36  C   UNL A   1      37.737  31.384  30.910  1.00  0.00     0.016 A 
ATOM     37  C   UNL A   1      39.964  30.052  31.989  1.00  0.00     0.010 A 
ATOM     38  C   UNL A   1      38.684  30.819  30.062  1.00  0.00     0.010 A 
ATOM     39  C   UNL A   1      39.809  30.176  30.601  1.00  0.00    -0.014 A 
BRANCH  39  40
ATOM     40  C   UNL A   1      40.951  29.889  29.715  1.00  0.00     0.031 A 
ATOM     41  C   UNL A   1      41.013  28.512  29.125  1.00  0.00     0.074 A 
ATOM     42  C   UNL A   1      41.901  30.806  29.470  1.00  0.00     0.049 A 
ATOM     43  N   UNL A   1      41.932  27.969  28.373  1.00  0.00    -0.248 NA
ATOM     44  C   UNL A   1      39.884  27.619  29.440  1.00  0.00     0.031 C 
ATOM     45  C   UNL A   1      41.917  32.173  29.982  1.00  0.00     0.029 A 
ATOM     46  N   UNL A   1      43.053  30.706  28.732  1.00  0.00    -0.354 N 
ATOM     47  C   UNL A   1      41.488  26.678  28.125  1.00  0.00     0.074 A 
ATOM     48  C   UNL A   1      40.242  26.502  28.831  1.00  0.00     0.031 C 
ATOM     49  C   UNL A   1      43.037  32.785  29.555  1.00  0.00     0.029 A 
ATOM     50  C   UNL A   1      43.824  31.841  28.764  1.00  0.00     0.049 A 
ATOM     51  H   UNL A   1      43.302  29.898  28.228  1.00  0.00     0.167 HD
ATOM     52  C   UNL A   1      42.071  25.723  27.367  1.00  0.00     0.037 A 
ATOM     53  C   UNL A   1      45.038  32.068  28.225  1.00  0.00     0.037 A 
ATOM     54  C   UNL A   1      43.326  25.901  26.694  1.00  0.00     0.049 A 
ATOM     55  C   UNL A   1      45.701  30.962  27.438  1.00  0.00     0.074 A 
ATOM     56  C   UNL A   1      44.016  25.005  25.901  1.00  0.00     0.029 A 
ATOM     57  N   UNL A   1      44.085  27.062  26.752  1.00  0.00    -0.354 N 
ATOM     58  N   UNL A   1      45.262  29.755  27.173  1.00  0.00    -0.248 NA
ATOM     59  C   UNL A   1      47.027  31.252  26.875  1.00  0.00     0.031 C 
ATOM     60  C   UNL A   1      45.218  25.609  25.516  1.00  0.00     0.029 A 
ATOM     61  C   UNL A   1      45.250  26.899  26.026  1.00  0.00     0.049 A 
ATOM     62  H   UNL A   1      43.831  27.879  27.238  1.00  0.00     0.167 HD
ATOM     63  C   UNL A   1      46.239  29.153  26.390  1.00  0.00     0.074 A 
ATOM     64  C   UNL A   1      47.290  30.133  26.216  1.00  0.00     0.031 C 
ATOM     65  C   UNL A   1      46.269  27.904  25.862  1.00  0.00     0.037 A 
BRANCH  52  66
ATOM     66  C   UNL A   1      41.364  24.406  27.267  1.00  0.00     0.064 A 
ATOM     67  C   UNL A   1      41.868  23.253  27.890  1.00  0.00     0.173 A 
ATOM     68  C   UNL A   1      40.182  24.289  26.522  1.00  0.00     0.173 A 
ATOM     69  F   UNL A   1      43.013  23.309  28.589  1.00  0.00    -0.203 F 
ATOM     70  C   UNL A   1      41.226  22.027  27.749  1.00  0.00     0.198 A 
ATOM     71  C   UNL A   1      39.529  23.066  26.407  1.00  0.00     0.198 A 
ATOM     72  F   UNL A   1      39.668  25.359  25.897  1.00  0.00    -0.203 F 
ATOM     73  F   UNL A   1      41.757  20.928  28.304  1.00  0.00    -0.200 F 
ATOM     74  C   UNL A   1      40.056  21.935  27.012  1.00  0.00     0.200 A 
ATOM     75  F   UNL A   1      38.396  22.978  25.696  1.00  0.00    -0.200 F 
ATOM     76  F   UNL A   1      39.441  20.752  26.875  1.00  0.00    -0.200 F 
ENDBRANCH  52  66
BRANCH  53  77
ATOM     77  C   UNL A   1      45.709  33.381  28.409  1.00  0.00     0.064 A 
ATOM     78  C   UNL A   1      45.613  34.385  27.433  1.00  0.00     0.173 A 
ATOM     79  C   UNL A   1      46.483  33.652  29.547  1.00  0.00     0.173 A 
ATOM     80  F   UNL A   1      44.905  34.166  26.316  1.00  0.00    -0.203 F 
ATOM     81  C   UNL A   1      46.280  35.600  27.580  1.00  0.00     0.198 A 
ATOM     82  C   UNL A   1      47.130  34.877  29.704  1.00  0.00     0.198 A 
ATOM     83  F   UNL A   1      46.611  32.726  30.508  1.00  0.00    -0.203 F 
ATOM     84  F   UNL A   1      46.210  36.522  26.610  1.00  0.00    -0.200 F 
ATOM     85  C   UNL A   1      47.035  35.847  28.717  1.00  0.00     0.200 A 
ATOM     86  F   UNL A   1      47.850  35.116  30.808  1.00  0.00    -0.200 F 
ATOM     87  F   UNL A   1      47.678  37.014  28.857  1.00  0.00    -0.200 F 
ENDBRANCH  53  77
BRANCH  65  88
ATOM     88  C   UNL A   1      47.453  27.543  25.014  1.00  0.00     0.064 A 
ATOM     89  C   UNL A   1      47.479  27.805  23.638  1.00  0.00     0.173 A 
ATOM     90  C   UNL A   1      48.600  26.990  25.604  1.00  0.00     0.173 A 
ATOM     91  F   UNL A   1      46.402  28.324  23.028  1.00  0.00    -0.203 F 
ATOM     92  C   UNL A   1      48.606  27.506  22.877  1.00  0.00     0.198 A 
ATOM     93  C   UNL A   1      49.734  26.720  24.845  1.00  0.00     0.198 A 
ATOM     94  F   UNL A   1      48.627  26.731  26.920  1.00  0.00    -0.203 F 
ATOM     95  F   UNL A   1      48.595  27.727  21.555  1.00  0.00    -0.200 F 
ATOM     96  C   UNL A   1      49.734  26.972  23.482  1.00  0.00     0.200 A 
ATOM     97  F   UNL A   1      50.829  26.220  25.434  1.00  0.00    -0.200 F 
ATOM     98  F   UNL A   1      50.821  26.697  22.750  1.00  0.00    -0.200 F 
ENDBRANCH  65  88
ENDBRANCH  39  40
ENDBRANCH  32  34
ENDBRANCH  31  32
ENDBRANCH  30  31
ENDBRANCH  29  30
ENDBRANCH  28  29
ENDBRANCH  27  28
ENDBRANCH   1  27
TORSDOF 21
ENDMDL
