MODEL 1
REMARK VINA RESULT:     -11.0      0.000      0.000
REMARK SMILES O=C(OCCOCCOCCOC(=O)c1cccc(Nc2ccc([N+](=O)[O-])cc2)c1)c1ccc(-c2c3nc(c(-c4c(F)c(F)c(F)c(F)c4F)c4ccc([nH]4)c(-c4c(F)c(F)c(F)c(F)c4F)c4nc(c(-c5c(F)c(F)c(F)c(F)c5F)c5ccc2[nH]5)C=C4)C=C3)cc1
REMARK SMILES IDX 8 1 7 2 6 3 5 4 4 5 3 6 2 7 1 8 31 9 32 10 93 11 33 12 92 13
REMARK SMILES IDX 34 14 35 15 36 16 86 17 37 18 91 19 85 20 87 21 38 22 90 23
REMARK SMILES IDX 84 24 83 25 39 27 71 28 51 29 70 30 52 31 55 32 69 33 88 34
REMARK SMILES IDX 53 35 54 36 68 38 89 39 56 40 40 41 41 42 49 43 42 44 43 45
REMARK SMILES IDX 47 46 50 47 44 48 45 49 48 50 46 51 72 52 73 53 81 54 74 55
REMARK SMILES IDX 75 56 79 57 82 58 76 59 77 60 80 61 78 62 57 63 58 64 66 65
REMARK SMILES IDX 59 66 60 67 64 68 67 69 61 70 62 71 65 72 63 73 9 74 10 75
REMARK SMILES IDX 11 76 12 77 13 78 14 79 15 80 16 81 30 82 17 83 19 84 18 85
REMARK SMILES IDX 20 86 21 88 22 89 29 90 23 91 28 92 24 93 25 94 26 95 27 96
REMARK H PARENT 87 26 55 37 20 87
REMARK Flexibility Score: inf
ROOT
ATOM      1  C   UNL A   1      45.393  18.868  25.340  1.00  0.00     0.188 C 
ENDROOT
BRANCH   1   2
ATOM      2  C   UNL A   1      45.503  19.949  24.260  1.00  0.00     0.188 C 
BRANCH   2   3
ATOM      3  O   UNL A   1      44.337  20.786  24.230  1.00  0.00    -0.376 OA
BRANCH   3   4
ATOM      4  C   UNL A   1      44.559  22.052  23.596  1.00  0.00     0.202 C 
BRANCH   4   5
ATOM      5  C   UNL A   1      45.264  23.082  24.485  1.00  0.00     0.261 C 
BRANCH   5   6
ATOM      6  O   UNL A   1      44.403  24.187  24.809  1.00  0.00    -0.460 OA
BRANCH   6   7
ATOM      7  C   UNL A   1      44.759  25.437  25.193  1.00  0.00     0.338 C 
ATOM      8  O   UNL A   1      45.703  25.981  24.621  1.00  0.00    -0.246 OA
BRANCH   7   9
ATOM      9  C   UNL A   1      44.031  26.232  26.231  1.00  0.00     0.060 A 
ATOM     10  C   UNL A   1      44.084  27.619  26.373  1.00  0.00     0.016 A 
ATOM     11  C   UNL A   1      43.186  25.517  27.099  1.00  0.00     0.016 A 
ATOM     12  C   UNL A   1      43.438  28.262  27.427  1.00  0.00     0.010 A 
ATOM     13  C   UNL A   1      42.481  26.163  28.122  1.00  0.00     0.010 A 
ATOM     14  C   UNL A   1      42.648  27.538  28.321  1.00  0.00    -0.014 A 
BRANCH  14  15
ATOM     15  C   UNL A   1      42.124  28.219  29.525  1.00  0.00     0.031 A 
ATOM     16  C   UNL A   1      40.797  28.921  29.440  1.00  0.00     0.074 A 
ATOM     17  C   UNL A   1      42.762  28.103  30.704  1.00  0.00     0.049 A 
ATOM     18  N   UNL A   1      40.148  29.589  30.358  1.00  0.00    -0.248 NA
ATOM     19  C   UNL A   1      40.096  28.844  28.146  1.00  0.00     0.031 C 
ATOM     20  C   UNL A   1      44.006  27.366  30.929  1.00  0.00     0.029 A 
ATOM     21  N   UNL A   1      42.426  28.575  31.946  1.00  0.00    -0.354 N 
ATOM     22  C   UNL A   1      38.977  30.023  29.751  1.00  0.00     0.074 A 
ATOM     23  C   UNL A   1      39.007  29.558  28.382  1.00  0.00     0.031 C 
ATOM     24  C   UNL A   1      44.312  27.407  32.237  1.00  0.00     0.029 A 
ATOM     25  C   UNL A   1      43.309  28.205  32.929  1.00  0.00     0.049 A 
ATOM     26  H   UNL A   1      41.629  29.126  32.116  1.00  0.00     0.167 HD
ATOM     27  C   UNL A   1      37.966  30.744  30.290  1.00  0.00     0.037 A 
ATOM     28  C   UNL A   1      43.308  28.503  34.241  1.00  0.00     0.037 A 
ATOM     29  C   UNL A   1      37.943  31.202  31.652  1.00  0.00     0.049 A 
ATOM     30  C   UNL A   1      42.236  29.400  34.785  1.00  0.00     0.074 A 
ATOM     31  C   UNL A   1      36.995  31.979  32.292  1.00  0.00     0.029 A 
ATOM     32  N   UNL A   1      38.925  30.913  32.590  1.00  0.00    -0.354 N 
ATOM     33  N   UNL A   1      41.187  29.896  34.179  1.00  0.00    -0.248 NA
ATOM     34  C   UNL A   1      42.371  29.801  36.191  1.00  0.00     0.031 C 
ATOM     35  C   UNL A   1      37.420  32.189  33.610  1.00  0.00     0.029 A 
ATOM     36  C   UNL A   1      38.612  31.509  33.800  1.00  0.00     0.049 A 
ATOM     37  H   UNL A   1      39.725  30.366  32.419  1.00  0.00     0.167 HD
ATOM     38  C   UNL A   1      40.538  30.673  35.125  1.00  0.00     0.074 A 
ATOM     39  C   UNL A   1      41.305  30.570  36.351  1.00  0.00     0.031 C 
ATOM     40  C   UNL A   1      39.407  31.407  34.994  1.00  0.00     0.037 A 
BRANCH  27  41
ATOM     41  C   UNL A   1      36.831  31.114  29.385  1.00  0.00     0.064 A 
ATOM     42  C   UNL A   1      35.846  30.185  29.017  1.00  0.00     0.173 A 
ATOM     43  C   UNL A   1      36.731  32.416  28.873  1.00  0.00     0.173 A 
ATOM     44  F   UNL A   1      35.912  28.921  29.460  1.00  0.00    -0.203 F 
ATOM     45  C   UNL A   1      34.816  30.542  28.150  1.00  0.00     0.198 A 
ATOM     46  C   UNL A   1      35.687  32.775  28.025  1.00  0.00     0.198 A 
ATOM     47  F   UNL A   1      37.651  33.339  29.191  1.00  0.00    -0.203 F 
ATOM     48  F   UNL A   1      33.913  29.625  27.773  1.00  0.00    -0.200 F 
ATOM     49  C   UNL A   1      34.734  31.836  27.659  1.00  0.00     0.200 A 
ATOM     50  F   UNL A   1      35.609  34.026  27.553  1.00  0.00    -0.200 F 
ATOM     51  F   UNL A   1      33.745  32.175  26.820  1.00  0.00    -0.200 F 
ENDBRANCH  27  41
BRANCH  28  52
ATOM     52  C   UNL A   1      44.393  28.026  35.126  1.00  0.00     0.064 A 
ATOM     53  C   UNL A   1      44.331  26.773  35.747  1.00  0.00     0.173 A 
ATOM     54  C   UNL A   1      45.475  28.861  35.428  1.00  0.00     0.173 A 
ATOM     55  F   UNL A   1      43.286  25.964  35.522  1.00  0.00    -0.203 F 
ATOM     56  C   UNL A   1      45.322  26.371  36.641  1.00  0.00     0.198 A 
ATOM     57  C   UNL A   1      46.467  28.455  36.316  1.00  0.00     0.198 A 
ATOM     58  F   UNL A   1      45.537  30.089  34.893  1.00  0.00    -0.203 F 
ATOM     59  F   UNL A   1      45.227  25.183  37.254  1.00  0.00    -0.200 F 
ATOM     60  C   UNL A   1      46.391  27.210  36.920  1.00  0.00     0.200 A 
ATOM     61  F   UNL A   1      47.478  29.282  36.615  1.00  0.00    -0.200 F 
ATOM     62  F   UNL A   1      47.335  26.829  37.791  1.00  0.00    -0.200 F 
ENDBRANCH  28  52
BRANCH  40  63
ATOM     63  C   UNL A   1      38.938  32.137  36.212  1.00  0.00     0.064 A 
ATOM     64  C   UNL A   1      38.115  31.517  37.163  1.00  0.00     0.173 A 
ATOM     65  C   UNL A   1      39.326  33.466  36.433  1.00  0.00     0.173 A 
ATOM     66  F   UNL A   1      37.703  30.254  36.978  1.00  0.00    -0.203 F 
ATOM     67  C   UNL A   1      37.680  32.213  38.286  1.00  0.00     0.198 A 
ATOM     68  C   UNL A   1      38.905  34.151  37.567  1.00  0.00     0.198 A 
ATOM     69  F   UNL A   1      40.108  34.098  35.545  1.00  0.00    -0.203 F 
ATOM     70  F   UNL A   1      36.859  31.619  39.163  1.00  0.00    -0.200 F 
ATOM     71  C   UNL A   1      38.079  33.527  38.489  1.00  0.00     0.200 A 
ATOM     72  F   UNL A   1      39.294  35.418  37.765  1.00  0.00    -0.200 F 
ATOM     73  F   UNL A   1      37.657  34.195  39.571  1.00  0.00    -0.200 F 
ENDBRANCH  40  63
ENDBRANCH  14  15
ENDBRANCH   7   9
ENDBRANCH   6   7
ENDBRANCH   5   6
ENDBRANCH   4   5
ENDBRANCH   3   4
ENDBRANCH   2   3
ENDBRANCH   1   2
BRANCH   1  74
ATOM     74  O   UNL A   1      44.105  18.263  25.470  1.00  0.00    -0.376 OA
BRANCH  74  75
ATOM     75  C   UNL A   1      43.014  19.128  25.776  1.00  0.00     0.202 C 
BRANCH  75  76
ATOM     76  C   UNL A   1      42.373  18.950  27.155  1.00  0.00     0.261 C 
BRANCH  76  77
ATOM     77  O   UNL A   1      41.398  19.959  27.480  1.00  0.00    -0.460 OA
BRANCH  77  78
ATOM     78  C   UNL A   1      40.430  20.109  26.548  1.00  0.00     0.338 C 
ATOM     79  O   UNL A   1      40.042  19.262  25.749  1.00  0.00    -0.246 OA
BRANCH  78  80
ATOM     80  C   UNL A   1      39.915  21.488  26.486  1.00  0.00     0.062 A 
ATOM     81  C   UNL A   1      40.420  22.534  27.256  1.00  0.00     0.016 A 
ATOM     82  C   UNL A   1      38.755  21.672  25.727  1.00  0.00     0.041 A 
ATOM     83  C   UNL A   1      39.726  23.745  27.289  1.00  0.00     0.003 A 
ATOM     84  C   UNL A   1      38.038  22.873  25.763  1.00  0.00     0.039 A 
ATOM     85  C   UNL A   1      38.539  23.906  26.557  1.00  0.00     0.026 A 
BRANCH  84  86
ATOM     86  N   UNL A   1      36.845  22.931  25.023  1.00  0.00    -0.355 N 
ATOM     87  H   UNL A   1      36.921  22.521  24.130  1.00  0.00     0.167 HD
BRANCH  86  88
ATOM     88  C   UNL A   1      35.572  23.450  25.288  1.00  0.00     0.039 A 
ATOM     89  C   UNL A   1      34.800  22.812  26.275  1.00  0.00     0.033 A 
ATOM     90  C   UNL A   1      35.053  24.591  24.671  1.00  0.00     0.033 A 
ATOM     91  C   UNL A   1      33.538  23.288  26.631  1.00  0.00     0.088 A 
ATOM     92  C   UNL A   1      33.785  25.077  25.011  1.00  0.00     0.088 A 
ATOM     93  C   UNL A   1      33.030  24.420  25.989  1.00  0.00     0.269 A 
BRANCH  93  94
ATOM     94  N   UNL A   1      31.688  24.904  26.329  1.00  0.00     0.062 N 
ATOM     95  O   UNL A   1      31.126  24.400  27.313  1.00  0.00    -0.258 OA
ATOM     96  O   UNL A   1      31.195  25.788  25.615  1.00  0.00    -0.258 OA
ENDBRANCH  93  94
ENDBRANCH  86  88
ENDBRANCH  84  86
ENDBRANCH  78  80
ENDBRANCH  77  78
ENDBRANCH  76  77
ENDBRANCH  75  76
ENDBRANCH  74  75
ENDBRANCH   1  74
TORSDOF 20
ENDMDL
MODEL 2
REMARK VINA RESULT:     -10.8      4.829     10.053
REMARK SMILES O=C(OCCOCCOCCOC(=O)c1cccc(Nc2ccc([N+](=O)[O-])cc2)c1)c1ccc(-c2c3nc(c(-c4c(F)c(F)c(F)c(F)c4F)c4ccc([nH]4)c(-c4c(F)c(F)c(F)c(F)c4F)c4nc(c(-c5c(F)c(F)c(F)c(F)c5F)c5ccc2[nH]5)C=C4)C=C3)cc1
REMARK SMILES IDX 8 1 7 2 6 3 5 4 4 5 3 6 2 7 1 8 31 9 32 10 93 11 33 12 92 13
REMARK SMILES IDX 34 14 35 15 36 16 86 17 37 18 91 19 85 20 87 21 38 22 90 23
REMARK SMILES IDX 84 24 83 25 39 27 71 28 51 29 70 30 52 31 55 32 69 33 88 34
REMARK SMILES IDX 53 35 54 36 68 38 89 39 56 40 40 41 41 42 49 43 42 44 43 45
REMARK SMILES IDX 47 46 50 47 44 48 45 49 48 50 46 51 72 52 73 53 81 54 74 55
REMARK SMILES IDX 75 56 79 57 82 58 76 59 77 60 80 61 78 62 57 63 58 64 66 65
REMARK SMILES IDX 59 66 60 67 64 68 67 69 61 70 62 71 65 72 63 73 9 74 10 75
REMARK SMILES IDX 11 76 12 77 13 78 14 79 15 80 16 81 30 82 17 83 19 84 18 85
REMARK SMILES IDX 20 86 21 88 22 89 29 90 23 91 28 92 24 93 25 94 26 95 27 96
REMARK H PARENT 87 26 55 37 20 87
REMARK Flexibility Score: inf
ROOT
ATOM      1  C   UNL A   1      34.320  32.952  28.480  1.00  0.00     0.188 C 
ENDROOT
BRANCH   1   2
ATOM      2  C   UNL A   1      32.962  33.285  27.854  1.00  0.00     0.188 C 
BRANCH   2   3
ATOM      3  O   UNL A   1      32.560  34.631  28.151  1.00  0.00    -0.376 OA
BRANCH   3   4
ATOM      4  C   UNL A   1      33.250  35.199  29.271  1.00  0.00     0.202 C 
BRANCH   4   5
ATOM      5  C   UNL A   1      32.593  36.464  29.835  1.00  0.00     0.261 C 
BRANCH   5   6
ATOM      6  O   UNL A   1      32.775  36.571  31.257  1.00  0.00    -0.460 OA
BRANCH   6   7
ATOM      7  C   UNL A   1      32.819  35.570  32.171  1.00  0.00     0.338 C 
ATOM      8  O   UNL A   1      31.792  35.295  32.791  1.00  0.00    -0.246 OA
BRANCH   7   9
ATOM      9  C   UNL A   1      34.028  34.728  32.429  1.00  0.00     0.060 A 
ATOM     10  C   UNL A   1      34.014  33.408  32.882  1.00  0.00     0.016 A 
ATOM     11  C   UNL A   1      35.277  35.307  32.141  1.00  0.00     0.016 A 
ATOM     12  C   UNL A   1      35.196  32.734  33.178  1.00  0.00     0.010 A 
ATOM     13  C   UNL A   1      36.471  34.614  32.374  1.00  0.00     0.010 A 
ATOM     14  C   UNL A   1      36.433  33.337  32.945  1.00  0.00    -0.014 A 
BRANCH  14  15
ATOM     15  C   UNL A   1      37.658  32.666  33.433  1.00  0.00     0.031 A 
ATOM     16  C   UNL A   1      38.350  31.679  32.534  1.00  0.00     0.074 A 
ATOM     17  C   UNL A   1      38.211  33.028  34.605  1.00  0.00     0.049 A 
ATOM     18  N   UNL A   1      39.426  30.967  32.751  1.00  0.00    -0.248 NA
ATOM     19  C   UNL A   1      37.758  31.480  31.200  1.00  0.00     0.031 C 
ATOM     20  C   UNL A   1      37.682  34.043  35.517  1.00  0.00     0.029 A 
ATOM     21  N   UNL A   1      39.366  32.606  35.211  1.00  0.00    -0.354 N 
ATOM     22  C   UNL A   1      39.628  30.228  31.593  1.00  0.00     0.074 A 
ATOM     23  C   UNL A   1      38.559  30.563  30.679  1.00  0.00     0.031 C 
ATOM     24  C   UNL A   1      38.528  34.190  36.551  1.00  0.00     0.029 A 
ATOM     25  C   UNL A   1      39.632  33.251  36.392  1.00  0.00     0.049 A 
ATOM     26  H   UNL A   1      39.947  31.907  34.834  1.00  0.00     0.167 HD
ATOM     27  C   UNL A   1      40.620  29.350  31.317  1.00  0.00     0.037 A 
ATOM     28  C   UNL A   1      40.650  33.080  37.255  1.00  0.00     0.037 A 
ATOM     29  C   UNL A   1      41.681  29.023  32.229  1.00  0.00     0.049 A 
ATOM     30  C   UNL A   1      41.671  32.018  36.975  1.00  0.00     0.074 A 
ATOM     31  C   UNL A   1      42.712  28.113  32.076  1.00  0.00     0.029 A 
ATOM     32  N   UNL A   1      41.846  29.608  33.477  1.00  0.00    -0.354 N 
ATOM     33  N   UNL A   1      41.796  31.246  35.925  1.00  0.00    -0.248 NA
ATOM     34  C   UNL A   1      42.674  31.785  38.023  1.00  0.00     0.031 C 
ATOM     35  C   UNL A   1      43.481  28.123  33.245  1.00  0.00     0.029 A 
ATOM     36  C   UNL A   1      42.953  29.069  34.110  1.00  0.00     0.049 A 
ATOM     37  H   UNL A   1      41.261  30.303  33.857  1.00  0.00     0.167 HD
ATOM     38  C   UNL A   1      42.887  30.431  36.184  1.00  0.00     0.074 A 
ATOM     39  C   UNL A   1      43.397  30.814  37.486  1.00  0.00     0.031 C 
ATOM     40  C   UNL A   1      43.420  29.453  35.415  1.00  0.00     0.037 A 
BRANCH  27  41
ATOM     41  C   UNL A   1      40.570  28.654  29.991  1.00  0.00     0.064 A 
ATOM     42  C   UNL A   1      41.280  29.131  28.878  1.00  0.00     0.173 A 
ATOM     43  C   UNL A   1      39.794  27.498  29.829  1.00  0.00     0.173 A 
ATOM     44  F   UNL A   1      42.016  30.248  28.976  1.00  0.00    -0.203 F 
ATOM     45  C   UNL A   1      41.195  28.487  27.647  1.00  0.00     0.198 A 
ATOM     46  C   UNL A   1      39.729  26.843  28.602  1.00  0.00     0.198 A 
ATOM     47  F   UNL A   1      39.091  27.005  30.861  1.00  0.00    -0.203 F 
ATOM     48  F   UNL A   1      41.843  28.987  26.585  1.00  0.00    -0.200 F 
ATOM     49  C   UNL A   1      40.424  27.342  27.510  1.00  0.00     0.200 A 
ATOM     50  F   UNL A   1      38.986  25.736  28.472  1.00  0.00    -0.200 F 
ATOM     51  F   UNL A   1      40.340  26.727  26.322  1.00  0.00    -0.200 F 
ENDBRANCH  27  41
BRANCH  28  52
ATOM     52  C   UNL A   1      40.723  33.866  38.505  1.00  0.00     0.064 A 
ATOM     53  C   UNL A   1      41.548  34.991  38.614  1.00  0.00     0.173 A 
ATOM     54  C   UNL A   1      40.022  33.448  39.642  1.00  0.00     0.173 A 
ATOM     55  F   UNL A   1      42.273  35.395  37.560  1.00  0.00    -0.203 F 
ATOM     56  C   UNL A   1      41.667  35.674  39.822  1.00  0.00     0.198 A 
ATOM     57  C   UNL A   1      40.137  34.135  40.847  1.00  0.00     0.198 A 
ATOM     58  F   UNL A   1      39.266  32.343  39.588  1.00  0.00    -0.203 F 
ATOM     59  F   UNL A   1      42.491  36.728  39.917  1.00  0.00    -0.200 F 
ATOM     60  C   UNL A   1      40.958  35.248  40.936  1.00  0.00     0.200 A 
ATOM     61  F   UNL A   1      39.482  33.700  41.932  1.00  0.00    -0.200 F 
ATOM     62  F   UNL A   1      41.085  35.897  42.102  1.00  0.00    -0.200 F 
ENDBRANCH  28  52
BRANCH  40  63
ATOM     63  C   UNL A   1      44.620  28.749  35.964  1.00  0.00     0.064 A 
ATOM     64  C   UNL A   1      45.914  29.251  35.770  1.00  0.00     0.173 A 
ATOM     65  C   UNL A   1      44.469  27.566  36.700  1.00  0.00     0.173 A 
ATOM     66  F   UNL A   1      46.104  30.368  35.051  1.00  0.00    -0.203 F 
ATOM     67  C   UNL A   1      47.021  28.579  36.279  1.00  0.00     0.198 A 
ATOM     68  C   UNL A   1      45.576  26.908  37.226  1.00  0.00     0.198 A 
ATOM     69  F   UNL A   1      43.249  27.048  36.906  1.00  0.00    -0.203 F 
ATOM     70  F   UNL A   1      48.254  29.050  36.048  1.00  0.00    -0.200 F 
ATOM     71  C   UNL A   1      46.850  27.412  37.011  1.00  0.00     0.200 A 
ATOM     72  F   UNL A   1      45.411  25.784  37.935  1.00  0.00    -0.200 F 
ATOM     73  F   UNL A   1      47.917  26.766  37.499  1.00  0.00    -0.200 F 
ENDBRANCH  40  63
ENDBRANCH  14  15
ENDBRANCH   7   9
ENDBRANCH   6   7
ENDBRANCH   5   6
ENDBRANCH   4   5
ENDBRANCH   3   4
ENDBRANCH   2   3
ENDBRANCH   1   2
BRANCH   1  74
ATOM     74  O   UNL A   1      34.683  31.571  28.455  1.00  0.00    -0.376 OA
BRANCH  74  75
ATOM     75  C   UNL A   1      34.106  30.770  27.426  1.00  0.00     0.202 C 
BRANCH  75  76
ATOM     76  C   UNL A   1      34.325  29.259  27.536  1.00  0.00     0.261 C 
BRANCH  76  77
ATOM     77  O   UNL A   1      33.189  28.474  27.133  1.00  0.00    -0.460 OA
BRANCH  77  78
ATOM     78  C   UNL A   1      33.254  28.026  25.858  1.00  0.00     0.338 C 
ATOM     79  O   UNL A   1      34.004  28.429  24.975  1.00  0.00    -0.246 OA
BRANCH  78  80
ATOM     80  C   UNL A   1      32.215  27.025  25.559  1.00  0.00     0.062 A 
ATOM     81  C   UNL A   1      32.375  25.658  25.776  1.00  0.00     0.016 A 
ATOM     82  C   UNL A   1      31.092  27.499  24.872  1.00  0.00     0.041 A 
ATOM     83  C   UNL A   1      31.426  24.775  25.258  1.00  0.00     0.003 A 
ATOM     84  C   UNL A   1      30.141  26.627  24.331  1.00  0.00     0.039 A 
ATOM     85  C   UNL A   1      30.325  25.258  24.533  1.00  0.00     0.026 A 
BRANCH  84  86
ATOM     86  N   UNL A   1      29.091  27.199  23.594  1.00  0.00    -0.355 N 
ATOM     87  H   UNL A   1      28.322  26.594  23.477  1.00  0.00     0.167 HD
BRANCH  86  88
ATOM     88  C   UNL A   1      28.908  28.449  22.990  1.00  0.00     0.039 A 
ATOM     89  C   UNL A   1      27.715  29.139  23.267  1.00  0.00     0.033 A 
ATOM     90  C   UNL A   1      29.863  29.069  22.180  1.00  0.00     0.033 A 
ATOM     91  C   UNL A   1      27.469  30.408  22.742  1.00  0.00     0.088 A 
ATOM     92  C   UNL A   1      29.629  30.339  21.638  1.00  0.00     0.088 A 
ATOM     93  C   UNL A   1      28.429  31.002  21.918  1.00  0.00     0.269 A 
BRANCH  93  94
ATOM     94  N   UNL A   1      28.164  32.319  21.330  1.00  0.00     0.062 N 
ATOM     95  O   UNL A   1      28.060  32.388  20.096  1.00  0.00    -0.258 OA
ATOM     96  O   UNL A   1      28.057  33.284  22.099  1.00  0.00    -0.258 OA
ENDBRANCH  93  94
ENDBRANCH  86  88
ENDBRANCH  84  86
ENDBRANCH  78  80
ENDBRANCH  77  78
ENDBRANCH  76  77
ENDBRANCH  75  76
ENDBRANCH  74  75
ENDBRANCH   1  74
TORSDOF 20
ENDMDL
MODEL 3
REMARK VINA RESULT:     -10.6      1.554      7.357
REMARK SMILES O=C(OCCOCCOCCOC(=O)c1cccc(Nc2ccc([N+](=O)[O-])cc2)c1)c1ccc(-c2c3nc(c(-c4c(F)c(F)c(F)c(F)c4F)c4ccc([nH]4)c(-c4c(F)c(F)c(F)c(F)c4F)c4nc(c(-c5c(F)c(F)c(F)c(F)c5F)c5ccc2[nH]5)C=C4)C=C3)cc1
REMARK SMILES IDX 8 1 7 2 6 3 5 4 4 5 3 6 2 7 1 8 31 9 32 10 93 11 33 12 92 13
REMARK SMILES IDX 34 14 35 15 36 16 86 17 37 18 91 19 85 20 87 21 38 22 90 23
REMARK SMILES IDX 84 24 83 25 39 27 71 28 51 29 70 30 52 31 55 32 69 33 88 34
REMARK SMILES IDX 53 35 54 36 68 38 89 39 56 40 40 41 41 42 49 43 42 44 43 45
REMARK SMILES IDX 47 46 50 47 44 48 45 49 48 50 46 51 72 52 73 53 81 54 74 55
REMARK SMILES IDX 75 56 79 57 82 58 76 59 77 60 80 61 78 62 57 63 58 64 66 65
REMARK SMILES IDX 59 66 60 67 64 68 67 69 61 70 62 71 65 72 63 73 9 74 10 75
REMARK SMILES IDX 11 76 12 77 13 78 14 79 15 80 16 81 30 82 17 83 19 84 18 85
REMARK SMILES IDX 20 86 21 88 22 89 29 90 23 91 28 92 24 93 25 94 26 95 27 96
REMARK H PARENT 87 26 55 37 20 87
REMARK Flexibility Score: inf
ROOT
ATOM      1  C   UNL A   1      45.895  18.794  25.615  1.00  0.00     0.188 C 
ENDROOT
BRANCH   1   2
ATOM      2  C   UNL A   1      46.494  19.664  24.505  1.00  0.00     0.188 C 
BRANCH   2   3
ATOM      3  O   UNL A   1      45.587  20.701  24.100  1.00  0.00    -0.376 OA
BRANCH   3   4
ATOM      4  C   UNL A   1      45.449  21.748  25.069  1.00  0.00     0.202 C 
BRANCH   4   5
ATOM      5  C   UNL A   1      45.320  23.150  24.461  1.00  0.00     0.261 C 
BRANCH   5   6
ATOM      6  O   UNL A   1      46.084  24.122  25.194  1.00  0.00    -0.460 OA
BRANCH   6   7
ATOM      7  C   UNL A   1      45.992  25.474  25.134  1.00  0.00     0.338 C 
ATOM      8  O   UNL A   1      46.571  26.062  24.221  1.00  0.00    -0.246 OA
BRANCH   7   9
ATOM      9  C   UNL A   1      45.171  26.298  26.075  1.00  0.00     0.060 A 
ATOM     10  C   UNL A   1      45.303  27.673  26.272  1.00  0.00     0.016 A 
ATOM     11  C   UNL A   1      44.151  25.631  26.777  1.00  0.00     0.016 A 
ATOM     12  C   UNL A   1      44.551  28.339  27.237  1.00  0.00     0.010 A 
ATOM     13  C   UNL A   1      43.346  26.306  27.702  1.00  0.00     0.010 A 
ATOM     14  C   UNL A   1      43.579  27.658  27.973  1.00  0.00    -0.014 A 
BRANCH  14  15
ATOM     15  C   UNL A   1      42.926  28.350  29.106  1.00  0.00     0.031 A 
ATOM     16  C   UNL A   1      43.718  28.585  30.363  1.00  0.00     0.074 A 
ATOM     17  C   UNL A   1      41.694  28.871  28.965  1.00  0.00     0.049 A 
ATOM     18  N   UNL A   1      43.353  29.158  31.481  1.00  0.00    -0.248 NA
ATOM     19  C   UNL A   1      45.117  28.126  30.352  1.00  0.00     0.031 C 
ATOM     20  C   UNL A   1      40.869  28.791  27.760  1.00  0.00     0.029 A 
ATOM     21  N   UNL A   1      40.936  29.608  29.838  1.00  0.00    -0.354 N 
ATOM     22  C   UNL A   1      44.468  29.114  32.307  1.00  0.00     0.074 A 
ATOM     23  C   UNL A   1      45.518  28.446  31.573  1.00  0.00     0.031 C 
ATOM     24  C   UNL A   1      39.732  29.480  27.956  1.00  0.00     0.029 A 
ATOM     25  C   UNL A   1      39.735  30.013  29.313  1.00  0.00     0.049 A 
ATOM     26  H   UNL A   1      41.226  29.824  30.753  1.00  0.00     0.167 HD
ATOM     27  C   UNL A   1      44.602  29.592  33.566  1.00  0.00     0.037 A 
ATOM     28  C   UNL A   1      38.743  30.720  29.883  1.00  0.00     0.037 A 
ATOM     29  C   UNL A   1      43.553  30.257  34.290  1.00  0.00     0.049 A 
ATOM     30  C   UNL A   1      38.875  31.136  31.318  1.00  0.00     0.074 A 
ATOM     31  C   UNL A   1      43.560  30.738  35.586  1.00  0.00     0.029 A 
ATOM     32  N   UNL A   1      42.299  30.537  33.765  1.00  0.00    -0.354 N 
ATOM     33  N   UNL A   1      39.892  30.996  32.129  1.00  0.00    -0.248 NA
ATOM     34  C   UNL A   1      37.701  31.780  31.921  1.00  0.00     0.031 C 
ATOM     35  C   UNL A   1      42.299  31.281  35.858  1.00  0.00     0.029 A 
ATOM     36  C   UNL A   1      41.520  31.172  34.717  1.00  0.00     0.049 A 
ATOM     37  H   UNL A   1      42.007  30.315  32.851  1.00  0.00     0.167 HD
ATOM     38  C   UNL A   1      39.484  31.529  33.342  1.00  0.00     0.074 A 
ATOM     39  C   UNL A   1      38.128  32.008  33.154  1.00  0.00     0.031 C 
ATOM     40  C   UNL A   1      40.167  31.615  34.507  1.00  0.00     0.037 A 
BRANCH  27  41
ATOM     41  C   UNL A   1      45.917  29.367  34.248  1.00  0.00     0.064 A 
ATOM     42  C   UNL A   1      46.962  30.301  34.165  1.00  0.00     0.173 A 
ATOM     43  C   UNL A   1      46.138  28.197  34.988  1.00  0.00     0.173 A 
ATOM     44  F   UNL A   1      46.808  31.423  33.447  1.00  0.00    -0.203 F 
ATOM     45  C   UNL A   1      48.187  30.058  34.780  1.00  0.00     0.198 A 
ATOM     46  C   UNL A   1      47.357  27.968  35.621  1.00  0.00     0.198 A 
ATOM     47  F   UNL A   1      45.173  27.271  35.093  1.00  0.00    -0.203 F 
ATOM     48  F   UNL A   1      49.187  30.941  34.648  1.00  0.00    -0.200 F 
ATOM     49  C   UNL A   1      48.383  28.896  35.511  1.00  0.00     0.200 A 
ATOM     50  F   UNL A   1      47.543  26.846  36.329  1.00  0.00    -0.200 F 
ATOM     51  F   UNL A   1      49.565  28.662  36.098  1.00  0.00    -0.200 F 
ENDBRANCH  27  41
BRANCH  28  52
ATOM     52  C   UNL A   1      37.500  31.017  29.138  1.00  0.00     0.064 A 
ATOM     53  C   UNL A   1      37.204  32.311  28.696  1.00  0.00     0.173 A 
ATOM     54  C   UNL A   1      36.547  30.012  28.929  1.00  0.00     0.173 A 
ATOM     55  F   UNL A   1      38.070  33.310  28.921  1.00  0.00    -0.203 F 
ATOM     56  C   UNL A   1      35.993  32.590  28.067  1.00  0.00     0.198 A 
ATOM     57  C   UNL A   1      35.341  30.291  28.294  1.00  0.00     0.198 A 
ATOM     58  F   UNL A   1      36.775  28.774  29.388  1.00  0.00    -0.203 F 
ATOM     59  F   UNL A   1      35.710  33.843  27.684  1.00  0.00    -0.200 F 
ATOM     60  C   UNL A   1      35.065  31.579  27.862  1.00  0.00     0.200 A 
ATOM     61  F   UNL A   1      34.429  29.323  28.132  1.00  0.00    -0.200 F 
ATOM     62  F   UNL A   1      33.893  31.851  27.269  1.00  0.00    -0.200 F 
ENDBRANCH  28  52
BRANCH  40  63
ATOM     63  C   UNL A   1      39.457  32.263  35.653  1.00  0.00     0.064 A 
ATOM     64  C   UNL A   1      38.609  31.530  36.495  1.00  0.00     0.173 A 
ATOM     65  C   UNL A   1      39.637  33.628  35.915  1.00  0.00     0.173 A 
ATOM     66  F   UNL A   1      38.392  30.226  36.265  1.00  0.00    -0.203 F 
ATOM     67  C   UNL A   1      37.948  32.149  37.551  1.00  0.00     0.198 A 
ATOM     68  C   UNL A   1      38.992  34.239  36.984  1.00  0.00     0.198 A 
ATOM     69  F   UNL A   1      40.437  34.367  35.132  1.00  0.00    -0.203 F 
ATOM     70  F   UNL A   1      37.108  31.444  38.320  1.00  0.00    -0.200 F 
ATOM     71  C   UNL A   1      38.144  33.501  37.798  1.00  0.00     0.200 A 
ATOM     72  F   UNL A   1      39.184  35.543  37.224  1.00  0.00    -0.200 F 
ATOM     73  F   UNL A   1      37.506  34.096  38.814  1.00  0.00    -0.200 F 
ENDBRANCH  40  63
ENDBRANCH  14  15
ENDBRANCH   7   9
ENDBRANCH   6   7
ENDBRANCH   5   6
ENDBRANCH   4   5
ENDBRANCH   3   4
ENDBRANCH   2   3
ENDBRANCH   1   2
BRANCH   1  74
ATOM     74  O   UNL A   1      44.686  18.114  25.274  1.00  0.00    -0.376 OA
BRANCH  74  75
ATOM     75  C   UNL A   1      43.482  18.877  25.312  1.00  0.00     0.202 C 
BRANCH  75  76
ATOM     76  C   UNL A   1      42.403  18.396  26.284  1.00  0.00     0.261 C 
BRANCH  76  77
ATOM     77  O   UNL A   1      41.705  19.461  26.955  1.00  0.00    -0.460 OA
BRANCH  77  78
ATOM     78  C   UNL A   1      40.595  19.885  26.309  1.00  0.00     0.338 C 
ATOM     79  O   UNL A   1      39.898  19.230  25.540  1.00  0.00    -0.246 OA
BRANCH  78  80
ATOM     80  C   UNL A   1      40.328  21.317  26.527  1.00  0.00     0.062 A 
ATOM     81  C   UNL A   1      41.033  22.103  27.436  1.00  0.00     0.016 A 
ATOM     82  C   UNL A   1      39.195  21.830  25.887  1.00  0.00     0.041 A 
ATOM     83  C   UNL A   1      40.564  23.384  27.728  1.00  0.00     0.003 A 
ATOM     84  C   UNL A   1      38.700  23.105  26.182  1.00  0.00     0.039 A 
ATOM     85  C   UNL A   1      39.401  23.874  27.113  1.00  0.00     0.026 A 
BRANCH  84  86
ATOM     86  N   UNL A   1      37.513  23.498  25.542  1.00  0.00    -0.355 N 
ATOM     87  H   UNL A   1      37.507  24.448  25.282  1.00  0.00     0.167 HD
BRANCH  86  88
ATOM     88  C   UNL A   1      36.337  22.821  25.196  1.00  0.00     0.039 A 
ATOM     89  C   UNL A   1      35.715  22.045  26.189  1.00  0.00     0.033 A 
ATOM     90  C   UNL A   1      35.723  22.919  23.945  1.00  0.00     0.033 A 
ATOM     91  C   UNL A   1      34.518  21.371  25.942  1.00  0.00     0.088 A 
ATOM     92  C   UNL A   1      34.526  22.243  23.678  1.00  0.00     0.088 A 
ATOM     93  C   UNL A   1      33.930  21.467  24.679  1.00  0.00     0.269 A 
BRANCH  93  94
ATOM     94  N   UNL A   1      32.692  20.732  24.398  1.00  0.00     0.062 N 
ATOM     95  O   UNL A   1      32.249  19.991  25.288  1.00  0.00    -0.258 OA
ATOM     96  O   UNL A   1      32.163  20.894  23.290  1.00  0.00    -0.258 OA
ENDBRANCH  93  94
ENDBRANCH  86  88
ENDBRANCH  84  86
ENDBRANCH  78  80
ENDBRANCH  77  78
ENDBRANCH  76  77
ENDBRANCH  75  76
ENDBRANCH  74  75
ENDBRANCH   1  74
TORSDOF 20
ENDMDL
