MODEL 1
REMARK VINA RESULT:     -11.3      0.000      0.000
REMARK SMILES O=C(Cn1c(=O)[nH]c2ccccc2c1=O)NC[C@H]1CC[C@@H](C(=O)N2CCC(C(=O)OCCOCCOCCOC(=O)c3ccc(-c4c5nc(c(-c6c(F)c(F)c(F)c(F)c6F)c6ccc([nH]6)c(-c6c(F)c(F)c(F)c(F)c6F)c6nc(c(-c7c(F)c(F)c(F)c(F)c7F)c7ccc4[nH]7)C=C6)C=C5)cc3)CC2)CC1
REMARK SMILES IDX 33 1 32 2 31 3 30 4 28 5 29 6 27 7 22 8 23 9 24 10 25 11
REMARK SMILES IDX 106 12 26 13 105 14 21 15 18 16 19 17 108 18 20 19 107 20
REMARK SMILES IDX 17 21 16 22 1 23 2 24 3 26 4 27 5 28 14 29 6 30 7 31 13 32
REMARK SMILES IDX 15 33 8 34 12 36 9 37 11 38 10 39 34 40 35 41 36 42 37 43
REMARK SMILES IDX 38 44 39 45 40 46 41 47 42 48 43 49 104 50 44 51 103 52
REMARK SMILES IDX 45 53 46 54 47 55 97 56 48 57 102 58 96 59 98 60 49 61
REMARK SMILES IDX 101 62 95 63 94 64 50 66 82 67 62 68 81 69 63 70 66 71 80 72
REMARK SMILES IDX 99 73 64 74 65 75 79 77 100 78 67 79 51 80 52 81 60 82 53 83
REMARK SMILES IDX 54 84 58 85 61 86 55 87 56 88 59 89 57 90 83 91 84 92 92 93
REMARK SMILES IDX 85 94 86 95 90 96 93 97 87 98 88 99 91 100 89 101 68 102
REMARK SMILES IDX 69 103 77 104 70 105 71 106 75 107 78 108 72 109 73 110
REMARK SMILES IDX 76 111 74 112
REMARK H PARENT 16 25 7 35 98 65 66 76
REMARK Flexibility Score: inf
ROOT
ATOM      1  O   UNL A   1      34.804  33.235  27.680  1.00  0.00    -0.376 OA
ENDROOT
BRANCH   1   2
ATOM      2  C   UNL A   1      33.638  32.443  27.902  1.00  0.00     0.202 C 
BRANCH   2   3
ATOM      3  C   UNL A   1      33.819  30.921  27.850  1.00  0.00     0.261 C 
BRANCH   3   4
ATOM      4  O   UNL A   1      33.731  30.361  26.527  1.00  0.00    -0.463 OA
BRANCH   4   5
ATOM      5  C   UNL A   1      32.478  30.047  26.113  1.00  0.00     0.309 C 
ATOM      6  O   UNL A   1      31.468  30.688  26.380  1.00  0.00    -0.252 OA
BRANCH   5   7
ATOM      7  C   UNL A   1      32.418  28.824  25.223  1.00  0.00     0.103 C 
ATOM      8  C   UNL A   1      32.693  24.645  24.438  1.00  0.00     0.225 C 
ATOM      9  O   UNL A   1      33.850  24.209  24.501  1.00  0.00    -0.275 OA
ATOM     10  N   UNL A   1      32.474  26.010  24.517  1.00  0.00    -0.342 N 
ATOM     11  C   UNL A   1      33.491  26.916  23.973  1.00  0.00     0.120 C 
ATOM     12  C   UNL A   1      31.264  26.625  25.019  1.00  0.00     0.120 C 
ATOM     13  C   UNL A   1      33.739  28.163  24.828  1.00  0.00     0.037 C 
ATOM     14  C   UNL A   1      31.539  27.801  25.930  1.00  0.00     0.037 C 
BRANCH   8  15
ATOM     15  C   UNL A   1      31.581  23.653  24.004  1.00  0.00     0.078 C 
ATOM     16  C   UNL A   1      32.188  20.812  24.806  1.00  0.00     0.008 C 
ATOM     17  C   UNL A   1      31.886  21.929  25.814  1.00  0.00     0.006 C 
ATOM     18  C   UNL A   1      32.366  21.254  23.341  1.00  0.00     0.006 C 
ATOM     19  C   UNL A   1      30.978  23.011  25.258  1.00  0.00     0.014 C 
ATOM     20  C   UNL A   1      31.746  22.590  22.922  1.00  0.00     0.014 C 
BRANCH  16  21
ATOM     21  C   UNL A   1      33.413  19.998  25.285  1.00  0.00     0.119 C 
BRANCH  21  22
ATOM     22  N   UNL A   1      34.635  20.550  24.756  1.00  0.00    -0.354 N 
ATOM     23  O   UNL A   1      35.266  21.647  26.668  1.00  0.00    -0.273 OA
ATOM     24  C   UNL A   1      35.475  21.357  25.493  1.00  0.00     0.240 C 
ATOM     25  H   UNL A   1      34.881  20.340  23.826  1.00  0.00     0.163 HD
BRANCH  24  26
ATOM     26  C   UNL A   1      36.627  21.954  24.686  1.00  0.00     0.230 C 
BRANCH  26  27
ATOM     27  N   UNL A   1      37.783  22.256  25.525  1.00  0.00    -0.250 N 
ATOM     28  C   UNL A   1      38.725  21.265  25.723  1.00  0.00     0.329 A 
ATOM     29  C   UNL A   1      37.873  23.537  26.063  1.00  0.00     0.264 A 
ATOM     30  O   UNL A   1      38.611  20.119  25.285  1.00  0.00    -0.248 OA
ATOM     31  N   UNL A   1      39.815  21.583  26.475  1.00  0.00    -0.307 N 
ATOM     32  C   UNL A   1      39.092  23.848  26.833  1.00  0.00     0.064 A 
ATOM     33  O   UNL A   1      37.021  24.409  25.911  1.00  0.00    -0.268 OA
ATOM     34  C   UNL A   1      40.035  22.843  27.021  1.00  0.00     0.055 A 
ATOM     35  H   UNL A   1      40.485  20.881  26.641  1.00  0.00     0.171 HD
ATOM     36  C   UNL A   1      39.314  25.127  27.352  1.00  0.00     0.016 A 
ATOM     37  C   UNL A   1      41.201  23.097  27.741  1.00  0.00     0.027 A 
ATOM     38  C   UNL A   1      40.487  25.389  28.061  1.00  0.00     0.001 A 
ATOM     39  C   UNL A   1      41.426  24.375  28.258  1.00  0.00     0.002 A 
ENDBRANCH  26  27
ENDBRANCH  24  26
ENDBRANCH  21  22
ENDBRANCH  16  21
ENDBRANCH   8  15
ENDBRANCH   5   7
ENDBRANCH   4   5
ENDBRANCH   3   4
ENDBRANCH   2   3
ENDBRANCH   1   2
BRANCH   1  40
ATOM     40  C   UNL A   1      35.825  33.170  28.666  1.00  0.00     0.188 C 
BRANCH  40  41
ATOM     41  C   UNL A   1      35.652  34.063  29.893  1.00  0.00     0.188 C 
BRANCH  41  42
ATOM     42  O   UNL A   1      35.369  33.395  31.115  1.00  0.00    -0.376 OA
BRANCH  42  43
ATOM     43  C   UNL A   1      35.319  31.963  31.029  1.00  0.00     0.202 C 
BRANCH  43  44
ATOM     44  C   UNL A   1      36.037  31.184  32.152  1.00  0.00     0.261 C 
BRANCH  44  45
ATOM     45  O   UNL A   1      36.343  29.806  31.843  1.00  0.00    -0.460 OA
BRANCH  45  46
ATOM     46  C   UNL A   1      37.430  29.244  32.425  1.00  0.00     0.338 C 
ATOM     47  O   UNL A   1      37.446  28.239  33.113  1.00  0.00    -0.246 OA
BRANCH  46  48
ATOM     48  C   UNL A   1      38.646  29.880  31.838  1.00  0.00     0.060 A 
ATOM     49  C   UNL A   1      39.551  30.607  32.621  1.00  0.00     0.016 A 
ATOM     50  C   UNL A   1      38.807  29.853  30.444  1.00  0.00     0.016 A 
ATOM     51  C   UNL A   1      40.618  31.280  32.015  1.00  0.00     0.010 A 
ATOM     52  C   UNL A   1      39.871  30.531  29.838  1.00  0.00     0.010 A 
ATOM     53  C   UNL A   1      40.797  31.235  30.621  1.00  0.00    -0.014 A 
BRANCH  53  54
ATOM     54  C   UNL A   1      42.058  31.743  30.022  1.00  0.00     0.031 A 
ATOM     55  C   UNL A   1      42.363  33.204  29.872  1.00  0.00     0.074 A 
ATOM     56  C   UNL A   1      42.951  30.831  29.593  1.00  0.00     0.049 A 
ATOM     57  N   UNL A   1      43.464  33.770  29.439  1.00  0.00    -0.248 NA
ATOM     58  C   UNL A   1      41.303  34.150  30.240  1.00  0.00     0.031 C 
ATOM     59  C   UNL A   1      42.757  29.382  29.655  1.00  0.00     0.029 A 
ATOM     60  N   UNL A   1      44.193  30.981  29.030  1.00  0.00    -0.354 N 
ATOM     61  C   UNL A   1      43.245  35.139  29.509  1.00  0.00     0.074 A 
ATOM     62  C   UNL A   1      41.884  35.317  29.979  1.00  0.00     0.031 C 
ATOM     63  C   UNL A   1      43.850  28.774  29.172  1.00  0.00     0.029 A 
ATOM     64  C   UNL A   1      44.812  29.789  28.750  1.00  0.00     0.049 A 
ATOM     65  H   UNL A   1      44.599  31.858  28.843  1.00  0.00     0.167 HD
ATOM     66  C   UNL A   1      44.107  36.147  29.226  1.00  0.00     0.037 A 
ATOM     67  C   UNL A   1      46.024  29.533  28.223  1.00  0.00     0.037 A 
ATOM     68  C   UNL A   1      45.456  35.968  28.739  1.00  0.00     0.049 A 
ATOM     69  C   UNL A   1      46.940  30.669  27.875  1.00  0.00     0.074 A 
ATOM     70  C   UNL A   1      46.412  36.935  28.475  1.00  0.00     0.029 A 
ATOM     71  N   UNL A   1      46.036  34.747  28.429  1.00  0.00    -0.354 N 
ATOM     72  N   UNL A   1      46.751  31.957  28.024  1.00  0.00    -0.248 NA
ATOM     73  C   UNL A   1      48.243  30.315  27.294  1.00  0.00     0.031 C 
ATOM     74  C   UNL A   1      47.548  36.305  27.953  1.00  0.00     0.029 A 
ATOM     75  C   UNL A   1      47.322  34.940  27.943  1.00  0.00     0.049 A 
ATOM     76  H   UNL A   1      45.598  33.871  28.537  1.00  0.00     0.167 HD
ATOM     77  C   UNL A   1      47.916  32.566  27.578  1.00  0.00     0.074 A 
ATOM     78  C   UNL A   1      48.813  31.507  27.166  1.00  0.00     0.031 C 
ATOM     79  C   UNL A   1      48.210  33.887  27.520  1.00  0.00     0.037 A 
BRANCH  66  80
ATOM     80  C   UNL A   1      43.642  37.557  29.449  1.00  0.00     0.064 A 
ATOM     81  C   UNL A   1      44.008  38.267  30.603  1.00  0.00     0.173 A 
ATOM     82  C   UNL A   1      42.929  38.247  28.455  1.00  0.00     0.173 A 
ATOM     83  F   UNL A   1      44.699  37.658  31.579  1.00  0.00    -0.203 F 
ATOM     84  C   UNL A   1      43.670  39.610  30.758  1.00  0.00     0.198 A 
ATOM     85  C   UNL A   1      42.613  39.595  28.603  1.00  0.00     0.198 A 
ATOM     86  F   UNL A   1      42.575  37.622  27.322  1.00  0.00    -0.203 F 
ATOM     87  F   UNL A   1      44.021  40.262  31.874  1.00  0.00    -0.200 F 
ATOM     88  C   UNL A   1      42.982  40.275  29.754  1.00  0.00     0.200 A 
ATOM     89  F   UNL A   1      41.974  40.244  27.619  1.00  0.00    -0.200 F 
ATOM     90  F   UNL A   1      42.683  41.574  29.892  1.00  0.00    -0.200 F 
ENDBRANCH  66  80
BRANCH  67  91
ATOM     91  C   UNL A   1      46.450  28.124  28.043  1.00  0.00     0.064 A 
ATOM     92  C   UNL A   1      46.142  27.429  26.865  1.00  0.00     0.173 A 
ATOM     93  C   UNL A   1      47.201  27.459  29.021  1.00  0.00     0.173 A 
ATOM     94  F   UNL A   1      45.410  28.021  25.910  1.00  0.00    -0.203 F 
ATOM     95  C   UNL A   1      46.566  26.117  26.676  1.00  0.00     0.198 A 
ATOM     96  C   UNL A   1      47.647  26.156  28.819  1.00  0.00     0.198 A 
ATOM     97  F   UNL A   1      47.525  28.086  30.161  1.00  0.00    -0.203 F 
ATOM     98  F   UNL A   1      46.234  25.464  25.555  1.00  0.00    -0.200 F 
ATOM     99  C   UNL A   1      47.325  25.484  27.649  1.00  0.00     0.200 A 
ATOM    100  F   UNL A   1      48.394  25.553  29.755  1.00  0.00    -0.200 F 
ATOM    101  F   UNL A   1      47.746  24.226  27.461  1.00  0.00    -0.200 F 
ENDBRANCH  67  91
BRANCH  79 102
ATOM    102  C   UNL A   1      49.562  34.274  26.991  1.00  0.00     0.064 A 
ATOM    103  C   UNL A   1      49.735  34.702  25.667  1.00  0.00     0.173 A 
ATOM    104  C   UNL A   1      50.688  34.260  27.829  1.00  0.00     0.173 A 
ATOM    105  F   UNL A   1      48.694  34.717  24.821  1.00  0.00    -0.203 F 
ATOM    106  C   UNL A   1      50.989  35.087  25.196  1.00  0.00     0.198 A 
ATOM    107  C   UNL A   1      51.935  34.672  27.363  1.00  0.00     0.198 A 
ATOM    108  F   UNL A   1      50.578  33.861  29.104  1.00  0.00    -0.203 F 
ATOM    109  F   UNL A   1      51.138  35.454  23.915  1.00  0.00    -0.200 F 
ATOM    110  C   UNL A   1      52.085  35.079  26.046  1.00  0.00     0.200 A 
ATOM    111  F   UNL A   1      52.990  34.675  28.188  1.00  0.00    -0.200 F 
ATOM    112  F   UNL A   1      53.288  35.459  25.593  1.00  0.00    -0.200 F 
ENDBRANCH  79 102
ENDBRANCH  53  54
ENDBRANCH  46  48
ENDBRANCH  45  46
ENDBRANCH  44  45
ENDBRANCH  43  44
ENDBRANCH  42  43
ENDBRANCH  41  42
ENDBRANCH  40  41
ENDBRANCH   1  40
TORSDOF 22
ENDMDL
MODEL 2
REMARK VINA RESULT:     -11.2      0.997      6.630
REMARK SMILES O=C(Cn1c(=O)[nH]c2ccccc2c1=O)NC[C@H]1CC[C@@H](C(=O)N2CCC(C(=O)OCCOCCOCCOC(=O)c3ccc(-c4c5nc(c(-c6c(F)c(F)c(F)c(F)c6F)c6ccc([nH]6)c(-c6c(F)c(F)c(F)c(F)c6F)c6nc(c(-c7c(F)c(F)c(F)c(F)c7F)c7ccc4[nH]7)C=C6)C=C5)cc3)CC2)CC1
REMARK SMILES IDX 33 1 32 2 31 3 30 4 28 5 29 6 27 7 22 8 23 9 24 10 25 11
REMARK SMILES IDX 106 12 26 13 105 14 21 15 18 16 19 17 108 18 20 19 107 20
REMARK SMILES IDX 17 21 16 22 1 23 2 24 3 26 4 27 5 28 14 29 6 30 7 31 13 32
REMARK SMILES IDX 15 33 8 34 12 36 9 37 11 38 10 39 34 40 35 41 36 42 37 43
REMARK SMILES IDX 38 44 39 45 40 46 41 47 42 48 43 49 104 50 44 51 103 52
REMARK SMILES IDX 45 53 46 54 47 55 97 56 48 57 102 58 96 59 98 60 49 61
REMARK SMILES IDX 101 62 95 63 94 64 50 66 82 67 62 68 81 69 63 70 66 71 80 72
REMARK SMILES IDX 99 73 64 74 65 75 79 77 100 78 67 79 51 80 52 81 60 82 53 83
REMARK SMILES IDX 54 84 58 85 61 86 55 87 56 88 59 89 57 90 83 91 84 92 92 93
REMARK SMILES IDX 85 94 86 95 90 96 93 97 87 98 88 99 91 100 89 101 68 102
REMARK SMILES IDX 69 103 77 104 70 105 71 106 75 107 78 108 72 109 73 110
REMARK SMILES IDX 76 111 74 112
REMARK H PARENT 16 25 7 35 98 65 66 76
REMARK Flexibility Score: inf
ROOT
ATOM      1  O   UNL A   1      34.808  33.227  27.604  1.00  0.00    -0.376 OA
ENDROOT
BRANCH   1   2
ATOM      2  C   UNL A   1      33.636  32.453  27.853  1.00  0.00     0.202 C 
BRANCH   2   3
ATOM      3  C   UNL A   1      33.779  30.930  27.737  1.00  0.00     0.261 C 
BRANCH   3   4
ATOM      4  O   UNL A   1      33.684  30.429  26.391  1.00  0.00    -0.463 OA
BRANCH   4   5
ATOM      5  C   UNL A   1      32.447  30.027  26.009  1.00  0.00     0.309 C 
ATOM      6  O   UNL A   1      31.400  30.590  26.310  1.00  0.00    -0.252 OA
BRANCH   5   7
ATOM      7  C   UNL A   1      32.451  28.809  25.109  1.00  0.00     0.103 C 
ATOM      8  C   UNL A   1      32.781  24.635  24.320  1.00  0.00     0.225 C 
ATOM      9  O   UNL A   1      33.930  24.197  24.466  1.00  0.00    -0.275 OA
ATOM     10  N   UNL A   1      32.557  25.999  24.392  1.00  0.00    -0.342 N 
ATOM     11  C   UNL A   1      33.613  26.908  23.930  1.00  0.00     0.120 C 
ATOM     12  C   UNL A   1      31.314  26.612  24.807  1.00  0.00     0.120 C 
ATOM     13  C   UNL A   1      33.798  28.149  24.809  1.00  0.00     0.037 C 
ATOM     14  C   UNL A   1      31.522  27.783  25.744  1.00  0.00     0.037 C 
BRANCH   8  15
ATOM     15  C   UNL A   1      31.704  23.647  23.799  1.00  0.00     0.078 C 
ATOM     16  C   UNL A   1      32.244  20.801  24.633  1.00  0.00     0.008 C 
ATOM     17  C   UNL A   1      31.869  21.914  25.620  1.00  0.00     0.006 C 
ATOM     18  C   UNL A   1      32.533  21.249  23.188  1.00  0.00     0.006 C 
ATOM     19  C   UNL A   1      31.006  23.000  25.001  1.00  0.00     0.014 C 
ATOM     20  C   UNL A   1      31.948  22.588  22.728  1.00  0.00     0.014 C 
BRANCH  16  21
ATOM     21  C   UNL A   1      33.428  19.983  25.199  1.00  0.00     0.119 C 
BRANCH  21  22
ATOM     22  N   UNL A   1      34.683  20.479  24.694  1.00  0.00    -0.354 N 
ATOM     23  O   UNL A   1      35.223  21.729  26.539  1.00  0.00    -0.273 OA
ATOM     24  C   UNL A   1      35.492  21.340  25.406  1.00  0.00     0.240 C 
ATOM     25  H   UNL A   1      34.978  20.190  23.800  1.00  0.00     0.163 HD
BRANCH  24  26
ATOM     26  C   UNL A   1      36.693  21.858  24.617  1.00  0.00     0.230 C 
BRANCH  26  27
ATOM     27  N   UNL A   1      37.847  22.103  25.477  1.00  0.00    -0.250 N 
ATOM     28  C   UNL A   1      38.706  21.051  25.735  1.00  0.00     0.329 A 
ATOM     29  C   UNL A   1      38.020  23.391  25.974  1.00  0.00     0.264 A 
ATOM     30  O   UNL A   1      38.516  19.902  25.332  1.00  0.00    -0.248 OA
ATOM     31  N   UNL A   1      39.798  21.313  26.504  1.00  0.00    -0.307 N 
ATOM     32  C   UNL A   1      39.240  23.638  26.767  1.00  0.00     0.064 A 
ATOM     33  O   UNL A   1      37.242  24.319  25.770  1.00  0.00    -0.268 OA
ATOM     34  C   UNL A   1      40.099  22.572  27.014  1.00  0.00     0.055 A 
ATOM     35  H   UNL A   1      40.409  20.569  26.713  1.00  0.00     0.171 HD
ATOM     36  C   UNL A   1      39.546  24.914  27.249  1.00  0.00     0.016 A 
ATOM     37  C   UNL A   1      41.263  22.763  27.757  1.00  0.00     0.027 A 
ATOM     38  C   UNL A   1      40.717  25.112  27.980  1.00  0.00     0.001 A 
ATOM     39  C   UNL A   1      41.572  24.038  28.237  1.00  0.00     0.002 A 
ENDBRANCH  26  27
ENDBRANCH  24  26
ENDBRANCH  21  22
ENDBRANCH  16  21
ENDBRANCH   8  15
ENDBRANCH   5   7
ENDBRANCH   4   5
ENDBRANCH   3   4
ENDBRANCH   2   3
ENDBRANCH   1   2
BRANCH   1  40
ATOM     40  C   UNL A   1      35.861  33.127  28.553  1.00  0.00     0.188 C 
BRANCH  40  41
ATOM     41  C   UNL A   1      35.698  33.927  29.844  1.00  0.00     0.188 C 
BRANCH  41  42
ATOM     42  O   UNL A   1      35.457  33.168  31.021  1.00  0.00    -0.376 OA
BRANCH  42  43
ATOM     43  C   UNL A   1      35.551  31.745  30.858  1.00  0.00     0.202 C 
BRANCH  43  44
ATOM     44  C   UNL A   1      36.271  30.972  31.983  1.00  0.00     0.261 C 
BRANCH  44  45
ATOM     45  O   UNL A   1      36.751  29.660  31.616  1.00  0.00    -0.460 OA
BRANCH  45  46
ATOM     46  C   UNL A   1      37.810  29.151  32.289  1.00  0.00     0.338 C 
ATOM     47  O   UNL A   1      37.815  28.155  32.990  1.00  0.00    -0.246 OA
BRANCH  46  48
ATOM     48  C   UNL A   1      39.041  29.835  31.792  1.00  0.00     0.060 A 
ATOM     49  C   UNL A   1      39.900  30.529  32.653  1.00  0.00     0.016 A 
ATOM     50  C   UNL A   1      39.263  29.886  30.408  1.00  0.00     0.016 A 
ATOM     51  C   UNL A   1      40.981  31.249  32.133  1.00  0.00     0.010 A 
ATOM     52  C   UNL A   1      40.342  30.610  29.888  1.00  0.00     0.010 A 
ATOM     53  C   UNL A   1      41.222  31.282  30.748  1.00  0.00    -0.014 A 
BRANCH  53  54
ATOM     54  C   UNL A   1      42.500  31.839  30.234  1.00  0.00     0.031 A 
ATOM     55  C   UNL A   1      43.757  31.030  30.116  1.00  0.00     0.074 A 
ATOM     56  C   UNL A   1      42.508  33.136  29.870  1.00  0.00     0.049 A 
ATOM     57  N   UNL A   1      44.912  31.383  29.605  1.00  0.00    -0.248 NA
ATOM     58  C   UNL A   1      43.724  29.660  30.643  1.00  0.00     0.031 C 
ATOM     59  C   UNL A   1      41.358  34.035  29.966  1.00  0.00     0.029 A 
ATOM     60  N   UNL A   1      43.505  33.918  29.344  1.00  0.00    -0.354 N 
ATOM     61  C   UNL A   1      45.738  30.272  29.721  1.00  0.00     0.074 A 
ATOM     62  C   UNL A   1      44.964  29.250  30.399  1.00  0.00     0.031 C 
ATOM     63  C   UNL A   1      41.706  35.240  29.493  1.00  0.00     0.029 A 
ATOM     64  C   UNL A   1      43.105  35.203  29.078  1.00  0.00     0.049 A 
ATOM     65  H   UNL A   1      44.417  33.589  29.176  1.00  0.00     0.167 HD
ATOM     66  C   UNL A   1      47.013  30.121  29.285  1.00  0.00     0.037 A 
ATOM     67  C   UNL A   1      43.783  36.240  28.549  1.00  0.00     0.037 A 
ATOM     68  C   UNL A   1      47.789  31.147  28.628  1.00  0.00     0.049 A 
ATOM     69  C   UNL A   1      45.208  36.056  28.117  1.00  0.00     0.074 A 
ATOM     70  C   UNL A   1      49.072  31.059  28.110  1.00  0.00     0.029 A 
ATOM     71  N   UNL A   1      47.367  32.450  28.412  1.00  0.00    -0.354 N 
ATOM     72  N   UNL A   1      45.950  34.977  28.157  1.00  0.00    -0.248 NA
ATOM     73  C   UNL A   1      45.888  37.233  27.558  1.00  0.00     0.031 C 
ATOM     74  C   UNL A   1      49.444  32.320  27.632  1.00  0.00     0.029 A 
ATOM     75  C   UNL A   1      48.375  33.183  27.801  1.00  0.00     0.049 A 
ATOM     76  H   UNL A   1      46.481  32.804  28.657  1.00  0.00     0.167 HD
ATOM     77  C   UNL A   1      47.173  35.337  27.610  1.00  0.00     0.074 A 
ATOM     78  C   UNL A   1      47.071  36.731  27.231  1.00  0.00     0.031 C 
ATOM     79  C   UNL A   1      48.280  34.573  27.436  1.00  0.00     0.037 A 
BRANCH  66  80
ATOM     80  C   UNL A   1      47.670  28.783  29.477  1.00  0.00     0.064 A 
ATOM     81  C   UNL A   1      47.641  27.810  28.467  1.00  0.00     0.173 A 
ATOM     82  C   UNL A   1      48.435  28.514  30.624  1.00  0.00     0.173 A 
ATOM     83  F   UNL A   1      46.933  28.021  27.347  1.00  0.00    -0.203 F 
ATOM     84  C   UNL A   1      48.343  26.614  28.601  1.00  0.00     0.198 A 
ATOM     85  C   UNL A   1      49.155  27.328  30.744  1.00  0.00     0.198 A 
ATOM     86  F   UNL A   1      48.516  29.421  31.609  1.00  0.00    -0.203 F 
ATOM     87  F   UNL A   1      48.290  25.695  27.627  1.00  0.00    -0.200 F 
ATOM     88  C   UNL A   1      49.108  26.379  29.734  1.00  0.00     0.200 A 
ATOM     89  F   UNL A   1      49.916  27.114  31.827  1.00  0.00    -0.200 F 
ATOM     90  F   UNL A   1      49.806  25.240  29.848  1.00  0.00    -0.200 F 
ENDBRANCH  66  80
BRANCH  67  91
ATOM     91  C   UNL A   1      43.085  37.534  28.356  1.00  0.00     0.064 A 
ATOM     92  C   UNL A   1      42.293  37.757  27.222  1.00  0.00     0.173 A 
ATOM     93  C   UNL A   1      43.164  38.555  29.314  1.00  0.00     0.173 A 
ATOM     94  F   UNL A   1      42.204  36.815  26.272  1.00  0.00    -0.203 F 
ATOM     95  C   UNL A   1      41.610  38.958  27.051  1.00  0.00     0.198 A 
ATOM     96  C   UNL A   1      42.459  39.744  29.155  1.00  0.00     0.198 A 
ATOM     97  F   UNL A   1      43.906  38.383  30.419  1.00  0.00    -0.203 F 
ATOM     98  F   UNL A   1      40.882  39.159  25.944  1.00  0.00    -0.200 F 
ATOM     99  C   UNL A   1      41.686  39.946  28.021  1.00  0.00     0.200 A 
ATOM    100  F   UNL A   1      42.523  40.690  30.101  1.00  0.00    -0.200 F 
ATOM    101  F   UNL A   1      41.017  41.096  27.863  1.00  0.00    -0.200 F 
ENDBRANCH  67  91
BRANCH  79 102
ATOM    102  C   UNL A   1      49.479  35.223  26.807  1.00  0.00     0.064 A 
ATOM    103  C   UNL A   1      50.581  35.625  27.575  1.00  0.00     0.173 A 
ATOM    104  C   UNL A   1      49.547  35.404  25.416  1.00  0.00     0.173 A 
ATOM    105  F   UNL A   1      50.559  35.490  28.910  1.00  0.00    -0.203 F 
ATOM    106  C   UNL A   1      51.701  36.200  26.977  1.00  0.00     0.198 A 
ATOM    107  C   UNL A   1      50.680  35.953  24.819  1.00  0.00     0.198 A 
ATOM    108  F   UNL A   1      48.522  35.034  24.636  1.00  0.00    -0.203 F 
ATOM    109  F   UNL A   1      52.725  36.614  27.736  1.00  0.00    -0.200 F 
ATOM    110  C   UNL A   1      51.753  36.355  25.600  1.00  0.00     0.200 A 
ATOM    111  F   UNL A   1      50.732  36.092  23.487  1.00  0.00    -0.200 F 
ATOM    112  F   UNL A   1      52.834  36.899  25.026  1.00  0.00    -0.200 F 
ENDBRANCH  79 102
ENDBRANCH  53  54
ENDBRANCH  46  48
ENDBRANCH  45  46
ENDBRANCH  44  45
ENDBRANCH  43  44
ENDBRANCH  42  43
ENDBRANCH  41  42
ENDBRANCH  40  41
ENDBRANCH   1  40
TORSDOF 22
ENDMDL
MODEL 3
REMARK VINA RESULT:     -10.9      3.300      5.425
REMARK SMILES O=C(Cn1c(=O)[nH]c2ccccc2c1=O)NC[C@H]1CC[C@@H](C(=O)N2CCC(C(=O)OCCOCCOCCOC(=O)c3ccc(-c4c5nc(c(-c6c(F)c(F)c(F)c(F)c6F)c6ccc([nH]6)c(-c6c(F)c(F)c(F)c(F)c6F)c6nc(c(-c7c(F)c(F)c(F)c(F)c7F)c7ccc4[nH]7)C=C6)C=C5)cc3)CC2)CC1
REMARK SMILES IDX 33 1 32 2 31 3 30 4 28 5 29 6 27 7 22 8 23 9 24 10 25 11
REMARK SMILES IDX 106 12 26 13 105 14 21 15 18 16 19 17 108 18 20 19 107 20
REMARK SMILES IDX 17 21 16 22 1 23 2 24 3 26 4 27 5 28 14 29 6 30 7 31 13 32
REMARK SMILES IDX 15 33 8 34 12 36 9 37 11 38 10 39 34 40 35 41 36 42 37 43
REMARK SMILES IDX 38 44 39 45 40 46 41 47 42 48 43 49 104 50 44 51 103 52
REMARK SMILES IDX 45 53 46 54 47 55 97 56 48 57 102 58 96 59 98 60 49 61
REMARK SMILES IDX 101 62 95 63 94 64 50 66 82 67 62 68 81 69 63 70 66 71 80 72
REMARK SMILES IDX 99 73 64 74 65 75 79 77 100 78 67 79 51 80 52 81 60 82 53 83
REMARK SMILES IDX 54 84 58 85 61 86 55 87 56 88 59 89 57 90 83 91 84 92 92 93
REMARK SMILES IDX 85 94 86 95 90 96 93 97 87 98 88 99 91 100 89 101 68 102
REMARK SMILES IDX 69 103 77 104 70 105 71 106 75 107 78 108 72 109 73 110
REMARK SMILES IDX 76 111 74 112
REMARK H PARENT 16 25 7 35 98 65 66 76
REMARK Flexibility Score: inf
ROOT
ATOM      1  O   UNL A   1      35.133  32.584  27.754  1.00  0.00    -0.376 OA
ENDROOT
BRANCH   1   2
ATOM      2  C   UNL A   1      33.804  32.073  27.673  1.00  0.00     0.202 C 
BRANCH   2   3
ATOM      3  C   UNL A   1      33.658  30.553  27.520  1.00  0.00     0.261 C 
BRANCH   3   4
ATOM      4  O   UNL A   1      33.681  30.092  26.157  1.00  0.00    -0.463 OA
BRANCH   4   5
ATOM      5  C   UNL A   1      32.465  29.858  25.604  1.00  0.00     0.309 C 
ATOM      6  O   UNL A   1      31.484  30.583  25.731  1.00  0.00    -0.252 OA
BRANCH   5   7
ATOM      7  C   UNL A   1      32.414  28.611  24.747  1.00  0.00     0.103 C 
ATOM      8  C   UNL A   1      32.791  24.424  24.057  1.00  0.00     0.225 C 
ATOM      9  O   UNL A   1      33.962  24.023  24.093  1.00  0.00    -0.275 OA
ATOM     10  N   UNL A   1      32.533  25.783  24.110  1.00  0.00    -0.342 N 
ATOM     11  C   UNL A   1      33.505  26.704  23.511  1.00  0.00     0.120 C 
ATOM     12  C   UNL A   1      31.321  26.374  24.635  1.00  0.00     0.120 C 
ATOM     13  C   UNL A   1      33.742  27.979  24.327  1.00  0.00     0.037 C 
ATOM     14  C   UNL A   1      31.589  27.581  25.507  1.00  0.00     0.037 C 
BRANCH   8  15
ATOM     15  C   UNL A   1      31.696  23.389  23.683  1.00  0.00     0.078 C 
ATOM     16  C   UNL A   1      32.161  20.700  24.966  1.00  0.00     0.008 C 
ATOM     17  C   UNL A   1      31.801  21.964  25.758  1.00  0.00     0.006 C 
ATOM     18  C   UNL A   1      32.476  20.907  23.472  1.00  0.00     0.006 C 
ATOM     19  C   UNL A   1      30.971  22.956  24.962  1.00  0.00     0.014 C 
ATOM     20  C   UNL A   1      31.928  22.167  22.797  1.00  0.00     0.014 C 
BRANCH  16  21
ATOM     21  C   UNL A   1      33.319  19.957  25.672  1.00  0.00     0.119 C 
BRANCH  21  22
ATOM     22  N   UNL A   1      34.579  20.247  25.034  1.00  0.00    -0.354 N 
ATOM     23  O   UNL A   1      35.264  21.838  26.536  1.00  0.00    -0.273 OA
ATOM     24  C   UNL A   1      35.464  21.190  25.513  1.00  0.00     0.240 C 
ATOM     25  H   UNL A   1      34.819  19.748  24.220  1.00  0.00     0.163 HD
BRANCH  24  26
ATOM     26  C   UNL A   1      36.660  21.441  24.595  1.00  0.00     0.230 C 
BRANCH  26  27
ATOM     27  N   UNL A   1      37.829  21.901  25.336  1.00  0.00    -0.250 N 
ATOM     28  C   UNL A   1      37.897  23.236  25.688  1.00  0.00     0.329 A 
ATOM     29  C   UNL A   1      38.803  20.959  25.657  1.00  0.00     0.264 A 
ATOM     30  O   UNL A   1      37.055  24.072  25.356  1.00  0.00    -0.248 OA
ATOM     31  N   UNL A   1      38.978  23.634  26.416  1.00  0.00    -0.307 N 
ATOM     32  C   UNL A   1      39.933  21.428  26.483  1.00  0.00     0.064 A 
ATOM     33  O   UNL A   1      38.758  19.780  25.318  1.00  0.00    -0.268 OA
ATOM     34  C   UNL A   1      39.986  22.772  26.835  1.00  0.00     0.055 A 
ATOM     35  H   UNL A   1      39.049  24.586  26.658  1.00  0.00     0.171 HD
ATOM     36  C   UNL A   1      40.924  20.546  26.922  1.00  0.00     0.016 A 
ATOM     37  C   UNL A   1      41.035  23.255  27.615  1.00  0.00     0.027 A 
ATOM     38  C   UNL A   1      41.968  21.023  27.714  1.00  0.00     0.001 A 
ATOM     39  C   UNL A   1      42.025  22.375  28.058  1.00  0.00     0.002 A 
ENDBRANCH  26  27
ENDBRANCH  24  26
ENDBRANCH  21  22
ENDBRANCH  16  21
ENDBRANCH   8  15
ENDBRANCH   5   7
ENDBRANCH   4   5
ENDBRANCH   3   4
ENDBRANCH   2   3
ENDBRANCH   1   2
BRANCH   1  40
ATOM     40  C   UNL A   1      35.641  32.855  29.054  1.00  0.00     0.188 C 
BRANCH  40  41
ATOM     41  C   UNL A   1      34.948  33.962  29.844  1.00  0.00     0.188 C 
BRANCH  41  42
ATOM     42  O   UNL A   1      34.182  33.540  30.966  1.00  0.00    -0.376 OA
BRANCH  42  43
ATOM     43  C   UNL A   1      34.773  32.492  31.747  1.00  0.00     0.202 C 
BRANCH  43  44
ATOM     44  C   UNL A   1      35.602  32.935  32.972  1.00  0.00     0.261 C 
BRANCH  44  45
ATOM     45  O   UNL A   1      36.215  31.861  33.719  1.00  0.00    -0.460 OA
BRANCH  45  46
ATOM     46  C   UNL A   1      37.242  32.160  34.550  1.00  0.00     0.338 C 
ATOM     47  O   UNL A   1      37.154  32.600  35.682  1.00  0.00    -0.246 OA
BRANCH  46  48
ATOM     48  C   UNL A   1      38.488  31.580  33.968  1.00  0.00     0.060 A 
ATOM     49  C   UNL A   1      38.450  30.556  33.014  1.00  0.00     0.016 A 
ATOM     50  C   UNL A   1      39.723  31.989  34.492  1.00  0.00     0.016 A 
ATOM     51  C   UNL A   1      39.640  29.963  32.576  1.00  0.00     0.010 A 
ATOM     52  C   UNL A   1      40.912  31.394  34.057  1.00  0.00     0.010 A 
ATOM     53  C   UNL A   1      40.882  30.387  33.080  1.00  0.00    -0.014 A 
BRANCH  53  54
ATOM     54  C   UNL A   1      42.138  29.927  32.434  1.00  0.00     0.031 A 
ATOM     55  C   UNL A   1      42.764  30.631  31.267  1.00  0.00     0.074 A 
ATOM     56  C   UNL A   1      42.720  28.819  32.931  1.00  0.00     0.049 A 
ATOM     57  N   UNL A   1      43.902  30.372  30.669  1.00  0.00    -0.248 NA
ATOM     58  C   UNL A   1      42.022  31.757  30.687  1.00  0.00     0.031 C 
ATOM     59  C   UNL A   1      42.192  28.029  34.043  1.00  0.00     0.029 A 
ATOM     60  N   UNL A   1      43.876  28.172  32.576  1.00  0.00    -0.354 N 
ATOM     61  C   UNL A   1      44.030  31.318  29.662  1.00  0.00     0.074 A 
ATOM     62  C   UNL A   1      42.827  32.126  29.697  1.00  0.00     0.031 C 
ATOM     63  C   UNL A   1      43.033  27.016  34.297  1.00  0.00     0.029 A 
ATOM     64  C   UNL A   1      44.147  27.075  33.354  1.00  0.00     0.049 A 
ATOM     65  H   UNL A   1      44.454  28.465  31.835  1.00  0.00     0.167 HD
ATOM     66  C   UNL A   1      45.066  31.502  28.804  1.00  0.00     0.037 A 
ATOM     67  C   UNL A   1      45.182  26.213  33.325  1.00  0.00     0.037 A 
ATOM     68  C   UNL A   1      46.255  30.683  28.758  1.00  0.00     0.049 A 
ATOM     69  C   UNL A   1      46.290  26.414  32.335  1.00  0.00     0.074 A 
ATOM     70  C   UNL A   1      47.373  30.832  27.953  1.00  0.00     0.029 A 
ATOM     71  N   UNL A   1      46.477  29.555  29.533  1.00  0.00    -0.354 N 
ATOM     72  N   UNL A   1      46.439  27.361  31.443  1.00  0.00    -0.248 NA
ATOM     73  C   UNL A   1      47.382  25.429  32.353  1.00  0.00     0.031 C 
ATOM     74  C   UNL A   1      48.244  29.766  28.201  1.00  0.00     0.029 A 
ATOM     75  C   UNL A   1      47.696  28.981  29.201  1.00  0.00     0.049 A 
ATOM     76  H   UNL A   1      45.860  29.212  30.219  1.00  0.00     0.167 HD
ATOM     77  C   UNL A   1      47.647  27.102  30.810  1.00  0.00     0.074 A 
ATOM     78  C   UNL A   1      48.200  25.916  31.430  1.00  0.00     0.031 C 
ATOM     79  C   UNL A   1      48.241  27.793  29.807  1.00  0.00     0.037 A 
BRANCH  66  80
ATOM     80  C   UNL A   1      44.987  32.652  27.840  1.00  0.00     0.064 A 
ATOM     81  C   UNL A   1      44.328  32.522  26.609  1.00  0.00     0.173 A 
ATOM     82  C   UNL A   1      45.465  33.923  28.197  1.00  0.00     0.173 A 
ATOM     83  F   UNL A   1      43.844  31.330  26.225  1.00  0.00    -0.203 F 
ATOM     84  C   UNL A   1      44.160  33.617  25.765  1.00  0.00     0.198 A 
ATOM     85  C   UNL A   1      45.273  35.022  27.362  1.00  0.00     0.198 A 
ATOM     86  F   UNL A   1      46.081  34.108  29.374  1.00  0.00    -0.203 F 
ATOM     87  F   UNL A   1      43.537  33.465  24.588  1.00  0.00    -0.200 F 
ATOM     88  C   UNL A   1      44.623  34.868  26.146  1.00  0.00     0.200 A 
ATOM     89  F   UNL A   1      45.696  36.235  27.744  1.00  0.00    -0.200 F 
ATOM     90  F   UNL A   1      44.433  35.926  25.346  1.00  0.00    -0.200 F 
ENDBRANCH  66  80
BRANCH  67  91
ATOM     91  C   UNL A   1      45.227  25.107  34.312  1.00  0.00     0.064 A 
ATOM     92  C   UNL A   1      45.714  25.325  35.608  1.00  0.00     0.173 A 
ATOM     93  C   UNL A   1      44.752  23.827  33.995  1.00  0.00     0.173 A 
ATOM     94  F   UNL A   1      46.195  26.530  35.948  1.00  0.00    -0.203 F 
ATOM     95  C   UNL A   1      45.730  24.300  36.549  1.00  0.00     0.198 A 
ATOM     96  C   UNL A   1      44.743  22.810  34.946  1.00  0.00     0.198 A 
ATOM     97  F   UNL A   1      44.270  23.574  32.769  1.00  0.00    -0.203 F 
ATOM     98  F   UNL A   1      46.229  24.525  37.772  1.00  0.00    -0.200 F 
ATOM     99  C   UNL A   1      45.237  23.046  36.220  1.00  0.00     0.200 A 
ATOM    100  F   UNL A   1      44.252  21.605  34.629  1.00  0.00    -0.200 F 
ATOM    101  F   UNL A   1      45.239  22.063  37.131  1.00  0.00    -0.200 F 
ENDBRANCH  67  91
BRANCH  79 102
ATOM    102  C   UNL A   1      49.565  27.288  29.307  1.00  0.00     0.064 A 
ATOM    103  C   UNL A   1      50.772  27.689  29.898  1.00  0.00     0.173 A 
ATOM    104  C   UNL A   1      49.625  26.358  28.257  1.00  0.00     0.173 A 
ATOM    105  F   UNL A   1      50.770  28.589  30.893  1.00  0.00    -0.203 F 
ATOM    106  C   UNL A   1      51.992  27.191  29.445  1.00  0.00     0.198 A 
ATOM    107  C   UNL A   1      50.845  25.841  27.826  1.00  0.00     0.198 A 
ATOM    108  F   UNL A   1      48.501  25.939  27.659  1.00  0.00    -0.203 F 
ATOM    109  F   UNL A   1      53.135  27.620  29.999  1.00  0.00    -0.200 F 
ATOM    110  C   UNL A   1      52.027  26.262  28.416  1.00  0.00     0.200 A 
ATOM    111  F   UNL A   1      50.876  24.935  26.839  1.00  0.00    -0.200 F 
ATOM    112  F   UNL A   1      53.201  25.777  27.990  1.00  0.00    -0.200 F 
ENDBRANCH  79 102
ENDBRANCH  53  54
ENDBRANCH  46  48
ENDBRANCH  45  46
ENDBRANCH  44  45
ENDBRANCH  43  44
ENDBRANCH  42  43
ENDBRANCH  41  42
ENDBRANCH  40  41
ENDBRANCH   1  40
TORSDOF 22
ENDMDL
