MODEL 1
REMARK VINA RESULT:      -8.5      0.000      0.000
REMARK SMILES O=C(OCCOCCOCCOC(=O)c1cc(Br)cc2c1OCC2)c1ccc(-c2c3nc(c(-c4c(F)c(F)c(F)c(F)c4F)c4ccc([nH]4)c(-c4c(F)c(F)c(F)c(F)c4F)c4nc(c(-c5c(F)c(F)c(F)c(F)c5F)c5ccc2[nH]5)C=C4)C=C3)cc1
REMARK SMILES IDX 7 1 6 2 5 3 4 4 3 5 2 6 1 7 25 8 26 9 87 10 27 11 86 12
REMARK SMILES IDX 28 13 29 14 30 15 80 16 31 17 85 18 79 19 81 20 32 21 84 22
REMARK SMILES IDX 78 23 77 24 33 26 65 27 45 28 64 29 46 30 49 31 63 32 82 33
REMARK SMILES IDX 47 34 48 35 62 37 83 38 50 39 34 40 35 41 43 42 36 43 37 44
REMARK SMILES IDX 41 45 44 46 38 47 39 48 42 49 40 50 66 51 67 52 75 53 68 54
REMARK SMILES IDX 69 55 73 56 76 57 70 58 71 59 74 60 72 61 51 62 52 63 60 64
REMARK SMILES IDX 53 65 54 66 58 67 61 68 55 69 56 70 59 71 57 72 8 73 9 74
REMARK SMILES IDX 10 75 11 76 12 77 13 78 14 79 15 80 16 81 21 82 17 83 20 84
REMARK SMILES IDX 22 85 18 86 19 87 24 88 23 89
REMARK H PARENT 81 25 49 36
REMARK Flexibility Score: inf
ROOT
ATOM      1  C   UNL A   1      45.516  20.376  24.492  1.00  0.00     0.188 C 
ENDROOT
BRANCH   1   2
ATOM      2  O   UNL A   1      44.141  19.983  24.603  1.00  0.00    -0.376 OA
BRANCH   2   3
ATOM      3  C   UNL A   1      43.954  18.690  25.181  1.00  0.00     0.202 C 
BRANCH   3   4
ATOM      4  C   UNL A   1      42.788  18.621  26.171  1.00  0.00     0.261 C 
BRANCH   4   5
ATOM      5  O   UNL A   1      41.581  19.147  25.597  1.00  0.00    -0.460 OA
BRANCH   5   6
ATOM      6  C   UNL A   1      40.879  20.233  26.002  1.00  0.00     0.338 C 
ATOM      7  O   UNL A   1      39.659  20.246  25.849  1.00  0.00    -0.246 OA
BRANCH   6   8
ATOM      8  C   UNL A   1      41.494  21.392  26.718  1.00  0.00     0.060 A 
ATOM      9  C   UNL A   1      41.719  21.474  28.094  1.00  0.00     0.016 A 
ATOM     10  C   UNL A   1      41.941  22.454  25.912  1.00  0.00     0.016 A 
ATOM     11  C   UNL A   1      42.245  22.629  28.674  1.00  0.00     0.010 A 
ATOM     12  C   UNL A   1      42.535  23.583  26.478  1.00  0.00     0.010 A 
ATOM     13  C   UNL A   1      42.639  23.699  27.870  1.00  0.00    -0.014 A 
BRANCH  13  14
ATOM     14  C   UNL A   1      43.012  24.997  28.473  1.00  0.00     0.031 A 
ATOM     15  C   UNL A   1      41.932  26.013  28.693  1.00  0.00     0.074 A 
ATOM     16  C   UNL A   1      44.278  25.263  28.835  1.00  0.00     0.049 A 
ATOM     17  N   UNL A   1      42.026  27.272  29.027  1.00  0.00    -0.248 NA
ATOM     18  C   UNL A   1      40.551  25.539  28.504  1.00  0.00     0.031 C 
ATOM     19  C   UNL A   1      45.393  24.323  28.765  1.00  0.00     0.029 A 
ATOM     20  N   UNL A   1      44.839  26.414  29.325  1.00  0.00    -0.354 N 
ATOM     21  C   UNL A   1      40.723  27.748  29.055  1.00  0.00     0.074 A 
ATOM     22  C   UNL A   1      39.857  26.650  28.686  1.00  0.00     0.031 C 
ATOM     23  C   UNL A   1      46.513  24.943  29.170  1.00  0.00     0.029 A 
ATOM     24  C   UNL A   1      46.201  26.334  29.476  1.00  0.00     0.049 A 
ATOM     25  H   UNL A   1      44.318  27.220  29.546  1.00  0.00     0.167 HD
ATOM     26  C   UNL A   1      40.290  28.992  29.363  1.00  0.00     0.037 A 
ATOM     27  C   UNL A   1      47.099  27.288  29.784  1.00  0.00     0.037 A 
ATOM     28  C   UNL A   1      41.160  30.070  29.745  1.00  0.00     0.049 A 
ATOM     29  C   UNL A   1      46.611  28.681  30.058  1.00  0.00     0.074 A 
ATOM     30  C   UNL A   1      40.839  31.378  30.052  1.00  0.00     0.029 A 
ATOM     31  N   UNL A   1      42.537  29.950  29.876  1.00  0.00    -0.354 N 
ATOM     32  N   UNL A   1      45.385  29.144  30.027  1.00  0.00    -0.248 NA
ATOM     33  C   UNL A   1      47.625  29.683  30.409  1.00  0.00     0.031 C 
ATOM     34  C   UNL A   1      42.027  32.058  30.346  1.00  0.00     0.029 A 
ATOM     35  C   UNL A   1      43.083  31.163  30.254  1.00  0.00     0.049 A 
ATOM     36  H   UNL A   1      43.049  29.123  29.723  1.00  0.00     0.167 HD
ATOM     37  C   UNL A   1      45.474  30.484  30.376  1.00  0.00     0.074 A 
ATOM     38  C   UNL A   1      46.877  30.759  30.613  1.00  0.00     0.031 C 
ATOM     39  C   UNL A   1      44.484  31.401  30.495  1.00  0.00     0.037 A 
BRANCH  26  40
ATOM     40  C   UNL A   1      38.816  29.240  29.241  1.00  0.00     0.064 A 
ATOM     41  C   UNL A   1      38.202  29.446  27.997  1.00  0.00     0.173 A 
ATOM     42  C   UNL A   1      38.022  29.340  30.393  1.00  0.00     0.173 A 
ATOM     43  F   UNL A   1      38.926  29.391  26.869  1.00  0.00    -0.203 F 
ATOM     44  C   UNL A   1      36.853  29.783  27.913  1.00  0.00     0.198 A 
ATOM     45  C   UNL A   1      36.669  29.653  30.304  1.00  0.00     0.198 A 
ATOM     46  F   UNL A   1      38.565  29.159  31.606  1.00  0.00    -0.203 F 
ATOM     47  F   UNL A   1      36.304  30.047  26.720  1.00  0.00    -0.200 F 
ATOM     48  C   UNL A   1      36.089  29.886  29.066  1.00  0.00     0.200 A 
ATOM     49  F   UNL A   1      35.931  29.753  31.418  1.00  0.00    -0.200 F 
ATOM     50  F   UNL A   1      34.797  30.233  28.985  1.00  0.00    -0.200 F 
ENDBRANCH  26  40
BRANCH  27  51
ATOM     51  C   UNL A   1      48.546  26.959  29.798  1.00  0.00     0.064 A 
ATOM     52  C   UNL A   1      49.167  26.454  30.947  1.00  0.00     0.173 A 
ATOM     53  C   UNL A   1      49.334  27.133  28.650  1.00  0.00     0.173 A 
ATOM     54  F   UNL A   1      48.457  26.292  32.073  1.00  0.00    -0.203 F 
ATOM     55  C   UNL A   1      50.524  26.139  30.949  1.00  0.00     0.198 A 
ATOM     56  C   UNL A   1      50.689  26.810  28.651  1.00  0.00     0.198 A 
ATOM     57  F   UNL A   1      48.781  27.604  27.522  1.00  0.00    -0.203 F 
ATOM     58  F   UNL A   1      51.100  25.679  32.069  1.00  0.00    -0.200 F 
ATOM     59  C   UNL A   1      51.284  26.314  29.802  1.00  0.00     0.200 A 
ATOM     60  F   UNL A   1      51.415  26.970  27.536  1.00  0.00    -0.200 F 
ATOM     61  F   UNL A   1      52.588  26.006  29.805  1.00  0.00    -0.200 F 
ENDBRANCH  27  51
BRANCH  39  62
ATOM     62  C   UNL A   1      44.875  32.774  30.941  1.00  0.00     0.064 A 
ATOM     63  C   UNL A   1      44.998  33.831  30.031  1.00  0.00     0.173 A 
ATOM     64  C   UNL A   1      45.060  33.044  32.305  1.00  0.00     0.173 A 
ATOM     65  F   UNL A   1      44.845  33.611  28.716  1.00  0.00    -0.203 F 
ATOM     66  C   UNL A   1      45.300  35.116  30.471  1.00  0.00     0.198 A 
ATOM     67  C   UNL A   1      45.343  34.333  32.743  1.00  0.00     0.198 A 
ATOM     68  F   UNL A   1      44.949  32.060  33.210  1.00  0.00    -0.203 F 
ATOM     69  F   UNL A   1      45.436  36.112  29.585  1.00  0.00    -0.200 F 
ATOM     70  C   UNL A   1      45.464  35.367  31.827  1.00  0.00     0.200 A 
ATOM     71  F   UNL A   1      45.493  34.577  34.052  1.00  0.00    -0.200 F 
ATOM     72  F   UNL A   1      45.741  36.609  32.250  1.00  0.00    -0.200 F 
ENDBRANCH  39  62
ENDBRANCH  13  14
ENDBRANCH   6   8
ENDBRANCH   5   6
ENDBRANCH   4   5
ENDBRANCH   3   4
ENDBRANCH   2   3
ENDBRANCH   1   2
BRANCH   1  73
ATOM     73  C   UNL A   1      45.742  21.757  25.116  1.00  0.00     0.188 C 
BRANCH  73  74
ATOM     74  O   UNL A   1      45.220  22.849  24.354  1.00  0.00    -0.376 OA
BRANCH  74  75
ATOM     75  C   UNL A   1      45.323  24.143  24.941  1.00  0.00     0.202 C 
BRANCH  75  76
ATOM     76  C   UNL A   1      46.729  24.612  25.324  1.00  0.00     0.261 C 
BRANCH  76  77
ATOM     77  O   UNL A   1      46.803  25.931  25.898  1.00  0.00    -0.460 OA
BRANCH  77  78
ATOM     78  C   UNL A   1      46.444  26.925  25.045  1.00  0.00     0.342 C 
ATOM     79  O   UNL A   1      46.789  27.058  23.883  1.00  0.00    -0.246 OA
BRANCH  78  80
ATOM     80  C   UNL A   1      45.723  27.999  25.738  1.00  0.00     0.103 A 
ATOM     81  C   UNL A   1      46.487  29.094  26.165  1.00  0.00     0.035 A 
ATOM     82  C   UNL A   1      44.342  28.079  25.813  1.00  0.00     0.137 A 
ATOM     83  C   UNL A   1      45.856  30.244  26.650  1.00  0.00     0.019 A 
ATOM     84  C   UNL A   1      43.726  29.232  26.286  1.00  0.00    -0.000 A 
ATOM     85  O   UNL A   1      43.452  27.118  25.419  1.00  0.00    -0.492 OA
ATOM     86  Br  UNL A   1      46.915  31.718  27.176  1.00  0.00    -0.051 Br
ATOM     87  C   UNL A   1      44.465  30.325  26.714  1.00  0.00     0.023 A 
ATOM     88  C   UNL A   1      42.255  29.087  26.225  1.00  0.00     0.081 C 
ATOM     89  C   UNL A   1      42.149  27.738  25.515  1.00  0.00     0.234 C 
ENDBRANCH  78  80
ENDBRANCH  77  78
ENDBRANCH  76  77
ENDBRANCH  75  76
ENDBRANCH  74  75
ENDBRANCH  73  74
ENDBRANCH   1  73
TORSDOF 17
ENDMDL
MODEL 2
REMARK VINA RESULT:      -8.5      4.097      9.486
REMARK SMILES O=C(OCCOCCOCCOC(=O)c1cc(Br)cc2c1OCC2)c1ccc(-c2c3nc(c(-c4c(F)c(F)c(F)c(F)c4F)c4ccc([nH]4)c(-c4c(F)c(F)c(F)c(F)c4F)c4nc(c(-c5c(F)c(F)c(F)c(F)c5F)c5ccc2[nH]5)C=C4)C=C3)cc1
REMARK SMILES IDX 7 1 6 2 5 3 4 4 3 5 2 6 1 7 25 8 26 9 87 10 27 11 86 12
REMARK SMILES IDX 28 13 29 14 30 15 80 16 31 17 85 18 79 19 81 20 32 21 84 22
REMARK SMILES IDX 78 23 77 24 33 26 65 27 45 28 64 29 46 30 49 31 63 32 82 33
REMARK SMILES IDX 47 34 48 35 62 37 83 38 50 39 34 40 35 41 43 42 36 43 37 44
REMARK SMILES IDX 41 45 44 46 38 47 39 48 42 49 40 50 66 51 67 52 75 53 68 54
REMARK SMILES IDX 69 55 73 56 76 57 70 58 71 59 74 60 72 61 51 62 52 63 60 64
REMARK SMILES IDX 53 65 54 66 58 67 61 68 55 69 56 70 59 71 57 72 8 73 9 74
REMARK SMILES IDX 10 75 11 76 12 77 13 78 14 79 15 80 16 81 21 82 17 83 20 84
REMARK SMILES IDX 22 85 18 86 19 87 24 88 23 89
REMARK H PARENT 81 25 49 36
REMARK Flexibility Score: inf
ROOT
ATOM      1  C   UNL A   1      41.499  21.408  26.391  1.00  0.00     0.188 C 
ENDROOT
BRANCH   1   2
ATOM      2  O   UNL A   1      41.971  20.164  26.928  1.00  0.00    -0.376 OA
BRANCH   2   3
ATOM      3  C   UNL A   1      42.044  19.110  25.966  1.00  0.00     0.202 C 
BRANCH   3   4
ATOM      4  C   UNL A   1      43.336  18.292  26.048  1.00  0.00     0.261 C 
BRANCH   4   5
ATOM      5  O   UNL A   1      44.087  18.371  24.827  1.00  0.00    -0.460 OA
BRANCH   5   6
ATOM      6  C   UNL A   1      45.006  19.306  24.483  1.00  0.00     0.338 C 
ATOM      7  O   UNL A   1      45.972  18.969  23.800  1.00  0.00    -0.246 OA
BRANCH   6   8
ATOM      8  C   UNL A   1      44.867  20.758  24.807  1.00  0.00     0.060 A 
ATOM      9  C   UNL A   1      44.355  21.738  23.953  1.00  0.00     0.016 A 
ATOM     10  C   UNL A   1      45.222  21.140  26.112  1.00  0.00     0.016 A 
ATOM     11  C   UNL A   1      44.324  23.082  24.330  1.00  0.00     0.010 A 
ATOM     12  C   UNL A   1      45.126  22.471  26.521  1.00  0.00     0.010 A 
ATOM     13  C   UNL A   1      44.728  23.459  25.611  1.00  0.00    -0.014 A 
BRANCH  13  14
ATOM     14  C   UNL A   1      44.887  24.887  25.960  1.00  0.00     0.031 A 
ATOM     15  C   UNL A   1      46.238  25.512  25.786  1.00  0.00     0.074 A 
ATOM     16  C   UNL A   1      43.853  25.619  26.406  1.00  0.00     0.049 A 
ATOM     17  N   UNL A   1      46.678  26.675  26.188  1.00  0.00    -0.248 NA
ATOM     18  C   UNL A   1      47.234  24.708  25.059  1.00  0.00     0.031 C 
ATOM     19  C   UNL A   1      42.474  25.151  26.521  1.00  0.00     0.029 A 
ATOM     20  N   UNL A   1      43.808  26.913  26.856  1.00  0.00    -0.354 N 
ATOM     21  C   UNL A   1      48.007  26.727  25.793  1.00  0.00     0.074 A 
ATOM     22  C   UNL A   1      48.309  25.474  25.137  1.00  0.00     0.031 C 
ATOM     23  C   UNL A   1      41.722  26.137  27.038  1.00  0.00     0.029 A 
ATOM     24  C   UNL A   1      42.575  27.280  27.336  1.00  0.00     0.049 A 
ATOM     25  H   UNL A   1      44.583  27.520  26.838  1.00  0.00     0.167 HD
ATOM     26  C   UNL A   1      48.895  27.734  25.963  1.00  0.00     0.037 A 
ATOM     27  C   UNL A   1      42.191  28.396  27.982  1.00  0.00     0.037 A 
ATOM     28  C   UNL A   1      48.576  28.981  26.601  1.00  0.00     0.049 A 
ATOM     29  C   UNL A   1      43.204  29.478  28.223  1.00  0.00     0.074 A 
ATOM     30  C   UNL A   1      49.399  30.062  26.854  1.00  0.00     0.029 A 
ATOM     31  N   UNL A   1      47.317  29.310  27.084  1.00  0.00    -0.354 N 
ATOM     32  N   UNL A   1      44.475  29.503  27.902  1.00  0.00    -0.248 NA
ATOM     33  C   UNL A   1      42.734  30.686  28.915  1.00  0.00     0.031 C 
ATOM     34  C   UNL A   1      48.641  31.038  27.514  1.00  0.00     0.029 A 
ATOM     35  C   UNL A   1      47.339  30.577  27.640  1.00  0.00     0.049 A 
ATOM     36  H   UNL A   1      46.523  28.728  27.036  1.00  0.00     0.167 HD
ATOM     37  C   UNL A   1      44.953  30.733  28.330  1.00  0.00     0.074 A 
ATOM     38  C   UNL A   1      43.833  31.426  28.936  1.00  0.00     0.031 C 
ATOM     39  C   UNL A   1      46.203  31.244  28.224  1.00  0.00     0.037 A 
BRANCH  26  40
ATOM     40  C   UNL A   1      50.295  27.483  25.491  1.00  0.00     0.064 A 
ATOM     41  C   UNL A   1      51.322  27.129  26.379  1.00  0.00     0.173 A 
ATOM     42  C   UNL A   1      50.625  27.664  24.140  1.00  0.00     0.173 A 
ATOM     43  F   UNL A   1      51.061  26.974  27.685  1.00  0.00    -0.203 F 
ATOM     44  C   UNL A   1      52.637  27.007  25.937  1.00  0.00     0.198 A 
ATOM     45  C   UNL A   1      51.937  27.517  23.698  1.00  0.00     0.198 A 
ATOM     46  F   UNL A   1      49.679  28.010  23.253  1.00  0.00    -0.203 F 
ATOM     47  F   UNL A   1      53.614  26.741  26.816  1.00  0.00    -0.200 F 
ATOM     48  C   UNL A   1      52.943  27.201  24.599  1.00  0.00     0.200 A 
ATOM     49  F   UNL A   1      52.231  27.705  22.404  1.00  0.00    -0.200 F 
ATOM     50  F   UNL A   1      54.212  27.105  24.180  1.00  0.00    -0.200 F 
ENDBRANCH  26  40
BRANCH  27  51
ATOM     51  C   UNL A   1      40.800  28.514  28.483  1.00  0.00     0.064 A 
ATOM     52  C   UNL A   1      40.467  28.161  29.797  1.00  0.00     0.173 A 
ATOM     53  C   UNL A   1      39.776  28.999  27.655  1.00  0.00     0.173 A 
ATOM     54  F   UNL A   1      41.408  27.674  30.617  1.00  0.00    -0.203 F 
ATOM     55  C   UNL A   1      39.159  28.284  30.263  1.00  0.00     0.198 A 
ATOM     56  C   UNL A   1      38.470  29.128  28.125  1.00  0.00     0.198 A 
ATOM     57  F   UNL A   1      40.048  29.359  26.392  1.00  0.00    -0.203 F 
ATOM     58  F   UNL A   1      38.861  27.918  31.518  1.00  0.00    -0.200 F 
ATOM     59  C   UNL A   1      38.163  28.770  29.429  1.00  0.00     0.200 A 
ATOM     60  F   UNL A   1      37.515  29.609  27.318  1.00  0.00    -0.200 F 
ATOM     61  F   UNL A   1      36.907  28.891  29.881  1.00  0.00    -0.200 F 
ENDBRANCH  27  51
BRANCH  39  62
ATOM     62  C   UNL A   1      46.418  32.633  28.734  1.00  0.00     0.064 A 
ATOM     63  C   UNL A   1      46.824  32.873  30.054  1.00  0.00     0.173 A 
ATOM     64  C   UNL A   1      46.281  33.729  27.871  1.00  0.00     0.173 A 
ATOM     65  F   UNL A   1      46.950  31.853  30.917  1.00  0.00    -0.203 F 
ATOM     66  C   UNL A   1      47.080  34.167  30.494  1.00  0.00     0.198 A 
ATOM     67  C   UNL A   1      46.558  35.020  28.308  1.00  0.00     0.198 A 
ATOM     68  F   UNL A   1      45.897  33.544  26.599  1.00  0.00    -0.203 F 
ATOM     69  F   UNL A   1      47.447  34.381  31.765  1.00  0.00    -0.200 F 
ATOM     70  C   UNL A   1      46.956  35.238  29.619  1.00  0.00     0.200 A 
ATOM     71  F   UNL A   1      46.445  36.052  27.462  1.00  0.00    -0.200 F 
ATOM     72  F   UNL A   1      47.218  36.483  30.042  1.00  0.00    -0.200 F 
ENDBRANCH  39  62
ENDBRANCH  13  14
ENDBRANCH   6   8
ENDBRANCH   5   6
ENDBRANCH   4   5
ENDBRANCH   3   4
ENDBRANCH   2   3
ENDBRANCH   1   2
BRANCH   1  73
ATOM     73  C   UNL A   1      40.031  21.642  26.764  1.00  0.00     0.188 C 
BRANCH  73  74
ATOM     74  O   UNL A   1      39.734  22.967  27.216  1.00  0.00    -0.376 OA
BRANCH  74  75
ATOM     75  C   UNL A   1      38.707  23.663  26.518  1.00  0.00     0.202 C 
BRANCH  75  76
ATOM     76  C   UNL A   1      37.766  22.814  25.658  1.00  0.00     0.261 C 
BRANCH  76  77
ATOM     77  O   UNL A   1      36.645  23.520  25.091  1.00  0.00    -0.460 OA
BRANCH  77  78
ATOM     78  C   UNL A   1      36.323  23.124  23.833  1.00  0.00     0.342 C 
ATOM     79  O   UNL A   1      37.000  23.247  22.826  1.00  0.00    -0.246 OA
BRANCH  78  80
ATOM     80  C   UNL A   1      34.924  22.691  23.743  1.00  0.00     0.103 A 
ATOM     81  C   UNL A   1      34.608  21.462  24.341  1.00  0.00     0.035 A 
ATOM     82  C   UNL A   1      33.892  23.496  23.289  1.00  0.00     0.137 A 
ATOM     83  C   UNL A   1      33.272  21.071  24.477  1.00  0.00     0.019 A 
ATOM     84  C   UNL A   1      32.568  23.102  23.440  1.00  0.00    -0.000 A 
ATOM     85  O   UNL A   1      34.023  24.726  22.707  1.00  0.00    -0.492 OA
ATOM     86  Br  UNL A   1      32.880  19.430  25.327  1.00  0.00    -0.051 Br
ATOM     87  C   UNL A   1      32.236  21.889  24.027  1.00  0.00     0.023 A 
ATOM     88  C   UNL A   1      31.660  24.147  22.919  1.00  0.00     0.081 C 
ATOM     89  C   UNL A   1      32.675  25.240  22.588  1.00  0.00     0.234 C 
ENDBRANCH  78  80
ENDBRANCH  77  78
ENDBRANCH  76  77
ENDBRANCH  75  76
ENDBRANCH  74  75
ENDBRANCH  73  74
ENDBRANCH   1  73
TORSDOF 17
ENDMDL
MODEL 3
REMARK VINA RESULT:      -8.4      5.735     10.210
REMARK SMILES O=C(OCCOCCOCCOC(=O)c1cc(Br)cc2c1OCC2)c1ccc(-c2c3nc(c(-c4c(F)c(F)c(F)c(F)c4F)c4ccc([nH]4)c(-c4c(F)c(F)c(F)c(F)c4F)c4nc(c(-c5c(F)c(F)c(F)c(F)c5F)c5ccc2[nH]5)C=C4)C=C3)cc1
REMARK SMILES IDX 7 1 6 2 5 3 4 4 3 5 2 6 1 7 25 8 26 9 87 10 27 11 86 12
REMARK SMILES IDX 28 13 29 14 30 15 80 16 31 17 85 18 79 19 81 20 32 21 84 22
REMARK SMILES IDX 78 23 77 24 33 26 65 27 45 28 64 29 46 30 49 31 63 32 82 33
REMARK SMILES IDX 47 34 48 35 62 37 83 38 50 39 34 40 35 41 43 42 36 43 37 44
REMARK SMILES IDX 41 45 44 46 38 47 39 48 42 49 40 50 66 51 67 52 75 53 68 54
REMARK SMILES IDX 69 55 73 56 76 57 70 58 71 59 74 60 72 61 51 62 52 63 60 64
REMARK SMILES IDX 53 65 54 66 58 67 61 68 55 69 56 70 59 71 57 72 8 73 9 74
REMARK SMILES IDX 10 75 11 76 12 77 13 78 14 79 15 80 16 81 21 82 17 83 20 84
REMARK SMILES IDX 22 85 18 86 19 87 24 88 23 89
REMARK H PARENT 81 25 49 36
REMARK Flexibility Score: inf
ROOT
ATOM      1  C   UNL A   1      31.559  29.747  25.237  1.00  0.00     0.188 C 
ENDROOT
BRANCH   1   2
ATOM      2  O   UNL A   1      31.056  31.011  25.692  1.00  0.00    -0.376 OA
BRANCH   2   3
ATOM      3  C   UNL A   1      31.798  31.571  26.777  1.00  0.00     0.202 C 
BRANCH   3   4
ATOM      4  C   UNL A   1      31.827  33.102  26.777  1.00  0.00     0.261 C 
BRANCH   4   5
ATOM      5  O   UNL A   1      32.633  33.612  27.851  1.00  0.00    -0.460 OA
BRANCH   5   6
ATOM      6  C   UNL A   1      33.958  33.894  27.826  1.00  0.00     0.338 C 
ATOM      7  O   UNL A   1      34.325  35.000  27.430  1.00  0.00    -0.246 OA
BRANCH   6   8
ATOM      8  C   UNL A   1      35.009  32.966  28.344  1.00  0.00     0.060 A 
ATOM      9  C   UNL A   1      34.830  31.611  28.630  1.00  0.00     0.016 A 
ATOM     10  C   UNL A   1      36.300  33.505  28.483  1.00  0.00     0.016 A 
ATOM     11  C   UNL A   1      35.863  30.843  29.170  1.00  0.00     0.010 A 
ATOM     12  C   UNL A   1      37.356  32.724  28.954  1.00  0.00     0.010 A 
ATOM     13  C   UNL A   1      37.128  31.400  29.353  1.00  0.00    -0.014 A 
BRANCH  13  14
ATOM     14  C   UNL A   1      38.174  30.667  30.099  1.00  0.00     0.031 A 
ATOM     15  C   UNL A   1      38.371  30.996  31.548  1.00  0.00     0.074 A 
ATOM     16  C   UNL A   1      38.921  29.719  29.510  1.00  0.00     0.049 A 
ATOM     17  N   UNL A   1      39.327  30.635  32.363  1.00  0.00    -0.248 NA
ATOM     18  C   UNL A   1      37.346  31.855  32.162  1.00  0.00     0.031 C 
ATOM     19  C   UNL A   1      38.755  29.243  28.139  1.00  0.00     0.029 A 
ATOM     20  N   UNL A   1      39.979  28.993  29.992  1.00  0.00    -0.354 N 
ATOM     21  C   UNL A   1      39.037  31.251  33.572  1.00  0.00     0.074 A 
ATOM     22  C   UNL A   1      37.828  32.022  33.382  1.00  0.00     0.031 C 
ATOM     23  C   UNL A   1      39.698  28.323  27.881  1.00  0.00     0.029 A 
ATOM     24  C   UNL A   1      40.561  28.186  29.047  1.00  0.00     0.049 A 
ATOM     25  H   UNL A   1      40.292  29.046  30.925  1.00  0.00     0.167 HD
ATOM     26  C   UNL A   1      39.720  31.176  34.737  1.00  0.00     0.037 A 
ATOM     27  C   UNL A   1      41.689  27.455  29.105  1.00  0.00     0.037 A 
ATOM     28  C   UNL A   1      40.910  30.392  34.917  1.00  0.00     0.049 A 
ATOM     29  C   UNL A   1      42.474  27.434  30.385  1.00  0.00     0.074 A 
ATOM     30  C   UNL A   1      41.702  30.261  36.042  1.00  0.00     0.029 A 
ATOM     31  N   UNL A   1      41.475  29.595  33.930  1.00  0.00    -0.354 N 
ATOM     32  N   UNL A   1      42.232  28.062  31.510  1.00  0.00    -0.248 NA
ATOM     33  C   UNL A   1      43.688  26.606  30.406  1.00  0.00     0.031 C 
ATOM     34  C   UNL A   1      42.763  29.402  35.727  1.00  0.00     0.029 A 
ATOM     35  C   UNL A   1      42.610  28.972  34.417  1.00  0.00     0.049 A 
ATOM     36  H   UNL A   1      41.119  29.488  33.018  1.00  0.00     0.167 HD
ATOM     37  C   UNL A   1      43.245  27.690  32.380  1.00  0.00     0.074 A 
ATOM     38  C   UNL A   1      44.108  26.781  31.652  1.00  0.00     0.031 C 
ATOM     39  C   UNL A   1      43.440  28.063  33.669  1.00  0.00     0.037 A 
BRANCH  26  40
ATOM     40  C   UNL A   1      39.206  32.010  35.872  1.00  0.00     0.064 A 
ATOM     41  C   UNL A   1      39.651  33.323  36.085  1.00  0.00     0.173 A 
ATOM     42  C   UNL A   1      38.307  31.461  36.798  1.00  0.00     0.173 A 
ATOM     43  F   UNL A   1      40.535  33.881  35.244  1.00  0.00    -0.203 F 
ATOM     44  C   UNL A   1      39.245  34.042  37.206  1.00  0.00     0.198 A 
ATOM     45  C   UNL A   1      37.884  32.192  37.904  1.00  0.00     0.198 A 
ATOM     46  F   UNL A   1      37.858  30.206  36.642  1.00  0.00    -0.203 F 
ATOM     47  F   UNL A   1      39.740  35.268  37.428  1.00  0.00    -0.200 F 
ATOM     48  C   UNL A   1      38.363  33.477  38.114  1.00  0.00     0.200 A 
ATOM     49  F   UNL A   1      37.032  31.644  38.782  1.00  0.00    -0.200 F 
ATOM     50  F   UNL A   1      37.991  34.161  39.204  1.00  0.00    -0.200 F 
ENDBRANCH  26  40
BRANCH  27  51
ATOM     51  C   UNL A   1      42.158  26.729  27.899  1.00  0.00     0.064 A 
ATOM     52  C   UNL A   1      43.023  27.331  26.977  1.00  0.00     0.173 A 
ATOM     53  C   UNL A   1      41.757  25.407  27.654  1.00  0.00     0.173 A 
ATOM     54  F   UNL A   1      43.416  28.600  27.160  1.00  0.00    -0.203 F 
ATOM     55  C   UNL A   1      43.467  26.639  25.851  1.00  0.00     0.198 A 
ATOM     56  C   UNL A   1      42.207  24.714  26.532  1.00  0.00     0.198 A 
ATOM     57  F   UNL A   1      40.936  24.785  28.514  1.00  0.00    -0.203 F 
ATOM     58  F   UNL A   1      44.277  27.246  24.972  1.00  0.00    -0.200 F 
ATOM     59  C   UNL A   1      43.061  25.331  25.631  1.00  0.00     0.200 A 
ATOM     60  F   UNL A   1      41.820  23.446  26.330  1.00  0.00    -0.200 F 
ATOM     61  F   UNL A   1      43.492  24.666  24.550  1.00  0.00    -0.200 F 
ENDBRANCH  27  51
BRANCH  39  62
ATOM     62  C   UNL A   1      44.603  27.455  34.386  1.00  0.00     0.064 A 
ATOM     63  C   UNL A   1      44.494  26.223  35.045  1.00  0.00     0.173 A 
ATOM     64  C   UNL A   1      45.856  28.084  34.353  1.00  0.00     0.173 A 
ATOM     65  F   UNL A   1      43.310  25.597  35.113  1.00  0.00    -0.203 F 
ATOM     66  C   UNL A   1      45.603  25.643  35.652  1.00  0.00     0.198 A 
ATOM     67  C   UNL A   1      46.967  27.491  34.944  1.00  0.00     0.198 A 
ATOM     68  F   UNL A   1      46.005  29.263  33.731  1.00  0.00    -0.203 F 
ATOM     69  F   UNL A   1      45.477  24.474  36.297  1.00  0.00    -0.200 F 
ATOM     70  C   UNL A   1      46.839  26.272  35.594  1.00  0.00     0.200 A 
ATOM     71  F   UNL A   1      48.161  28.095  34.882  1.00  0.00    -0.200 F 
ATOM     72  F   UNL A   1      47.909  25.703  36.169  1.00  0.00    -0.200 F 
ENDBRANCH  39  62
ENDBRANCH  13  14
ENDBRANCH   6   8
ENDBRANCH   5   6
ENDBRANCH   4   5
ENDBRANCH   3   4
ENDBRANCH   2   3
ENDBRANCH   1   2
BRANCH   1  73
ATOM     73  C   UNL A   1      31.834  28.810  26.418  1.00  0.00     0.188 C 
BRANCH  73  74
ATOM     74  O   UNL A   1      32.800  27.788  26.157  1.00  0.00    -0.376 OA
BRANCH  74  75
ATOM     75  C   UNL A   1      33.065  27.497  24.789  1.00  0.00     0.202 C 
BRANCH  75  76
ATOM     76  C   UNL A   1      32.289  26.329  24.173  1.00  0.00     0.261 C 
BRANCH  76  77
ATOM     77  O   UNL A   1      32.850  25.023  24.411  1.00  0.00    -0.460 OA
BRANCH  77  78
ATOM     78  C   UNL A   1      33.843  24.684  23.550  1.00  0.00     0.342 C 
ATOM     79  O   UNL A   1      33.967  25.041  22.390  1.00  0.00    -0.246 OA
BRANCH  78  80
ATOM     80  C   UNL A   1      34.701  23.628  24.101  1.00  0.00     0.103 A 
ATOM     81  C   UNL A   1      35.884  24.043  24.727  1.00  0.00     0.035 A 
ATOM     82  C   UNL A   1      34.320  22.301  24.209  1.00  0.00     0.137 A 
ATOM     83  C   UNL A   1      36.655  23.127  25.451  1.00  0.00     0.019 A 
ATOM     84  C   UNL A   1      35.087  21.402  24.940  1.00  0.00    -0.000 A 
ATOM     85  O   UNL A   1      33.190  21.737  23.683  1.00  0.00    -0.492 OA
ATOM     86  Br  UNL A   1      38.221  23.731  26.318  1.00  0.00    -0.051 Br
ATOM     87  C   UNL A   1      36.262  21.794  25.565  1.00  0.00     0.023 A 
ATOM     88  C   UNL A   1      34.450  20.067  24.942  1.00  0.00     0.081 C 
ATOM     89  C   UNL A   1      33.142  20.396  24.222  1.00  0.00     0.234 C 
ENDBRANCH  78  80
ENDBRANCH  77  78
ENDBRANCH  76  77
ENDBRANCH  75  76
ENDBRANCH  74  75
ENDBRANCH  73  74
ENDBRANCH   1  73
TORSDOF 17
ENDMDL
