MODEL 1
REMARK VINA RESULT:     -11.4      0.000      0.000
REMARK SMILES CCCc1cc2c(cc1Cl)C=C(C(=O)OCCOCCOCCOC(=O)c1ccc(-c3c4nc(c(-c5c(F)c(F)c(F)c(F)c5F)c5ccc([nH]5)c(-c5c(F)c(F)c(F)c(F)c5F)c5nc(c(-c6c(F)c(F)c(F)c(F)c6F)c6ccc3[nH]6)C=C5)C=C4)cc1)[C@@H](C(F)(F)F)O2
REMARK SMILES IDX 19 1 18 2 17 3 16 4 15 5 13 6 14 7 12 8 4 9 5 10 9 11 6 12
REMARK SMILES IDX 8 13 10 14 7 15 95 16 11 17 90 18 3 19 2 20 1 21 91 22 92 23
REMARK SMILES IDX 93 24 94 25 20 26 21 27 22 28 23 29 24 30 25 31 26 32 27 33
REMARK SMILES IDX 28 34 89 35 29 36 88 37 30 38 31 39 32 40 82 41 33 42 87 43
REMARK SMILES IDX 81 44 83 45 34 46 86 47 80 48 79 49 35 51 67 52 47 53 66 54
REMARK SMILES IDX 48 55 51 56 65 57 84 58 49 59 50 60 64 62 85 63 52 64 36 65
REMARK SMILES IDX 37 66 45 67 38 68 39 69 43 70 46 71 40 72 41 73 44 74 42 75
REMARK SMILES IDX 68 76 69 77 77 78 70 79 71 80 75 81 78 82 72 83 73 84 76 85
REMARK SMILES IDX 74 86 53 87 54 88 62 89 55 90 56 91 60 92 63 93 57 94 58 95
REMARK SMILES IDX 61 96 59 97
REMARK H PARENT 83 50 51 61
REMARK Flexibility Score: inf
ROOT
ATOM      1  C   UNL A   1      41.160  20.883  27.196  1.00  0.00     0.188 C 
ENDROOT
BRANCH   1   2
ATOM      2  O   UNL A   1      39.870  21.450  27.246  1.00  0.00    -0.376 OA
BRANCH   2   3
ATOM      3  C   UNL A   1      39.279  22.042  26.101  1.00  0.00     0.202 C 
BRANCH   3   4
ATOM      4  C   UNL A   1      38.062  21.449  25.378  1.00  0.00     0.261 C 
BRANCH   4   5
ATOM      5  O   UNL A   1      36.951  22.337  25.218  1.00  0.00    -0.460 OA
BRANCH   5   6
ATOM      6  C   UNL A   1      35.765  21.722  25.000  1.00  0.00     0.338 C 
ATOM      7  O   UNL A   1      35.563  20.517  24.953  1.00  0.00    -0.246 OA
BRANCH   6   8
ATOM      8  C   UNL A   1      34.677  22.716  24.996  1.00  0.00     0.087 C 
ATOM      9  C   UNL A   1      32.083  27.011  24.508  1.00  0.00    -0.026 A 
ATOM     10  C   UNL A   1      31.843  25.756  25.128  1.00  0.00     0.052 A 
ATOM     11  C   UNL A   1      33.261  27.136  23.755  1.00  0.00     0.045 A 
ATOM     12  C   UNL A   1      32.743  24.692  25.027  1.00  0.00     0.128 A 
ATOM     13  C   UNL A   1      34.134  26.049  23.610  1.00  0.00     0.032 A 
ATOM     14  Cl  UNL A   1      33.808  28.592  23.007  1.00  0.00    -0.084 Cl
ATOM     15  C   UNL A   1      33.894  24.842  24.265  1.00  0.00     0.019 A 
ATOM     16  O   UNL A   1      32.434  23.549  25.711  1.00  0.00    -0.475 OA
ATOM     17  C   UNL A   1      34.878  23.782  24.215  1.00  0.00     0.027 C 
ATOM     18  C   UNL A   1      33.457  22.518  25.851  1.00  0.00     0.316 C 
BRANCH   9  19
ATOM     19  C   UNL A   1      31.075  28.099  24.844  1.00  0.00     0.037 C 
BRANCH  19  20
ATOM     20  C   UNL A   1      30.348  28.915  23.771  1.00  0.00     0.001 C 
ATOM     21  C   UNL A   1      30.172  28.184  22.449  1.00  0.00     0.004 C 
ENDBRANCH  19  20
ENDBRANCH   9  19
BRANCH  18  22
ATOM     22  C   UNL A   1      33.821  22.360  27.334  1.00  0.00     0.430 C 
ATOM     23  F   UNL A   1      32.750  22.574  28.134  1.00  0.00    -0.167 F 
ATOM     24  F   UNL A   1      34.266  21.109  27.604  1.00  0.00    -0.167 F 
ATOM     25  F   UNL A   1      34.791  23.224  27.712  1.00  0.00    -0.167 F 
ENDBRANCH  18  22
ENDBRANCH   6   8
ENDBRANCH   5   6
ENDBRANCH   4   5
ENDBRANCH   3   4
ENDBRANCH   2   3
ENDBRANCH   1   2
BRANCH   1  26
ATOM     26  C   UNL A   1      41.477  19.708  26.246  1.00  0.00     0.188 C 
BRANCH  26  27
ATOM     27  O   UNL A   1      42.603  19.744  25.399  1.00  0.00    -0.376 OA
BRANCH  27  28
ATOM     28  C   UNL A   1      43.662  20.653  25.654  1.00  0.00     0.202 C 
BRANCH  28  29
ATOM     29  C   UNL A   1      43.863  21.960  24.873  1.00  0.00     0.261 C 
BRANCH  29  30
ATOM     30  O   UNL A   1      43.086  23.079  25.313  1.00  0.00    -0.460 OA
BRANCH  30  31
ATOM     31  C   UNL A   1      43.723  24.276  25.269  1.00  0.00     0.338 C 
ATOM     32  O   UNL A   1      44.575  24.634  24.476  1.00  0.00    -0.246 OA
BRANCH  31  33
ATOM     33  C   UNL A   1      43.072  25.196  26.222  1.00  0.00     0.060 A 
ATOM     34  C   UNL A   1      42.090  24.742  27.100  1.00  0.00     0.016 A 
ATOM     35  C   UNL A   1      43.472  26.540  26.229  1.00  0.00     0.016 A 
ATOM     36  C   UNL A   1      41.532  25.634  28.019  1.00  0.00     0.010 A 
ATOM     37  C   UNL A   1      42.902  27.434  27.136  1.00  0.00     0.010 A 
ATOM     38  C   UNL A   1      41.949  26.978  28.058  1.00  0.00    -0.014 A 
BRANCH  38  39
ATOM     39  C   UNL A   1      41.545  27.840  29.194  1.00  0.00     0.031 A 
ATOM     40  C   UNL A   1      40.372  28.765  29.123  1.00  0.00     0.074 A 
ATOM     41  C   UNL A   1      42.285  27.774  30.317  1.00  0.00     0.049 A 
ATOM     42  N   UNL A   1      39.839  29.486  30.079  1.00  0.00    -0.248 NA
ATOM     43  C   UNL A   1      39.715  28.912  27.817  1.00  0.00     0.031 C 
ATOM     44  C   UNL A   1      43.481  26.944  30.479  1.00  0.00     0.029 A 
ATOM     45  N   UNL A   1      42.142  28.396  31.531  1.00  0.00    -0.354 N 
ATOM     46  C   UNL A   1      38.766  30.149  29.502  1.00  0.00     0.074 A 
ATOM     47  C   UNL A   1      38.757  29.788  28.098  1.00  0.00     0.031 C 
ATOM     48  C   UNL A   1      43.941  27.080  31.731  1.00  0.00     0.029 A 
ATOM     49  C   UNL A   1      43.085  28.019  32.453  1.00  0.00     0.049 A 
ATOM     50  H   UNL A   1      41.431  29.050  31.722  1.00  0.00     0.167 HD
ATOM     51  C   UNL A   1      37.864  30.962  30.103  1.00  0.00     0.037 A 
ATOM     52  C   UNL A   1      43.239  28.374  33.742  1.00  0.00     0.037 A 
ATOM     53  C   UNL A   1      37.897  31.329  31.498  1.00  0.00     0.049 A 
ATOM     54  C   UNL A   1      42.244  29.306  34.372  1.00  0.00     0.074 A 
ATOM     55  C   UNL A   1      36.998  32.112  32.204  1.00  0.00     0.029 A 
ATOM     56  N   UNL A   1      38.887  30.955  32.396  1.00  0.00    -0.354 N 
ATOM     57  N   UNL A   1      41.174  29.848  33.846  1.00  0.00    -0.248 NA
ATOM     58  C   UNL A   1      42.471  29.669  35.778  1.00  0.00     0.031 C 
ATOM     59  C   UNL A   1      37.472  32.258  33.510  1.00  0.00     0.029 A 
ATOM     60  C   UNL A   1      38.636  31.518  33.639  1.00  0.00     0.049 A 
ATOM     61  H   UNL A   1      39.654  30.377  32.183  1.00  0.00     0.167 HD
ATOM     62  C   UNL A   1      40.585  30.592  34.859  1.00  0.00     0.074 A 
ATOM     63  C   UNL A   1      41.412  30.424  36.035  1.00  0.00     0.031 C 
ATOM     64  C   UNL A   1      39.458  31.342  34.811  1.00  0.00     0.037 A 
BRANCH  51  65
ATOM     65  C   UNL A   1      36.737  31.504  29.271  1.00  0.00     0.064 A 
ATOM     66  C   UNL A   1      35.668  30.685  28.877  1.00  0.00     0.173 A 
ATOM     67  C   UNL A   1      36.664  32.871  28.961  1.00  0.00     0.173 A 
ATOM     68  F   UNL A   1      35.688  29.371  29.150  1.00  0.00    -0.203 F 
ATOM     69  C   UNL A   1      34.575  31.211  28.192  1.00  0.00     0.198 A 
ATOM     70  C   UNL A   1      35.556  33.398  28.300  1.00  0.00     0.198 A 
ATOM     71  F   UNL A   1      37.649  33.702  29.329  1.00  0.00    -0.203 F 
ATOM     72  F   UNL A   1      33.576  30.404  27.808  1.00  0.00    -0.200 F 
ATOM     73  C   UNL A   1      34.515  32.567  27.915  1.00  0.00     0.200 A 
ATOM     74  F   UNL A   1      35.489  34.713  28.051  1.00  0.00    -0.200 F 
ATOM     75  F   UNL A   1      33.450  33.076  27.278  1.00  0.00    -0.200 F 
ENDBRANCH  51  65
BRANCH  52  76
ATOM     76  C   UNL A   1      44.348  27.781  34.530  1.00  0.00     0.064 A 
ATOM     77  C   UNL A   1      45.585  28.432  34.627  1.00  0.00     0.173 A 
ATOM     78  C   UNL A   1      44.179  26.585  35.242  1.00  0.00     0.173 A 
ATOM     79  F   UNL A   1      45.796  29.572  33.954  1.00  0.00    -0.203 F 
ATOM     80  C   UNL A   1      46.614  27.905  35.403  1.00  0.00     0.198 A 
ATOM     81  C   UNL A   1      45.200  26.073  36.039  1.00  0.00     0.198 A 
ATOM     82  F   UNL A   1      43.010  25.930  35.188  1.00  0.00    -0.203 F 
ATOM     83  F   UNL A   1      47.796  28.534  35.459  1.00  0.00    -0.200 F 
ATOM     84  C   UNL A   1      46.418  26.731  36.116  1.00  0.00     0.200 A 
ATOM     85  F   UNL A   1      45.000  24.949  36.741  1.00  0.00    -0.200 F 
ATOM     86  F   UNL A   1      47.403  26.234  36.876  1.00  0.00    -0.200 F 
ENDBRANCH  52  76
BRANCH  64  87
ATOM     87  C   UNL A   1      39.022  32.033  36.071  1.00  0.00     0.064 A 
ATOM     88  C   UNL A   1      39.399  33.354  36.351  1.00  0.00     0.173 A 
ATOM     89  C   UNL A   1      38.143  31.397  36.961  1.00  0.00     0.173 A 
ATOM     90  F   UNL A   1      40.249  34.001  35.539  1.00  0.00    -0.203 F 
ATOM     91  C   UNL A   1      38.915  34.013  37.479  1.00  0.00     0.198 A 
ATOM     92  C   UNL A   1      37.640  32.067  38.073  1.00  0.00     0.198 A 
ATOM     93  F   UNL A   1      37.750  30.135  36.737  1.00  0.00    -0.203 F 
ATOM     94  F   UNL A   1      39.307  35.267  37.741  1.00  0.00    -0.200 F 
ATOM     95  C   UNL A   1      38.026  33.373  38.331  1.00  0.00     0.200 A 
ATOM     96  F   UNL A   1      36.769  31.453  38.887  1.00  0.00    -0.200 F 
ATOM     97  F   UNL A   1      37.543  34.016  39.402  1.00  0.00    -0.200 F 
ENDBRANCH  64  87
ENDBRANCH  38  39
ENDBRANCH  31  33
ENDBRANCH  30  31
ENDBRANCH  29  30
ENDBRANCH  28  29
ENDBRANCH  27  28
ENDBRANCH  26  27
ENDBRANCH   1  26
TORSDOF 20
ENDMDL
MODEL 2
REMARK VINA RESULT:     -11.1      1.365      7.325
REMARK SMILES CCCc1cc2c(cc1Cl)C=C(C(=O)OCCOCCOCCOC(=O)c1ccc(-c3c4nc(c(-c5c(F)c(F)c(F)c(F)c5F)c5ccc([nH]5)c(-c5c(F)c(F)c(F)c(F)c5F)c5nc(c(-c6c(F)c(F)c(F)c(F)c6F)c6ccc3[nH]6)C=C5)C=C4)cc1)[C@@H](C(F)(F)F)O2
REMARK SMILES IDX 19 1 18 2 17 3 16 4 15 5 13 6 14 7 12 8 4 9 5 10 9 11 6 12
REMARK SMILES IDX 8 13 10 14 7 15 95 16 11 17 90 18 3 19 2 20 1 21 91 22 92 23
REMARK SMILES IDX 93 24 94 25 20 26 21 27 22 28 23 29 24 30 25 31 26 32 27 33
REMARK SMILES IDX 28 34 89 35 29 36 88 37 30 38 31 39 32 40 82 41 33 42 87 43
REMARK SMILES IDX 81 44 83 45 34 46 86 47 80 48 79 49 35 51 67 52 47 53 66 54
REMARK SMILES IDX 48 55 51 56 65 57 84 58 49 59 50 60 64 62 85 63 52 64 36 65
REMARK SMILES IDX 37 66 45 67 38 68 39 69 43 70 46 71 40 72 41 73 44 74 42 75
REMARK SMILES IDX 68 76 69 77 77 78 70 79 71 80 75 81 78 82 72 83 73 84 76 85
REMARK SMILES IDX 74 86 53 87 54 88 62 89 55 90 56 91 60 92 63 93 57 94 58 95
REMARK SMILES IDX 61 96 59 97
REMARK H PARENT 83 50 51 61
REMARK Flexibility Score: inf
ROOT
ATOM      1  C   UNL A   1      40.621  21.784  27.342  1.00  0.00     0.188 C 
ENDROOT
BRANCH   1   2
ATOM      2  O   UNL A   1      40.024  22.700  26.451  1.00  0.00    -0.376 OA
BRANCH   2   3
ATOM      3  C   UNL A   1      38.746  22.457  25.888  1.00  0.00     0.202 C 
BRANCH   3   4
ATOM      4  C   UNL A   1      37.485  23.230  26.296  1.00  0.00     0.261 C 
BRANCH   4   5
ATOM      5  O   UNL A   1      36.447  23.275  25.310  1.00  0.00    -0.460 OA
BRANCH   5   6
ATOM      6  C   UNL A   1      35.220  23.575  25.796  1.00  0.00     0.338 C 
ATOM      7  O   UNL A   1      34.753  23.223  26.869  1.00  0.00    -0.246 OA
BRANCH   6   8
ATOM      8  C   UNL A   1      34.558  24.554  24.918  1.00  0.00     0.087 C 
ATOM      9  C   UNL A   1      31.872  28.482  23.249  1.00  0.00    -0.026 A 
ATOM     10  C   UNL A   1      32.402  27.303  22.661  1.00  0.00     0.052 A 
ATOM     11  C   UNL A   1      32.207  28.732  24.589  1.00  0.00     0.045 A 
ATOM     12  C   UNL A   1      33.199  26.407  23.378  1.00  0.00     0.128 A 
ATOM     13  C   UNL A   1      33.052  27.859  25.289  1.00  0.00     0.032 A 
ATOM     14  Cl  UNL A   1      31.593  30.038  25.536  1.00  0.00    -0.084 Cl
ATOM     15  C   UNL A   1      33.523  26.688  24.698  1.00  0.00     0.019 A 
ATOM     16  O   UNL A   1      33.608  25.278  22.724  1.00  0.00    -0.475 OA
ATOM     17  C   UNL A   1      34.277  25.734  25.482  1.00  0.00     0.027 C 
ATOM     18  C   UNL A   1      34.211  24.198  23.498  1.00  0.00     0.316 C 
BRANCH   9  19
ATOM     19  C   UNL A   1      30.907  29.263  22.371  1.00  0.00     0.037 C 
BRANCH  19  20
ATOM     20  C   UNL A   1      29.386  29.135  22.495  1.00  0.00     0.001 C 
ATOM     21  C   UNL A   1      28.716  30.330  23.156  1.00  0.00     0.004 C 
ENDBRANCH  19  20
ENDBRANCH   9  19
BRANCH  18  22
ATOM     22  C   UNL A   1      33.312  22.956  23.428  1.00  0.00     0.430 C 
ATOM     23  F   UNL A   1      32.748  22.820  22.204  1.00  0.00    -0.167 F 
ATOM     24  F   UNL A   1      34.016  21.822  23.660  1.00  0.00    -0.167 F 
ATOM     25  F   UNL A   1      32.311  23.003  24.336  1.00  0.00    -0.167 F 
ENDBRANCH  18  22
ENDBRANCH   6   8
ENDBRANCH   5   6
ENDBRANCH   4   5
ENDBRANCH   3   4
ENDBRANCH   2   3
ENDBRANCH   1   2
BRANCH   1  26
ATOM     26  C   UNL A   1      41.893  21.005  26.947  1.00  0.00     0.188 C 
BRANCH  26  27
ATOM     27  O   UNL A   1      42.436  21.111  25.650  1.00  0.00    -0.376 OA
BRANCH  27  28
ATOM     28  C   UNL A   1      43.839  21.212  25.468  1.00  0.00     0.202 C 
BRANCH  28  29
ATOM     29  C   UNL A   1      44.505  22.282  24.590  1.00  0.00     0.261 C 
BRANCH  29  30
ATOM     30  O   UNL A   1      43.887  23.573  24.599  1.00  0.00    -0.460 OA
BRANCH  30  31
ATOM     31  C   UNL A   1      44.674  24.585  25.043  1.00  0.00     0.338 C 
ATOM     32  O   UNL A   1      45.737  24.957  24.581  1.00  0.00    -0.246 OA
BRANCH  31  33
ATOM     33  C   UNL A   1      43.941  25.338  26.080  1.00  0.00     0.060 A 
ATOM     34  C   UNL A   1      42.901  24.746  26.795  1.00  0.00     0.016 A 
ATOM     35  C   UNL A   1      44.321  26.663  26.335  1.00  0.00     0.016 A 
ATOM     36  C   UNL A   1      42.263  25.476  27.800  1.00  0.00     0.010 A 
ATOM     37  C   UNL A   1      43.671  27.397  27.328  1.00  0.00     0.010 A 
ATOM     38  C   UNL A   1      42.658  26.796  28.088  1.00  0.00    -0.014 A 
BRANCH  38  39
ATOM     39  C   UNL A   1      42.156  27.462  29.314  1.00  0.00     0.031 A 
ATOM     40  C   UNL A   1      42.852  27.346  30.633  1.00  0.00     0.074 A 
ATOM     41  C   UNL A   1      41.024  28.185  29.209  1.00  0.00     0.049 A 
ATOM     42  N   UNL A   1      42.587  27.970  31.755  1.00  0.00    -0.248 NA
ATOM     43  C   UNL A   1      43.980  26.409  30.714  1.00  0.00     0.031 C 
ATOM     44  C   UNL A   1      40.236  28.324  27.983  1.00  0.00     0.029 A 
ATOM     45  N   UNL A   1      40.348  28.943  30.130  1.00  0.00    -0.354 N 
ATOM     46  C   UNL A   1      43.533  27.527  32.668  1.00  0.00     0.074 A 
ATOM     47  C   UNL A   1      44.343  26.538  31.985  1.00  0.00     0.031 C 
ATOM     48  C   UNL A   1      39.205  29.148  28.218  1.00  0.00     0.029 A 
ATOM     49  C   UNL A   1      39.248  29.579  29.613  1.00  0.00     0.049 A 
ATOM     50  H   UNL A   1      40.626  29.023  31.072  1.00  0.00     0.167 HD
ATOM     51  C   UNL A   1      43.714  27.932  33.948  1.00  0.00     0.037 A 
ATOM     52  C   UNL A   1      38.379  30.430  30.189  1.00  0.00     0.037 A 
ATOM     53  C   UNL A   1      42.886  28.902  34.623  1.00  0.00     0.049 A 
ATOM     54  C   UNL A   1      38.583  30.833  31.621  1.00  0.00     0.074 A 
ATOM     55  C   UNL A   1      43.022  29.407  35.906  1.00  0.00     0.029 A 
ATOM     56  N   UNL A   1      41.759  29.503  34.079  1.00  0.00    -0.354 N 
ATOM     57  N   UNL A   1      39.539  30.487  32.447  1.00  0.00    -0.248 NA
ATOM     58  C   UNL A   1      37.594  31.753  32.200  1.00  0.00     0.031 C 
ATOM     59  C   UNL A   1      41.950  30.267  36.157  1.00  0.00     0.029 A 
ATOM     60  C   UNL A   1      41.175  30.348  35.011  1.00  0.00     0.049 A 
ATOM     61  H   UNL A   1      41.423  29.351  33.166  1.00  0.00     0.167 HD
ATOM     62  C   UNL A   1      39.286  31.165  33.631  1.00  0.00     0.074 A 
ATOM     63  C   UNL A   1      38.089  31.951  33.414  1.00  0.00     0.031 C 
ATOM     64  C   UNL A   1      39.988  31.135  34.789  1.00  0.00     0.037 A 
BRANCH  51  65
ATOM     65  C   UNL A   1      44.866  27.352  34.717  1.00  0.00     0.064 A 
ATOM     66  C   UNL A   1      46.112  27.996  34.750  1.00  0.00     0.173 A 
ATOM     67  C   UNL A   1      44.697  26.210  35.515  1.00  0.00     0.173 A 
ATOM     68  F   UNL A   1      46.326  29.092  34.007  1.00  0.00    -0.203 F 
ATOM     69  C   UNL A   1      47.150  27.511  35.544  1.00  0.00     0.198 A 
ATOM     70  C   UNL A   1      45.729  25.744  36.328  1.00  0.00     0.198 A 
ATOM     71  F   UNL A   1      43.522  25.566  35.534  1.00  0.00    -0.203 F 
ATOM     72  F   UNL A   1      48.338  28.132  35.542  1.00  0.00    -0.200 F 
ATOM     73  C   UNL A   1      46.954  26.394  36.339  1.00  0.00     0.200 A 
ATOM     74  F   UNL A   1      45.531  24.676  37.114  1.00  0.00    -0.200 F 
ATOM     75  F   UNL A   1      47.945  25.944  37.122  1.00  0.00    -0.200 F 
ENDBRANCH  51  65
BRANCH  52  76
ATOM     76  C   UNL A   1      37.279  31.003  29.374  1.00  0.00     0.064 A 
ATOM     77  C   UNL A   1      36.138  30.245  29.077  1.00  0.00     0.173 A 
ATOM     78  C   UNL A   1      37.319  32.330  28.924  1.00  0.00     0.173 A 
ATOM     79  F   UNL A   1      36.060  28.968  29.477  1.00  0.00    -0.203 F 
ATOM     80  C   UNL A   1      35.081  30.792  28.354  1.00  0.00     0.198 A 
ATOM     81  C   UNL A   1      36.250  32.884  28.224  1.00  0.00     0.198 A 
ATOM     82  F   UNL A   1      38.385  33.098  29.192  1.00  0.00    -0.203 F 
ATOM     83  F   UNL A   1      34.013  30.039  28.061  1.00  0.00    -0.200 F 
ATOM     84  C   UNL A   1      35.134  32.114  27.936  1.00  0.00     0.200 A 
ATOM     85  F   UNL A   1      36.296  34.167  27.839  1.00  0.00    -0.200 F 
ATOM     86  F   UNL A   1      34.109  32.645  27.256  1.00  0.00    -0.200 F 
ENDBRANCH  52  76
BRANCH  64  87
ATOM     87  C   UNL A   1      39.504  31.993  35.923  1.00  0.00     0.064 A 
ATOM     88  C   UNL A   1      39.990  33.293  36.118  1.00  0.00     0.173 A 
ATOM     89  C   UNL A   1      38.478  31.541  36.766  1.00  0.00     0.173 A 
ATOM     90  F   UNL A   1      40.982  33.767  35.348  1.00  0.00    -0.203 F 
ATOM     91  C   UNL A   1      39.468  34.110  37.119  1.00  0.00     0.198 A 
ATOM     92  C   UNL A   1      37.939  32.369  37.748  1.00  0.00     0.198 A 
ATOM     93  F   UNL A   1      37.976  30.306  36.619  1.00  0.00    -0.203 F 
ATOM     94  F   UNL A   1      39.964  35.341  37.304  1.00  0.00    -0.200 F 
ATOM     95  C   UNL A   1      38.435  33.651  37.924  1.00  0.00     0.200 A 
ATOM     96  F   UNL A   1      36.931  31.929  38.514  1.00  0.00    -0.200 F 
ATOM     97  F   UNL A   1      37.918  34.446  38.870  1.00  0.00    -0.200 F 
ENDBRANCH  64  87
ENDBRANCH  38  39
ENDBRANCH  31  33
ENDBRANCH  30  31
ENDBRANCH  29  30
ENDBRANCH  28  29
ENDBRANCH  27  28
ENDBRANCH  26  27
ENDBRANCH   1  26
TORSDOF 20
ENDMDL
MODEL 3
REMARK VINA RESULT:     -10.9      3.329      8.866
REMARK SMILES CCCc1cc2c(cc1Cl)C=C(C(=O)OCCOCCOCCOC(=O)c1ccc(-c3c4nc(c(-c5c(F)c(F)c(F)c(F)c5F)c5ccc([nH]5)c(-c5c(F)c(F)c(F)c(F)c5F)c5nc(c(-c6c(F)c(F)c(F)c(F)c6F)c6ccc3[nH]6)C=C5)C=C4)cc1)[C@@H](C(F)(F)F)O2
REMARK SMILES IDX 19 1 18 2 17 3 16 4 15 5 13 6 14 7 12 8 4 9 5 10 9 11 6 12
REMARK SMILES IDX 8 13 10 14 7 15 95 16 11 17 90 18 3 19 2 20 1 21 91 22 92 23
REMARK SMILES IDX 93 24 94 25 20 26 21 27 22 28 23 29 24 30 25 31 26 32 27 33
REMARK SMILES IDX 28 34 89 35 29 36 88 37 30 38 31 39 32 40 82 41 33 42 87 43
REMARK SMILES IDX 81 44 83 45 34 46 86 47 80 48 79 49 35 51 67 52 47 53 66 54
REMARK SMILES IDX 48 55 51 56 65 57 84 58 49 59 50 60 64 62 85 63 52 64 36 65
REMARK SMILES IDX 37 66 45 67 38 68 39 69 43 70 46 71 40 72 41 73 44 74 42 75
REMARK SMILES IDX 68 76 69 77 77 78 70 79 71 80 75 81 78 82 72 83 73 84 76 85
REMARK SMILES IDX 74 86 53 87 54 88 62 89 55 90 56 91 60 92 63 93 57 94 58 95
REMARK SMILES IDX 61 96 59 97
REMARK H PARENT 83 50 51 61
REMARK Flexibility Score: inf
ROOT
ATOM      1  C   UNL A   1      34.167  29.574  26.909  1.00  0.00     0.188 C 
ENDROOT
BRANCH   1   2
ATOM      2  O   UNL A   1      34.508  28.469  26.102  1.00  0.00    -0.376 OA
BRANCH   2   3
ATOM      3  C   UNL A   1      33.623  27.373  25.937  1.00  0.00     0.202 C 
BRANCH   3   4
ATOM      4  C   UNL A   1      33.001  26.986  24.589  1.00  0.00     0.261 C 
BRANCH   4   5
ATOM      5  O   UNL A   1      33.360  25.691  24.097  1.00  0.00    -0.460 OA
BRANCH   5   6
ATOM      6  C   UNL A   1      32.311  24.900  23.773  1.00  0.00     0.338 C 
ATOM      7  O   UNL A   1      31.363  25.198  23.061  1.00  0.00    -0.246 OA
BRANCH   6   8
ATOM      8  C   UNL A   1      32.545  23.530  24.261  1.00  0.00     0.087 C 
ATOM      9  C   UNL A   1      32.685  18.502  24.611  1.00  0.00    -0.026 A 
ATOM     10  C   UNL A   1      32.877  19.579  25.517  1.00  0.00     0.052 A 
ATOM     11  C   UNL A   1      32.495  18.831  23.260  1.00  0.00     0.045 A 
ATOM     12  C   UNL A   1      32.853  20.913  25.102  1.00  0.00     0.128 A 
ATOM     13  C   UNL A   1      32.527  20.167  22.839  1.00  0.00     0.032 A 
ATOM     14  Cl  UNL A   1      32.136  17.699  22.007  1.00  0.00    -0.084 Cl
ATOM     15  C   UNL A   1      32.676  21.206  23.757  1.00  0.00     0.019 A 
ATOM     16  O   UNL A   1      32.995  21.868  26.070  1.00  0.00    -0.475 OA
ATOM     17  C   UNL A   1      32.565  22.581  23.318  1.00  0.00     0.027 C 
ATOM     18  C   UNL A   1      32.715  23.259  25.730  1.00  0.00     0.316 C 
BRANCH   9  19
ATOM     19  C   UNL A   1      32.593  17.127  25.254  1.00  0.00     0.037 C 
BRANCH  19  20
ATOM     20  C   UNL A   1      33.575  15.996  24.937  1.00  0.00     0.001 C 
ATOM     21  C   UNL A   1      35.013  16.457  24.759  1.00  0.00     0.004 C 
ENDBRANCH  19  20
ENDBRANCH   9  19
BRANCH  18  22
ATOM     22  C   UNL A   1      31.508  23.749  26.542  1.00  0.00     0.430 C 
ATOM     23  F   UNL A   1      30.340  23.360  25.977  1.00  0.00    -0.167 F 
ATOM     24  F   UNL A   1      31.520  23.245  27.799  1.00  0.00    -0.167 F 
ATOM     25  F   UNL A   1      31.481  25.097  26.646  1.00  0.00    -0.167 F 
ENDBRANCH  18  22
ENDBRANCH   6   8
ENDBRANCH   5   6
ENDBRANCH   4   5
ENDBRANCH   3   4
ENDBRANCH   2   3
ENDBRANCH   1   2
BRANCH   1  26
ATOM     26  C   UNL A   1      32.692  29.962  27.145  1.00  0.00     0.188 C 
BRANCH  26  27
ATOM     27  O   UNL A   1      31.895  30.457  26.093  1.00  0.00    -0.376 OA
BRANCH  27  28
ATOM     28  C   UNL A   1      31.313  31.748  26.183  1.00  0.00     0.202 C 
BRANCH  28  29
ATOM     29  C   UNL A   1      31.679  32.769  27.270  1.00  0.00     0.261 C 
BRANCH  29  30
ATOM     30  O   UNL A   1      32.930  33.444  27.100  1.00  0.00    -0.460 OA
BRANCH  30  31
ATOM     31  C   UNL A   1      33.419  34.040  28.216  1.00  0.00     0.338 C 
ATOM     32  O   UNL A   1      32.908  34.935  28.864  1.00  0.00    -0.246 OA
BRANCH  31  33
ATOM     33  C   UNL A   1      34.604  33.289  28.676  1.00  0.00     0.060 A 
ATOM     34  C   UNL A   1      35.885  33.648  28.260  1.00  0.00     0.016 A 
ATOM     35  C   UNL A   1      34.411  32.210  29.550  1.00  0.00     0.016 A 
ATOM     36  C   UNL A   1      36.985  32.942  28.754  1.00  0.00     0.010 A 
ATOM     37  C   UNL A   1      35.509  31.495  30.030  1.00  0.00     0.010 A 
ATOM     38  C   UNL A   1      36.806  31.877  29.658  1.00  0.00    -0.014 A 
BRANCH  38  39
ATOM     39  C   UNL A   1      37.978  31.312  30.368  1.00  0.00     0.031 A 
ATOM     40  C   UNL A   1      38.324  31.688  31.773  1.00  0.00     0.074 A 
ATOM     41  C   UNL A   1      38.748  30.436  29.694  1.00  0.00     0.049 A 
ATOM     42  N   UNL A   1      39.250  31.182  32.551  1.00  0.00    -0.248 NA
ATOM     43  C   UNL A   1      37.544  32.770  32.387  1.00  0.00     0.031 C 
ATOM     44  C   UNL A   1      38.533  30.037  28.302  1.00  0.00     0.029 A 
ATOM     45  N   UNL A   1      39.850  29.718  30.083  1.00  0.00    -0.354 N 
ATOM     46  C   UNL A   1      39.146  31.862  33.756  1.00  0.00     0.074 A 
ATOM     47  C   UNL A   1      38.104  32.855  33.589  1.00  0.00     0.031 C 
ATOM     48  C   UNL A   1      39.450  29.119  27.964  1.00  0.00     0.029 A 
ATOM     49  C   UNL A   1      40.327  28.878  29.108  1.00  0.00     0.049 A 
ATOM     50  H   UNL A   1      40.259  29.797  30.975  1.00  0.00     0.167 HD
ATOM     51  C   UNL A   1      39.845  31.651  34.898  1.00  0.00     0.037 A 
ATOM     52  C   UNL A   1      41.345  27.999  29.132  1.00  0.00     0.037 A 
ATOM     53  C   UNL A   1      40.895  30.672  35.045  1.00  0.00     0.049 A 
ATOM     54  C   UNL A   1      42.126  27.813  30.401  1.00  0.00     0.074 A 
ATOM     55  C   UNL A   1      41.627  30.358  36.178  1.00  0.00     0.029 A 
ATOM     56  N   UNL A   1      41.375  29.861  34.026  1.00  0.00    -0.354 N 
ATOM     57  N   UNL A   1      41.956  28.387  31.566  1.00  0.00    -0.248 NA
ATOM     58  C   UNL A   1      43.236  26.850  30.364  1.00  0.00     0.031 C 
ATOM     59  C   UNL A   1      42.585  29.401  35.833  1.00  0.00     0.029 A 
ATOM     60  C   UNL A   1      42.413  29.071  34.498  1.00  0.00     0.049 A 
ATOM     61  H   UNL A   1      41.030  29.848  33.104  1.00  0.00     0.167 HD
ATOM     62  C   UNL A   1      42.913  27.838  32.407  1.00  0.00     0.074 A 
ATOM     63  C   UNL A   1      43.658  26.877  31.621  1.00  0.00     0.031 C 
ATOM     64  C   UNL A   1      43.147  28.110  33.714  1.00  0.00     0.037 A 
BRANCH  51  65
ATOM     65  C   UNL A   1      39.493  32.474  36.104  1.00  0.00     0.064 A 
ATOM     66  C   UNL A   1      40.111  33.711  36.343  1.00  0.00     0.173 A 
ATOM     67  C   UNL A   1      38.456  32.083  36.964  1.00  0.00     0.173 A 
ATOM     68  F   UNL A   1      41.107  34.133  35.549  1.00  0.00    -0.203 F 
ATOM     69  C   UNL A   1      39.712  34.519  37.406  1.00  0.00     0.198 A 
ATOM     70  C   UNL A   1      38.041  32.906  38.010  1.00  0.00     0.198 A 
ATOM     71  F   UNL A   1      37.819  30.919  36.771  1.00  0.00    -0.203 F 
ATOM     72  F   UNL A   1      40.332  35.687  37.626  1.00  0.00    -0.200 F 
ATOM     73  C   UNL A   1      38.672  34.122  38.230  1.00  0.00     0.200 A 
ATOM     74  F   UNL A   1      37.021  32.530  38.793  1.00  0.00    -0.200 F 
ATOM     75  F   UNL A   1      38.273  34.912  39.236  1.00  0.00    -0.200 F 
ENDBRANCH  51  65
BRANCH  52  76
ATOM     76  C   UNL A   1      41.628  27.184  27.925  1.00  0.00     0.064 A 
ATOM     77  C   UNL A   1      42.507  27.648  26.937  1.00  0.00     0.173 A 
ATOM     78  C   UNL A   1      41.071  25.908  27.759  1.00  0.00     0.173 A 
ATOM     79  F   UNL A   1      43.054  28.867  27.047  1.00  0.00    -0.203 F 
ATOM     80  C   UNL A   1      42.814  26.868  25.825  1.00  0.00     0.198 A 
ATOM     81  C   UNL A   1      41.400  25.118  26.660  1.00  0.00     0.198 A 
ATOM     82  F   UNL A   1      40.232  25.416  28.682  1.00  0.00    -0.203 F 
ATOM     83  F   UNL A   1      43.637  27.345  24.882  1.00  0.00    -0.200 F 
ATOM     84  C   UNL A   1      42.268  25.600  25.692  1.00  0.00     0.200 A 
ATOM     85  F   UNL A   1      40.885  23.886  26.544  1.00  0.00    -0.200 F 
ATOM     86  F   UNL A   1      42.577  24.843  24.631  1.00  0.00    -0.200 F 
ENDBRANCH  52  76
BRANCH  64  87
ATOM     87  C   UNL A   1      44.241  27.347  34.402  1.00  0.00     0.064 A 
ATOM     88  C   UNL A   1      45.538  27.867  34.518  1.00  0.00     0.173 A 
ATOM     89  C   UNL A   1      43.965  26.124  35.034  1.00  0.00     0.173 A 
ATOM     90  F   UNL A   1      45.857  29.025  33.920  1.00  0.00    -0.203 F 
ATOM     91  C   UNL A   1      46.520  27.190  35.237  1.00  0.00     0.198 A 
ATOM     92  C   UNL A   1      44.941  25.463  35.774  1.00  0.00     0.198 A 
ATOM     93  F   UNL A   1      42.740  25.585  34.956  1.00  0.00    -0.203 F 
ATOM     94  F   UNL A   1      47.759  27.693  35.314  1.00  0.00    -0.200 F 
ATOM     95  C   UNL A   1      46.217  25.995  35.875  1.00  0.00     0.200 A 
ATOM     96  F   UNL A   1      44.642  24.317  36.402  1.00  0.00    -0.200 F 
ATOM     97  F   UNL A   1      47.156  25.357  36.586  1.00  0.00    -0.200 F 
ENDBRANCH  64  87
ENDBRANCH  38  39
ENDBRANCH  31  33
ENDBRANCH  30  31
ENDBRANCH  29  30
ENDBRANCH  28  29
ENDBRANCH  27  28
ENDBRANCH  26  27
ENDBRANCH   1  26
TORSDOF 20
ENDMDL
