MODEL 1
REMARK VINA RESULT:     -11.5      0.000      0.000
REMARK SMILES COc1ccc(Cl)c2sc(N3CC(C(=O)OCCOCCOCCOC(=O)c4ccc(-c5c6nc(c(-c7c(F)c(F)c(F)c(F)c7F)c7ccc([nH]7)c(-c7c(F)c(F)c(F)c(F)c7F)c7nc(c(-c8c(F)c(F)c(F)c(F)c8F)c8ccc5[nH]8)C=C7)C=C6)cc4)C3)nc12
REMARK SMILES IDX 20 1 19 2 18 3 17 4 16 5 14 6 15 7 13 8 11 9 12 10 91 11
REMARK SMILES IDX 10 12 3 13 4 14 93 15 5 16 8 17 92 18 6 19 9 20 7 21 2 22
REMARK SMILES IDX 1 23 21 24 22 25 23 26 24 27 25 28 26 29 27 30 28 31 29 32
REMARK SMILES IDX 90 33 30 34 89 35 31 36 32 37 33 38 83 39 34 40 88 41 82 42
REMARK SMILES IDX 84 43 35 44 87 45 81 46 80 47 36 49 68 50 48 51 67 52 49 53
REMARK SMILES IDX 52 54 66 55 85 56 50 57 51 58 65 60 86 61 53 62 37 63 38 64
REMARK SMILES IDX 46 65 39 66 40 67 44 68 47 69 41 70 42 71 45 72 43 73 69 74
REMARK SMILES IDX 70 75 78 76 71 77 72 78 76 79 79 80 73 81 74 82 77 83 75 84
REMARK SMILES IDX 54 85 55 86 63 87 56 88 57 89 61 90 64 91 58 92 59 93 62 94
REMARK SMILES IDX 60 95
REMARK H PARENT 84 48 52 59
REMARK Flexibility Score: inf
ROOT
ATOM      1  C   UNL A   1      41.449  20.909  26.349  1.00  0.00     0.188 C 
ENDROOT
BRANCH   1   2
ATOM      2  O   UNL A   1      40.544  21.891  25.895  1.00  0.00    -0.376 OA
BRANCH   2   3
ATOM      3  C   UNL A   1      39.185  21.837  26.301  1.00  0.00     0.202 C 
BRANCH   3   4
ATOM      4  C   UNL A   1      38.000  22.103  25.345  1.00  0.00     0.261 C 
BRANCH   4   5
ATOM      5  O   UNL A   1      37.191  20.958  25.029  1.00  0.00    -0.463 OA
BRANCH   5   6
ATOM      6  C   UNL A   1      35.850  21.162  24.866  1.00  0.00     0.312 C 
ATOM      7  O   UNL A   1      35.024  20.255  24.971  1.00  0.00    -0.252 OA
BRANCH   6   8
ATOM      8  C   UNL A   1      35.472  22.637  24.670  1.00  0.00     0.138 C 
ATOM      9  N   UNL A   1      33.792  23.798  24.401  1.00  0.00    -0.346 N 
ATOM     10  C   UNL A   1      34.341  23.174  25.551  1.00  0.00     0.136 C 
ATOM     11  C   UNL A   1      34.641  23.133  23.474  1.00  0.00     0.136 C 
BRANCH   9  12
ATOM     12  C   UNL A   1      33.180  24.995  24.290  1.00  0.00     0.186 A 
ATOM     13  C   UNL A   1      32.911  28.512  25.010  1.00  0.00     0.146 A 
ATOM     14  C   UNL A   1      31.831  29.402  24.911  1.00  0.00     0.050 A 
ATOM     15  C   UNL A   1      32.732  27.158  24.615  1.00  0.00     0.127 A 
ATOM     16  C   UNL A   1      30.597  28.971  24.431  1.00  0.00     0.026 A 
ATOM     17  C   UNL A   1      31.505  26.766  24.071  1.00  0.00     0.079 A 
ATOM     18  N   UNL A   1      33.660  26.128  24.748  1.00  0.00    -0.216 NA
ATOM     19  C   UNL A   1      30.424  27.659  23.988  1.00  0.00     0.060 A 
ATOM     20  S   UNL A   1      31.626  25.122  23.565  1.00  0.00    -0.095 S 
ATOM     21  Cl  UNL A   1      28.888  27.182  23.372  1.00  0.00    -0.083 Cl
BRANCH  13  22
ATOM     22  O   UNL A   1      34.165  28.915  25.401  1.00  0.00    -0.494 OA
ATOM     23  C   UNL A   1      34.356  29.057  26.804  1.00  0.00     0.278 C 
ENDBRANCH  13  22
ENDBRANCH   9  12
ENDBRANCH   6   8
ENDBRANCH   5   6
ENDBRANCH   4   5
ENDBRANCH   3   4
ENDBRANCH   2   3
ENDBRANCH   1   2
BRANCH   1  24
ATOM     24  C   UNL A   1      41.080  19.418  26.245  1.00  0.00     0.188 C 
BRANCH  24  25
ATOM     25  O   UNL A   1      42.005  18.482  25.739  1.00  0.00    -0.376 OA
BRANCH  25  26
ATOM     26  C   UNL A   1      43.417  18.608  25.795  1.00  0.00     0.202 C 
BRANCH  26  27
ATOM     27  C   UNL A   1      44.343  18.968  24.632  1.00  0.00     0.261 C 
BRANCH  27  28
ATOM     28  O   UNL A   1      44.361  20.327  24.270  1.00  0.00    -0.460 OA
BRANCH  28  29
ATOM     29  C   UNL A   1      45.411  20.974  24.788  1.00  0.00     0.338 C 
ATOM     30  O   UNL A   1      46.353  20.491  25.423  1.00  0.00    -0.246 OA
BRANCH  29  31
ATOM     31  C   UNL A   1      45.292  22.391  24.481  1.00  0.00     0.060 A 
ATOM     32  C   UNL A   1      46.329  23.190  24.958  1.00  0.00     0.016 A 
ATOM     33  C   UNL A   1      44.002  22.872  24.224  1.00  0.00     0.016 A 
ATOM     34  C   UNL A   1      45.973  24.377  25.534  1.00  0.00     0.010 A 
ATOM     35  C   UNL A   1      43.644  24.049  24.820  1.00  0.00     0.010 A 
ATOM     36  C   UNL A   1      44.612  24.711  25.565  1.00  0.00    -0.014 A 
BRANCH  36  37
ATOM     37  C   UNL A   1      44.246  25.822  26.402  1.00  0.00     0.031 A 
ATOM     38  C   UNL A   1      45.199  26.933  26.283  1.00  0.00     0.074 A 
ATOM     39  C   UNL A   1      43.164  25.805  27.196  1.00  0.00     0.049 A 
ATOM     40  N   UNL A   1      46.078  27.304  27.151  1.00  0.00    -0.248 NA
ATOM     41  C   UNL A   1      45.325  27.570  24.966  1.00  0.00     0.031 C 
ATOM     42  C   UNL A   1      42.034  24.872  27.199  1.00  0.00     0.029 A 
ATOM     43  N   UNL A   1      42.825  26.704  28.156  1.00  0.00    -0.354 N 
ATOM     44  C   UNL A   1      46.747  28.364  26.556  1.00  0.00     0.074 A 
ATOM     45  C   UNL A   1      46.385  28.351  25.165  1.00  0.00     0.031 C 
ATOM     46  C   UNL A   1      41.040  25.384  27.964  1.00  0.00     0.029 A 
ATOM     47  C   UNL A   1      41.522  26.592  28.612  1.00  0.00     0.049 A 
ATOM     48  H   UNL A   1      43.454  27.379  28.499  1.00  0.00     0.167 HD
ATOM     49  C   UNL A   1      47.302  29.334  27.326  1.00  0.00     0.037 A 
ATOM     50  C   UNL A   1      40.893  27.493  29.405  1.00  0.00     0.037 A 
ATOM     51  C   UNL A   1      47.556  28.850  28.661  1.00  0.00     0.049 A 
ATOM     52  C   UNL A   1      41.950  28.280  30.094  1.00  0.00     0.074 A 
ATOM     53  C   UNL A   1      48.346  27.857  29.206  1.00  0.00     0.029 A 
ATOM     54  N   UNL A   1      46.652  29.185  29.639  1.00  0.00    -0.354 N 
ATOM     55  N   UNL A   1      42.761  27.790  30.990  1.00  0.00    -0.248 NA
ATOM     56  C   UNL A   1      42.383  29.526  29.478  1.00  0.00     0.031 C 
ATOM     57  C   UNL A   1      47.607  27.348  30.316  1.00  0.00     0.029 A 
ATOM     58  C   UNL A   1      46.423  28.081  30.416  1.00  0.00     0.049 A 
ATOM     59  H   UNL A   1      46.237  30.070  29.760  1.00  0.00     0.167 HD
ATOM     60  C   UNL A   1      43.974  28.418  30.752  1.00  0.00     0.074 A 
ATOM     61  C   UNL A   1      43.653  29.551  29.891  1.00  0.00     0.031 C 
ATOM     62  C   UNL A   1      45.153  27.793  31.045  1.00  0.00     0.037 A 
BRANCH  49  63
ATOM     63  C   UNL A   1      47.183  30.804  26.993  1.00  0.00     0.064 A 
ATOM     64  C   UNL A   1      48.330  31.612  27.106  1.00  0.00     0.173 A 
ATOM     65  C   UNL A   1      45.959  31.504  26.873  1.00  0.00     0.173 A 
ATOM     66  F   UNL A   1      49.545  31.060  27.242  1.00  0.00    -0.203 F 
ATOM     67  C   UNL A   1      48.247  33.004  27.187  1.00  0.00     0.198 A 
ATOM     68  C   UNL A   1      45.886  32.894  26.899  1.00  0.00     0.198 A 
ATOM     69  F   UNL A   1      44.773  30.892  26.837  1.00  0.00    -0.203 F 
ATOM     70  F   UNL A   1      49.351  33.721  27.434  1.00  0.00    -0.200 F 
ATOM     71  C   UNL A   1      47.024  33.643  27.092  1.00  0.00     0.200 A 
ATOM     72  F   UNL A   1      44.688  33.490  26.824  1.00  0.00    -0.200 F 
ATOM     73  F   UNL A   1      46.934  34.971  27.238  1.00  0.00    -0.200 F 
ENDBRANCH  49  63
BRANCH  50  74
ATOM     74  C   UNL A   1      39.500  27.988  29.287  1.00  0.00     0.064 A 
ATOM     75  C   UNL A   1      38.682  28.090  30.426  1.00  0.00     0.173 A 
ATOM     76  C   UNL A   1      39.050  28.659  28.133  1.00  0.00     0.173 A 
ATOM     77  F   UNL A   1      39.059  27.516  31.578  1.00  0.00    -0.203 F 
ATOM     78  C   UNL A   1      37.511  28.855  30.423  1.00  0.00     0.198 A 
ATOM     79  C   UNL A   1      37.876  29.415  28.130  1.00  0.00     0.198 A 
ATOM     80  F   UNL A   1      39.790  28.682  27.015  1.00  0.00    -0.203 F 
ATOM     81  F   UNL A   1      36.800  28.991  31.551  1.00  0.00    -0.200 F 
ATOM     82  C   UNL A   1      37.117  29.527  29.279  1.00  0.00     0.200 A 
ATOM     83  F   UNL A   1      37.526  30.092  27.027  1.00  0.00    -0.200 F 
ATOM     84  F   UNL A   1      36.035  30.319  29.296  1.00  0.00    -0.200 F 
ENDBRANCH  50  74
BRANCH  62  85
ATOM     85  C   UNL A   1      45.092  26.571  31.918  1.00  0.00     0.064 A 
ATOM     86  C   UNL A   1      45.155  26.599  33.324  1.00  0.00     0.173 A 
ATOM     87  C   UNL A   1      44.821  25.338  31.310  1.00  0.00     0.173 A 
ATOM     88  F   UNL A   1      45.323  27.752  33.983  1.00  0.00    -0.203 F 
ATOM     89  C   UNL A   1      44.987  25.437  34.076  1.00  0.00     0.198 A 
ATOM     90  C   UNL A   1      44.615  24.187  32.066  1.00  0.00     0.198 A 
ATOM     91  F   UNL A   1      44.701  25.260  29.975  1.00  0.00    -0.203 F 
ATOM     92  F   UNL A   1      45.061  25.486  35.415  1.00  0.00    -0.200 F 
ATOM     93  C   UNL A   1      44.707  24.235  33.448  1.00  0.00     0.200 A 
ATOM     94  F   UNL A   1      44.299  23.037  31.455  1.00  0.00    -0.200 F 
ATOM     95  F   UNL A   1      44.499  23.127  34.173  1.00  0.00    -0.200 F 
ENDBRANCH  62  85
ENDBRANCH  36  37
ENDBRANCH  29  31
ENDBRANCH  28  29
ENDBRANCH  27  28
ENDBRANCH  26  27
ENDBRANCH  25  26
ENDBRANCH  24  25
ENDBRANCH   1  24
TORSDOF 19
ENDMDL
MODEL 2
REMARK VINA RESULT:     -11.3      1.295      1.732
REMARK SMILES COc1ccc(Cl)c2sc(N3CC(C(=O)OCCOCCOCCOC(=O)c4ccc(-c5c6nc(c(-c7c(F)c(F)c(F)c(F)c7F)c7ccc([nH]7)c(-c7c(F)c(F)c(F)c(F)c7F)c7nc(c(-c8c(F)c(F)c(F)c(F)c8F)c8ccc5[nH]8)C=C7)C=C6)cc4)C3)nc12
REMARK SMILES IDX 20 1 19 2 18 3 17 4 16 5 14 6 15 7 13 8 11 9 12 10 91 11
REMARK SMILES IDX 10 12 3 13 4 14 93 15 5 16 8 17 92 18 6 19 9 20 7 21 2 22
REMARK SMILES IDX 1 23 21 24 22 25 23 26 24 27 25 28 26 29 27 30 28 31 29 32
REMARK SMILES IDX 90 33 30 34 89 35 31 36 32 37 33 38 83 39 34 40 88 41 82 42
REMARK SMILES IDX 84 43 35 44 87 45 81 46 80 47 36 49 68 50 48 51 67 52 49 53
REMARK SMILES IDX 52 54 66 55 85 56 50 57 51 58 65 60 86 61 53 62 37 63 38 64
REMARK SMILES IDX 46 65 39 66 40 67 44 68 47 69 41 70 42 71 45 72 43 73 69 74
REMARK SMILES IDX 70 75 78 76 71 77 72 78 76 79 79 80 73 81 74 82 77 83 75 84
REMARK SMILES IDX 54 85 55 86 63 87 56 88 57 89 61 90 64 91 58 92 59 93 62 94
REMARK SMILES IDX 60 95
REMARK H PARENT 84 48 52 59
REMARK Flexibility Score: inf
ROOT
ATOM      1  C   UNL A   1      39.284  21.502  25.710  1.00  0.00     0.188 C 
ENDROOT
BRANCH   1   2
ATOM      2  O   UNL A   1      37.920  21.862  25.738  1.00  0.00    -0.376 OA
BRANCH   2   3
ATOM      3  C   UNL A   1      36.962  21.039  25.090  1.00  0.00     0.202 C 
BRANCH   3   4
ATOM      4  C   UNL A   1      35.508  20.874  25.586  1.00  0.00     0.261 C 
BRANCH   4   5
ATOM      5  O   UNL A   1      34.606  20.241  24.663  1.00  0.00    -0.463 OA
BRANCH   5   6
ATOM      6  C   UNL A   1      33.389  20.830  24.469  1.00  0.00     0.312 C 
ATOM      7  O   UNL A   1      32.390  20.193  24.131  1.00  0.00    -0.252 OA
BRANCH   6   8
ATOM      8  C   UNL A   1      33.363  22.321  24.834  1.00  0.00     0.138 C 
ATOM      9  N   UNL A   1      32.200  23.990  24.510  1.00  0.00    -0.346 N 
ATOM     10  C   UNL A   1      32.036  22.870  25.366  1.00  0.00     0.136 C 
ATOM     11  C   UNL A   1      33.287  23.438  23.778  1.00  0.00     0.136 C 
BRANCH   9  12
ATOM     12  C   UNL A   1      31.891  25.284  24.731  1.00  0.00     0.186 A 
ATOM     13  C   UNL A   1      30.454  28.430  23.731  1.00  0.00     0.146 A 
ATOM     14  C   UNL A   1      30.638  29.734  24.218  1.00  0.00     0.050 A 
ATOM     15  C   UNL A   1      31.141  27.354  24.356  1.00  0.00     0.127 A 
ATOM     16  C   UNL A   1      31.480  29.975  25.299  1.00  0.00     0.026 A 
ATOM     17  C   UNL A   1      31.926  27.612  25.485  1.00  0.00     0.079 A 
ATOM     18  N   UNL A   1      31.155  26.025  23.936  1.00  0.00    -0.216 NA
ATOM     19  C   UNL A   1      32.116  28.921  25.957  1.00  0.00     0.060 A 
ATOM     20  S   UNL A   1      32.518  26.115  26.099  1.00  0.00    -0.095 S 
ATOM     21  Cl  UNL A   1      33.122  29.268  27.312  1.00  0.00    -0.083 Cl
BRANCH  13  22
ATOM     22  O   UNL A   1      29.572  28.138  22.719  1.00  0.00    -0.494 OA
ATOM     23  C   UNL A   1      28.194  28.280  23.044  1.00  0.00     0.278 C 
ENDBRANCH  13  22
ENDBRANCH   9  12
ENDBRANCH   6   8
ENDBRANCH   5   6
ENDBRANCH   4   5
ENDBRANCH   3   4
ENDBRANCH   2   3
ENDBRANCH   1   2
BRANCH   1  24
ATOM     24  C   UNL A   1      40.135  21.620  26.986  1.00  0.00     0.188 C 
BRANCH  24  25
ATOM     25  O   UNL A   1      40.559  20.466  27.678  1.00  0.00    -0.376 OA
BRANCH  25  26
ATOM     26  C   UNL A   1      41.690  19.677  27.344  1.00  0.00     0.202 C 
BRANCH  26  27
ATOM     27  C   UNL A   1      42.533  19.790  26.073  1.00  0.00     0.261 C 
BRANCH  27  28
ATOM     28  O   UNL A   1      43.722  20.529  26.197  1.00  0.00    -0.460 OA
BRANCH  28  29
ATOM     29  C   UNL A   1      44.326  20.719  25.018  1.00  0.00     0.338 C 
ATOM     30  O   UNL A   1      44.437  19.910  24.093  1.00  0.00    -0.246 OA
BRANCH  29  31
ATOM     31  C   UNL A   1      44.853  22.074  24.969  1.00  0.00     0.060 A 
ATOM     32  C   UNL A   1      45.657  22.436  26.048  1.00  0.00     0.016 A 
ATOM     33  C   UNL A   1      44.141  22.997  24.192  1.00  0.00     0.016 A 
ATOM     34  C   UNL A   1      45.450  23.678  26.578  1.00  0.00     0.010 A 
ATOM     35  C   UNL A   1      43.918  24.231  24.737  1.00  0.00     0.010 A 
ATOM     36  C   UNL A   1      44.481  24.494  25.980  1.00  0.00    -0.014 A 
BRANCH  36  37
ATOM     37  C   UNL A   1      44.100  25.673  26.710  1.00  0.00     0.031 A 
ATOM     38  C   UNL A   1      45.044  26.778  26.497  1.00  0.00     0.074 A 
ATOM     39  C   UNL A   1      43.013  25.718  27.497  1.00  0.00     0.049 A 
ATOM     40  N   UNL A   1      45.914  27.234  27.333  1.00  0.00    -0.248 NA
ATOM     41  C   UNL A   1      45.173  27.294  25.128  1.00  0.00     0.031 C 
ATOM     42  C   UNL A   1      41.891  24.780  27.578  1.00  0.00     0.029 A 
ATOM     43  N   UNL A   1      42.660  26.697  28.370  1.00  0.00    -0.354 N 
ATOM     44  C   UNL A   1      46.577  28.242  26.649  1.00  0.00     0.074 A 
ATOM     45  C   UNL A   1      46.225  28.100  25.261  1.00  0.00     0.031 C 
ATOM     46  C   UNL A   1      40.888  25.349  28.288  1.00  0.00     0.029 A 
ATOM     47  C   UNL A   1      41.355  26.615  28.827  1.00  0.00     0.049 A 
ATOM     48  H   UNL A   1      43.281  27.406  28.654  1.00  0.00     0.167 HD
ATOM     49  C   UNL A   1      47.120  29.283  27.330  1.00  0.00     0.037 A 
ATOM     50  C   UNL A   1      40.714  27.578  29.532  1.00  0.00     0.037 A 
ATOM     51  C   UNL A   1      47.369  28.923  28.705  1.00  0.00     0.049 A 
ATOM     52  C   UNL A   1      41.760  28.434  30.152  1.00  0.00     0.074 A 
ATOM     53  C   UNL A   1      48.165  27.990  29.341  1.00  0.00     0.029 A 
ATOM     54  N   UNL A   1      46.456  29.337  29.644  1.00  0.00    -0.354 N 
ATOM     55  N   UNL A   1      42.570  28.034  31.094  1.00  0.00    -0.248 NA
ATOM     56  C   UNL A   1      42.186  29.623  29.429  1.00  0.00     0.031 C 
ATOM     57  C   UNL A   1      47.423  27.577  30.489  1.00  0.00     0.029 A 
ATOM     58  C   UNL A   1      46.232  28.305  30.516  1.00  0.00     0.049 A 
ATOM     59  H   UNL A   1      46.034  30.225  29.682  1.00  0.00     0.167 HD
ATOM     60  C   UNL A   1      43.778  28.649  30.807  1.00  0.00     0.074 A 
ATOM     61  C   UNL A   1      43.453  29.697  29.845  1.00  0.00     0.031 C 
ATOM     62  C   UNL A   1      44.960  28.064  31.162  1.00  0.00     0.037 A 
BRANCH  49  63
ATOM     63  C   UNL A   1      46.991  30.715  26.865  1.00  0.00     0.064 A 
ATOM     64  C   UNL A   1      48.127  31.544  26.921  1.00  0.00     0.173 A 
ATOM     65  C   UNL A   1      45.761  31.387  26.666  1.00  0.00     0.173 A 
ATOM     66  F   UNL A   1      49.345  31.020  27.123  1.00  0.00    -0.203 F 
ATOM     67  C   UNL A   1      48.028  32.936  26.876  1.00  0.00     0.198 A 
ATOM     68  C   UNL A   1      45.673  32.772  26.566  1.00  0.00     0.198 A 
ATOM     69  F   UNL A   1      44.582  30.760  26.669  1.00  0.00    -0.203 F 
ATOM     70  F   UNL A   1      49.121  33.685  27.072  1.00  0.00    -0.200 F 
ATOM     71  C   UNL A   1      46.800  33.549  26.707  1.00  0.00     0.200 A 
ATOM     72  F   UNL A   1      44.470  33.345  26.421  1.00  0.00    -0.200 F 
ATOM     73  F   UNL A   1      46.694  34.884  26.731  1.00  0.00    -0.200 F 
ENDBRANCH  49  63
BRANCH  50  74
ATOM     74  C   UNL A   1      39.317  28.048  29.362  1.00  0.00     0.064 A 
ATOM     75  C   UNL A   1      38.477  28.201  30.479  1.00  0.00     0.173 A 
ATOM     76  C   UNL A   1      38.881  28.648  28.165  1.00  0.00     0.173 A 
ATOM     77  F   UNL A   1      38.840  27.697  31.668  1.00  0.00    -0.203 F 
ATOM     78  C   UNL A   1      37.297  28.950  30.413  1.00  0.00     0.198 A 
ATOM     79  C   UNL A   1      37.698  29.388  28.099  1.00  0.00     0.198 A 
ATOM     80  F   UNL A   1      39.641  28.620  27.061  1.00  0.00    -0.203 F 
ATOM     81  F   UNL A   1      36.565  29.139  31.519  1.00  0.00    -0.200 F 
ATOM     82  C   UNL A   1      36.917  29.553  29.227  1.00  0.00     0.200 A 
ATOM     83  F   UNL A   1      37.360  29.998  26.955  1.00  0.00    -0.200 F 
ATOM     84  F   UNL A   1      35.825  30.330  29.180  1.00  0.00    -0.200 F 
ENDBRANCH  50  74
BRANCH  62  85
ATOM     85  C   UNL A   1      44.904  26.925  32.141  1.00  0.00     0.064 A 
ATOM     86  C   UNL A   1      44.867  27.085  33.539  1.00  0.00     0.173 A 
ATOM     87  C   UNL A   1      44.744  25.627  31.637  1.00  0.00     0.173 A 
ATOM     88  F   UNL A   1      44.924  28.302  34.095  1.00  0.00    -0.203 F 
ATOM     89  C   UNL A   1      44.709  25.989  34.386  1.00  0.00     0.198 A 
ATOM     90  C   UNL A   1      44.549  24.541  32.484  1.00  0.00     0.198 A 
ATOM     91  F   UNL A   1      44.724  25.421  30.310  1.00  0.00    -0.203 F 
ATOM     92  F   UNL A   1      44.685  26.164  35.716  1.00  0.00    -0.200 F 
ATOM     93  C   UNL A   1      44.540  24.720  33.858  1.00  0.00     0.200 A 
ATOM     94  F   UNL A   1      44.339  23.322  31.966  1.00  0.00    -0.200 F 
ATOM     95  F   UNL A   1      44.342  23.672  34.670  1.00  0.00    -0.200 F 
ENDBRANCH  62  85
ENDBRANCH  36  37
ENDBRANCH  29  31
ENDBRANCH  28  29
ENDBRANCH  27  28
ENDBRANCH  26  27
ENDBRANCH  25  26
ENDBRANCH  24  25
ENDBRANCH   1  24
TORSDOF 19
ENDMDL
MODEL 3
REMARK VINA RESULT:     -10.9      4.803     10.361
REMARK SMILES COc1ccc(Cl)c2sc(N3CC(C(=O)OCCOCCOCCOC(=O)c4ccc(-c5c6nc(c(-c7c(F)c(F)c(F)c(F)c7F)c7ccc([nH]7)c(-c7c(F)c(F)c(F)c(F)c7F)c7nc(c(-c8c(F)c(F)c(F)c(F)c8F)c8ccc5[nH]8)C=C7)C=C6)cc4)C3)nc12
REMARK SMILES IDX 20 1 19 2 18 3 17 4 16 5 14 6 15 7 13 8 11 9 12 10 91 11
REMARK SMILES IDX 10 12 3 13 4 14 93 15 5 16 8 17 92 18 6 19 9 20 7 21 2 22
REMARK SMILES IDX 1 23 21 24 22 25 23 26 24 27 25 28 26 29 27 30 28 31 29 32
REMARK SMILES IDX 90 33 30 34 89 35 31 36 32 37 33 38 83 39 34 40 88 41 82 42
REMARK SMILES IDX 84 43 35 44 87 45 81 46 80 47 36 49 68 50 48 51 67 52 49 53
REMARK SMILES IDX 52 54 66 55 85 56 50 57 51 58 65 60 86 61 53 62 37 63 38 64
REMARK SMILES IDX 46 65 39 66 40 67 44 68 47 69 41 70 42 71 45 72 43 73 69 74
REMARK SMILES IDX 70 75 78 76 71 77 72 78 76 79 79 80 73 81 74 82 77 83 75 84
REMARK SMILES IDX 54 85 55 86 63 87 56 88 57 89 61 90 64 91 58 92 59 93 62 94
REMARK SMILES IDX 60 95
REMARK H PARENT 84 48 52 59
REMARK Flexibility Score: inf
ROOT
ATOM      1  C   UNL A   1      33.863  30.012  27.168  1.00  0.00     0.188 C 
ENDROOT
BRANCH   1   2
ATOM      2  O   UNL A   1      33.231  30.022  25.908  1.00  0.00    -0.376 OA
BRANCH   2   3
ATOM      3  C   UNL A   1      31.839  29.758  25.816  1.00  0.00     0.202 C 
BRANCH   3   4
ATOM      4  C   UNL A   1      31.080  29.652  24.475  1.00  0.00     0.261 C 
BRANCH   4   5
ATOM      5  O   UNL A   1      31.690  28.809  23.483  1.00  0.00    -0.463 OA
BRANCH   5   6
ATOM      6  C   UNL A   1      30.878  27.942  22.809  1.00  0.00     0.312 C 
ATOM      7  O   UNL A   1      29.980  28.322  22.057  1.00  0.00    -0.252 OA
BRANCH   6   8
ATOM      8  C   UNL A   1      31.275  26.469  22.982  1.00  0.00     0.138 C 
ATOM      9  N   UNL A   1      32.960  25.330  23.307  1.00  0.00    -0.346 N 
ATOM     10  C   UNL A   1      32.181  26.141  24.172  1.00  0.00     0.136 C 
ATOM     11  C   UNL A   1      32.341  25.783  22.110  1.00  0.00     0.136 C 
BRANCH   9  12
ATOM     12  C   UNL A   1      33.569  24.154  23.560  1.00  0.00     0.186 A 
ATOM     13  C   UNL A   1      33.511  20.609  24.189  1.00  0.00     0.146 A 
ATOM     14  C   UNL A   1      34.468  19.748  24.748  1.00  0.00     0.050 A 
ATOM     15  C   UNL A   1      33.829  21.986  24.028  1.00  0.00     0.127 A 
ATOM     16  C   UNL A   1      35.714  20.229  25.139  1.00  0.00     0.026 A 
ATOM     17  C   UNL A   1      35.112  22.431  24.363  1.00  0.00     0.079 A 
ATOM     18  N   UNL A   1      32.965  22.989  23.593  1.00  0.00    -0.216 NA
ATOM     19  C   UNL A   1      36.059  21.566  24.934  1.00  0.00     0.060 A 
ATOM     20  S   UNL A   1      35.246  24.096  23.938  1.00  0.00    -0.095 S 
ATOM     21  Cl  UNL A   1      37.626  22.106  25.405  1.00  0.00    -0.083 Cl
BRANCH  13  22
ATOM     22  O   UNL A   1      32.301  20.161  23.717  1.00  0.00    -0.494 OA
ATOM     23  C   UNL A   1      32.222  18.765  23.456  1.00  0.00     0.278 C 
ENDBRANCH  13  22
ENDBRANCH   9  12
ENDBRANCH   6   8
ENDBRANCH   5   6
ENDBRANCH   4   5
ENDBRANCH   3   4
ENDBRANCH   2   3
ENDBRANCH   1   2
BRANCH   1  24
ATOM     24  C   UNL A   1      34.662  31.242  27.636  1.00  0.00     0.188 C 
BRANCH  24  25
ATOM     25  O   UNL A   1      34.069  32.212  28.469  1.00  0.00    -0.376 OA
BRANCH  25  26
ATOM     26  C   UNL A   1      33.511  33.441  28.032  1.00  0.00     0.202 C 
BRANCH  26  27
ATOM     27  C   UNL A   1      33.387  34.725  28.854  1.00  0.00     0.261 C 
BRANCH  27  28
ATOM     28  O   UNL A   1      34.310  34.862  29.907  1.00  0.00    -0.460 OA
BRANCH  28  29
ATOM     29  C   UNL A   1      33.710  34.906  31.102  1.00  0.00     0.338 C 
ATOM     30  O   UNL A   1      32.600  35.374  31.369  1.00  0.00    -0.246 OA
BRANCH  29  31
ATOM     31  C   UNL A   1      34.583  34.291  32.091  1.00  0.00     0.060 A 
ATOM     32  C   UNL A   1      35.723  35.025  32.412  1.00  0.00     0.016 A 
ATOM     33  C   UNL A   1      34.495  32.901  32.229  1.00  0.00     0.016 A 
ATOM     34  C   UNL A   1      36.893  34.327  32.511  1.00  0.00     0.010 A 
ATOM     35  C   UNL A   1      35.670  32.205  32.306  1.00  0.00     0.010 A 
ATOM     36  C   UNL A   1      36.849  32.939  32.320  1.00  0.00    -0.014 A 
BRANCH  36  37
ATOM     37  C   UNL A   1      38.116  32.276  32.167  1.00  0.00     0.031 A 
ATOM     38  C   UNL A   1      38.897  32.294  33.410  1.00  0.00     0.074 A 
ATOM     39  C   UNL A   1      38.512  31.729  31.006  1.00  0.00     0.049 A 
ATOM     40  N   UNL A   1      39.944  33.003  33.664  1.00  0.00    -0.248 NA
ATOM     41  C   UNL A   1      38.326  31.599  34.572  1.00  0.00     0.031 C 
ATOM     42  C   UNL A   1      37.723  31.437  29.806  1.00  0.00     0.029 A 
ATOM     43  N   UNL A   1      39.742  31.249  30.692  1.00  0.00    -0.354 N 
ATOM     44  C   UNL A   1      40.283  32.690  34.973  1.00  0.00     0.074 A 
ATOM     45  C   UNL A   1      39.158  31.992  35.534  1.00  0.00     0.031 C 
ATOM     46  C   UNL A   1      38.446  30.635  28.987  1.00  0.00     0.029 A 
ATOM     47  C   UNL A   1      39.783  30.487  29.536  1.00  0.00     0.049 A 
ATOM     48  H   UNL A   1      40.540  31.427  31.241  1.00  0.00     0.167 HD
ATOM     49  C   UNL A   1      41.575  32.774  35.379  1.00  0.00     0.037 A 
ATOM     50  C   UNL A   1      40.837  29.737  29.133  1.00  0.00     0.037 A 
ATOM     51  C   UNL A   1      42.324  33.668  34.529  1.00  0.00     0.049 A 
ATOM     52  C   UNL A   1      42.043  30.277  29.815  1.00  0.00     0.074 A 
ATOM     53  C   UNL A   1      42.252  35.012  34.221  1.00  0.00     0.029 A 
ATOM     54  N   UNL A   1      43.112  33.105  33.556  1.00  0.00    -0.354 N 
ATOM     55  N   UNL A   1      42.556  31.452  29.572  1.00  0.00    -0.248 NA
ATOM     56  C   UNL A   1      42.440  29.673  31.077  1.00  0.00     0.031 C 
ATOM     57  C   UNL A   1      42.637  35.110  32.850  1.00  0.00     0.029 A 
ATOM     58  C   UNL A   1      42.962  33.828  32.403  1.00  0.00     0.049 A 
ATOM     59  H   UNL A   1      43.686  32.313  33.668  1.00  0.00     0.167 HD
ATOM     60  C   UNL A   1      42.989  31.911  30.807  1.00  0.00     0.074 A 
ATOM     61  C   UNL A   1      42.995  30.734  31.669  1.00  0.00     0.031 C 
ATOM     62  C   UNL A   1      43.029  33.249  31.079  1.00  0.00     0.037 A 
BRANCH  49  63
ATOM     63  C   UNL A   1      42.228  31.717  36.238  1.00  0.00     0.064 A 
ATOM     64  C   UNL A   1      42.904  32.122  37.404  1.00  0.00     0.173 A 
ATOM     65  C   UNL A   1      42.485  30.389  35.822  1.00  0.00     0.173 A 
ATOM     66  F   UNL A   1      42.752  33.365  37.885  1.00  0.00    -0.203 F 
ATOM     67  C   UNL A   1      43.833  31.298  38.044  1.00  0.00     0.198 A 
ATOM     68  C   UNL A   1      43.370  29.551  36.494  1.00  0.00     0.198 A 
ATOM     69  F   UNL A   1      41.989  29.872  34.694  1.00  0.00    -0.203 F 
ATOM     70  F   UNL A   1      44.552  31.778  39.066  1.00  0.00    -0.200 F 
ATOM     71  C   UNL A   1      44.071  30.016  37.583  1.00  0.00     0.200 A 
ATOM     72  F   UNL A   1      43.599  28.319  36.017  1.00  0.00    -0.200 F 
ATOM     73  F   UNL A   1      45.009  29.248  38.153  1.00  0.00    -0.200 F 
ENDBRANCH  49  63
BRANCH  50  74
ATOM     74  C   UNL A   1      40.810  28.371  28.556  1.00  0.00     0.064 A 
ATOM     75  C   UNL A   1      40.084  27.346  29.188  1.00  0.00     0.173 A 
ATOM     76  C   UNL A   1      41.222  28.120  27.232  1.00  0.00     0.173 A 
ATOM     77  F   UNL A   1      39.618  27.521  30.433  1.00  0.00    -0.203 F 
ATOM     78  C   UNL A   1      39.751  26.163  28.519  1.00  0.00     0.198 A 
ATOM     79  C   UNL A   1      40.896  26.936  26.570  1.00  0.00     0.198 A 
ATOM     80  F   UNL A   1      41.858  29.060  26.518  1.00  0.00    -0.203 F 
ATOM     81  F   UNL A   1      38.991  25.243  29.129  1.00  0.00    -0.200 F 
ATOM     82  C   UNL A   1      40.146  25.966  27.207  1.00  0.00     0.200 A 
ATOM     83  F   UNL A   1      41.251  26.773  25.288  1.00  0.00    -0.200 F 
ATOM     84  F   UNL A   1      39.765  24.865  26.542  1.00  0.00    -0.200 F 
ENDBRANCH  50  74
BRANCH  62  85
ATOM     85  C   UNL A   1      42.908  34.197  29.919  1.00  0.00     0.064 A 
ATOM     86  C   UNL A   1      43.987  34.600  29.111  1.00  0.00     0.173 A 
ATOM     87  C   UNL A   1      41.624  34.603  29.529  1.00  0.00     0.173 A 
ATOM     88  F   UNL A   1      45.232  34.181  29.365  1.00  0.00    -0.203 F 
ATOM     89  C   UNL A   1      43.786  35.399  27.986  1.00  0.00     0.198 A 
ATOM     90  C   UNL A   1      41.424  35.369  28.385  1.00  0.00     0.198 A 
ATOM     91  F   UNL A   1      40.553  34.209  30.236  1.00  0.00    -0.203 F 
ATOM     92  F   UNL A   1      44.831  35.780  27.235  1.00  0.00    -0.200 F 
ATOM     93  C   UNL A   1      42.504  35.775  27.619  1.00  0.00     0.200 A 
ATOM     94  F   UNL A   1      40.178  35.690  28.008  1.00  0.00    -0.200 F 
ATOM     95  F   UNL A   1      42.306  36.505  26.512  1.00  0.00    -0.200 F 
ENDBRANCH  62  85
ENDBRANCH  36  37
ENDBRANCH  29  31
ENDBRANCH  28  29
ENDBRANCH  27  28
ENDBRANCH  26  27
ENDBRANCH  25  26
ENDBRANCH  24  25
ENDBRANCH   1  24
TORSDOF 19
ENDMDL
