MODEL 1
REMARK VINA RESULT:      -8.7      0.000      0.000
REMARK SMILES CCCCCCCNC(=O)Oc1cccc(-c2ccc([C@@H](C)C(=O)OCCOCCOCCOC(=O)c3ccc(-c4c5nc(c(-c6c(F)c(F)c(F)c(F)c6F)c6ccc([nH]6)c(-c6c(F)c(F)c(F)c(F)c6F)c6nc(c(-c7c(F)c(F)c(F)c(F)c7F)c7ccc4[nH]7)C=C6)C=C5)cc3)cc2F)c1
REMARK SMILES IDX 26 1 25 2 23 3 24 4 21 5 22 6 20 7 17 8 18 9 101 10 19 11
REMARK SMILES IDX 100 12 102 13 16 14 12 15 13 16 103 17 14 18 15 19 11 20
REMARK SMILES IDX 9 21 8 22 10 24 7 25 6 26 5 27 4 28 3 29 2 30 1 31 27 32
REMARK SMILES IDX 28 33 29 34 30 35 31 36 32 37 33 38 34 39 35 40 36 41 37 42
REMARK SMILES IDX 38 43 99 44 39 45 98 46 40 47 41 48 42 49 92 50 43 51 97 52
REMARK SMILES IDX 91 53 93 54 44 55 96 56 90 57 89 58 45 60 77 61 57 62 76 63
REMARK SMILES IDX 58 64 61 65 75 66 94 67 59 68 60 69 74 71 95 72 62 73 46 74
REMARK SMILES IDX 47 75 55 76 48 77 49 78 53 79 56 80 50 81 51 82 54 83 52 84
REMARK SMILES IDX 78 85 79 86 87 87 80 88 81 89 85 90 88 91 82 92 83 93 86 94
REMARK SMILES IDX 84 95 63 96 64 97 72 98 65 99 66 100 70 101 73 102 67 103
REMARK SMILES IDX 68 104 71 105 69 106
REMARK H PARENT 8 23 93 59 61 70
REMARK Flexibility Score: inf
ROOT
ATOM      1  C   UNL A   1      38.202  30.366  28.750  1.00  0.00     0.261 C 
ENDROOT
BRANCH   1   2
ATOM      2  O   UNL A   1      39.312  29.448  28.868  1.00  0.00    -0.463 OA
BRANCH   2   3
ATOM      3  C   UNL A   1      39.616  28.725  27.761  1.00  0.00     0.313 C 
ATOM      4  O   UNL A   1      39.883  29.234  26.674  1.00  0.00    -0.252 OA
BRANCH   3   5
ATOM      5  C   UNL A   1      39.614  27.205  27.925  1.00  0.00     0.126 C 
ATOM      6  C   UNL A   1      39.457  26.871  29.408  1.00  0.00     0.025 C 
BRANCH   5   7
ATOM      7  C   UNL A   1      40.700  26.336  27.294  1.00  0.00    -0.031 A 
ATOM      8  C   UNL A   1      42.833  24.727  26.236  1.00  0.00     0.018 A 
ATOM      9  C   UNL A   1      42.009  25.507  25.403  1.00  0.00     0.012 A 
ATOM     10  C   UNL A   1      42.560  24.775  27.608  1.00  0.00     0.131 A 
ATOM     11  C   UNL A   1      40.969  26.305  25.920  1.00  0.00     0.005 A 
ATOM     12  C   UNL A   1      41.526  25.562  28.130  1.00  0.00     0.044 A 
ATOM     13  F   UNL A   1      43.310  24.075  28.475  1.00  0.00    -0.206 F 
BRANCH   8  14
ATOM     14  C   UNL A   1      43.964  23.944  25.693  1.00  0.00    -0.012 A 
ATOM     15  C   UNL A   1      45.061  21.835  25.175  1.00  0.00     0.133 A 
ATOM     16  C   UNL A   1      46.202  22.499  24.729  1.00  0.00     0.047 A 
ATOM     17  C   UNL A   1      43.952  22.538  25.658  1.00  0.00     0.056 A 
ATOM     18  C   UNL A   1      46.227  23.889  24.749  1.00  0.00     0.004 A 
ATOM     19  C   UNL A   1      45.122  24.602  25.228  1.00  0.00     0.009 A 
BRANCH  15  20
ATOM     20  O   UNL A   1      45.141  20.434  25.253  1.00  0.00    -0.410 OA
BRANCH  20  21
ATOM     21  C   UNL A   1      44.507  19.691  24.268  1.00  0.00     0.412 C 
ATOM     22  N   UNL A   1      43.389  19.040  24.724  1.00  0.00    -0.321 N 
ATOM     23  H   UNL A   1      42.854  18.563  24.049  1.00  0.00     0.167 HD
ATOM     24  O   UNL A   1      44.875  19.570  23.108  1.00  0.00    -0.224 OA
BRANCH  22  25
ATOM     25  C   UNL A   1      42.908  18.977  26.092  1.00  0.00     0.119 C 
BRANCH  25  26
ATOM     26  C   UNL A   1      41.474  19.489  26.238  1.00  0.00     0.021 C 
BRANCH  26  27
ATOM     27  C   UNL A   1      41.136  20.100  27.604  1.00  0.00     0.002 C 
BRANCH  27  28
ATOM     28  C   UNL A   1      40.911  21.616  27.615  1.00  0.00     0.000 C 
BRANCH  28  29
ATOM     29  C   UNL A   1      40.195  22.185  26.385  1.00  0.00    -0.000 C 
BRANCH  29  30
ATOM     30  C   UNL A   1      39.050  23.156  26.680  1.00  0.00    -0.003 C 
ATOM     31  C   UNL A   1      37.828  22.941  25.798  1.00  0.00     0.004 C 
ENDBRANCH  29  30
ENDBRANCH  28  29
ENDBRANCH  27  28
ENDBRANCH  26  27
ENDBRANCH  25  26
ENDBRANCH  22  25
ENDBRANCH  20  21
ENDBRANCH  15  20
ENDBRANCH   8  14
ENDBRANCH   5   7
ENDBRANCH   3   5
ENDBRANCH   2   3
ENDBRANCH   1   2
BRANCH   1  32
ATOM     32  C   UNL A   1      36.831  29.764  29.084  1.00  0.00     0.202 C 
BRANCH  32  33
ATOM     33  O   UNL A   1      35.885  29.687  28.026  1.00  0.00    -0.376 OA
BRANCH  33  34
ATOM     34  C   UNL A   1      34.932  30.731  27.859  1.00  0.00     0.188 C 
BRANCH  34  35
ATOM     35  C   UNL A   1      34.769  31.799  28.949  1.00  0.00     0.188 C 
BRANCH  35  36
ATOM     36  O   UNL A   1      35.009  33.116  28.495  1.00  0.00    -0.376 OA
BRANCH  36  37
ATOM     37  C   UNL A   1      33.855  33.872  28.178  1.00  0.00     0.202 C 
BRANCH  37  38
ATOM     38  C   UNL A   1      33.486  34.826  29.317  1.00  0.00     0.261 C 
BRANCH  38  39
ATOM     39  O   UNL A   1      34.461  34.906  30.376  1.00  0.00    -0.460 OA
BRANCH  39  40
ATOM     40  C   UNL A   1      34.029  34.639  31.630  1.00  0.00     0.338 C 
ATOM     41  O   UNL A   1      32.886  34.657  32.039  1.00  0.00    -0.246 OA
BRANCH  40  42
ATOM     42  C   UNL A   1      35.178  34.104  32.394  1.00  0.00     0.060 A 
ATOM     43  C   UNL A   1      36.312  34.909  32.575  1.00  0.00     0.016 A 
ATOM     44  C   UNL A   1      35.124  32.825  32.952  1.00  0.00     0.016 A 
ATOM     45  C   UNL A   1      37.394  34.436  33.323  1.00  0.00     0.010 A 
ATOM     46  C   UNL A   1      36.215  32.346  33.679  1.00  0.00     0.010 A 
ATOM     47  C   UNL A   1      37.360  33.142  33.862  1.00  0.00    -0.014 A 
BRANCH  47  48
ATOM     48  C   UNL A   1      38.551  32.556  34.526  1.00  0.00     0.031 A 
ATOM     49  C   UNL A   1      38.823  32.897  35.963  1.00  0.00     0.074 A 
ATOM     50  C   UNL A   1      39.405  31.770  33.849  1.00  0.00     0.049 A 
ATOM     51  N   UNL A   1      39.869  32.626  36.701  1.00  0.00    -0.248 NA
ATOM     52  C   UNL A   1      37.772  33.654  36.661  1.00  0.00     0.031 C 
ATOM     53  C   UNL A   1      39.236  31.331  32.466  1.00  0.00     0.029 A 
ATOM     54  N   UNL A   1      40.607  31.224  34.233  1.00  0.00    -0.354 N 
ATOM     55  C   UNL A   1      39.610  33.185  37.943  1.00  0.00     0.074 A 
ATOM     56  C   UNL A   1      38.315  33.829  37.857  1.00  0.00     0.031 C 
ATOM     57  C   UNL A   1      40.307  30.603  32.107  1.00  0.00     0.029 A 
ATOM     58  C   UNL A   1      41.257  30.564  33.218  1.00  0.00     0.049 A 
ATOM     59  H   UNL A   1      40.967  31.299  35.146  1.00  0.00     0.167 HD
ATOM     60  C   UNL A   1      40.380  33.161  39.057  1.00  0.00     0.037 A 
ATOM     61  C   UNL A   1      42.494  30.027  33.181  1.00  0.00     0.037 A 
ATOM     62  C   UNL A   1      41.669  32.527  39.140  1.00  0.00     0.049 A 
ATOM     63  C   UNL A   1      43.375  30.103  34.403  1.00  0.00     0.074 A 
ATOM     64  C   UNL A   1      42.512  32.425  40.233  1.00  0.00     0.029 A 
ATOM     65  N   UNL A   1      42.311  31.900  38.081  1.00  0.00    -0.354 N 
ATOM     66  N   UNL A   1      43.114  30.606  35.585  1.00  0.00    -0.248 NA
ATOM     67  C   UNL A   1      44.730  29.542  34.281  1.00  0.00     0.031 C 
ATOM     68  C   UNL A   1      43.688  31.789  39.822  1.00  0.00     0.029 A 
ATOM     69  C   UNL A   1      43.556  31.445  38.487  1.00  0.00     0.049 A 
ATOM     70  H   UNL A   1      41.938  31.796  37.176  1.00  0.00     0.167 HD
ATOM     71  C   UNL A   1      44.257  30.405  36.350  1.00  0.00     0.074 A 
ATOM     72  C   UNL A   1      45.209  29.717  35.504  1.00  0.00     0.031 C 
ATOM     73  C   UNL A   1      44.497  30.762  37.636  1.00  0.00     0.037 A 
BRANCH  60  74
ATOM     74  C   UNL A   1      39.863  33.872  40.273  1.00  0.00     0.064 A 
ATOM     75  C   UNL A   1      40.130  35.230  40.504  1.00  0.00     0.173 A 
ATOM     76  C   UNL A   1      39.058  33.194  41.201  1.00  0.00     0.173 A 
ATOM     77  F   UNL A   1      40.904  35.920  39.654  1.00  0.00    -0.203 F 
ATOM     78  C   UNL A   1      39.628  35.876  41.631  1.00  0.00     0.198 A 
ATOM     79  C   UNL A   1      38.535  33.850  42.311  1.00  0.00     0.198 A 
ATOM     80  F   UNL A   1      38.771  31.894  41.025  1.00  0.00    -0.203 F 
ATOM     81  F   UNL A   1      39.932  37.161  41.856  1.00  0.00    -0.200 F 
ATOM     82  C   UNL A   1      38.825  35.187  42.529  1.00  0.00     0.200 A 
ATOM     83  F   UNL A   1      37.749  33.186  43.171  1.00  0.00    -0.200 F 
ATOM     84  F   UNL A   1      38.337  35.813  43.609  1.00  0.00    -0.200 F 
ENDBRANCH  60  74
BRANCH  61  85
ATOM     85  C   UNL A   1      42.996  29.402  31.929  1.00  0.00     0.064 A 
ATOM     86  C   UNL A   1      43.415  30.187  30.846  1.00  0.00     0.173 A 
ATOM     87  C   UNL A   1      43.034  28.007  31.775  1.00  0.00     0.173 A 
ATOM     88  F   UNL A   1      43.364  31.525  30.931  1.00  0.00    -0.203 F 
ATOM     89  C   UNL A   1      43.839  29.603  29.654  1.00  0.00     0.198 A 
ATOM     90  C   UNL A   1      43.488  27.425  30.593  1.00  0.00     0.198 A 
ATOM     91  F   UNL A   1      42.633  27.209  32.775  1.00  0.00    -0.203 F 
ATOM     92  F   UNL A   1      44.184  30.379  28.617  1.00  0.00    -0.200 F 
ATOM     93  C   UNL A   1      43.881  28.223  29.531  1.00  0.00     0.200 A 
ATOM     94  F   UNL A   1      43.531  26.090  30.480  1.00  0.00    -0.200 F 
ATOM     95  F   UNL A   1      44.287  27.662  28.383  1.00  0.00    -0.200 F 
ENDBRANCH  61  85
BRANCH  73  96
ATOM     96  C   UNL A   1      45.833  30.398  38.221  1.00  0.00     0.064 A 
ATOM     97  C   UNL A   1      46.907  31.300  38.214  1.00  0.00     0.173 A 
ATOM     98  C   UNL A   1      46.025  29.155  38.843  1.00  0.00     0.173 A 
ATOM     99  F   UNL A   1      46.781  32.496  37.620  1.00  0.00    -0.203 F 
ATOM    100  C   UNL A   1      48.129  30.963  38.790  1.00  0.00     0.198 A 
ATOM    101  C   UNL A   1      47.237  28.833  39.446  1.00  0.00     0.198 A 
ATOM    102  F   UNL A   1      45.028  28.259  38.884  1.00  0.00    -0.203 F 
ATOM    103  F   UNL A   1      49.155  31.823  38.735  1.00  0.00    -0.200 F 
ATOM    104  C   UNL A   1      48.291  29.734  39.413  1.00  0.00     0.200 A 
ATOM    105  F   UNL A   1      47.386  27.651  40.060  1.00  0.00    -0.200 F 
ATOM    106  F   UNL A   1      49.464  29.416  39.979  1.00  0.00    -0.200 F 
ENDBRANCH  73  96
ENDBRANCH  47  48
ENDBRANCH  40  42
ENDBRANCH  39  40
ENDBRANCH  38  39
ENDBRANCH  37  38
ENDBRANCH  36  37
ENDBRANCH  35  36
ENDBRANCH  34  35
ENDBRANCH  33  34
ENDBRANCH  32  33
ENDBRANCH   1  32
TORSDOF 27
ENDMDL
MODEL 2
REMARK VINA RESULT:      -8.6      0.885      2.302
REMARK SMILES CCCCCCCNC(=O)Oc1cccc(-c2ccc([C@@H](C)C(=O)OCCOCCOCCOC(=O)c3ccc(-c4c5nc(c(-c6c(F)c(F)c(F)c(F)c6F)c6ccc([nH]6)c(-c6c(F)c(F)c(F)c(F)c6F)c6nc(c(-c7c(F)c(F)c(F)c(F)c7F)c7ccc4[nH]7)C=C6)C=C5)cc3)cc2F)c1
REMARK SMILES IDX 26 1 25 2 23 3 24 4 21 5 22 6 20 7 17 8 18 9 101 10 19 11
REMARK SMILES IDX 100 12 102 13 16 14 12 15 13 16 103 17 14 18 15 19 11 20
REMARK SMILES IDX 9 21 8 22 10 24 7 25 6 26 5 27 4 28 3 29 2 30 1 31 27 32
REMARK SMILES IDX 28 33 29 34 30 35 31 36 32 37 33 38 34 39 35 40 36 41 37 42
REMARK SMILES IDX 38 43 99 44 39 45 98 46 40 47 41 48 42 49 92 50 43 51 97 52
REMARK SMILES IDX 91 53 93 54 44 55 96 56 90 57 89 58 45 60 77 61 57 62 76 63
REMARK SMILES IDX 58 64 61 65 75 66 94 67 59 68 60 69 74 71 95 72 62 73 46 74
REMARK SMILES IDX 47 75 55 76 48 77 49 78 53 79 56 80 50 81 51 82 54 83 52 84
REMARK SMILES IDX 78 85 79 86 87 87 80 88 81 89 85 90 88 91 82 92 83 93 86 94
REMARK SMILES IDX 84 95 63 96 64 97 72 98 65 99 66 100 70 101 73 102 67 103
REMARK SMILES IDX 68 104 71 105 69 106
REMARK H PARENT 8 23 93 59 61 70
REMARK Flexibility Score: inf
ROOT
ATOM      1  C   UNL A   1      38.129  30.232  28.275  1.00  0.00     0.261 C 
ENDROOT
BRANCH   1   2
ATOM      2  O   UNL A   1      39.199  29.400  28.775  1.00  0.00    -0.463 OA
BRANCH   2   3
ATOM      3  C   UNL A   1      39.513  28.309  28.031  1.00  0.00     0.313 C 
ATOM      4  O   UNL A   1      40.110  28.373  26.958  1.00  0.00    -0.252 OA
BRANCH   3   5
ATOM      5  C   UNL A   1      39.082  26.957  28.599  1.00  0.00     0.126 C 
ATOM      6  C   UNL A   1      39.010  27.064  30.122  1.00  0.00     0.025 C 
BRANCH   5   7
ATOM      7  C   UNL A   1      39.780  25.663  28.187  1.00  0.00    -0.031 A 
ATOM      8  C   UNL A   1      40.950  23.156  27.411  1.00  0.00     0.018 A 
ATOM      9  C   UNL A   1      41.623  24.058  28.257  1.00  0.00     0.012 A 
ATOM     10  C   UNL A   1      39.681  23.543  26.966  1.00  0.00     0.131 A 
ATOM     11  C   UNL A   1      41.047  25.283  28.648  1.00  0.00     0.005 A 
ATOM     12  C   UNL A   1      39.103  24.760  27.346  1.00  0.00     0.044 A 
ATOM     13  F   UNL A   1      38.964  22.732  26.171  1.00  0.00    -0.206 F 
BRANCH   8  14
ATOM     14  C   UNL A   1      41.534  21.843  27.059  1.00  0.00    -0.012 A 
ATOM     15  C   UNL A   1      42.979  20.431  25.703  1.00  0.00     0.133 A 
ATOM     16  C   UNL A   1      42.542  19.288  26.367  1.00  0.00     0.047 A 
ATOM     17  C   UNL A   1      42.485  21.699  26.031  1.00  0.00     0.056 A 
ATOM     18  C   UNL A   1      41.608  19.414  27.390  1.00  0.00     0.004 A 
ATOM     19  C   UNL A   1      41.110  20.677  27.730  1.00  0.00     0.009 A 
BRANCH  15  20
ATOM     20  O   UNL A   1      43.821  20.230  24.595  1.00  0.00    -0.410 OA
BRANCH  20  21
ATOM     21  C   UNL A   1      45.124  19.820  24.836  1.00  0.00     0.412 C 
ATOM     22  N   UNL A   1      45.973  20.861  25.110  1.00  0.00    -0.321 N 
ATOM     23  H   UNL A   1      46.892  20.621  25.369  1.00  0.00     0.167 HD
ATOM     24  O   UNL A   1      45.535  18.668  24.794  1.00  0.00    -0.224 OA
BRANCH  22  25
ATOM     25  C   UNL A   1      45.665  22.278  25.062  1.00  0.00     0.119 C 
BRANCH  25  26
ATOM     26  C   UNL A   1      45.958  22.991  26.384  1.00  0.00     0.021 C 
BRANCH  26  27
ATOM     27  C   UNL A   1      45.063  24.202  26.683  1.00  0.00     0.002 C 
BRANCH  27  28
ATOM     28  C   UNL A   1      44.695  25.069  25.474  1.00  0.00     0.000 C 
BRANCH  28  29
ATOM     29  C   UNL A   1      43.240  24.959  25.002  1.00  0.00    -0.000 C 
BRANCH  29  30
ATOM     30  C   UNL A   1      42.331  26.127  25.393  1.00  0.00    -0.003 C 
ATOM     31  C   UNL A   1      42.910  27.490  25.043  1.00  0.00     0.004 C 
ENDBRANCH  29  30
ENDBRANCH  28  29
ENDBRANCH  27  28
ENDBRANCH  26  27
ENDBRANCH  25  26
ENDBRANCH  22  25
ENDBRANCH  20  21
ENDBRANCH  15  20
ENDBRANCH   8  14
ENDBRANCH   5   7
ENDBRANCH   3   5
ENDBRANCH   2   3
ENDBRANCH   1   2
BRANCH   1  32
ATOM     32  C   UNL A   1      36.718  29.755  28.639  1.00  0.00     0.202 C 
BRANCH  32  33
ATOM     33  O   UNL A   1      35.747  29.761  27.601  1.00  0.00    -0.376 OA
BRANCH  33  34
ATOM     34  C   UNL A   1      34.695  30.720  27.629  1.00  0.00     0.188 C 
BRANCH  34  35
ATOM     35  C   UNL A   1      34.734  31.868  28.647  1.00  0.00     0.188 C 
BRANCH  35  36
ATOM     36  O   UNL A   1      34.657  33.152  28.060  1.00  0.00    -0.376 OA
BRANCH  36  37
ATOM     37  C   UNL A   1      33.377  33.758  28.085  1.00  0.00     0.202 C 
BRANCH  37  38
ATOM     38  C   UNL A   1      33.252  34.741  29.252  1.00  0.00     0.261 C 
BRANCH  38  39
ATOM     39  O   UNL A   1      34.319  34.669  30.218  1.00  0.00    -0.460 OA
BRANCH  39  40
ATOM     40  C   UNL A   1      33.965  34.659  31.524  1.00  0.00     0.338 C 
ATOM     41  O   UNL A   1      32.867  34.873  31.996  1.00  0.00    -0.246 OA
BRANCH  40  42
ATOM     42  C   UNL A   1      35.112  34.126  32.292  1.00  0.00     0.060 A 
ATOM     43  C   UNL A   1      36.199  34.967  32.567  1.00  0.00     0.016 A 
ATOM     44  C   UNL A   1      35.099  32.811  32.763  1.00  0.00     0.016 A 
ATOM     45  C   UNL A   1      37.277  34.493  33.323  1.00  0.00     0.010 A 
ATOM     46  C   UNL A   1      36.187  32.334  33.497  1.00  0.00     0.010 A 
ATOM     47  C   UNL A   1      37.286  33.166  33.774  1.00  0.00    -0.014 A 
BRANCH  47  48
ATOM     48  C   UNL A   1      38.480  32.591  34.442  1.00  0.00     0.031 A 
ATOM     49  C   UNL A   1      38.727  32.909  35.888  1.00  0.00     0.074 A 
ATOM     50  C   UNL A   1      39.358  31.835  33.760  1.00  0.00     0.049 A 
ATOM     51  N   UNL A   1      39.770  32.644  36.633  1.00  0.00    -0.248 NA
ATOM     52  C   UNL A   1      37.653  33.631  36.587  1.00  0.00     0.031 C 
ATOM     53  C   UNL A   1      39.214  31.420  32.367  1.00  0.00     0.029 A 
ATOM     54  N   UNL A   1      40.566  31.306  34.148  1.00  0.00    -0.354 N 
ATOM     55  C   UNL A   1      39.484  33.173  37.883  1.00  0.00     0.074 A 
ATOM     56  C   UNL A   1      38.178  33.793  37.793  1.00  0.00     0.031 C 
ATOM     57  C   UNL A   1      40.304  30.721  32.008  1.00  0.00     0.029 A 
ATOM     58  C   UNL A   1      41.242  30.679  33.129  1.00  0.00     0.049 A 
ATOM     59  H   UNL A   1      40.913  31.369  35.068  1.00  0.00     0.167 HD
ATOM     60  C   UNL A   1      40.241  33.143  39.006  1.00  0.00     0.037 A 
ATOM     61  C   UNL A   1      42.489  30.167  33.098  1.00  0.00     0.037 A 
ATOM     62  C   UNL A   1      41.542  32.533  39.093  1.00  0.00     0.049 A 
ATOM     63  C   UNL A   1      43.353  30.236  34.332  1.00  0.00     0.074 A 
ATOM     64  C   UNL A   1      42.373  32.425  40.195  1.00  0.00     0.029 A 
ATOM     65  N   UNL A   1      42.209  31.940  38.031  1.00  0.00    -0.354 N 
ATOM     66  N   UNL A   1      43.068  30.710  35.520  1.00  0.00    -0.248 NA
ATOM     67  C   UNL A   1      44.721  29.704  34.216  1.00  0.00     0.031 C 
ATOM     68  C   UNL A   1      43.566  31.821  39.786  1.00  0.00     0.029 A 
ATOM     69  C   UNL A   1      43.457  31.501  38.443  1.00  0.00     0.049 A 
ATOM     70  H   UNL A   1      41.849  31.846  37.119  1.00  0.00     0.167 HD
ATOM     71  C   UNL A   1      44.205  30.517  36.295  1.00  0.00     0.074 A 
ATOM     72  C   UNL A   1      45.181  29.865  35.448  1.00  0.00     0.031 C 
ATOM     73  C   UNL A   1      44.423  30.853  37.591  1.00  0.00     0.037 A 
BRANCH  60  74
ATOM     74  C   UNL A   1      39.695  33.819  40.229  1.00  0.00     0.064 A 
ATOM     75  C   UNL A   1      39.953  35.171  40.503  1.00  0.00     0.173 A 
ATOM     76  C   UNL A   1      38.871  33.115  41.120  1.00  0.00     0.173 A 
ATOM     77  F   UNL A   1      40.744  35.886  39.689  1.00  0.00    -0.203 F 
ATOM     78  C   UNL A   1      39.425  35.785  41.635  1.00  0.00     0.198 A 
ATOM     79  C   UNL A   1      38.322  33.739  42.235  1.00  0.00     0.198 A 
ATOM     80  F   UNL A   1      38.591  31.820  40.902  1.00  0.00    -0.203 F 
ATOM     81  F   UNL A   1      39.720  37.064  41.902  1.00  0.00    -0.200 F 
ATOM     82  C   UNL A   1      38.604  35.071  42.496  1.00  0.00     0.200 A 
ATOM     83  F   UNL A   1      37.518  33.051  43.059  1.00  0.00    -0.200 F 
ATOM     84  F   UNL A   1      38.090  35.666  43.581  1.00  0.00    -0.200 F 
ENDBRANCH  60  74
BRANCH  61  85
ATOM     85  C   UNL A   1      43.019  29.576  31.840  1.00  0.00     0.064 A 
ATOM     86  C   UNL A   1      43.529  30.389  30.818  1.00  0.00     0.173 A 
ATOM     87  C   UNL A   1      42.993  28.191  31.619  1.00  0.00     0.173 A 
ATOM     88  F   UNL A   1      43.541  31.722  30.968  1.00  0.00    -0.203 F 
ATOM     89  C   UNL A   1      43.980  29.841  29.619  1.00  0.00     0.198 A 
ATOM     90  C   UNL A   1      43.474  27.642  30.430  1.00  0.00     0.198 A 
ATOM     91  F   UNL A   1      42.504  27.368  32.558  1.00  0.00    -0.203 F 
ATOM     92  F   UNL A   1      44.413  30.646  28.639  1.00  0.00    -0.200 F 
ATOM     93  C   UNL A   1      43.957  28.468  29.429  1.00  0.00     0.200 A 
ATOM     94  F   UNL A   1      43.455  26.313  30.253  1.00  0.00    -0.200 F 
ATOM     95  F   UNL A   1      44.390  27.942  28.274  1.00  0.00    -0.200 F 
ENDBRANCH  61  85
BRANCH  73  96
ATOM     96  C   UNL A   1      45.757  30.505  38.185  1.00  0.00     0.064 A 
ATOM     97  C   UNL A   1      46.005  29.242  38.744  1.00  0.00     0.173 A 
ATOM     98  C   UNL A   1      46.817  31.423  38.148  1.00  0.00     0.173 A 
ATOM     99  F   UNL A   1      45.023  28.331  38.819  1.00  0.00    -0.203 F 
ATOM    100  C   UNL A   1      47.258  28.920  39.261  1.00  0.00     0.198 A 
ATOM    101  C   UNL A   1      48.077  31.088  38.637  1.00  0.00     0.198 A 
ATOM    102  F   UNL A   1      46.636  32.642  37.617  1.00  0.00    -0.203 F 
ATOM    103  F   UNL A   1      47.460  27.723  39.829  1.00  0.00    -0.200 F 
ATOM    104  C   UNL A   1      48.294  29.839  39.199  1.00  0.00     0.200 A 
ATOM    105  F   UNL A   1      49.081  31.972  38.561  1.00  0.00    -0.200 F 
ATOM    106  F   UNL A   1      49.503  29.524  39.685  1.00  0.00    -0.200 F 
ENDBRANCH  73  96
ENDBRANCH  47  48
ENDBRANCH  40  42
ENDBRANCH  39  40
ENDBRANCH  38  39
ENDBRANCH  37  38
ENDBRANCH  36  37
ENDBRANCH  35  36
ENDBRANCH  34  35
ENDBRANCH  33  34
ENDBRANCH  32  33
ENDBRANCH   1  32
TORSDOF 27
ENDMDL
MODEL 3
REMARK VINA RESULT:      -8.3      7.040     10.857
REMARK SMILES CCCCCCCNC(=O)Oc1cccc(-c2ccc([C@@H](C)C(=O)OCCOCCOCCOC(=O)c3ccc(-c4c5nc(c(-c6c(F)c(F)c(F)c(F)c6F)c6ccc([nH]6)c(-c6c(F)c(F)c(F)c(F)c6F)c6nc(c(-c7c(F)c(F)c(F)c(F)c7F)c7ccc4[nH]7)C=C6)C=C5)cc3)cc2F)c1
REMARK SMILES IDX 26 1 25 2 23 3 24 4 21 5 22 6 20 7 17 8 18 9 101 10 19 11
REMARK SMILES IDX 100 12 102 13 16 14 12 15 13 16 103 17 14 18 15 19 11 20
REMARK SMILES IDX 9 21 8 22 10 24 7 25 6 26 5 27 4 28 3 29 2 30 1 31 27 32
REMARK SMILES IDX 28 33 29 34 30 35 31 36 32 37 33 38 34 39 35 40 36 41 37 42
REMARK SMILES IDX 38 43 99 44 39 45 98 46 40 47 41 48 42 49 92 50 43 51 97 52
REMARK SMILES IDX 91 53 93 54 44 55 96 56 90 57 89 58 45 60 77 61 57 62 76 63
REMARK SMILES IDX 58 64 61 65 75 66 94 67 59 68 60 69 74 71 95 72 62 73 46 74
REMARK SMILES IDX 47 75 55 76 48 77 49 78 53 79 56 80 50 81 51 82 54 83 52 84
REMARK SMILES IDX 78 85 79 86 87 87 80 88 81 89 85 90 88 91 82 92 83 93 86 94
REMARK SMILES IDX 84 95 63 96 64 97 72 98 65 99 66 100 70 101 73 102 67 103
REMARK SMILES IDX 68 104 71 105 69 106
REMARK H PARENT 8 23 93 59 61 70
REMARK Flexibility Score: inf
ROOT
ATOM      1  C   UNL A   1      41.061  29.857  29.049  1.00  0.00     0.261 C 
ENDROOT
BRANCH   1   2
ATOM      2  O   UNL A   1      41.149  29.359  27.696  1.00  0.00    -0.463 OA
BRANCH   2   3
ATOM      3  C   UNL A   1      42.368  28.914  27.296  1.00  0.00     0.313 C 
ATOM      4  O   UNL A   1      42.994  29.410  26.361  1.00  0.00    -0.252 OA
BRANCH   3   5
ATOM      5  C   UNL A   1      42.947  27.736  28.079  1.00  0.00     0.126 C 
ATOM      6  C   UNL A   1      44.110  28.239  28.934  1.00  0.00     0.025 C 
BRANCH   5   7
ATOM      7  C   UNL A   1      43.322  26.428  27.387  1.00  0.00    -0.031 A 
ATOM      8  C   UNL A   1      44.151  23.954  26.182  1.00  0.00     0.018 A 
ATOM      9  C   UNL A   1      43.558  24.983  25.428  1.00  0.00     0.012 A 
ATOM     10  C   UNL A   1      44.316  24.196  27.551  1.00  0.00     0.131 A 
ATOM     11  C   UNL A   1      43.160  26.202  26.013  1.00  0.00     0.005 A 
ATOM     12  C   UNL A   1      43.920  25.402  28.142  1.00  0.00     0.044 A 
ATOM     13  F   UNL A   1      44.890  23.274  28.339  1.00  0.00    -0.206 F 
BRANCH   8  14
ATOM     14  C   UNL A   1      44.625  22.705  25.549  1.00  0.00    -0.012 A 
ATOM     15  C   UNL A   1      44.283  20.418  24.792  1.00  0.00     0.133 A 
ATOM     16  C   UNL A   1      45.620  20.306  24.417  1.00  0.00     0.047 A 
ATOM     17  C   UNL A   1      43.781  21.595  25.358  1.00  0.00     0.056 A 
ATOM     18  C   UNL A   1      46.465  21.395  24.592  1.00  0.00     0.004 A 
ATOM     19  C   UNL A   1      45.973  22.579  25.153  1.00  0.00     0.009 A 
BRANCH  15  20
ATOM     20  O   UNL A   1      43.509  19.247  24.714  1.00  0.00    -0.410 OA
BRANCH  20  21
ATOM     21  C   UNL A   1      43.359  18.488  25.865  1.00  0.00     0.412 C 
ATOM     22  N   UNL A   1      42.151  18.684  26.484  1.00  0.00    -0.321 N 
ATOM     23  H   UNL A   1      41.959  18.111  27.261  1.00  0.00     0.167 HD
ATOM     24  O   UNL A   1      44.193  17.729  26.341  1.00  0.00    -0.224 OA
BRANCH  22  25
ATOM     25  C   UNL A   1      41.126  19.644  26.119  1.00  0.00     0.119 C 
BRANCH  25  26
ATOM     26  C   UNL A   1      40.698  20.527  27.292  1.00  0.00     0.021 C 
BRANCH  26  27
ATOM     27  C   UNL A   1      41.539  21.795  27.494  1.00  0.00     0.002 C 
BRANCH  27  28
ATOM     28  C   UNL A   1      40.771  23.029  27.982  1.00  0.00     0.000 C 
BRANCH  28  29
ATOM     29  C   UNL A   1      39.795  23.640  26.970  1.00  0.00    -0.000 C 
BRANCH  29  30
ATOM     30  C   UNL A   1      39.821  25.167  26.870  1.00  0.00    -0.003 C 
ATOM     31  C   UNL A   1      39.665  25.866  28.212  1.00  0.00     0.004 C 
ENDBRANCH  29  30
ENDBRANCH  28  29
ENDBRANCH  27  28
ENDBRANCH  26  27
ENDBRANCH  25  26
ENDBRANCH  22  25
ENDBRANCH  20  21
ENDBRANCH  15  20
ENDBRANCH   8  14
ENDBRANCH   5   7
ENDBRANCH   3   5
ENDBRANCH   2   3
ENDBRANCH   1   2
BRANCH   1  32
ATOM     32  C   UNL A   1      39.931  29.246  29.887  1.00  0.00     0.202 C 
BRANCH  32  33
ATOM     33  O   UNL A   1      40.273  28.766  31.180  1.00  0.00    -0.376 OA
BRANCH  33  34
ATOM     34  C   UNL A   1      39.259  28.227  32.021  1.00  0.00     0.188 C 
BRANCH  34  35
ATOM     35  C   UNL A   1      37.787  28.576  31.762  1.00  0.00     0.188 C 
BRANCH  35  36
ATOM     36  O   UNL A   1      37.441  29.895  32.135  1.00  0.00    -0.376 OA
BRANCH  36  37
ATOM     37  C   UNL A   1      36.392  30.485  31.387  1.00  0.00     0.202 C 
BRANCH  37  38
ATOM     38  C   UNL A   1      36.528  32.009  31.348  1.00  0.00     0.261 C 
BRANCH  38  39
ATOM     39  O   UNL A   1      37.879  32.490  31.201  1.00  0.00    -0.460 OA
BRANCH  39  40
ATOM     40  C   UNL A   1      38.105  33.790  31.502  1.00  0.00     0.338 C 
ATOM     41  O   UNL A   1      37.494  34.485  32.289  1.00  0.00    -0.246 OA
BRANCH  40  42
ATOM     42  C   UNL A   1      39.377  34.183  30.857  1.00  0.00     0.060 A 
ATOM     43  C   UNL A   1      39.367  34.584  29.514  1.00  0.00     0.016 A 
ATOM     44  C   UNL A   1      40.569  34.184  31.585  1.00  0.00     0.016 A 
ATOM     45  C   UNL A   1      40.552  34.994  28.896  1.00  0.00     0.010 A 
ATOM     46  C   UNL A   1      41.756  34.570  30.959  1.00  0.00     0.010 A 
ATOM     47  C   UNL A   1      41.759  34.969  29.610  1.00  0.00    -0.014 A 
BRANCH  47  48
ATOM     48  C   UNL A   1      43.053  35.248  28.940  1.00  0.00     0.031 A 
ATOM     49  C   UNL A   1      43.970  34.101  28.626  1.00  0.00     0.074 A 
ATOM     50  C   UNL A   1      43.431  36.507  28.659  1.00  0.00     0.049 A 
ATOM     51  N   UNL A   1      45.201  34.115  28.183  1.00  0.00    -0.248 NA
ATOM     52  C   UNL A   1      43.423  32.753  28.849  1.00  0.00     0.031 C 
ATOM     53  C   UNL A   1      42.619  37.702  28.875  1.00  0.00     0.029 A 
ATOM     54  N   UNL A   1      44.614  36.988  28.152  1.00  0.00    -0.354 N 
ATOM     55  C   UNL A   1      45.581  32.785  28.082  1.00  0.00     0.074 A 
ATOM     56  C   UNL A   1      44.457  31.988  28.530  1.00  0.00     0.031 C 
ATOM     57  C   UNL A   1      43.337  38.783  28.527  1.00  0.00     0.029 A 
ATOM     58  C   UNL A   1      44.673  38.360  28.108  1.00  0.00     0.049 A 
ATOM     59  H   UNL A   1      45.349  36.406  27.849  1.00  0.00     0.167 HD
ATOM     60  C   UNL A   1      46.759  32.274  27.654  1.00  0.00     0.037 A 
ATOM     61  C   UNL A   1      45.701  39.178  27.804  1.00  0.00     0.037 A 
ATOM     62  C   UNL A   1      47.878  33.066  27.216  1.00  0.00     0.049 A 
ATOM     63  C   UNL A   1      47.037  38.586  27.428  1.00  0.00     0.074 A 
ATOM     64  C   UNL A   1      49.104  32.639  26.736  1.00  0.00     0.029 A 
ATOM     65  N   UNL A   1      47.913  34.454  27.221  1.00  0.00    -0.354 N 
ATOM     66  N   UNL A   1      47.383  37.328  27.305  1.00  0.00    -0.248 NA
ATOM     67  C   UNL A   1      48.130  39.533  27.156  1.00  0.00     0.031 C 
ATOM     68  C   UNL A   1      49.901  33.765  26.506  1.00  0.00     0.029 A 
ATOM     69  C   UNL A   1      49.154  34.896  26.789  1.00  0.00     0.049 A 
ATOM     70  H   UNL A   1      47.168  35.037  27.491  1.00  0.00     0.167 HD
ATOM     71  C   UNL A   1      48.719  37.332  26.924  1.00  0.00     0.074 A 
ATOM     72  C   UNL A   1      49.119  38.719  26.817  1.00  0.00     0.031 C 
ATOM     73  C   UNL A   1      49.542  36.280  26.687  1.00  0.00     0.037 A 
BRANCH  60  74
ATOM     74  C   UNL A   1      46.914  30.781  27.667  1.00  0.00     0.064 A 
ATOM     75  C   UNL A   1      47.421  30.101  28.786  1.00  0.00     0.173 A 
ATOM     76  C   UNL A   1      46.515  30.017  26.560  1.00  0.00     0.173 A 
ATOM     77  F   UNL A   1      47.828  30.786  29.865  1.00  0.00    -0.203 F 
ATOM     78  C   UNL A   1      47.543  28.715  28.785  1.00  0.00     0.198 A 
ATOM     79  C   UNL A   1      46.611  28.629  26.574  1.00  0.00     0.198 A 
ATOM     80  F   UNL A   1      46.021  30.619  25.466  1.00  0.00    -0.203 F 
ATOM     81  F   UNL A   1      48.070  28.089  29.845  1.00  0.00    -0.200 F 
ATOM     82  C   UNL A   1      47.131  27.979  27.682  1.00  0.00     0.200 A 
ATOM     83  F   UNL A   1      46.201  27.920  25.512  1.00  0.00    -0.200 F 
ATOM     84  F   UNL A   1      47.242  26.644  27.686  1.00  0.00    -0.200 F 
ENDBRANCH  60  74
BRANCH  61  85
ATOM     85  C   UNL A   1      45.526  40.653  27.880  1.00  0.00     0.064 A 
ATOM     86  C   UNL A   1      45.807  41.355  29.061  1.00  0.00     0.173 A 
ATOM     87  C   UNL A   1      45.042  41.386  26.787  1.00  0.00     0.173 A 
ATOM     88  F   UNL A   1      46.238  40.693  30.145  1.00  0.00    -0.203 F 
ATOM     89  C   UNL A   1      45.595  42.729  29.150  1.00  0.00     0.198 A 
ATOM     90  C   UNL A   1      44.860  42.767  26.867  1.00  0.00     0.198 A 
ATOM     91  F   UNL A   1      44.746  40.764  25.637  1.00  0.00    -0.203 F 
ATOM     92  F   UNL A   1      45.822  43.365  30.307  1.00  0.00    -0.200 F 
ATOM     93  C   UNL A   1      45.129  43.434  28.051  1.00  0.00     0.200 A 
ATOM     94  F   UNL A   1      44.414  43.445  25.801  1.00  0.00    -0.200 F 
ATOM     95  F   UNL A   1      44.925  44.756  28.138  1.00  0.00    -0.200 F 
ENDBRANCH  61  85
BRANCH  73  96
ATOM     96  C   UNL A   1      50.953  36.582  26.268  1.00  0.00     0.064 A 
ATOM     97  C   UNL A   1      51.984  36.720  27.208  1.00  0.00     0.173 A 
ATOM     98  C   UNL A   1      51.288  36.680  24.908  1.00  0.00     0.173 A 
ATOM     99  F   UNL A   1      51.717  36.650  28.520  1.00  0.00    -0.203 F 
ATOM    100  C   UNL A   1      53.295  36.966  26.803  1.00  0.00     0.198 A 
ATOM    101  C   UNL A   1      52.603  36.894  24.506  1.00  0.00     0.198 A 
ATOM    102  F   UNL A   1      50.340  36.547  23.968  1.00  0.00    -0.203 F 
ATOM    103  F   UNL A   1      54.257  37.137  27.719  1.00  0.00    -0.200 F 
ATOM    104  C   UNL A   1      53.604  37.043  25.453  1.00  0.00     0.200 A 
ATOM    105  F   UNL A   1      52.902  36.953  23.200  1.00  0.00    -0.200 F 
ATOM    106  F   UNL A   1      54.868  37.266  25.065  1.00  0.00    -0.200 F 
ENDBRANCH  73  96
ENDBRANCH  47  48
ENDBRANCH  40  42
ENDBRANCH  39  40
ENDBRANCH  38  39
ENDBRANCH  37  38
ENDBRANCH  36  37
ENDBRANCH  35  36
ENDBRANCH  34  35
ENDBRANCH  33  34
ENDBRANCH  32  33
ENDBRANCH   1  32
TORSDOF 27
ENDMDL
