MODEL 1
REMARK VINA RESULT:      -9.7      0.000      0.000
REMARK SMILES CC[C@H](C)[C@H](NC(=O)[C@H](C)Oc1ccc2c(C)c(C)c(=O)oc2c1C)C(=O)OCCOCCOCCOC(=O)c1ccc(-c2c3nc(c(-c4c(F)c(F)c(F)c(F)c4F)c4ccc([nH]4)c(-c4c(F)c(F)c(F)c(F)c4F)c4nc(c(-c5c(F)c(F)c(F)c(F)c5F)c5ccc2[nH]5)C=C4)C=C3)cc1
REMARK SMILES IDX 32 1 31 2 30 3 29 4 28 5 26 6 27 7 5 8 3 9 4 10 2 11 1 12
REMARK SMILES IDX 6 13 7 14 8 16 9 17 10 18 11 19 12 20 13 21 24 22 14 23
REMARK SMILES IDX 23 24 25 25 15 26 22 27 16 28 20 29 17 30 18 31 21 32 19 33
REMARK SMILES IDX 33 34 34 35 35 36 36 37 37 38 38 39 39 40 40 41 41 42 102 43
REMARK SMILES IDX 42 44 101 45 43 46 44 47 45 48 95 49 46 50 100 51 94 52
REMARK SMILES IDX 96 53 47 54 99 55 93 56 92 57 48 59 80 60 60 61 79 62 61 63
REMARK SMILES IDX 64 64 78 65 97 66 62 67 63 68 77 70 98 71 65 72 49 73 50 74
REMARK SMILES IDX 58 75 51 76 52 77 56 78 59 79 53 80 54 81 57 82 55 83 81 84
REMARK SMILES IDX 82 85 90 86 83 87 84 88 88 89 91 90 85 91 86 92 89 93 87 94
REMARK SMILES IDX 66 95 67 96 75 97 68 98 69 99 73 100 76 101 70 102 71 103
REMARK SMILES IDX 74 104 72 105
REMARK H PARENT 6 15 96 58 64 69
REMARK Flexibility Score: inf
ROOT
ATOM      1  C   UNL A   1      38.494  24.161  26.798  1.00  0.00     0.188 C 
ENDROOT
BRANCH   1   2
ATOM      2  O   UNL A   1      37.299  23.731  26.170  1.00  0.00    -0.376 OA
BRANCH   2   3
ATOM      3  C   UNL A   1      36.892  22.368  26.198  1.00  0.00     0.202 C 
BRANCH   3   4
ATOM      4  C   UNL A   1      36.637  21.596  24.895  1.00  0.00     0.261 C 
BRANCH   4   5
ATOM      5  O   UNL A   1      35.467  21.998  24.173  1.00  0.00    -0.462 OA
BRANCH   5   6
ATOM      6  C   UNL A   1      35.688  22.915  23.198  1.00  0.00     0.328 C 
ATOM      7  O   UNL A   1      36.797  23.255  22.803  1.00  0.00    -0.250 OA
BRANCH   6   8
ATOM      8  C   UNL A   1      34.384  23.443  22.578  1.00  0.00     0.195 C 
BRANCH   8   9
ATOM      9  C   UNL A   1      33.840  24.659  23.414  1.00  0.00     0.019 C 
ATOM     10  C   UNL A   1      34.527  24.962  24.753  1.00  0.00     0.010 C 
BRANCH   9  11
ATOM     11  C   UNL A   1      33.679  25.969  22.585  1.00  0.00     0.002 C 
ATOM     12  C   UNL A   1      32.823  25.935  21.315  1.00  0.00     0.004 C 
ENDBRANCH   9  11
ENDBRANCH   8   9
BRANCH   8  13
ATOM     13  N   UNL A   1      33.473  22.322  22.127  1.00  0.00    -0.339 N 
ATOM     14  C   UNL A   1      32.272  21.834  22.614  1.00  0.00     0.261 C 
ATOM     15  H   UNL A   1      33.798  21.846  21.328  1.00  0.00     0.164 HD
ATOM     16  O   UNL A   1      31.420  21.362  21.870  1.00  0.00    -0.271 OA
BRANCH  14  17
ATOM     17  C   UNL A   1      32.233  21.751  24.130  1.00  0.00     0.258 C 
ATOM     18  C   UNL A   1      32.775  20.345  24.431  1.00  0.00     0.064 C 
BRANCH  17  19
ATOM     19  O   UNL A   1      31.305  22.396  24.942  1.00  0.00    -0.480 OA
BRANCH  19  20
ATOM     20  C   UNL A   1      30.922  23.675  24.825  1.00  0.00     0.127 A 
ATOM     21  C   UNL A   1      30.276  24.257  23.744  1.00  0.00     0.047 A 
ATOM     22  C   UNL A   1      31.238  24.439  25.944  1.00  0.00     0.035 A 
ATOM     23  C   UNL A   1      30.219  25.634  23.627  1.00  0.00     0.016 A 
ATOM     24  C   UNL A   1      31.180  25.823  25.806  1.00  0.00     0.145 A 
ATOM     25  C   UNL A   1      31.633  23.788  27.243  1.00  0.00     0.052 C 
ATOM     26  C   UNL A   1      30.738  26.440  24.637  1.00  0.00     0.021 A 
ATOM     27  O   UNL A   1      31.632  26.576  26.897  1.00  0.00    -0.422 OA
ATOM     28  C   UNL A   1      30.842  27.895  24.506  1.00  0.00    -0.030 A 
ATOM     29  C   UNL A   1      31.752  27.947  26.817  1.00  0.00     0.339 A 
ATOM     30  C   UNL A   1      30.430  28.499  23.187  1.00  0.00     0.045 C 
ATOM     31  C   UNL A   1      31.335  28.598  25.544  1.00  0.00     0.038 A 
ATOM     32  O   UNL A   1      32.186  28.589  27.768  1.00  0.00    -0.246 OA
ATOM     33  C   UNL A   1      31.505  30.085  25.496  1.00  0.00     0.052 C 
ENDBRANCH  19  20
ENDBRANCH  17  19
ENDBRANCH  14  17
ENDBRANCH   8  13
ENDBRANCH   6   8
ENDBRANCH   5   6
ENDBRANCH   4   5
ENDBRANCH   3   4
ENDBRANCH   2   3
ENDBRANCH   1   2
BRANCH   1  34
ATOM     34  C   UNL A   1      39.812  23.412  26.590  1.00  0.00     0.188 C 
BRANCH  34  35
ATOM     35  O   UNL A   1      40.214  22.566  27.638  1.00  0.00    -0.376 OA
BRANCH  35  36
ATOM     36  C   UNL A   1      40.834  21.327  27.292  1.00  0.00     0.202 C 
BRANCH  36  37
ATOM     37  C   UNL A   1      41.991  21.241  26.262  1.00  0.00     0.261 C 
BRANCH  37  38
ATOM     38  O   UNL A   1      43.115  22.127  26.428  1.00  0.00    -0.460 OA
BRANCH  38  39
ATOM     39  C   UNL A   1      43.307  23.093  25.498  1.00  0.00     0.338 C 
ATOM     40  O   UNL A   1      43.363  22.944  24.284  1.00  0.00    -0.246 OA
BRANCH  39  41
ATOM     41  C   UNL A   1      43.128  24.400  26.181  1.00  0.00     0.060 A 
ATOM     42  C   UNL A   1      42.800  25.533  25.414  1.00  0.00     0.016 A 
ATOM     43  C   UNL A   1      43.205  24.496  27.571  1.00  0.00     0.016 A 
ATOM     44  C   UNL A   1      42.539  26.757  26.033  1.00  0.00     0.010 A 
ATOM     45  C   UNL A   1      43.003  25.737  28.185  1.00  0.00     0.010 A 
ATOM     46  C   UNL A   1      42.691  26.875  27.420  1.00  0.00    -0.014 A 
BRANCH  46  47
ATOM     47  C   UNL A   1      42.802  28.223  28.032  1.00  0.00     0.031 A 
ATOM     48  C   UNL A   1      44.181  28.804  28.178  1.00  0.00     0.074 A 
ATOM     49  C   UNL A   1      41.730  28.919  28.451  1.00  0.00     0.049 A 
ATOM     50  N   UNL A   1      44.563  29.915  28.754  1.00  0.00    -0.248 NA
ATOM     51  C   UNL A   1      45.281  28.019  27.592  1.00  0.00     0.031 C 
ATOM     52  C   UNL A   1      40.339  28.502  28.307  1.00  0.00     0.029 A 
ATOM     53  N   UNL A   1      41.656  30.131  29.096  1.00  0.00    -0.354 N 
ATOM     54  C   UNL A   1      45.941  29.960  28.595  1.00  0.00     0.074 A 
ATOM     55  C   UNL A   1      46.335  28.756  27.900  1.00  0.00     0.031 C 
ATOM     56  C   UNL A   1      39.546  29.436  28.864  1.00  0.00     0.029 A 
ATOM     57  C   UNL A   1      40.377  30.498  29.435  1.00  0.00     0.049 A 
ATOM     58  H   UNL A   1      42.446  30.682  29.295  1.00  0.00     0.167 HD
ATOM     59  C   UNL A   1      46.804  30.926  28.989  1.00  0.00     0.037 A 
ATOM     60  C   UNL A   1      39.936  31.555  30.147  1.00  0.00     0.037 A 
ATOM     61  C   UNL A   1      46.417  32.113  29.701  1.00  0.00     0.049 A 
ATOM     62  C   UNL A   1      40.929  32.560  30.680  1.00  0.00     0.074 A 
ATOM     63  C   UNL A   1      47.219  33.146  30.148  1.00  0.00     0.029 A 
ATOM     64  N   UNL A   1      45.117  32.420  30.077  1.00  0.00    -0.354 N 
ATOM     65  N   UNL A   1      42.230  32.607  30.520  1.00  0.00    -0.248 NA
ATOM     66  C   UNL A   1      40.391  33.661  31.496  1.00  0.00     0.031 C 
ATOM     67  C   UNL A   1      46.416  34.048  30.849  1.00  0.00     0.029 A 
ATOM     68  C   UNL A   1      45.101  33.613  30.781  1.00  0.00     0.049 A 
ATOM     69  H   UNL A   1      44.326  31.871  29.875  1.00  0.00     0.167 HD
ATOM     70  C   UNL A   1      42.660  33.749  31.187  1.00  0.00     0.074 A 
ATOM     71  C   UNL A   1      41.481  34.377  31.743  1.00  0.00     0.031 C 
ATOM     72  C   UNL A   1      43.919  34.233  31.324  1.00  0.00     0.037 A 
BRANCH  59  73
ATOM     73  C   UNL A   1      48.257  30.725  28.679  1.00  0.00     0.064 A 
ATOM     74  C   UNL A   1      49.100  30.007  29.541  1.00  0.00     0.173 A 
ATOM     75  C   UNL A   1      48.803  31.215  27.483  1.00  0.00     0.173 A 
ATOM     76  F   UNL A   1      48.631  29.536  30.706  1.00  0.00    -0.203 F 
ATOM     77  C   UNL A   1      50.438  29.799  29.222  1.00  0.00     0.198 A 
ATOM     78  C   UNL A   1      50.133  30.978  27.153  1.00  0.00     0.198 A 
ATOM     79  F   UNL A   1      48.039  31.911  26.626  1.00  0.00    -0.203 F 
ATOM     80  F   UNL A   1      51.236  29.144  30.078  1.00  0.00    -0.200 F 
ATOM     81  C   UNL A   1      50.951  30.273  28.024  1.00  0.00     0.200 A 
ATOM     82  F   UNL A   1      50.623  31.425  25.988  1.00  0.00    -0.200 F 
ATOM     83  F   UNL A   1      52.235  30.056  27.710  1.00  0.00    -0.200 F 
ENDBRANCH  59  73
BRANCH  60  84
ATOM     84  C   UNL A   1      38.479  31.723  30.401  1.00  0.00     0.064 A 
ATOM     85  C   UNL A   1      37.700  32.564  29.594  1.00  0.00     0.173 A 
ATOM     86  C   UNL A   1      37.836  31.052  31.451  1.00  0.00     0.173 A 
ATOM     87  F   UNL A   1      38.275  33.255  28.598  1.00  0.00    -0.203 F 
ATOM     88  C   UNL A   1      36.336  32.728  29.828  1.00  0.00     0.198 A 
ATOM     89  C   UNL A   1      36.466  31.194  31.667  1.00  0.00     0.198 A 
ATOM     90  F   UNL A   1      38.536  30.244  32.262  1.00  0.00    -0.203 F 
ATOM     91  F   UNL A   1      35.624  33.568  29.064  1.00  0.00    -0.200 F 
ATOM     92  C   UNL A   1      35.718  32.036  30.858  1.00  0.00     0.200 A 
ATOM     93  F   UNL A   1      35.871  30.516  32.659  1.00  0.00    -0.200 F 
ATOM     94  F   UNL A   1      34.404  32.185  31.074  1.00  0.00    -0.200 F 
ENDBRANCH  60  84
BRANCH  72  95
ATOM     95  C   UNL A   1      44.106  35.518  32.082  1.00  0.00     0.064 A 
ATOM     96  C   UNL A   1      43.967  36.766  31.460  1.00  0.00     0.173 A 
ATOM     97  C   UNL A   1      44.332  35.498  33.468  1.00  0.00     0.173 A 
ATOM     98  F   UNL A   1      43.759  36.842  30.137  1.00  0.00    -0.203 F 
ATOM     99  C   UNL A   1      44.059  37.947  32.194  1.00  0.00     0.198 A 
ATOM    100  C   UNL A   1      44.390  36.678  34.203  1.00  0.00     0.198 A 
ATOM    101  F   UNL A   1      44.460  34.330  34.116  1.00  0.00    -0.203 F 
ATOM    102  F   UNL A   1      43.955  39.129  31.571  1.00  0.00    -0.200 F 
ATOM    103  C   UNL A   1      44.258  37.902  33.566  1.00  0.00     0.200 A 
ATOM    104  F   UNL A   1      44.561  36.632  35.533  1.00  0.00    -0.200 F 
ATOM    105  F   UNL A   1      44.322  39.039  34.273  1.00  0.00    -0.200 F 
ENDBRANCH  72  95
ENDBRANCH  46  47
ENDBRANCH  39  41
ENDBRANCH  38  39
ENDBRANCH  37  38
ENDBRANCH  36  37
ENDBRANCH  35  36
ENDBRANCH  34  35
ENDBRANCH   1  34
TORSDOF 23
ENDMDL
MODEL 2
REMARK VINA RESULT:      -9.5      5.920     11.741
REMARK SMILES CC[C@H](C)[C@H](NC(=O)[C@H](C)Oc1ccc2c(C)c(C)c(=O)oc2c1C)C(=O)OCCOCCOCCOC(=O)c1ccc(-c2c3nc(c(-c4c(F)c(F)c(F)c(F)c4F)c4ccc([nH]4)c(-c4c(F)c(F)c(F)c(F)c4F)c4nc(c(-c5c(F)c(F)c(F)c(F)c5F)c5ccc2[nH]5)C=C4)C=C3)cc1
REMARK SMILES IDX 32 1 31 2 30 3 29 4 28 5 26 6 27 7 5 8 3 9 4 10 2 11 1 12
REMARK SMILES IDX 6 13 7 14 8 16 9 17 10 18 11 19 12 20 13 21 24 22 14 23
REMARK SMILES IDX 23 24 25 25 15 26 22 27 16 28 20 29 17 30 18 31 21 32 19 33
REMARK SMILES IDX 33 34 34 35 35 36 36 37 37 38 38 39 39 40 40 41 41 42 102 43
REMARK SMILES IDX 42 44 101 45 43 46 44 47 45 48 95 49 46 50 100 51 94 52
REMARK SMILES IDX 96 53 47 54 99 55 93 56 92 57 48 59 80 60 60 61 79 62 61 63
REMARK SMILES IDX 64 64 78 65 97 66 62 67 63 68 77 70 98 71 65 72 49 73 50 74
REMARK SMILES IDX 58 75 51 76 52 77 56 78 59 79 53 80 54 81 57 82 55 83 81 84
REMARK SMILES IDX 82 85 90 86 83 87 84 88 88 89 91 90 85 91 86 92 89 93 87 94
REMARK SMILES IDX 66 95 67 96 75 97 68 98 69 99 73 100 76 101 70 102 71 103
REMARK SMILES IDX 74 104 72 105
REMARK H PARENT 6 15 96 58 64 69
REMARK Flexibility Score: inf
ROOT
ATOM      1  C   UNL A   1      38.645  32.679  39.399  1.00  0.00     0.188 C 
ENDROOT
BRANCH   1   2
ATOM      2  O   UNL A   1      38.238  32.198  38.129  1.00  0.00    -0.376 OA
BRANCH   2   3
ATOM      3  C   UNL A   1      37.889  33.088  37.074  1.00  0.00     0.202 C 
BRANCH   3   4
ATOM      4  C   UNL A   1      37.786  32.586  35.626  1.00  0.00     0.261 C 
BRANCH   4   5
ATOM      5  O   UNL A   1      36.844  33.289  34.807  1.00  0.00    -0.462 OA
BRANCH   5   6
ATOM      6  C   UNL A   1      37.348  34.368  34.158  1.00  0.00     0.328 C 
ATOM      7  O   UNL A   1      38.117  35.182  34.657  1.00  0.00    -0.250 OA
BRANCH   6   8
ATOM      8  C   UNL A   1      36.908  34.431  32.687  1.00  0.00     0.195 C 
BRANCH   8   9
ATOM      9  C   UNL A   1      38.167  34.492  31.746  1.00  0.00     0.019 C 
ATOM     10  C   UNL A   1      39.381  33.636  32.131  1.00  0.00     0.010 C 
BRANCH   9  11
ATOM     11  C   UNL A   1      37.831  34.300  30.236  1.00  0.00     0.002 C 
ATOM     12  C   UNL A   1      38.909  33.729  29.310  1.00  0.00     0.004 C 
ENDBRANCH   9  11
ENDBRANCH   8   9
BRANCH   8  13
ATOM     13  N   UNL A   1      35.724  35.352  32.486  1.00  0.00    -0.339 N 
ATOM     14  C   UNL A   1      34.448  35.147  31.989  1.00  0.00     0.261 C 
ATOM     15  H   UNL A   1      35.894  36.282  32.764  1.00  0.00     0.164 HD
ATOM     16  O   UNL A   1      33.485  35.783  32.405  1.00  0.00    -0.271 OA
BRANCH  14  17
ATOM     17  C   UNL A   1      34.421  34.243  30.770  1.00  0.00     0.258 C 
ATOM     18  C   UNL A   1      33.863  35.146  29.660  1.00  0.00     0.064 C 
BRANCH  17  19
ATOM     19  O   UNL A   1      34.219  32.866  30.799  1.00  0.00    -0.480 OA
BRANCH  19  20
ATOM     20  C   UNL A   1      35.176  31.941  30.961  1.00  0.00     0.127 A 
ATOM     21  C   UNL A   1      35.701  31.486  32.162  1.00  0.00     0.047 A 
ATOM     22  C   UNL A   1      35.643  31.428  29.756  1.00  0.00     0.035 A 
ATOM     23  C   UNL A   1      36.884  30.768  32.176  1.00  0.00     0.016 A 
ATOM     24  C   UNL A   1      36.837  30.714  29.788  1.00  0.00     0.145 A 
ATOM     25  C   UNL A   1      34.887  31.649  28.472  1.00  0.00     0.052 C 
ATOM     26  C   UNL A   1      37.506  30.431  30.978  1.00  0.00     0.021 A 
ATOM     27  O   UNL A   1      37.363  30.323  28.551  1.00  0.00    -0.422 OA
ATOM     28  C   UNL A   1      38.830  29.805  30.929  1.00  0.00    -0.030 A 
ATOM     29  C   UNL A   1      38.606  29.737  28.456  1.00  0.00     0.339 A 
ATOM     30  C   UNL A   1      39.544  29.601  32.241  1.00  0.00     0.045 C 
ATOM     31  C   UNL A   1      39.345  29.490  29.725  1.00  0.00     0.038 A 
ATOM     32  O   UNL A   1      39.069  29.436  27.361  1.00  0.00    -0.246 OA
ATOM     33  C   UNL A   1      40.701  28.872  29.571  1.00  0.00     0.052 C 
ENDBRANCH  19  20
ENDBRANCH  17  19
ENDBRANCH  14  17
ENDBRANCH   8  13
ENDBRANCH   6   8
ENDBRANCH   5   6
ENDBRANCH   4   5
ENDBRANCH   3   4
ENDBRANCH   2   3
ENDBRANCH   1   2
BRANCH   1  34
ATOM     34  C   UNL A   1      37.654  33.363  40.343  1.00  0.00     0.188 C 
BRANCH  34  35
ATOM     35  O   UNL A   1      38.215  34.118  41.387  1.00  0.00    -0.376 OA
BRANCH  35  36
ATOM     36  C   UNL A   1      39.146  35.144  41.039  1.00  0.00     0.202 C 
BRANCH  36  37
ATOM     37  C   UNL A   1      40.640  35.079  41.449  1.00  0.00     0.261 C 
BRANCH  37  38
ATOM     38  O   UNL A   1      41.625  34.939  40.407  1.00  0.00    -0.460 OA
BRANCH  38  39
ATOM     39  C   UNL A   1      41.876  36.011  39.618  1.00  0.00     0.338 C 
ATOM     40  O   UNL A   1      42.105  37.156  39.986  1.00  0.00    -0.246 OA
BRANCH  39  41
ATOM     41  C   UNL A   1      42.131  35.496  38.248  1.00  0.00     0.060 A 
ATOM     42  C   UNL A   1      41.036  35.159  37.431  1.00  0.00     0.016 A 
ATOM     43  C   UNL A   1      43.429  35.417  37.744  1.00  0.00     0.016 A 
ATOM     44  C   UNL A   1      41.236  34.754  36.110  1.00  0.00     0.010 A 
ATOM     45  C   UNL A   1      43.632  34.953  36.439  1.00  0.00     0.010 A 
ATOM     46  C   UNL A   1      42.540  34.599  35.625  1.00  0.00    -0.014 A 
BRANCH  46  47
ATOM     47  C   UNL A   1      42.773  33.813  34.388  1.00  0.00     0.031 A 
ATOM     48  C   UNL A   1      42.853  32.318  34.524  1.00  0.00     0.074 A 
ATOM     49  C   UNL A   1      42.914  34.388  33.180  1.00  0.00     0.049 A 
ATOM     50  N   UNL A   1      43.134  31.411  33.625  1.00  0.00    -0.248 NA
ATOM     51  C   UNL A   1      42.578  31.773  35.864  1.00  0.00     0.031 C 
ATOM     52  C   UNL A   1      42.792  35.815  32.900  1.00  0.00     0.029 A 
ATOM     53  N   UNL A   1      43.202  33.826  31.959  1.00  0.00    -0.354 N 
ATOM     54  C   UNL A   1      43.065  30.194  34.289  1.00  0.00     0.074 A 
ATOM     55  C   UNL A   1      42.748  30.476  35.671  1.00  0.00     0.031 C 
ATOM     56  C   UNL A   1      43.021  36.022  31.590  1.00  0.00     0.029 A 
ATOM     57  C   UNL A   1      43.341  34.746  30.948  1.00  0.00     0.049 A 
ATOM     58  H   UNL A   1      43.300  32.857  31.823  1.00  0.00     0.167 HD
ATOM     59  C   UNL A   1      43.243  28.949  33.790  1.00  0.00     0.037 A 
ATOM     60  C   UNL A   1      43.710  34.574  29.662  1.00  0.00     0.037 A 
ATOM     61  C   UNL A   1      43.581  28.669  32.422  1.00  0.00     0.049 A 
ATOM     62  C   UNL A   1      44.020  33.186  29.154  1.00  0.00     0.074 A 
ATOM     63  C   UNL A   1      43.789  27.440  31.823  1.00  0.00     0.029 A 
ATOM     64  N   UNL A   1      43.769  29.632  31.442  1.00  0.00    -0.354 N 
ATOM     65  N   UNL A   1      43.944  32.037  29.782  1.00  0.00    -0.248 NA
ATOM     66  C   UNL A   1      44.471  33.071  27.758  1.00  0.00     0.031 C 
ATOM     67  C   UNL A   1      44.163  27.661  30.496  1.00  0.00     0.029 A 
ATOM     68  C   UNL A   1      44.123  29.025  30.248  1.00  0.00     0.049 A 
ATOM     69  H   UNL A   1      43.668  30.602  31.575  1.00  0.00     0.167 HD
ATOM     70  C   UNL A   1      44.307  31.066  28.855  1.00  0.00     0.074 A 
ATOM     71  C   UNL A   1      44.591  31.758  27.616  1.00  0.00     0.031 C 
ATOM     72  C   UNL A   1      44.396  29.723  29.017  1.00  0.00     0.037 A 
BRANCH  59  73
ATOM     73  C   UNL A   1      43.101  27.796  34.738  1.00  0.00     0.064 A 
ATOM     74  C   UNL A   1      41.934  27.018  34.777  1.00  0.00     0.173 A 
ATOM     75  C   UNL A   1      44.162  27.434  35.582  1.00  0.00     0.173 A 
ATOM     76  F   UNL A   1      40.884  27.334  34.005  1.00  0.00    -0.203 F 
ATOM     77  C   UNL A   1      41.831  25.928  35.636  1.00  0.00     0.198 A 
ATOM     78  C   UNL A   1      44.066  26.325  36.417  1.00  0.00     0.198 A 
ATOM     79  F   UNL A   1      45.298  28.148  35.584  1.00  0.00    -0.203 F 
ATOM     80  F   UNL A   1      40.692  25.222  35.687  1.00  0.00    -0.200 F 
ATOM     81  C   UNL A   1      42.899  25.576  36.447  1.00  0.00     0.200 A 
ATOM     82  F   UNL A   1      45.105  25.979  37.189  1.00  0.00    -0.200 F 
ATOM     83  F   UNL A   1      42.805  24.515  37.260  1.00  0.00    -0.200 F 
ENDBRANCH  59  73
BRANCH  60  84
ATOM     84  C   UNL A   1      43.807  35.750  28.755  1.00  0.00     0.064 A 
ATOM     85  C   UNL A   1      42.674  36.248  28.096  1.00  0.00     0.173 A 
ATOM     86  C   UNL A   1      45.029  36.400  28.526  1.00  0.00     0.173 A 
ATOM     87  F   UNL A   1      41.488  35.640  28.255  1.00  0.00    -0.203 F 
ATOM     88  C   UNL A   1      42.759  37.346  27.243  1.00  0.00     0.198 A 
ATOM     89  C   UNL A   1      45.108  37.517  27.695  1.00  0.00     0.198 A 
ATOM     90  F   UNL A   1      46.148  35.959  29.121  1.00  0.00    -0.203 F 
ATOM     91  F   UNL A   1      41.666  37.776  26.598  1.00  0.00    -0.200 F 
ATOM     92  C   UNL A   1      43.973  37.986  27.051  1.00  0.00     0.200 A 
ATOM     93  F   UNL A   1      46.283  38.137  27.519  1.00  0.00    -0.200 F 
ATOM     94  F   UNL A   1      44.051  39.051  26.240  1.00  0.00    -0.200 F 
ENDBRANCH  60  84
BRANCH  72  95
ATOM     95  C   UNL A   1      44.791  28.890  27.830  1.00  0.00     0.064 A 
ATOM     96  C   UNL A   1      43.851  28.470  26.879  1.00  0.00     0.173 A 
ATOM     97  C   UNL A   1      46.144  28.592  27.589  1.00  0.00     0.173 A 
ATOM     98  F   UNL A   1      42.546  28.721  27.064  1.00  0.00    -0.203 F 
ATOM     99  C   UNL A   1      44.246  27.771  25.740  1.00  0.00     0.198 A 
ATOM    100  C   UNL A   1      46.537  27.924  26.435  1.00  0.00     0.198 A 
ATOM    101  F   UNL A   1      47.087  28.982  28.460  1.00  0.00    -0.203 F 
ATOM    102  F   UNL A   1      43.324  27.351  24.863  1.00  0.00    -0.200 F 
ATOM    103  C   UNL A   1      45.589  27.510  25.512  1.00  0.00     0.200 A 
ATOM    104  F   UNL A   1      47.838  27.691  26.206  1.00  0.00    -0.200 F 
ATOM    105  F   UNL A   1      45.968  26.859  24.404  1.00  0.00    -0.200 F 
ENDBRANCH  72  95
ENDBRANCH  46  47
ENDBRANCH  39  41
ENDBRANCH  38  39
ENDBRANCH  37  38
ENDBRANCH  36  37
ENDBRANCH  35  36
ENDBRANCH  34  35
ENDBRANCH   1  34
TORSDOF 23
ENDMDL
MODEL 3
REMARK VINA RESULT:      -9.0      5.541     11.660
REMARK SMILES CC[C@H](C)[C@H](NC(=O)[C@H](C)Oc1ccc2c(C)c(C)c(=O)oc2c1C)C(=O)OCCOCCOCCOC(=O)c1ccc(-c2c3nc(c(-c4c(F)c(F)c(F)c(F)c4F)c4ccc([nH]4)c(-c4c(F)c(F)c(F)c(F)c4F)c4nc(c(-c5c(F)c(F)c(F)c(F)c5F)c5ccc2[nH]5)C=C4)C=C3)cc1
REMARK SMILES IDX 32 1 31 2 30 3 29 4 28 5 26 6 27 7 5 8 3 9 4 10 2 11 1 12
REMARK SMILES IDX 6 13 7 14 8 16 9 17 10 18 11 19 12 20 13 21 24 22 14 23
REMARK SMILES IDX 23 24 25 25 15 26 22 27 16 28 20 29 17 30 18 31 21 32 19 33
REMARK SMILES IDX 33 34 34 35 35 36 36 37 37 38 38 39 39 40 40 41 41 42 102 43
REMARK SMILES IDX 42 44 101 45 43 46 44 47 45 48 95 49 46 50 100 51 94 52
REMARK SMILES IDX 96 53 47 54 99 55 93 56 92 57 48 59 80 60 60 61 79 62 61 63
REMARK SMILES IDX 64 64 78 65 97 66 62 67 63 68 77 70 98 71 65 72 49 73 50 74
REMARK SMILES IDX 58 75 51 76 52 77 56 78 59 79 53 80 54 81 57 82 55 83 81 84
REMARK SMILES IDX 82 85 90 86 83 87 84 88 88 89 91 90 85 91 86 92 89 93 87 94
REMARK SMILES IDX 66 95 67 96 75 97 68 98 69 99 73 100 76 101 70 102 71 103
REMARK SMILES IDX 74 104 72 105
REMARK H PARENT 6 15 96 58 64 69
REMARK Flexibility Score: inf
ROOT
ATOM      1  C   UNL A   1      39.016  32.847  39.360  1.00  0.00     0.188 C 
ENDROOT
BRANCH   1   2
ATOM      2  O   UNL A   1      38.517  32.369  38.123  1.00  0.00    -0.376 OA
BRANCH   2   3
ATOM      3  C   UNL A   1      38.487  33.194  36.963  1.00  0.00     0.202 C 
BRANCH   3   4
ATOM      4  C   UNL A   1      38.220  32.590  35.576  1.00  0.00     0.261 C 
BRANCH   4   5
ATOM      5  O   UNL A   1      37.234  33.277  34.798  1.00  0.00    -0.462 OA
BRANCH   5   6
ATOM      6  C   UNL A   1      37.735  34.092  33.836  1.00  0.00     0.328 C 
ATOM      7  O   UNL A   1      38.490  35.035  34.049  1.00  0.00    -0.250 OA
BRANCH   6   8
ATOM      8  C   UNL A   1      37.311  33.667  32.421  1.00  0.00     0.195 C 
BRANCH   8   9
ATOM      9  C   UNL A   1      38.580  33.374  31.540  1.00  0.00     0.019 C 
ATOM     10  C   UNL A   1      39.289  34.574  30.898  1.00  0.00     0.010 C 
BRANCH   9  11
ATOM     11  C   UNL A   1      39.621  32.441  32.230  1.00  0.00     0.002 C 
ATOM     12  C   UNL A   1      40.678  31.751  31.363  1.00  0.00     0.004 C 
ENDBRANCH   9  11
ENDBRANCH   8   9
BRANCH   8  13
ATOM     13  N   UNL A   1      36.159  34.498  31.898  1.00  0.00    -0.339 N 
ATOM     14  C   UNL A   1      35.071  34.195  31.097  1.00  0.00     0.261 C 
ATOM     15  H   UNL A   1      36.188  35.440  32.184  1.00  0.00     0.164 HD
ATOM     16  O   UNL A   1      33.993  34.762  31.234  1.00  0.00    -0.271 OA
BRANCH  14  17
ATOM     17  C   UNL A   1      35.421  33.280  29.937  1.00  0.00     0.258 C 
ATOM     18  C   UNL A   1      35.416  34.217  28.720  1.00  0.00     0.064 C 
BRANCH  17  19
ATOM     19  O   UNL A   1      35.091  31.930  29.855  1.00  0.00    -0.480 OA
BRANCH  19  20
ATOM     20  C   UNL A   1      35.902  30.909  30.163  1.00  0.00     0.127 A 
ATOM     21  C   UNL A   1      36.274  30.493  31.433  1.00  0.00     0.047 A 
ATOM     22  C   UNL A   1      36.382  30.242  29.041  1.00  0.00     0.035 A 
ATOM     23  C   UNL A   1      37.348  29.635  31.597  1.00  0.00     0.016 A 
ATOM     24  C   UNL A   1      37.466  29.388  29.223  1.00  0.00     0.145 A 
ATOM     25  C   UNL A   1      35.757  30.449  27.686  1.00  0.00     0.052 C 
ATOM     26  C   UNL A   1      38.004  29.122  30.482  1.00  0.00     0.021 A 
ATOM     27  O   UNL A   1      38.023  28.832  28.065  1.00  0.00    -0.422 OA
ATOM     28  C   UNL A   1      39.233  28.333  30.588  1.00  0.00    -0.030 A 
ATOM     29  C   UNL A   1      39.182  28.087  28.117  1.00  0.00     0.339 A 
ATOM     30  C   UNL A   1      39.818  28.151  31.966  1.00  0.00     0.045 C 
ATOM     31  C   UNL A   1      39.788  27.855  29.457  1.00  0.00     0.038 A 
ATOM     32  O   UNL A   1      39.678  27.639  27.088  1.00  0.00    -0.246 OA
ATOM     33  C   UNL A   1      41.058  27.060  29.461  1.00  0.00     0.052 C 
ENDBRANCH  19  20
ENDBRANCH  17  19
ENDBRANCH  14  17
ENDBRANCH   8  13
ENDBRANCH   6   8
ENDBRANCH   5   6
ENDBRANCH   4   5
ENDBRANCH   3   4
ENDBRANCH   2   3
ENDBRANCH   1   2
BRANCH   1  34
ATOM     34  C   UNL A   1      38.140  33.682  40.298  1.00  0.00     0.188 C 
BRANCH  34  35
ATOM     35  O   UNL A   1      38.817  34.401  41.297  1.00  0.00    -0.376 OA
BRANCH  35  36
ATOM     36  C   UNL A   1      39.754  35.396  40.882  1.00  0.00     0.202 C 
BRANCH  36  37
ATOM     37  C   UNL A   1      41.202  35.451  41.435  1.00  0.00     0.261 C 
BRANCH  37  38
ATOM     38  O   UNL A   1      42.291  35.306  40.502  1.00  0.00    -0.460 OA
BRANCH  38  39
ATOM     39  C   UNL A   1      42.587  36.357  39.700  1.00  0.00     0.338 C 
ATOM     40  O   UNL A   1      42.915  37.482  40.054  1.00  0.00    -0.246 OA
BRANCH  39  41
ATOM     41  C   UNL A   1      42.747  35.823  38.323  1.00  0.00     0.060 A 
ATOM     42  C   UNL A   1      41.598  35.578  37.548  1.00  0.00     0.016 A 
ATOM     43  C   UNL A   1      44.014  35.639  37.770  1.00  0.00     0.016 A 
ATOM     44  C   UNL A   1      41.714  35.159  36.221  1.00  0.00     0.010 A 
ATOM     45  C   UNL A   1      44.129  35.162  36.460  1.00  0.00     0.010 A 
ATOM     46  C   UNL A   1      42.982  34.899  35.688  1.00  0.00    -0.014 A 
BRANCH  46  47
ATOM     47  C   UNL A   1      43.103  34.097  34.445  1.00  0.00     0.031 A 
ATOM     48  C   UNL A   1      43.178  32.603  34.591  1.00  0.00     0.074 A 
ATOM     49  C   UNL A   1      43.149  34.658  33.223  1.00  0.00     0.049 A 
ATOM     50  N   UNL A   1      43.373  31.683  33.681  1.00  0.00    -0.248 NA
ATOM     51  C   UNL A   1      43.009  32.075  35.955  1.00  0.00     0.031 C 
ATOM     52  C   UNL A   1      43.019  36.083  32.938  1.00  0.00     0.029 A 
ATOM     53  N   UNL A   1      43.329  34.080  31.989  1.00  0.00    -0.354 N 
ATOM     54  C   UNL A   1      43.347  30.474  34.363  1.00  0.00     0.074 A 
ATOM     55  C   UNL A   1      43.149  30.774  35.763  1.00  0.00     0.031 C 
ATOM     56  C   UNL A   1      43.141  36.274  31.611  1.00  0.00     0.029 A 
ATOM     57  C   UNL A   1      43.393  34.987  30.959  1.00  0.00     0.049 A 
ATOM     58  H   UNL A   1      43.405  33.108  31.856  1.00  0.00     0.167 HD
ATOM     59  C   UNL A   1      43.470  29.222  33.865  1.00  0.00     0.037 A 
ATOM     60  C   UNL A   1      43.652  34.798  29.650  1.00  0.00     0.037 A 
ATOM     61  C   UNL A   1      43.689  28.923  32.477  1.00  0.00     0.049 A 
ATOM     62  C   UNL A   1      43.904  33.401  29.133  1.00  0.00     0.074 A 
ATOM     63  C   UNL A   1      43.834  27.686  31.877  1.00  0.00     0.029 A 
ATOM     64  N   UNL A   1      43.806  29.874  31.474  1.00  0.00    -0.354 N 
ATOM     65  N   UNL A   1      43.868  32.260  29.778  1.00  0.00    -0.248 NA
ATOM     66  C   UNL A   1      44.235  33.266  27.705  1.00  0.00     0.031 C 
ATOM     67  C   UNL A   1      44.099  27.889  30.521  1.00  0.00     0.029 A 
ATOM     68  C   UNL A   1      44.053  29.250  30.262  1.00  0.00     0.049 A 
ATOM     69  H   UNL A   1      43.727  30.847  31.604  1.00  0.00     0.167 HD
ATOM     70  C   UNL A   1      44.143  31.275  28.835  1.00  0.00     0.074 A 
ATOM     71  C   UNL A   1      44.330  31.951  27.569  1.00  0.00     0.031 C 
ATOM     72  C   UNL A   1      44.230  29.932  29.005  1.00  0.00     0.037 A 
BRANCH  59  73
ATOM     73  C   UNL A   1      43.394  28.080  34.834  1.00  0.00     0.064 A 
ATOM     74  C   UNL A   1      44.548  27.428  35.293  1.00  0.00     0.173 A 
ATOM     75  C   UNL A   1      42.156  27.666  35.348  1.00  0.00     0.173 A 
ATOM     76  F   UNL A   1      45.754  27.773  34.817  1.00  0.00    -0.203 F 
ATOM     77  C   UNL A   1      44.464  26.394  36.220  1.00  0.00     0.198 A 
ATOM     78  C   UNL A   1      42.078  26.652  36.298  1.00  0.00     0.198 A 
ATOM     79  F   UNL A   1      41.022  28.255  34.939  1.00  0.00    -0.203 F 
ATOM     80  F   UNL A   1      45.576  25.757  36.615  1.00  0.00    -0.200 F 
ATOM     81  C   UNL A   1      43.232  26.014  36.730  1.00  0.00     0.200 A 
ATOM     82  F   UNL A   1      40.888  26.297  36.800  1.00  0.00    -0.200 F 
ATOM     83  F   UNL A   1      43.154  25.030  37.637  1.00  0.00    -0.200 F 
ENDBRANCH  59  73
BRANCH  60  84
ATOM     84  C   UNL A   1      43.686  35.963  28.724  1.00  0.00     0.064 A 
ATOM     85  C   UNL A   1      44.882  36.652  28.477  1.00  0.00     0.173 A 
ATOM     86  C   UNL A   1      42.529  36.416  28.072  1.00  0.00     0.173 A 
ATOM     87  F   UNL A   1      46.009  36.281  29.103  1.00  0.00    -0.203 F 
ATOM     88  C   UNL A   1      44.920  37.746  27.614  1.00  0.00     0.198 A 
ATOM     89  C   UNL A   1      42.574  37.492  27.187  1.00  0.00     0.198 A 
ATOM     90  F   UNL A   1      41.355  35.802  28.282  1.00  0.00    -0.203 F 
ATOM     91  F   UNL A   1      46.070  38.407  27.426  1.00  0.00    -0.200 F 
ATOM     92  C   UNL A   1      43.769  38.159  26.963  1.00  0.00     0.200 A 
ATOM     93  F   UNL A   1      41.460  37.882  26.552  1.00  0.00    -0.200 F 
ATOM     94  F   UNL A   1      43.809  39.203  26.124  1.00  0.00    -0.200 F 
ENDBRANCH  60  84
BRANCH  72  95
ATOM     95  C   UNL A   1      44.517  29.083  27.798  1.00  0.00     0.064 A 
ATOM     96  C   UNL A   1      45.793  28.558  27.554  1.00  0.00     0.173 A 
ATOM     97  C   UNL A   1      43.478  28.710  26.929  1.00  0.00     0.173 A 
ATOM     98  F   UNL A   1      46.822  28.888  28.348  1.00  0.00    -0.203 F 
ATOM     99  C   UNL A   1      46.023  27.703  26.477  1.00  0.00     0.198 A 
ATOM    100  C   UNL A   1      43.704  27.830  25.875  1.00  0.00     0.198 A 
ATOM    101  F   UNL A   1      42.234  29.174  27.124  1.00  0.00    -0.203 F 
ATOM    102  F   UNL A   1      47.259  27.241  26.245  1.00  0.00    -0.200 F 
ATOM    103  C   UNL A   1      44.977  27.330  25.647  1.00  0.00     0.200 A 
ATOM    104  F   UNL A   1      42.686  27.454  25.087  1.00  0.00    -0.200 F 
ATOM    105  F   UNL A   1      45.195  26.489  24.627  1.00  0.00    -0.200 F 
ENDBRANCH  72  95
ENDBRANCH  46  47
ENDBRANCH  39  41
ENDBRANCH  38  39
ENDBRANCH  37  38
ENDBRANCH  36  37
ENDBRANCH  35  36
ENDBRANCH  34  35
ENDBRANCH   1  34
TORSDOF 23
ENDMDL
