MODEL 1
REMARK VINA RESULT:     -11.0      0.000      0.000
REMARK SMILES CC[C@@H](C)C(=O)Nc1cccc(C(=O)OCCOCCOCCOC(=O)c2ccc(-c3c4nc(c(-c5c(F)c(F)c(F)c(F)c5F)c5ccc([nH]5)c(-c5c(F)c(F)c(F)c(F)c5F)c5nc(c(-c6c(F)c(F)c(F)c(F)c6F)c6ccc3[nH]6)C=C5)C=C4)cc2)c1
REMARK SMILES IDX 19 1 18 2 17 3 16 4 15 5 13 6 14 7 12 8 8 9 9 10 90 11 10 12
REMARK SMILES IDX 11 13 7 14 5 15 6 16 3 18 4 19 2 20 1 21 20 22 21 23 22 24
REMARK SMILES IDX 23 25 24 26 25 27 26 28 27 29 28 30 89 31 29 32 88 33 30 34
REMARK SMILES IDX 31 35 32 36 82 37 33 38 87 39 81 40 83 41 34 42 86 43 80 44
REMARK SMILES IDX 79 45 35 47 67 48 47 49 66 50 48 51 51 52 65 53 84 54 49 55
REMARK SMILES IDX 50 56 64 58 85 59 52 60 36 61 37 62 45 63 38 64 39 65 43 66
REMARK SMILES IDX 46 67 40 68 41 69 44 70 42 71 68 72 69 73 77 74 70 75 71 76
REMARK SMILES IDX 75 77 78 78 72 79 73 80 76 81 74 82 53 83 54 84 62 85 55 86
REMARK SMILES IDX 56 87 60 88 63 89 57 90 58 91 61 92 59 93
REMARK H PARENT 7 17 83 46 51 57
REMARK Flexibility Score: inf
ROOT
ATOM      1  C   UNL A   1      33.829  21.199  25.872  1.00  0.00     0.188 C 
ENDROOT
BRANCH   1   2
ATOM      2  O   UNL A   1      33.935  22.396  26.624  1.00  0.00    -0.376 OA
BRANCH   2   3
ATOM      3  C   UNL A   1      32.829  22.871  27.375  1.00  0.00     0.202 C 
BRANCH   3   4
ATOM      4  C   UNL A   1      31.666  23.605  26.691  1.00  0.00     0.261 C 
BRANCH   4   5
ATOM      5  O   UNL A   1      31.889  25.002  26.460  1.00  0.00    -0.460 OA
BRANCH   5   6
ATOM      6  C   UNL A   1      30.787  25.752  26.189  1.00  0.00     0.338 C 
ATOM      7  O   UNL A   1      29.631  25.396  26.263  1.00  0.00    -0.246 OA
BRANCH   6   8
ATOM      8  C   UNL A   1      31.182  27.149  25.856  1.00  0.00     0.062 A 
ATOM      9  C   UNL A   1      31.233  28.942  24.238  1.00  0.00     0.042 A 
ATOM     10  C   UNL A   1      31.630  29.835  25.228  1.00  0.00     0.026 A 
ATOM     11  C   UNL A   1      31.198  27.594  24.540  1.00  0.00     0.041 A 
ATOM     12  C   UNL A   1      31.782  29.381  26.545  1.00  0.00     0.003 A 
ATOM     13  C   UNL A   1      31.493  28.052  26.871  1.00  0.00     0.016 A 
BRANCH   9  14
ATOM     14  N   UNL A   1      30.847  29.395  22.972  1.00  0.00    -0.326 N 
ATOM     15  C   UNL A   1      29.594  29.654  22.468  1.00  0.00     0.227 C 
ATOM     16  O   UNL A   1      29.517  29.871  21.252  1.00  0.00    -0.274 OA
ATOM     17  H   UNL A   1      31.588  29.552  22.343  1.00  0.00     0.169 HD
BRANCH  15  18
ATOM     18  C   UNL A   1      28.315  29.812  23.339  1.00  0.00     0.075 C 
ATOM     19  C   UNL A   1      27.301  28.685  23.126  1.00  0.00     0.018 C 
BRANCH  18  20
ATOM     20  C   UNL A   1      27.747  31.242  23.426  1.00  0.00     0.010 C 
ATOM     21  C   UNL A   1      28.775  32.361  23.496  1.00  0.00     0.005 C 
ENDBRANCH  18  20
ENDBRANCH  15  18
ENDBRANCH   9  14
ENDBRANCH   6   8
ENDBRANCH   5   6
ENDBRANCH   4   5
ENDBRANCH   3   4
ENDBRANCH   2   3
ENDBRANCH   1   2
BRANCH   1  22
ATOM     22  C   UNL A   1      35.012  20.697  25.020  1.00  0.00     0.188 C 
BRANCH  22  23
ATOM     23  O   UNL A   1      35.754  21.659  24.320  1.00  0.00    -0.376 OA
BRANCH  23  24
ATOM     24  C   UNL A   1      37.160  21.726  24.481  1.00  0.00     0.202 C 
BRANCH  24  25
ATOM     25  C   UNL A   1      38.010  20.862  25.440  1.00  0.00     0.261 C 
BRANCH  25  26
ATOM     26  O   UNL A   1      39.431  21.035  25.455  1.00  0.00    -0.460 OA
BRANCH  26  27
ATOM     27  C   UNL A   1      40.029  20.998  26.672  1.00  0.00     0.338 C 
ATOM     28  O   UNL A   1      40.403  20.013  27.282  1.00  0.00    -0.246 OA
BRANCH  27  29
ATOM     29  C   UNL A   1      40.360  22.382  27.077  1.00  0.00     0.060 A 
ATOM     30  C   UNL A   1      39.653  23.447  26.499  1.00  0.00     0.016 A 
ATOM     31  C   UNL A   1      41.368  22.627  28.009  1.00  0.00     0.016 A 
ATOM     32  C   UNL A   1      39.966  24.764  26.839  1.00  0.00     0.010 A 
ATOM     33  C   UNL A   1      41.699  23.949  28.327  1.00  0.00     0.010 A 
ATOM     34  C   UNL A   1      41.018  25.024  27.724  1.00  0.00    -0.014 A 
BRANCH  34  35
ATOM     35  C   UNL A   1      41.536  26.407  27.879  1.00  0.00     0.031 A 
ATOM     36  C   UNL A   1      42.903  26.723  27.334  1.00  0.00     0.074 A 
ATOM     37  C   UNL A   1      40.817  27.365  28.492  1.00  0.00     0.049 A 
ATOM     38  N   UNL A   1      43.604  27.823  27.431  1.00  0.00    -0.248 NA
ATOM     39  C   UNL A   1      43.570  25.649  26.580  1.00  0.00     0.031 C 
ATOM     40  C   UNL A   1      39.468  27.200  29.028  1.00  0.00     0.029 A 
ATOM     41  N   UNL A   1      41.138  28.670  28.785  1.00  0.00    -0.354 N 
ATOM     42  C   UNL A   1      44.799  27.567  26.771  1.00  0.00     0.074 A 
ATOM     43  C   UNL A   1      44.737  26.204  26.289  1.00  0.00     0.031 C 
ATOM     44  C   UNL A   1      39.088  28.350  29.611  1.00  0.00     0.029 A 
ATOM     45  C   UNL A   1      40.178  29.320  29.522  1.00  0.00     0.049 A 
ATOM     46  H   UNL A   1      41.976  29.096  28.494  1.00  0.00     0.167 HD
ATOM     47  C   UNL A   1      45.854  28.395  26.584  1.00  0.00     0.037 A 
ATOM     48  C   UNL A   1      40.198  30.543  30.090  1.00  0.00     0.037 A 
ATOM     49  C   UNL A   1      45.911  29.754  27.051  1.00  0.00     0.049 A 
ATOM     50  C   UNL A   1      41.414  31.424  29.915  1.00  0.00     0.074 A 
ATOM     51  C   UNL A   1      46.920  30.683  26.872  1.00  0.00     0.029 A 
ATOM     52  N   UNL A   1      44.924  30.375  27.799  1.00  0.00    -0.354 N 
ATOM     53  N   UNL A   1      42.521  31.190  29.253  1.00  0.00    -0.248 NA
ATOM     54  C   UNL A   1      41.379  32.742  30.566  1.00  0.00     0.031 C 
ATOM     55  C   UNL A   1      46.573  31.845  27.566  1.00  0.00     0.029 A 
ATOM     56  C   UNL A   1      45.316  31.665  28.117  1.00  0.00     0.049 A 
ATOM     57  H   UNL A   1      44.070  29.961  28.065  1.00  0.00     0.167 HD
ATOM     58  C   UNL A   1      43.293  32.339  29.377  1.00  0.00     0.074 A 
ATOM     59  C   UNL A   1      42.523  33.277  30.163  1.00  0.00     0.031 C 
ATOM     60  C   UNL A   1      44.530  32.597  28.883  1.00  0.00     0.037 A 
BRANCH  47  61
ATOM     61  C   UNL A   1      47.055  27.854  25.864  1.00  0.00     0.064 A 
ATOM     62  C   UNL A   1      47.130  27.827  24.465  1.00  0.00     0.173 A 
ATOM     63  C   UNL A   1      48.180  27.434  26.592  1.00  0.00     0.173 A 
ATOM     64  F   UNL A   1      46.078  28.205  23.724  1.00  0.00    -0.203 F 
ATOM     65  C   UNL A   1      48.285  27.390  23.820  1.00  0.00     0.198 A 
ATOM     66  C   UNL A   1      49.341  27.026  25.945  1.00  0.00     0.198 A 
ATOM     67  F   UNL A   1      48.159  27.443  27.934  1.00  0.00    -0.203 F 
ATOM     68  F   UNL A   1      48.326  27.345  22.481  1.00  0.00    -0.200 F 
ATOM     69  C   UNL A   1      49.392  27.003  24.560  1.00  0.00     0.200 A 
ATOM     70  F   UNL A   1      50.415  26.667  26.661  1.00  0.00    -0.200 F 
ATOM     71  F   UNL A   1      50.510  26.604  23.937  1.00  0.00    -0.200 F 
ENDBRANCH  47  61
BRANCH  48  72
ATOM     72  C   UNL A   1      39.050  31.011  30.917  1.00  0.00     0.064 A 
ATOM     73  C   UNL A   1      38.977  30.727  32.288  1.00  0.00     0.173 A 
ATOM     74  C   UNL A   1      37.968  31.690  30.335  1.00  0.00     0.173 A 
ATOM     75  F   UNL A   1      39.972  30.055  32.887  1.00  0.00    -0.203 F 
ATOM     76  C   UNL A   1      37.851  31.070  33.037  1.00  0.00     0.198 A 
ATOM     77  C   UNL A   1      36.860  32.065  31.093  1.00  0.00     0.198 A 
ATOM     78  F   UNL A   1      37.982  31.983  29.027  1.00  0.00    -0.203 F 
ATOM     79  F   UNL A   1      37.778  30.718  34.328  1.00  0.00    -0.200 F 
ATOM     80  C   UNL A   1      36.796  31.741  32.439  1.00  0.00     0.200 A 
ATOM     81  F   UNL A   1      35.846  32.722  30.514  1.00  0.00    -0.200 F 
ATOM     82  F   UNL A   1      35.710  32.060  33.157  1.00  0.00    -0.200 F 
ENDBRANCH  48  72
BRANCH  60  83
ATOM     83  C   UNL A   1      45.110  33.962  29.128  1.00  0.00     0.064 A 
ATOM     84  C   UNL A   1      44.930  35.020  28.225  1.00  0.00     0.173 A 
ATOM     85  C   UNL A   1      45.819  34.226  30.311  1.00  0.00     0.173 A 
ATOM     86  F   UNL A   1      44.270  34.819  27.073  1.00  0.00    -0.203 F 
ATOM     87  C   UNL A   1      45.462  36.280  28.483  1.00  0.00     0.198 A 
ATOM     88  C   UNL A   1      46.318  35.497  30.583  1.00  0.00     0.198 A 
ATOM     89  F   UNL A   1      46.012  33.254  31.216  1.00  0.00    -0.203 F 
ATOM     90  F   UNL A   1      45.321  37.261  27.580  1.00  0.00    -0.200 F 
ATOM     91  C   UNL A   1      46.148  36.521  29.664  1.00  0.00     0.200 A 
ATOM     92  F   UNL A   1      46.963  35.731  31.734  1.00  0.00    -0.200 F 
ATOM     93  F   UNL A   1      46.649  37.738  29.915  1.00  0.00    -0.200 F 
ENDBRANCH  60  83
ENDBRANCH  34  35
ENDBRANCH  27  29
ENDBRANCH  26  27
ENDBRANCH  25  26
ENDBRANCH  24  25
ENDBRANCH  23  24
ENDBRANCH  22  23
ENDBRANCH   1  22
TORSDOF 20
ENDMDL
MODEL 2
REMARK VINA RESULT:     -10.8      1.371      7.357
REMARK SMILES CC[C@@H](C)C(=O)Nc1cccc(C(=O)OCCOCCOCCOC(=O)c2ccc(-c3c4nc(c(-c5c(F)c(F)c(F)c(F)c5F)c5ccc([nH]5)c(-c5c(F)c(F)c(F)c(F)c5F)c5nc(c(-c6c(F)c(F)c(F)c(F)c6F)c6ccc3[nH]6)C=C5)C=C4)cc2)c1
REMARK SMILES IDX 19 1 18 2 17 3 16 4 15 5 13 6 14 7 12 8 8 9 9 10 90 11 10 12
REMARK SMILES IDX 11 13 7 14 5 15 6 16 3 18 4 19 2 20 1 21 20 22 21 23 22 24
REMARK SMILES IDX 23 25 24 26 25 27 26 28 27 29 28 30 89 31 29 32 88 33 30 34
REMARK SMILES IDX 31 35 32 36 82 37 33 38 87 39 81 40 83 41 34 42 86 43 80 44
REMARK SMILES IDX 79 45 35 47 67 48 47 49 66 50 48 51 51 52 65 53 84 54 49 55
REMARK SMILES IDX 50 56 64 58 85 59 52 60 36 61 37 62 45 63 38 64 39 65 43 66
REMARK SMILES IDX 46 67 40 68 41 69 44 70 42 71 68 72 69 73 77 74 70 75 71 76
REMARK SMILES IDX 75 77 78 78 72 79 73 80 76 81 74 82 53 83 54 84 62 85 55 86
REMARK SMILES IDX 56 87 60 88 63 89 57 90 58 91 61 92 59 93
REMARK H PARENT 7 17 83 46 51 57
REMARK Flexibility Score: inf
ROOT
ATOM      1  C   UNL A   1      33.113  21.413  23.861  1.00  0.00     0.188 C 
ENDROOT
BRANCH   1   2
ATOM      2  O   UNL A   1      32.373  22.246  22.983  1.00  0.00    -0.376 OA
BRANCH   2   3
ATOM      3  C   UNL A   1      31.490  23.228  23.502  1.00  0.00     0.202 C 
BRANCH   3   4
ATOM      4  C   UNL A   1      31.986  24.647  23.819  1.00  0.00     0.261 C 
BRANCH   4   5
ATOM      5  O   UNL A   1      33.172  25.041  23.117  1.00  0.00    -0.460 OA
BRANCH   5   6
ATOM      6  C   UNL A   1      33.028  26.033  22.197  1.00  0.00     0.338 C 
ATOM      7  O   UNL A   1      33.296  25.973  21.017  1.00  0.00    -0.246 OA
BRANCH   6   8
ATOM      8  C   UNL A   1      32.396  27.228  22.823  1.00  0.00     0.062 A 
ATOM      9  C   UNL A   1      30.386  28.488  23.280  1.00  0.00     0.042 A 
ATOM     10  C   UNL A   1      31.080  29.279  24.190  1.00  0.00     0.026 A 
ATOM     11  C   UNL A   1      31.101  27.609  22.490  1.00  0.00     0.041 A 
ATOM     12  C   UNL A   1      32.437  29.025  24.430  1.00  0.00     0.003 A 
ATOM     13  C   UNL A   1      33.077  27.955  23.796  1.00  0.00     0.016 A 
BRANCH   9  14
ATOM     14  N   UNL A   1      28.992  28.555  23.183  1.00  0.00    -0.326 N 
ATOM     15  C   UNL A   1      28.174  29.623  22.898  1.00  0.00     0.227 C 
ATOM     16  O   UNL A   1      26.959  29.451  23.056  1.00  0.00    -0.274 OA
ATOM     17  H   UNL A   1      28.523  27.704  23.346  1.00  0.00     0.169 HD
BRANCH  15  18
ATOM     18  C   UNL A   1      28.668  30.963  22.281  1.00  0.00     0.075 C 
ATOM     19  C   UNL A   1      28.685  32.116  23.287  1.00  0.00     0.018 C 
BRANCH  18  20
ATOM     20  C   UNL A   1      28.122  31.284  20.876  1.00  0.00     0.010 C 
ATOM     21  C   UNL A   1      27.742  32.736  20.627  1.00  0.00     0.005 C 
ENDBRANCH  18  20
ENDBRANCH  15  18
ENDBRANCH   9  14
ENDBRANCH   6   8
ENDBRANCH   5   6
ENDBRANCH   4   5
ENDBRANCH   3   4
ENDBRANCH   2   3
ENDBRANCH   1   2
BRANCH   1  22
ATOM     22  C   UNL A   1      34.407  21.925  24.527  1.00  0.00     0.188 C 
BRANCH  22  23
ATOM     23  O   UNL A   1      35.039  21.072  25.444  1.00  0.00    -0.376 OA
BRANCH  23  24
ATOM     24  C   UNL A   1      35.974  20.110  24.989  1.00  0.00     0.202 C 
BRANCH  24  25
ATOM     25  C   UNL A   1      37.504  20.304  24.885  1.00  0.00     0.261 C 
BRANCH  25  26
ATOM     26  O   UNL A   1      38.117  21.381  25.603  1.00  0.00    -0.460 OA
BRANCH  26  27
ATOM     27  C   UNL A   1      39.304  21.107  26.199  1.00  0.00     0.338 C 
ATOM     28  O   UNL A   1      39.910  20.051  26.188  1.00  0.00    -0.246 OA
BRANCH  27  29
ATOM     29  C   UNL A   1      39.878  22.371  26.709  1.00  0.00     0.060 A 
ATOM     30  C   UNL A   1      39.398  23.589  26.204  1.00  0.00     0.016 A 
ATOM     31  C   UNL A   1      40.891  22.356  27.668  1.00  0.00     0.016 A 
ATOM     32  C   UNL A   1      39.943  24.796  26.644  1.00  0.00     0.010 A 
ATOM     33  C   UNL A   1      41.456  23.565  28.086  1.00  0.00     0.010 A 
ATOM     34  C   UNL A   1      41.004  24.790  27.557  1.00  0.00    -0.014 A 
BRANCH  34  35
ATOM     35  C   UNL A   1      41.768  26.036  27.820  1.00  0.00     0.031 A 
ATOM     36  C   UNL A   1      41.084  27.147  28.571  1.00  0.00     0.074 A 
ATOM     37  C   UNL A   1      43.037  26.188  27.401  1.00  0.00     0.049 A 
ATOM     38  N   UNL A   1      41.506  28.356  28.837  1.00  0.00    -0.248 NA
ATOM     39  C   UNL A   1      39.737  26.853  29.090  1.00  0.00     0.031 C 
ATOM     40  C   UNL A   1      43.824  25.176  26.700  1.00  0.00     0.029 A 
ATOM     41  N   UNL A   1      43.881  27.269  27.490  1.00  0.00    -0.354 N 
ATOM     42  C   UNL A   1      40.473  28.971  29.532  1.00  0.00     0.074 A 
ATOM     43  C   UNL A   1      39.397  28.010  29.638  1.00  0.00     0.031 C 
ATOM     44  C   UNL A   1      45.027  25.696  26.395  1.00  0.00     0.029 A 
ATOM     45  C   UNL A   1      45.081  27.085  26.847  1.00  0.00     0.049 A 
ATOM     46  H   UNL A   1      43.647  28.097  27.969  1.00  0.00     0.167 HD
ATOM     47  C   UNL A   1      40.427  30.227  30.038  1.00  0.00     0.037 A 
ATOM     48  C   UNL A   1      46.088  27.953  26.618  1.00  0.00     0.037 A 
ATOM     49  C   UNL A   1      41.502  31.178  29.946  1.00  0.00     0.049 A 
ATOM     50  C   UNL A   1      45.983  29.366  27.144  1.00  0.00     0.074 A 
ATOM     51  C   UNL A   1      41.564  32.459  30.465  1.00  0.00     0.029 A 
ATOM     52  N   UNL A   1      42.698  30.958  29.281  1.00  0.00    -0.354 N 
ATOM     53  N   UNL A   1      45.022  29.927  27.838  1.00  0.00    -0.248 NA
ATOM     54  C   UNL A   1      47.109  30.268  26.854  1.00  0.00     0.031 C 
ATOM     55  C   UNL A   1      42.769  33.038  30.060  1.00  0.00     0.029 A 
ATOM     56  C   UNL A   1      43.490  32.092  29.350  1.00  0.00     0.049 A 
ATOM     57  H   UNL A   1      42.948  30.119  28.828  1.00  0.00     0.167 HD
ATOM     58  C   UNL A   1      45.443  31.226  28.097  1.00  0.00     0.074 A 
ATOM     59  C   UNL A   1      46.753  31.368  27.501  1.00  0.00     0.031 C 
ATOM     60  C   UNL A   1      44.803  32.214  28.770  1.00  0.00     0.037 A 
BRANCH  47  61
ATOM     61  C   UNL A   1      39.164  30.666  30.718  1.00  0.00     0.064 A 
ATOM     62  C   UNL A   1      38.078  31.187  30.001  1.00  0.00     0.173 A 
ATOM     63  C   UNL A   1      39.012  30.483  32.102  1.00  0.00     0.173 A 
ATOM     64  F   UNL A   1      38.178  31.394  28.679  1.00  0.00    -0.203 F 
ATOM     65  C   UNL A   1      36.889  31.518  30.645  1.00  0.00     0.198 A 
ATOM     66  C   UNL A   1      37.812  30.787  32.738  1.00  0.00     0.198 A 
ATOM     67  F   UNL A   1      40.021  29.985  32.833  1.00  0.00    -0.203 F 
ATOM     68  F   UNL A   1      35.873  32.042  29.946  1.00  0.00    -0.200 F 
ATOM     69  C   UNL A   1      36.753  31.306  32.010  1.00  0.00     0.200 A 
ATOM     70  F   UNL A   1      37.678  30.567  34.053  1.00  0.00    -0.200 F 
ATOM     71  F   UNL A   1      35.600  31.604  32.624  1.00  0.00    -0.200 F 
ENDBRANCH  47  61
BRANCH  48  72
ATOM     72  C   UNL A   1      47.277  27.538  25.822  1.00  0.00     0.064 A 
ATOM     73  C   UNL A   1      48.439  27.061  26.445  1.00  0.00     0.173 A 
ATOM     74  C   UNL A   1      47.299  27.680  24.426  1.00  0.00     0.173 A 
ATOM     75  F   UNL A   1      48.481  26.936  27.780  1.00  0.00    -0.203 F 
ATOM     76  C   UNL A   1      49.589  26.778  25.707  1.00  0.00     0.198 A 
ATOM     77  C   UNL A   1      48.437  27.360  23.686  1.00  0.00     0.198 A 
ATOM     78  F   UNL A   1      46.218  28.137  23.779  1.00  0.00    -0.203 F 
ATOM     79  F   UNL A   1      50.708  26.396  26.338  1.00  0.00    -0.200 F 
ATOM     80  C   UNL A   1      49.585  26.925  24.329  1.00  0.00     0.200 A 
ATOM     81  F   UNL A   1      48.425  27.494  22.354  1.00  0.00    -0.200 F 
ATOM     82  F   UNL A   1      50.693  26.662  23.622  1.00  0.00    -0.200 F 
ENDBRANCH  48  72
BRANCH  60  83
ATOM     83  C   UNL A   1      45.525  33.520  28.949  1.00  0.00     0.064 A 
ATOM     84  C   UNL A   1      45.458  34.544  27.992  1.00  0.00     0.173 A 
ATOM     85  C   UNL A   1      46.257  33.767  30.121  1.00  0.00     0.173 A 
ATOM     86  F   UNL A   1      44.782  34.356  26.849  1.00  0.00    -0.203 F 
ATOM     87  C   UNL A   1      46.122  35.752  28.190  1.00  0.00     0.198 A 
ATOM     88  C   UNL A   1      46.889  34.990  30.331  1.00  0.00     0.198 A 
ATOM     89  F   UNL A   1      46.346  32.827  31.075  1.00  0.00    -0.203 F 
ATOM     90  F   UNL A   1      46.087  36.696  27.237  1.00  0.00    -0.200 F 
ATOM     91  C   UNL A   1      46.829  35.978  29.361  1.00  0.00     0.200 A 
ATOM     92  F   UNL A   1      47.555  35.211  31.472  1.00  0.00    -0.200 F 
ATOM     93  F   UNL A   1      47.457  37.146  29.553  1.00  0.00    -0.200 F 
ENDBRANCH  60  83
ENDBRANCH  34  35
ENDBRANCH  27  29
ENDBRANCH  26  27
ENDBRANCH  25  26
ENDBRANCH  24  25
ENDBRANCH  23  24
ENDBRANCH  22  23
ENDBRANCH   1  22
TORSDOF 20
ENDMDL
MODEL 3
REMARK VINA RESULT:     -10.8      2.038      2.951
REMARK SMILES CC[C@@H](C)C(=O)Nc1cccc(C(=O)OCCOCCOCCOC(=O)c2ccc(-c3c4nc(c(-c5c(F)c(F)c(F)c(F)c5F)c5ccc([nH]5)c(-c5c(F)c(F)c(F)c(F)c5F)c5nc(c(-c6c(F)c(F)c(F)c(F)c6F)c6ccc3[nH]6)C=C5)C=C4)cc2)c1
REMARK SMILES IDX 19 1 18 2 17 3 16 4 15 5 13 6 14 7 12 8 8 9 9 10 90 11 10 12
REMARK SMILES IDX 11 13 7 14 5 15 6 16 3 18 4 19 2 20 1 21 20 22 21 23 22 24
REMARK SMILES IDX 23 25 24 26 25 27 26 28 27 29 28 30 89 31 29 32 88 33 30 34
REMARK SMILES IDX 31 35 32 36 82 37 33 38 87 39 81 40 83 41 34 42 86 43 80 44
REMARK SMILES IDX 79 45 35 47 67 48 47 49 66 50 48 51 51 52 65 53 84 54 49 55
REMARK SMILES IDX 50 56 64 58 85 59 52 60 36 61 37 62 45 63 38 64 39 65 43 66
REMARK SMILES IDX 46 67 40 68 41 69 44 70 42 71 68 72 69 73 77 74 70 75 71 76
REMARK SMILES IDX 75 77 78 78 72 79 73 80 76 81 74 82 53 83 54 84 62 85 55 86
REMARK SMILES IDX 56 87 60 88 63 89 57 90 58 91 61 92 59 93
REMARK H PARENT 7 17 83 46 51 57
REMARK Flexibility Score: inf
ROOT
ATOM      1  C   UNL A   1      36.306  22.568  23.965  1.00  0.00     0.188 C 
ENDROOT
BRANCH   1   2
ATOM      2  O   UNL A   1      35.090  23.004  24.550  1.00  0.00    -0.376 OA
BRANCH   2   3
ATOM      3  C   UNL A   1      33.885  22.980  23.800  1.00  0.00     0.202 C 
BRANCH   3   4
ATOM      4  C   UNL A   1      32.852  24.110  23.929  1.00  0.00     0.261 C 
BRANCH   4   5
ATOM      5  O   UNL A   1      32.275  24.542  22.690  1.00  0.00    -0.460 OA
BRANCH   5   6
ATOM      6  C   UNL A   1      32.810  25.661  22.133  1.00  0.00     0.338 C 
ATOM      7  O   UNL A   1      33.655  25.707  21.265  1.00  0.00    -0.246 OA
BRANCH   6   8
ATOM      8  C   UNL A   1      32.146  26.878  22.679  1.00  0.00     0.062 A 
ATOM      9  C   UNL A   1      30.096  28.070  23.138  1.00  0.00     0.042 A 
ATOM     10  C   UNL A   1      30.793  28.983  23.923  1.00  0.00     0.026 A 
ATOM     11  C   UNL A   1      30.814  27.155  22.393  1.00  0.00     0.041 A 
ATOM     12  C   UNL A   1      32.174  28.826  24.100  1.00  0.00     0.003 A 
ATOM     13  C   UNL A   1      32.839  27.733  23.532  1.00  0.00     0.016 A 
BRANCH   9  14
ATOM     14  N   UNL A   1      28.697  28.054  23.123  1.00  0.00    -0.326 N 
ATOM     15  C   UNL A   1      27.801  29.091  23.017  1.00  0.00     0.227 C 
ATOM     16  O   UNL A   1      26.610  28.820  23.216  1.00  0.00    -0.274 OA
ATOM     17  H   UNL A   1      28.291  27.160  23.202  1.00  0.00     0.169 HD
BRANCH  15  18
ATOM     18  C   UNL A   1      28.174  30.527  22.548  1.00  0.00     0.075 C 
ATOM     19  C   UNL A   1      27.649  31.619  23.484  1.00  0.00     0.018 C 
BRANCH  18  20
ATOM     20  C   UNL A   1      28.028  30.787  21.036  1.00  0.00     0.010 C 
ATOM     21  C   UNL A   1      28.029  32.248  20.612  1.00  0.00     0.005 C 
ENDBRANCH  18  20
ENDBRANCH  15  18
ENDBRANCH   9  14
ENDBRANCH   6   8
ENDBRANCH   5   6
ENDBRANCH   4   5
ENDBRANCH   3   4
ENDBRANCH   2   3
ENDBRANCH   1   2
BRANCH   1  22
ATOM     22  C   UNL A   1      37.131  21.438  24.615  1.00  0.00     0.188 C 
BRANCH  22  23
ATOM     23  O   UNL A   1      37.938  21.780  25.710  1.00  0.00    -0.376 OA
BRANCH  23  24
ATOM     24  C   UNL A   1      39.270  21.302  25.785  1.00  0.00     0.202 C 
BRANCH  24  25
ATOM     25  C   UNL A   1      39.703  19.857  26.119  1.00  0.00     0.261 C 
BRANCH  25  26
ATOM     26  O   UNL A   1      40.840  19.301  25.450  1.00  0.00    -0.460 OA
BRANCH  26  27
ATOM     27  C   UNL A   1      41.979  19.203  26.180  1.00  0.00     0.338 C 
ATOM     28  O   UNL A   1      42.580  18.186  26.477  1.00  0.00    -0.246 OA
BRANCH  27  29
ATOM     29  C   UNL A   1      42.519  20.562  26.397  1.00  0.00     0.060 A 
ATOM     30  C   UNL A   1      42.517  21.094  27.696  1.00  0.00     0.016 A 
ATOM     31  C   UNL A   1      43.012  21.311  25.329  1.00  0.00     0.016 A 
ATOM     32  C   UNL A   1      42.993  22.386  27.926  1.00  0.00     0.010 A 
ATOM     33  C   UNL A   1      43.461  22.616  25.557  1.00  0.00     0.010 A 
ATOM     34  C   UNL A   1      43.429  23.170  26.851  1.00  0.00    -0.014 A 
BRANCH  34  35
ATOM     35  C   UNL A   1      43.673  24.623  27.041  1.00  0.00     0.031 A 
ATOM     36  C   UNL A   1      45.060  25.152  26.788  1.00  0.00     0.074 A 
ATOM     37  C   UNL A   1      42.694  25.458  27.432  1.00  0.00     0.049 A 
ATOM     38  N   UNL A   1      45.539  26.355  26.975  1.00  0.00    -0.248 NA
ATOM     39  C   UNL A   1      46.039  24.190  26.255  1.00  0.00     0.031 C 
ATOM     40  C   UNL A   1      41.303  25.080  27.671  1.00  0.00     0.029 A 
ATOM     41  N   UNL A   1      42.731  26.802  27.717  1.00  0.00    -0.354 N 
ATOM     42  C   UNL A   1      46.876  26.289  26.604  1.00  0.00     0.074 A 
ATOM     43  C   UNL A   1      47.139  24.927  26.194  1.00  0.00     0.031 C 
ATOM     44  C   UNL A   1      40.626  26.161  28.096  1.00  0.00     0.029 A 
ATOM     45  C   UNL A   1      41.541  27.297  28.193  1.00  0.00     0.049 A 
ATOM     46  H   UNL A   1      43.535  27.357  27.592  1.00  0.00     0.167 HD
ATOM     47  C   UNL A   1      47.801  27.277  26.606  1.00  0.00     0.037 A 
ATOM     48  C   UNL A   1      41.241  28.516  28.686  1.00  0.00     0.037 A 
ATOM     49  C   UNL A   1      47.537  28.635  27.001  1.00  0.00     0.049 A 
ATOM     50  C   UNL A   1      42.310  29.583  28.731  1.00  0.00     0.074 A 
ATOM     51  C   UNL A   1      48.401  29.716  26.995  1.00  0.00     0.029 A 
ATOM     52  N   UNL A   1      46.323  29.096  27.483  1.00  0.00    -0.354 N 
ATOM     53  N   UNL A   1      43.559  29.525  28.338  1.00  0.00    -0.248 NA
ATOM     54  C   UNL A   1      41.923  30.888  29.288  1.00  0.00     0.031 C 
ATOM     55  C   UNL A   1      47.729  30.816  27.535  1.00  0.00     0.029 A 
ATOM     56  C   UNL A   1      46.425  30.439  27.810  1.00  0.00     0.049 A 
ATOM     57  H   UNL A   1      45.507  28.550  27.580  1.00  0.00     0.167 HD
ATOM     58  C   UNL A   1      44.092  30.789  28.564  1.00  0.00     0.074 A 
ATOM     59  C   UNL A   1      43.028  31.599  29.115  1.00  0.00     0.031 C 
ATOM     60  C   UNL A   1      45.351  31.240  28.337  1.00  0.00     0.037 A 
BRANCH  47  61
ATOM     61  C   UNL A   1      49.201  26.932  26.193  1.00  0.00     0.064 A 
ATOM     62  C   UNL A   1      50.137  26.418  27.102  1.00  0.00     0.173 A 
ATOM     63  C   UNL A   1      49.584  27.041  24.846  1.00  0.00     0.173 A 
ATOM     64  F   UNL A   1      49.826  26.307  28.402  1.00  0.00    -0.203 F 
ATOM     65  C   UNL A   1      51.408  26.034  26.679  1.00  0.00     0.198 A 
ATOM     66  C   UNL A   1      50.843  26.629  24.423  1.00  0.00     0.198 A 
ATOM     67  F   UNL A   1      48.724  27.525  23.937  1.00  0.00    -0.203 F 
ATOM     68  F   UNL A   1      52.296  25.572  27.569  1.00  0.00    -0.200 F 
ATOM     69  C   UNL A   1      51.754  26.128  25.339  1.00  0.00     0.200 A 
ATOM     70  F   UNL A   1      51.171  26.707  23.126  1.00  0.00    -0.200 F 
ATOM     71  F   UNL A   1      52.970  25.737  24.931  1.00  0.00    -0.200 F 
ENDBRANCH  47  61
BRANCH  48  72
ATOM     72  C   UNL A   1      39.879  28.801  29.219  1.00  0.00     0.064 A 
ATOM     73  C   UNL A   1      39.523  28.454  30.530  1.00  0.00     0.173 A 
ATOM     74  C   UNL A   1      38.884  29.360  28.402  1.00  0.00     0.173 A 
ATOM     75  F   UNL A   1      40.428  27.890  31.343  1.00  0.00    -0.203 F 
ATOM     76  C   UNL A   1      38.217  28.621  30.992  1.00  0.00     0.198 A 
ATOM     77  C   UNL A   1      37.588  29.560  28.876  1.00  0.00     0.198 A 
ATOM     78  F   UNL A   1      39.166  29.705  27.137  1.00  0.00    -0.203 F 
ATOM     79  F   UNL A   1      37.888  28.210  32.224  1.00  0.00    -0.200 F 
ATOM     80  C   UNL A   1      37.252  29.176  30.165  1.00  0.00     0.200 A 
ATOM     81  F   UNL A   1      36.662  30.106  28.078  1.00  0.00    -0.200 F 
ATOM     82  F   UNL A   1      35.996  29.326  30.606  1.00  0.00    -0.200 F 
ENDBRANCH  48  72
BRANCH  60  83
ATOM     83  C   UNL A   1      45.639  32.686  28.628  1.00  0.00     0.064 A 
ATOM     84  C   UNL A   1      45.421  33.694  27.677  1.00  0.00     0.173 A 
ATOM     85  C   UNL A   1      46.096  33.073  29.899  1.00  0.00     0.173 A 
ATOM     86  F   UNL A   1      44.997  33.378  26.444  1.00  0.00    -0.203 F 
ATOM     87  C   UNL A   1      45.679  35.029  27.977  1.00  0.00     0.198 A 
ATOM     88  C   UNL A   1      46.316  34.413  30.207  1.00  0.00     0.198 A 
ATOM     89  F   UNL A   1      46.310  32.152  30.851  1.00  0.00    -0.203 F 
ATOM     90  F   UNL A   1      45.513  35.968  27.035  1.00  0.00    -0.200 F 
ATOM     91  C   UNL A   1      46.117  35.389  29.243  1.00  0.00     0.200 A 
ATOM     92  F   UNL A   1      46.722  34.759  31.436  1.00  0.00    -0.200 F 
ATOM     93  F   UNL A   1      46.353  36.676  29.532  1.00  0.00    -0.200 F 
ENDBRANCH  60  83
ENDBRANCH  34  35
ENDBRANCH  27  29
ENDBRANCH  26  27
ENDBRANCH  25  26
ENDBRANCH  24  25
ENDBRANCH  23  24
ENDBRANCH  22  23
ENDBRANCH   1  22
TORSDOF 20
ENDMDL
