MODEL 1
REMARK VINA RESULT:     -12.6      0.000      0.000
REMARK SMILES COc1cc(C)c(S(=O)(=O)Nc2cc(C(=O)OCCOCCOCCOC(=O)c3ccc(-c4c5nc(c(-c6c(F)c(F)c(F)c(F)c6F)c6ccc([nH]6)c(-c6c(F)c(F)c(F)c(F)c6F)c6nc(c(-c7c(F)c(F)c(F)c(F)c7F)c7ccc4[nH]7)C=C6)C=C5)cc3)ccc2F)cc1OC
REMARK SMILES IDX 21 1 20 2 19 3 18 4 17 5 15 6 16 7 14 8 12 9 13 10 94 11
REMARK SMILES IDX 93 12 95 13 92 14 11 15 8 17 9 18 10 19 7 20 3 21 4 22 97 23
REMARK SMILES IDX 5 24 96 25 6 26 2 27 1 28 98 29 99 30 22 31 23 32 24 33
REMARK SMILES IDX 25 34 26 35 27 36 28 37 29 38 30 39 91 40 31 41 90 42 32 43
REMARK SMILES IDX 33 44 34 45 84 46 35 47 89 48 83 49 85 50 36 51 88 52 82 53
REMARK SMILES IDX 81 54 37 56 69 57 49 58 68 59 50 60 53 61 67 62 86 63 51 64
REMARK SMILES IDX 52 65 66 67 87 68 54 69 38 70 39 71 47 72 40 73 41 74 45 75
REMARK SMILES IDX 48 76 42 77 43 78 46 79 44 80 70 81 71 82 79 83 72 84 73 85
REMARK SMILES IDX 77 86 80 87 74 88 75 89 78 90 76 91 55 92 56 93 64 94 57 95
REMARK SMILES IDX 58 96 62 97 65 98 59 99 60 100 63 101 61 102
REMARK H PARENT 11 16 85 55 53 66
REMARK Flexibility Score: inf
ROOT
ATOM      1  C   UNL A   1      32.989  31.035  27.167  1.00  0.00     0.188 C 
ENDROOT
BRANCH   1   2
ATOM      2  O   UNL A   1      32.208  29.884  26.810  1.00  0.00    -0.376 OA
BRANCH   2   3
ATOM      3  C   UNL A   1      32.452  28.479  27.084  1.00  0.00     0.202 C 
BRANCH   3   4
ATOM      4  C   UNL A   1      31.540  26.964  26.940  1.00  0.00     0.261 C 
BRANCH   4   5
ATOM      5  O   UNL A   1      31.933  25.235  27.110  1.00  0.00    -0.460 OA
BRANCH   5   6
ATOM      6  C   UNL A   1      31.401  23.899  26.779  1.00  0.00     0.338 C 
ATOM      7  O   UNL A   1      30.228  23.539  26.612  1.00  0.00    -0.246 OA
BRANCH   6   8
ATOM      8  C   UNL A   1      32.226  22.703  26.606  1.00  0.00     0.062 A 
ATOM      9  C   UNL A   1      33.130  21.749  24.688  1.00  0.00     0.085 A 
ATOM     10  C   UNL A   1      31.999  22.100  25.397  1.00  0.00     0.045 A 
ATOM     11  C   UNL A   1      34.353  21.483  25.337  1.00  0.00     0.147 A 
ATOM     12  C   UNL A   1      34.578  21.969  26.612  1.00  0.00     0.042 A 
ATOM     13  F   UNL A   1      35.395  21.014  24.634  1.00  0.00    -0.205 F 
ATOM     14  C   UNL A   1      33.542  22.696  27.187  1.00  0.00     0.019 A 
BRANCH   9  15
ATOM     15  N   UNL A   1      33.193  21.986  23.288  1.00  0.00    -0.277 N 
ATOM     16  H   UNL A   1      32.996  21.227  22.694  1.00  0.00     0.180 HD
BRANCH  15  17
ATOM     17  S   UNL A   1      33.576  23.453  22.559  1.00  0.00     0.262 S 
ATOM     18  O   UNL A   1      33.293  23.293  21.143  1.00  0.00    -0.201 OA
ATOM     19  O   UNL A   1      34.932  23.720  22.992  1.00  0.00    -0.201 OA
BRANCH  17  20
ATOM     20  C   UNL A   1      32.587  24.898  23.079  1.00  0.00     0.094 A 
ATOM     21  C   UNL A   1      31.436  27.582  23.177  1.00  0.00     0.161 A 
ATOM     22  C   UNL A   1      30.635  26.432  23.029  1.00  0.00     0.055 A 
ATOM     23  C   UNL A   1      32.785  27.307  23.619  1.00  0.00     0.162 A 
ATOM     24  C   UNL A   1      31.199  25.084  23.105  1.00  0.00    -0.027 A 
ATOM     25  C   UNL A   1      33.351  26.014  23.435  1.00  0.00     0.073 A 
ATOM     26  C   UNL A   1      30.281  23.925  23.326  1.00  0.00     0.046 C 
BRANCH  21  27
ATOM     27  O   UNL A   1      30.724  29.017  22.806  1.00  0.00    -0.493 OA
ATOM     28  C   UNL A   1      28.749  29.829  22.918  1.00  0.00     0.278 C 
ENDBRANCH  21  27
BRANCH  23  29
ATOM     29  O   UNL A   1      33.740  28.186  24.042  1.00  0.00    -0.493 OA
ATOM     30  C   UNL A   1      34.511  28.949  23.121  1.00  0.00     0.278 C 
ENDBRANCH  23  29
ENDBRANCH  17  20
ENDBRANCH  15  17
ENDBRANCH   9  15
ENDBRANCH   6   8
ENDBRANCH   5   6
ENDBRANCH   4   5
ENDBRANCH   3   4
ENDBRANCH   2   3
ENDBRANCH   1   2
BRANCH   1  31
ATOM     31  C   UNL A   1      32.377  32.417  27.151  1.00  0.00     0.188 C 
BRANCH  31  32
ATOM     32  O   UNL A   1      33.297  33.269  27.775  1.00  0.00    -0.376 OA
BRANCH  32  33
ATOM     33  C   UNL A   1      32.877  34.529  28.212  1.00  0.00     0.202 C 
BRANCH  33  34
ATOM     34  C   UNL A   1      33.630  35.001  29.457  1.00  0.00     0.261 C 
BRANCH  34  35
ATOM     35  O   UNL A   1      32.863  34.765  30.674  1.00  0.00    -0.460 OA
BRANCH  35  36
ATOM     36  C   UNL A   1      33.158  35.494  31.812  1.00  0.00     0.338 C 
ATOM     37  O   UNL A   1      32.749  36.618  32.033  1.00  0.00    -0.246 OA
BRANCH  36  38
ATOM     38  C   UNL A   1      34.216  34.787  32.630  1.00  0.00     0.060 A 
ATOM     39  C   UNL A   1      35.412  35.351  33.120  1.00  0.00     0.016 A 
ATOM     40  C   UNL A   1      34.271  33.470  32.397  1.00  0.00     0.016 A 
ATOM     41  C   UNL A   1      36.706  34.651  33.026  1.00  0.00     0.010 A 
ATOM     42  C   UNL A   1      35.526  33.078  31.949  1.00  0.00     0.010 A 
ATOM     43  C   UNL A   1      36.875  33.482  32.283  1.00  0.00    -0.014 A 
BRANCH  43  44
ATOM     44  C   UNL A   1      38.414  32.619  31.909  1.00  0.00     0.031 A 
ATOM     45  C   UNL A   1      38.778  31.106  30.924  1.00  0.00     0.074 A 
ATOM     46  C   UNL A   1      39.533  33.206  32.393  1.00  0.00     0.049 A 
ATOM     47  N   UNL A   1      39.787  30.893  30.081  1.00  0.00    -0.248 NA
ATOM     48  C   UNL A   1      37.871  29.901  30.637  1.00  0.00     0.031 C 
ATOM     49  C   UNL A   1      40.896  33.001  31.940  1.00  0.00     0.029 A 
ATOM     50  N   UNL A   1      39.682  34.205  33.365  1.00  0.00    -0.354 N 
ATOM     51  C   UNL A   1      39.612  29.636  29.380  1.00  0.00     0.074 A 
ATOM     52  C   UNL A   1      38.219  29.395  29.460  1.00  0.00     0.031 C 
ATOM     53  C   UNL A   1      41.749  33.527  32.831  1.00  0.00     0.029 A 
ATOM     54  C   UNL A   1      40.967  34.021  33.925  1.00  0.00     0.049 A 
ATOM     55  H   UNL A   1      39.025  34.897  33.608  1.00  0.00     0.167 HD
ATOM     56  C   UNL A   1      40.432  28.511  29.292  1.00  0.00     0.037 A 
ATOM     57  C   UNL A   1      41.121  33.750  35.247  1.00  0.00     0.037 A 
ATOM     58  C   UNL A   1      41.571  28.547  30.242  1.00  0.00     0.049 A 
ATOM     59  C   UNL A   1      41.617  32.337  35.540  1.00  0.00     0.074 A 
ATOM     60  C   UNL A   1      42.201  30.277  30.427  1.00  0.00     0.029 A 
ATOM     61  N   UNL A   1      41.826  27.597  31.965  1.00  0.00    -0.354 N 
ATOM     62  N   UNL A   1      41.583  31.315  34.722  1.00  0.00    -0.248 NA
ATOM     63  C   UNL A   1      42.161  31.968  36.844  1.00  0.00     0.031 C 
ATOM     64  C   UNL A   1      42.672  30.557  32.333  1.00  0.00     0.029 A 
ATOM     65  C   UNL A   1      42.340  29.000  33.258  1.00  0.00     0.049 A 
ATOM     66  H   UNL A   1      41.720  26.634  32.138  1.00  0.00     0.167 HD
ATOM     67  C   UNL A   1      42.124  30.189  35.336  1.00  0.00     0.074 A 
ATOM     68  C   UNL A   1      42.395  30.651  36.691  1.00  0.00     0.031 C 
ATOM     69  C   UNL A   1      42.370  28.975  34.712  1.00  0.00     0.037 A 
BRANCH  56  70
ATOM     70  C   UNL A   1      40.276  27.405  28.246  1.00  0.00     0.064 A 
ATOM     71  C   UNL A   1      41.015  27.568  27.061  1.00  0.00     0.173 A 
ATOM     72  C   UNL A   1      39.607  26.159  28.366  1.00  0.00     0.173 A 
ATOM     73  F   UNL A   1      41.640  28.728  26.807  1.00  0.00    -0.203 F 
ATOM     74  C   UNL A   1      41.158  26.543  26.120  1.00  0.00     0.198 A 
ATOM     75  C   UNL A   1      39.741  25.140  27.415  1.00  0.00     0.198 A 
ATOM     76  F   UNL A   1      38.918  25.801  29.455  1.00  0.00    -0.203 F 
ATOM     77  F   UNL A   1      41.935  26.732  25.046  1.00  0.00    -0.200 F 
ATOM     78  C   UNL A   1      40.539  25.323  26.308  1.00  0.00     0.200 A 
ATOM     79  F   UNL A   1      39.144  23.955  27.619  1.00  0.00    -0.200 F 
ATOM     80  F   UNL A   1      40.734  24.318  25.443  1.00  0.00    -0.200 F 
ENDBRANCH  56  70
BRANCH  57  81
ATOM     81  C   UNL A   1      40.130  34.556  36.031  1.00  0.00     0.064 A 
ATOM     82  C   UNL A   1      39.048  33.843  36.615  1.00  0.00     0.173 A 
ATOM     83  C   UNL A   1      40.496  35.765  36.626  1.00  0.00     0.173 A 
ATOM     84  F   UNL A   1      38.640  32.681  36.076  1.00  0.00    -0.203 F 
ATOM     85  C   UNL A   1      38.539  34.194  37.863  1.00  0.00     0.198 A 
ATOM     86  C   UNL A   1      39.926  36.153  37.843  1.00  0.00     0.198 A 
ATOM     87  F   UNL A   1      41.519  36.479  36.136  1.00  0.00    -0.203 F 
ATOM     88  F   UNL A   1      37.712  33.361  38.510  1.00  0.00    -0.200 F 
ATOM     89  C   UNL A   1      39.002  35.336  38.487  1.00  0.00     0.200 A 
ATOM     90  F   UNL A   1      40.417  37.221  38.490  1.00  0.00    -0.200 F 
ATOM     91  F   UNL A   1      38.640  35.595  39.752  1.00  0.00    -0.200 F 
ENDBRANCH  57  81
BRANCH  69  92
ATOM     92  C   UNL A   1      42.930  27.773  35.367  1.00  0.00     0.064 A 
ATOM     93  C   UNL A   1      44.254  27.696  35.816  1.00  0.00     0.173 A 
ATOM     94  C   UNL A   1      42.183  26.583  35.365  1.00  0.00     0.173 A 
ATOM     95  F   UNL A   1      45.070  28.759  35.751  1.00  0.00    -0.203 F 
ATOM     96  C   UNL A   1      44.785  26.498  36.285  1.00  0.00     0.198 A 
ATOM     97  C   UNL A   1      42.745  25.371  35.745  1.00  0.00     0.198 A 
ATOM     98  F   UNL A   1      40.905  26.569  34.959  1.00  0.00    -0.203 F 
ATOM     99  F   UNL A   1      46.036  26.470  36.765  1.00  0.00    -0.200 F 
ATOM    100  C   UNL A   1      44.041  25.332  36.226  1.00  0.00     0.200 A 
ATOM    101  F   UNL A   1      42.035  24.243  35.613  1.00  0.00    -0.200 F 
ATOM    102  F   UNL A   1      44.576  24.168  36.615  1.00  0.00    -0.200 F 
ENDBRANCH  69  92
ENDBRANCH  43  44
ENDBRANCH  36  38
ENDBRANCH  35  36
ENDBRANCH  34  35
ENDBRANCH  33  34
ENDBRANCH  32  33
ENDBRANCH  31  32
ENDBRANCH   1  31
TORSDOF 22
ENDMDL
MODEL 2
REMARK VINA RESULT:     -12.4      3.227      8.525
REMARK SMILES COc1cc(C)c(S(=O)(=O)Nc2cc(C(=O)OCCOCCOCCOC(=O)c3ccc(-c4c5nc(c(-c6c(F)c(F)c(F)c(F)c6F)c6ccc([nH]6)c(-c6c(F)c(F)c(F)c(F)c6F)c6nc(c(-c7c(F)c(F)c(F)c(F)c7F)c7ccc4[nH]7)C=C6)C=C5)cc3)ccc2F)cc1OC
REMARK SMILES IDX 21 1 20 2 19 3 18 4 17 5 15 6 16 7 14 8 12 9 13 10 94 11
REMARK SMILES IDX 93 12 95 13 92 14 11 15 8 17 9 18 10 19 7 20 3 21 4 22 97 23
REMARK SMILES IDX 5 24 96 25 6 26 2 27 1 28 98 29 99 30 22 31 23 32 24 33
REMARK SMILES IDX 25 34 26 35 27 36 28 37 29 38 30 39 91 40 31 41 90 42 32 43
REMARK SMILES IDX 33 44 34 45 84 46 35 47 89 48 83 49 85 50 36 51 88 52 82 53
REMARK SMILES IDX 81 54 37 56 69 57 49 58 68 59 50 60 53 61 67 62 86 63 51 64
REMARK SMILES IDX 52 65 66 67 87 68 54 69 38 70 39 71 47 72 40 73 41 74 45 75
REMARK SMILES IDX 48 76 42 77 43 78 46 79 44 80 70 81 71 82 79 83 72 84 73 85
REMARK SMILES IDX 77 86 80 87 74 88 75 89 78 90 76 91 55 92 56 93 64 94 57 95
REMARK SMILES IDX 58 96 62 97 65 98 59 99 60 100 63 101 61 102
REMARK H PARENT 11 16 85 55 53 66
REMARK Flexibility Score: inf
ROOT
ATOM      1  C   UNL A   1      42.700  22.027  26.507  1.00  0.00     0.188 C 
ENDROOT
BRANCH   1   2
ATOM      2  O   UNL A   1      41.496  21.820  25.755  1.00  0.00    -0.376 OA
BRANCH   2   3
ATOM      3  C   UNL A   1      40.168  21.453  26.214  1.00  0.00     0.202 C 
BRANCH   3   4
ATOM      4  C   UNL A   1      38.512  22.040  25.965  1.00  0.00     0.261 C 
BRANCH   4   5
ATOM      5  O   UNL A   1      37.453  22.264  24.551  1.00  0.00    -0.460 OA
BRANCH   5   6
ATOM      6  C   UNL A   1      36.028  22.395  24.194  1.00  0.00     0.338 C 
ATOM      7  O   UNL A   1      35.512  22.925  23.200  1.00  0.00    -0.246 OA
BRANCH   6   8
ATOM      8  C   UNL A   1      34.922  21.909  25.021  1.00  0.00     0.062 A 
ATOM      9  C   UNL A   1      33.091  23.032  25.913  1.00  0.00     0.085 A 
ATOM     10  C   UNL A   1      34.463  22.878  25.873  1.00  0.00     0.045 A 
ATOM     11  C   UNL A   1      32.222  21.967  25.596  1.00  0.00     0.147 A 
ATOM     12  C   UNL A   1      32.680  20.904  24.839  1.00  0.00     0.042 A 
ATOM     13  F   UNL A   1      30.900  22.107  25.775  1.00  0.00    -0.205 F 
ATOM     14  C   UNL A   1      34.013  20.956  24.445  1.00  0.00     0.019 A 
BRANCH   9  15
ATOM     15  N   UNL A   1      32.521  24.333  25.927  1.00  0.00    -0.277 N 
ATOM     16  H   UNL A   1      31.847  24.522  26.618  1.00  0.00     0.180 HD
BRANCH  15  17
ATOM     17  S   UNL A   1      32.899  25.580  24.862  1.00  0.00     0.262 S 
ATOM     18  O   UNL A   1      33.041  24.970  23.551  1.00  0.00    -0.201 OA
ATOM     19  O   UNL A   1      34.036  26.235  25.474  1.00  0.00    -0.201 OA
BRANCH  17  20
ATOM     20  C   UNL A   1      31.628  26.874  24.646  1.00  0.00     0.094 A 
ATOM     21  C   UNL A   1      30.269  29.311  23.780  1.00  0.00     0.161 A 
ATOM     22  C   UNL A   1      29.758  28.030  23.491  1.00  0.00     0.055 A 
ATOM     23  C   UNL A   1      31.288  29.322  24.806  1.00  0.00     0.162 A 
ATOM     24  C   UNL A   1      30.371  26.815  24.032  1.00  0.00    -0.027 A 
ATOM     25  C   UNL A   1      32.014  28.136  25.108  1.00  0.00     0.073 A 
ATOM     26  C   UNL A   1      29.589  25.541  24.019  1.00  0.00     0.046 C 
BRANCH  21  27
ATOM     27  O   UNL A   1      29.651  30.556  22.900  1.00  0.00    -0.493 OA
ATOM     28  C   UNL A   1      27.976  31.874  23.065  1.00  0.00     0.278 C 
ENDBRANCH  21  27
BRANCH  23  29
ATOM     29  O   UNL A   1      31.839  30.392  25.450  1.00  0.00    -0.493 OA
ATOM     30  C   UNL A   1      31.905  30.455  26.870  1.00  0.00     0.278 C 
ENDBRANCH  23  29
ENDBRANCH  17  20
ENDBRANCH  15  17
ENDBRANCH   9  15
ENDBRANCH   6   8
ENDBRANCH   5   6
ENDBRANCH   4   5
ENDBRANCH   3   4
ENDBRANCH   2   3
ENDBRANCH   1   2
BRANCH   1  31
ATOM     31  C   UNL A   1      42.653  22.184  28.011  1.00  0.00     0.188 C 
BRANCH  31  32
ATOM     32  O   UNL A   1      42.257  23.504  28.263  1.00  0.00    -0.376 OA
BRANCH  32  33
ATOM     33  C   UNL A   1      42.988  24.556  27.703  1.00  0.00     0.202 C 
BRANCH  33  34
ATOM     34  C   UNL A   1      42.254  25.895  27.793  1.00  0.00     0.261 C 
BRANCH  34  35
ATOM     35  O   UNL A   1      41.037  25.791  28.590  1.00  0.00    -0.460 OA
BRANCH  35  36
ATOM     36  C   UNL A   1      39.812  25.999  27.983  1.00  0.00     0.338 C 
ATOM     37  O   UNL A   1      39.332  25.268  27.136  1.00  0.00    -0.246 OA
BRANCH  36  38
ATOM     38  C   UNL A   1      39.259  27.354  28.364  1.00  0.00     0.060 A 
ATOM     39  C   UNL A   1      39.567  28.587  27.754  1.00  0.00     0.016 A 
ATOM     40  C   UNL A   1      38.911  27.438  29.654  1.00  0.00     0.016 A 
ATOM     41  C   UNL A   1      39.855  29.802  28.539  1.00  0.00     0.010 A 
ATOM     42  C   UNL A   1      39.603  28.449  30.309  1.00  0.00     0.010 A 
ATOM     43  C   UNL A   1      40.031  29.776  29.923  1.00  0.00    -0.014 A 
BRANCH  43  44
ATOM     44  C   UNL A   1      40.573  31.121  30.995  1.00  0.00     0.031 A 
ATOM     45  C   UNL A   1      41.973  31.271  32.183  1.00  0.00     0.074 A 
ATOM     46  C   UNL A   1      39.860  32.266  30.885  1.00  0.00     0.049 A 
ATOM     47  N   UNL A   1      42.778  32.313  32.383  1.00  0.00    -0.248 NA
ATOM     48  C   UNL A   1      42.688  30.166  32.974  1.00  0.00     0.031 C 
ATOM     49  C   UNL A   1      40.274  33.598  31.285  1.00  0.00     0.029 A 
ATOM     50  N   UNL A   1      38.609  32.500  30.296  1.00  0.00    -0.354 N 
ATOM     51  C   UNL A   1      43.858  31.960  33.284  1.00  0.00     0.074 A 
ATOM     52  C   UNL A   1      43.942  30.551  33.176  1.00  0.00     0.031 C 
ATOM     53  C   UNL A   1      39.212  34.417  31.285  1.00  0.00     0.029 A 
ATOM     54  C   UNL A   1      38.065  33.622  30.961  1.00  0.00     0.049 A 
ATOM     55  H   UNL A   1      38.194  31.986  29.566  1.00  0.00     0.167 HD
ATOM     56  C   UNL A   1      44.258  32.513  34.500  1.00  0.00     0.037 A 
ATOM     57  C   UNL A   1      36.896  33.530  31.645  1.00  0.00     0.037 A 
ATOM     58  C   UNL A   1      43.282  33.491  35.042  1.00  0.00     0.049 A 
ATOM     59  C   UNL A   1      37.049  33.655  33.158  1.00  0.00     0.074 A 
ATOM     60  C   UNL A   1      42.510  34.459  33.666  1.00  0.00     0.029 A 
ATOM     61  N   UNL A   1      41.948  33.291  36.497  1.00  0.00    -0.354 N 
ATOM     62  N   UNL A   1      38.154  33.506  33.844  1.00  0.00    -0.248 NA
ATOM     63  C   UNL A   1      35.905  33.919  34.027  1.00  0.00     0.031 C 
ATOM     64  C   UNL A   1      40.592  34.715  34.101  1.00  0.00     0.029 A 
ATOM     65  C   UNL A   1      40.243  33.923  35.726  1.00  0.00     0.049 A 
ATOM     66  H   UNL A   1      42.104  32.951  37.407  1.00  0.00     0.167 HD
ATOM     67  C   UNL A   1      37.908  33.694  35.201  1.00  0.00     0.074 A 
ATOM     68  C   UNL A   1      36.463  33.874  35.251  1.00  0.00     0.031 C 
ATOM     69  C   UNL A   1      38.876  33.748  36.192  1.00  0.00     0.037 A 
BRANCH  56  70
ATOM     70  C   UNL A   1      45.613  32.260  35.164  1.00  0.00     0.064 A 
ATOM     71  C   UNL A   1      45.609  31.376  36.258  1.00  0.00     0.173 A 
ATOM     72  C   UNL A   1      46.902  32.674  34.737  1.00  0.00     0.173 A 
ATOM     73  F   UNL A   1      44.447  30.964  36.790  1.00  0.00    -0.203 F 
ATOM     74  C   UNL A   1      46.786  30.869  36.816  1.00  0.00     0.198 A 
ATOM     75  C   UNL A   1      48.078  32.175  35.308  1.00  0.00     0.198 A 
ATOM     76  F   UNL A   1      47.102  33.454  33.669  1.00  0.00    -0.203 F 
ATOM     77  F   UNL A   1      46.716  29.972  37.809  1.00  0.00    -0.200 F 
ATOM     78  C   UNL A   1      48.020  31.252  36.328  1.00  0.00     0.200 A 
ATOM     79  F   UNL A   1      49.269  32.546  34.812  1.00  0.00    -0.200 F 
ATOM     80  F   UNL A   1      49.145  30.711  36.815  1.00  0.00    -0.200 F 
ENDBRANCH  56  70
BRANCH  57  81
ATOM     81  C   UNL A   1      35.952  32.646  30.887  1.00  0.00     0.064 A 
ATOM     82  C   UNL A   1      35.213  33.256  29.837  1.00  0.00     0.173 A 
ATOM     83  C   UNL A   1      36.166  31.269  30.804  1.00  0.00     0.173 A 
ATOM     84  F   UNL A   1      34.961  34.577  29.871  1.00  0.00    -0.203 F 
ATOM     85  C   UNL A   1      34.930  32.571  28.659  1.00  0.00     0.198 A 
ATOM     86  C   UNL A   1      35.810  30.568  29.647  1.00  0.00     0.198 A 
ATOM     87  F   UNL A   1      36.870  30.634  31.751  1.00  0.00    -0.203 F 
ATOM     88  F   UNL A   1      34.472  33.236  27.588  1.00  0.00    -0.200 F 
ATOM     89  C   UNL A   1      35.256  31.233  28.556  1.00  0.00     0.200 A 
ATOM     90  F   UNL A   1      36.184  29.287  29.510  1.00  0.00    -0.200 F 
ATOM     91  F   UNL A   1      35.136  30.607  27.376  1.00  0.00    -0.200 F 
ENDBRANCH  57  81
BRANCH  69  92
ATOM     92  C   UNL A   1      38.615  33.932  37.636  1.00  0.00     0.064 A 
ATOM     93  C   UNL A   1      38.983  35.086  38.337  1.00  0.00     0.173 A 
ATOM     94  C   UNL A   1      38.165  32.838  38.395  1.00  0.00     0.173 A 
ATOM     95  F   UNL A   1      39.524  36.138  37.703  1.00  0.00    -0.203 F 
ATOM     96  C   UNL A   1      38.859  35.157  39.721  1.00  0.00     0.198 A 
ATOM     97  C   UNL A   1      38.132  32.879  39.782  1.00  0.00     0.198 A 
ATOM     98  F   UNL A   1      37.784  31.696  37.803  1.00  0.00    -0.203 F 
ATOM     99  F   UNL A   1      39.163  36.297  40.357  1.00  0.00    -0.200 F 
ATOM    100  C   UNL A   1      38.459  34.047  40.446  1.00  0.00     0.200 A 
ATOM    101  F   UNL A   1      37.812  31.774  40.469  1.00  0.00    -0.200 F 
ATOM    102  F   UNL A   1      38.405  34.095  41.783  1.00  0.00    -0.200 F 
ENDBRANCH  69  92
ENDBRANCH  43  44
ENDBRANCH  36  38
ENDBRANCH  35  36
ENDBRANCH  34  35
ENDBRANCH  33  34
ENDBRANCH  32  33
ENDBRANCH  31  32
ENDBRANCH   1  31
TORSDOF 22
ENDMDL
MODEL 3
REMARK VINA RESULT:     -12.2      1.898      3.421
REMARK SMILES COc1cc(C)c(S(=O)(=O)Nc2cc(C(=O)OCCOCCOCCOC(=O)c3ccc(-c4c5nc(c(-c6c(F)c(F)c(F)c(F)c6F)c6ccc([nH]6)c(-c6c(F)c(F)c(F)c(F)c6F)c6nc(c(-c7c(F)c(F)c(F)c(F)c7F)c7ccc4[nH]7)C=C6)C=C5)cc3)ccc2F)cc1OC
REMARK SMILES IDX 21 1 20 2 19 3 18 4 17 5 15 6 16 7 14 8 12 9 13 10 94 11
REMARK SMILES IDX 93 12 95 13 92 14 11 15 8 17 9 18 10 19 7 20 3 21 4 22 97 23
REMARK SMILES IDX 5 24 96 25 6 26 2 27 1 28 98 29 99 30 22 31 23 32 24 33
REMARK SMILES IDX 25 34 26 35 27 36 28 37 29 38 30 39 91 40 31 41 90 42 32 43
REMARK SMILES IDX 33 44 34 45 84 46 35 47 89 48 83 49 85 50 36 51 88 52 82 53
REMARK SMILES IDX 81 54 37 56 69 57 49 58 68 59 50 60 53 61 67 62 86 63 51 64
REMARK SMILES IDX 52 65 66 67 87 68 54 69 38 70 39 71 47 72 40 73 41 74 45 75
REMARK SMILES IDX 48 76 42 77 43 78 46 79 44 80 70 81 71 82 79 83 72 84 73 85
REMARK SMILES IDX 77 86 80 87 74 88 75 89 78 90 76 91 55 92 56 93 64 94 57 95
REMARK SMILES IDX 58 96 62 97 65 98 59 99 60 100 63 101 61 102
REMARK H PARENT 11 16 85 55 53 66
REMARK Flexibility Score: inf
ROOT
ATOM      1  C   UNL A   1      36.420  32.442  29.318  1.00  0.00     0.188 C 
ENDROOT
BRANCH   1   2
ATOM      2  O   UNL A   1      37.101  31.601  28.374  1.00  0.00    -0.376 OA
BRANCH   2   3
ATOM      3  C   UNL A   1      36.625  30.422  27.673  1.00  0.00     0.202 C 
BRANCH   3   4
ATOM      4  C   UNL A   1      35.149  29.437  27.667  1.00  0.00     0.261 C 
BRANCH   4   5
ATOM      5  O   UNL A   1      33.845  29.126  26.495  1.00  0.00    -0.460 OA
BRANCH   5   6
ATOM      6  C   UNL A   1      32.467  29.544  26.174  1.00  0.00     0.338 C 
ATOM      7  O   UNL A   1      31.980  30.682  26.131  1.00  0.00    -0.246 OA
BRANCH   6   8
ATOM      8  C   UNL A   1      31.377  28.619  25.856  1.00  0.00     0.062 A 
ATOM      9  C   UNL A   1      31.069  27.210  24.033  1.00  0.00     0.085 A 
ATOM     10  C   UNL A   1      31.190  28.502  24.505  1.00  0.00     0.045 A 
ATOM     11  C   UNL A   1      30.599  26.166  24.857  1.00  0.00     0.147 A 
ATOM     12  C   UNL A   1      30.655  26.294  26.232  1.00  0.00     0.042 A 
ATOM     13  F   UNL A   1      30.365  24.954  24.332  1.00  0.00    -0.205 F 
ATOM     14  C   UNL A   1      31.175  27.488  26.720  1.00  0.00     0.019 A 
BRANCH   9  15
ATOM     15  N   UNL A   1      31.735  26.824  22.838  1.00  0.00    -0.277 N 
ATOM     16  H   UNL A   1      31.274  27.004  21.988  1.00  0.00     0.180 HD
BRANCH  15  17
ATOM     17  S   UNL A   1      33.244  26.086  22.752  1.00  0.00     0.262 S 
ATOM     18  O   UNL A   1      34.075  26.736  23.750  1.00  0.00    -0.201 OA
ATOM     19  O   UNL A   1      33.602  26.177  21.352  1.00  0.00    -0.201 OA
BRANCH  17  20
ATOM     20  C   UNL A   1      33.302  24.309  23.172  1.00  0.00     0.094 A 
ATOM     21  C   UNL A   1      32.738  21.739  24.443  1.00  0.00     0.161 A 
ATOM     22  C   UNL A   1      32.571  21.939  23.057  1.00  0.00     0.055 A 
ATOM     23  C   UNL A   1      33.521  22.764  25.095  1.00  0.00     0.162 A 
ATOM     24  C   UNL A   1      32.972  23.185  22.404  1.00  0.00    -0.027 A 
ATOM     25  C   UNL A   1      33.665  24.048  24.497  1.00  0.00     0.073 A 
ATOM     26  C   UNL A   1      33.133  23.206  20.918  1.00  0.00     0.046 C 
BRANCH  21  27
ATOM     27  O   UNL A   1      32.007  20.410  25.079  1.00  0.00    -0.493 OA
ATOM     28  C   UNL A   1      32.483  18.335  25.271  1.00  0.00     0.278 C 
ENDBRANCH  21  27
BRANCH  23  29
ATOM     29  O   UNL A   1      34.027  22.774  26.363  1.00  0.00    -0.493 OA
ATOM     30  C   UNL A   1      34.718  21.652  26.899  1.00  0.00     0.278 C 
ENDBRANCH  23  29
ENDBRANCH  17  20
ENDBRANCH  15  17
ENDBRANCH   9  15
ENDBRANCH   6   8
ENDBRANCH   5   6
ENDBRANCH   4   5
ENDBRANCH   3   4
ENDBRANCH   2   3
ENDBRANCH   1   2
BRANCH   1  31
ATOM     31  C   UNL A   1      35.158  31.968  30.003  1.00  0.00     0.188 C 
BRANCH  31  32
ATOM     32  O   UNL A   1      34.139  32.849  29.617  1.00  0.00    -0.376 OA
BRANCH  32  33
ATOM     33  C   UNL A   1      34.360  34.228  29.696  1.00  0.00     0.202 C 
BRANCH  33  34
ATOM     34  C   UNL A   1      33.287  34.949  30.514  1.00  0.00     0.261 C 
BRANCH  34  35
ATOM     35  O   UNL A   1      33.724  35.190  31.884  1.00  0.00    -0.460 OA
BRANCH  35  36
ATOM     36  C   UNL A   1      34.070  34.114  32.681  1.00  0.00     0.338 C 
ATOM     37  O   UNL A   1      33.285  33.275  33.080  1.00  0.00    -0.246 OA
BRANCH  36  38
ATOM     38  C   UNL A   1      35.502  34.246  33.150  1.00  0.00     0.060 A 
ATOM     39  C   UNL A   1      36.520  34.999  32.530  1.00  0.00     0.016 A 
ATOM     40  C   UNL A   1      35.931  33.183  33.840  1.00  0.00     0.016 A 
ATOM     41  C   UNL A   1      37.881  34.466  32.333  1.00  0.00     0.010 A 
ATOM     42  C   UNL A   1      37.043  32.598  33.247  1.00  0.00     0.010 A 
ATOM     43  C   UNL A   1      38.205  33.129  32.566  1.00  0.00    -0.014 A 
BRANCH  43  44
ATOM     44  C   UNL A   1      39.753  32.283  32.194  1.00  0.00     0.031 A 
ATOM     45  C   UNL A   1      40.167  30.907  31.042  1.00  0.00     0.074 A 
ATOM     46  C   UNL A   1      40.841  32.768  32.836  1.00  0.00     0.049 A 
ATOM     47  N   UNL A   1      41.235  30.782  30.256  1.00  0.00    -0.248 NA
ATOM     48  C   UNL A   1      39.264  29.777  30.526  1.00  0.00     0.031 C 
ATOM     49  C   UNL A   1      42.232  32.588  32.462  1.00  0.00     0.029 A 
ATOM     50  N   UNL A   1      40.931  33.623  33.944  1.00  0.00    -0.354 N 
ATOM     51  C   UNL A   1      41.093  29.636  29.378  1.00  0.00     0.074 A 
ATOM     52  C   UNL A   1      39.695  29.425  29.321  1.00  0.00     0.031 C 
ATOM     53  C   UNL A   1      43.022  32.966  33.478  1.00  0.00     0.029 A 
ATOM     54  C   UNL A   1      42.165  33.329  34.568  1.00  0.00     0.049 A 
ATOM     55  H   UNL A   1      40.269  34.293  34.229  1.00  0.00     0.167 HD
ATOM     56  C   UNL A   1      41.899  28.511  29.198  1.00  0.00     0.037 A 
ATOM     57  C   UNL A   1      42.211  32.879  35.848  1.00  0.00     0.037 A 
ATOM     58  C   UNL A   1      42.960  28.387  30.228  1.00  0.00     0.049 A 
ATOM     59  C   UNL A   1      42.659  31.426  35.981  1.00  0.00     0.074 A 
ATOM     60  C   UNL A   1      43.603  30.059  30.693  1.00  0.00     0.029 A 
ATOM     61  N   UNL A   1      43.065  27.208  31.819  1.00  0.00    -0.354 N 
ATOM     62  N   UNL A   1      42.671  30.524  35.032  1.00  0.00    -0.248 NA
ATOM     63  C   UNL A   1      43.093  30.869  37.260  1.00  0.00     0.031 C 
ATOM     64  C   UNL A   1      43.930  30.066  32.649  1.00  0.00     0.029 A 
ATOM     65  C   UNL A   1      43.501  28.409  33.326  1.00  0.00     0.049 A 
ATOM     66  H   UNL A   1      42.929  26.233  31.850  1.00  0.00     0.167 HD
ATOM     67  C   UNL A   1      43.144  29.312  35.524  1.00  0.00     0.074 A 
ATOM     68  C   UNL A   1      43.317  29.580  36.946  1.00  0.00     0.031 C 
ATOM     69  C   UNL A   1      43.418  28.187  34.761  1.00  0.00     0.037 A 
BRANCH  56  70
ATOM     70  C   UNL A   1      41.806  27.561  28.003  1.00  0.00     0.064 A 
ATOM     71  C   UNL A   1      42.162  28.102  26.755  1.00  0.00     0.173 A 
ATOM     72  C   UNL A   1      41.555  26.164  27.998  1.00  0.00     0.173 A 
ATOM     73  F   UNL A   1      42.363  29.423  26.624  1.00  0.00    -0.203 F 
ATOM     74  C   UNL A   1      42.350  27.307  25.620  1.00  0.00     0.198 A 
ATOM     75  C   UNL A   1      41.730  25.374  26.856  1.00  0.00     0.198 A 
ATOM     76  F   UNL A   1      41.274  25.468  29.105  1.00  0.00    -0.203 F 
ATOM     77  F   UNL A   1      42.762  27.871  24.477  1.00  0.00    -0.200 F 
ATOM     78  C   UNL A   1      42.155  25.942  25.675  1.00  0.00     0.200 A 
ATOM     79  F   UNL A   1      41.550  24.045  26.930  1.00  0.00    -0.200 F 
ATOM     80  F   UNL A   1      42.405  25.172  24.607  1.00  0.00    -0.200 F 
ENDBRANCH  56  70
BRANCH  57  81
ATOM     81  C   UNL A   1      41.177  33.599  36.659  1.00  0.00     0.064 A 
ATOM     82  C   UNL A   1      39.975  32.890  36.931  1.00  0.00     0.173 A 
ATOM     83  C   UNL A   1      41.537  34.615  37.546  1.00  0.00     0.173 A 
ATOM     84  F   UNL A   1      39.568  31.911  36.103  1.00  0.00    -0.203 F 
ATOM     85  C   UNL A   1      39.317  33.024  38.151  1.00  0.00     0.198 A 
ATOM     86  C   UNL A   1      40.825  34.797  38.736  1.00  0.00     0.198 A 
ATOM     87  F   UNL A   1      42.667  35.311  37.357  1.00  0.00    -0.203 F 
ATOM     88  F   UNL A   1      38.349  32.160  38.492  1.00  0.00    -0.200 F 
ATOM     89  C   UNL A   1      39.763  33.960  39.064  1.00  0.00     0.200 A 
ATOM     90  F   UNL A   1      41.291  35.653  39.658  1.00  0.00    -0.200 F 
ATOM     91  F   UNL A   1      39.241  33.985  40.299  1.00  0.00    -0.200 F 
ENDBRANCH  57  81
BRANCH  69  92
ATOM     92  C   UNL A   1      43.904  26.893  35.285  1.00  0.00     0.064 A 
ATOM     93  C   UNL A   1      45.239  26.669  35.643  1.00  0.00     0.173 A 
ATOM     94  C   UNL A   1      43.056  25.774  35.240  1.00  0.00     0.173 A 
ATOM     95  F   UNL A   1      46.141  27.661  35.609  1.00  0.00    -0.203 F 
ATOM     96  C   UNL A   1      45.688  25.396  35.986  1.00  0.00     0.198 A 
ATOM     97  C   UNL A   1      43.529  24.492  35.489  1.00  0.00     0.198 A 
ATOM     98  F   UNL A   1      41.761  25.900  34.914  1.00  0.00    -0.203 F 
ATOM     99  F   UNL A   1      46.956  25.224  36.383  1.00  0.00    -0.200 F 
ATOM    100  C   UNL A   1      44.840  24.305  35.884  1.00  0.00     0.200 A 
ATOM    101  F   UNL A   1      42.715  23.442  35.316  1.00  0.00    -0.200 F 
ATOM    102  F   UNL A   1      45.291  23.073  36.149  1.00  0.00    -0.200 F 
ENDBRANCH  69  92
ENDBRANCH  43  44
ENDBRANCH  36  38
ENDBRANCH  35  36
ENDBRANCH  34  35
ENDBRANCH  33  34
ENDBRANCH  32  33
ENDBRANCH  31  32
ENDBRANCH   1  31
TORSDOF 22
ENDMDL
