MODEL 1
REMARK VINA RESULT:     -11.7      0.000      0.000
REMARK SMILES O=C(OCCOCCOCCOC(=O)[C@@H]1C=C[C@H](NC(=O)N2CCO[C@@H]3CCC[C@@H]32)C1)c1ccc(-c2c3nc(c(-c4c(F)c(F)c(F)c(F)c4F)c4ccc([nH]4)c(-c4c(F)c(F)c(F)c(F)c4F)c4nc(c(-c5c(F)c(F)c(F)c(F)c5F)c5ccc2[nH]5)C=C4)C=C3)cc1
REMARK SMILES IDX 7 1 6 2 5 3 4 4 3 5 2 6 1 7 32 8 33 9 94 10 34 11 93 12
REMARK SMILES IDX 35 13 36 14 37 15 87 16 38 17 92 18 86 19 88 20 39 21 91 22
REMARK SMILES IDX 85 23 84 24 40 26 72 27 52 28 71 29 53 30 56 31 70 32 89 33
REMARK SMILES IDX 54 34 55 35 69 37 90 38 57 39 41 40 42 41 50 42 43 43 44 44
REMARK SMILES IDX 48 45 51 46 45 47 46 48 49 49 47 50 73 51 74 52 82 53 75 54
REMARK SMILES IDX 76 55 80 56 83 57 77 58 78 59 81 60 79 61 58 62 59 63 67 64
REMARK SMILES IDX 60 65 61 66 65 67 68 68 62 69 63 70 66 71 64 72 8 73 9 74
REMARK SMILES IDX 10 75 11 76 12 77 13 78 14 79 15 80 16 81 31 82 17 83 18 84
REMARK SMILES IDX 19 85 20 86 21 88 22 89 23 90 30 91 24 92 26 93 29 94 25 95
REMARK SMILES IDX 27 96 28 97
REMARK H PARENT 88 25 56 36 19 87
REMARK Flexibility Score: inf
ROOT
ATOM      1  C   UNL A   1      41.477  21.442  26.418  1.00  0.00     0.188 C 
ENDROOT
BRANCH   1   2
ATOM      2  O   UNL A   1      42.450  21.002  25.459  1.00  0.00    -0.376 OA
BRANCH   2   3
ATOM      3  C   UNL A   1      43.751  21.564  25.670  1.00  0.00     0.202 C 
BRANCH   3   4
ATOM      4  C   UNL A   1      44.350  22.345  24.491  1.00  0.00     0.261 C 
BRANCH   4   5
ATOM      5  O   UNL A   1      43.869  23.691  24.375  1.00  0.00    -0.460 OA
BRANCH   5   6
ATOM      6  C   UNL A   1      44.306  24.824  24.969  1.00  0.00     0.338 C 
ATOM      7  O   UNL A   1      45.444  25.205  24.694  1.00  0.00    -0.246 OA
BRANCH   6   8
ATOM      8  C   UNL A   1      43.527  25.650  25.955  1.00  0.00     0.060 A 
ATOM      9  C   UNL A   1      43.708  27.004  26.247  1.00  0.00     0.016 A 
ATOM     10  C   UNL A   1      42.488  24.976  26.632  1.00  0.00     0.016 A 
ATOM     11  C   UNL A   1      42.928  27.651  27.213  1.00  0.00     0.010 A 
ATOM     12  C   UNL A   1      41.702  25.612  27.598  1.00  0.00     0.010 A 
ATOM     13  C   UNL A   1      41.948  26.947  27.917  1.00  0.00    -0.014 A 
BRANCH  13  14
ATOM     14  C   UNL A   1      41.365  27.556  29.135  1.00  0.00     0.031 A 
ATOM     15  C   UNL A   1      42.198  27.475  30.378  1.00  0.00     0.074 A 
ATOM     16  C   UNL A   1      40.156  28.147  29.109  1.00  0.00     0.049 A 
ATOM     17  N   UNL A   1      42.057  28.096  31.515  1.00  0.00    -0.248 NA
ATOM     18  C   UNL A   1      43.343  26.545  30.339  1.00  0.00     0.031 C 
ATOM     19  C   UNL A   1      39.296  28.172  27.933  1.00  0.00     0.029 A 
ATOM     20  N   UNL A   1      39.458  28.880  30.044  1.00  0.00    -0.354 N 
ATOM     21  C   UNL A   1      43.030  27.561  32.352  1.00  0.00     0.074 A 
ATOM     22  C   UNL A   1      43.807  26.626  31.576  1.00  0.00     0.031 C 
ATOM     23  C   UNL A   1      38.250  28.982  28.169  1.00  0.00     0.029 A 
ATOM     24  C   UNL A   1      38.347  29.533  29.522  1.00  0.00     0.049 A 
ATOM     25  H   UNL A   1      39.722  28.937  30.991  1.00  0.00     0.167 HD
ATOM     26  C   UNL A   1      43.190  27.789  33.675  1.00  0.00     0.037 A 
ATOM     27  C   UNL A   1      37.616  30.548  30.058  1.00  0.00     0.037 A 
ATOM     28  C   UNL A   1      42.382  28.733  34.395  1.00  0.00     0.049 A 
ATOM     29  C   UNL A   1      38.029  30.964  31.468  1.00  0.00     0.074 A 
ATOM     30  C   UNL A   1      42.379  29.032  35.743  1.00  0.00     0.029 A 
ATOM     31  N   UNL A   1      41.418  29.536  33.798  1.00  0.00    -0.354 N 
ATOM     32  N   UNL A   1      39.105  30.642  32.155  1.00  0.00    -0.248 NA
ATOM     33  C   UNL A   1      37.150  31.913  32.164  1.00  0.00     0.031 C 
ATOM     34  C   UNL A   1      41.370  29.975  35.969  1.00  0.00     0.029 A 
ATOM     35  C   UNL A   1      40.785  30.304  34.755  1.00  0.00     0.049 A 
ATOM     36  H   UNL A   1      41.215  29.553  32.834  1.00  0.00     0.167 HD
ATOM     37  C   UNL A   1      39.036  31.375  33.334  1.00  0.00     0.074 A 
ATOM     38  C   UNL A   1      37.918  32.282  33.178  1.00  0.00     0.031 C 
ATOM     39  C   UNL A   1      39.735  31.253  34.493  1.00  0.00     0.037 A 
BRANCH  26  40
ATOM     40  C   UNL A   1      44.140  26.901  34.421  1.00  0.00     0.064 A 
ATOM     41  C   UNL A   1      43.767  25.660  34.957  1.00  0.00     0.173 A 
ATOM     42  C   UNL A   1      45.459  27.334  34.637  1.00  0.00     0.173 A 
ATOM     43  F   UNL A   1      42.510  25.214  34.814  1.00  0.00    -0.203 F 
ATOM     44  C   UNL A   1      44.669  24.901  35.701  1.00  0.00     0.198 A 
ATOM     45  C   UNL A   1      46.365  26.561  35.356  1.00  0.00     0.198 A 
ATOM     46  F   UNL A   1      45.866  28.522  34.163  1.00  0.00    -0.203 F 
ATOM     47  F   UNL A   1      44.274  23.747  36.256  1.00  0.00    -0.200 F 
ATOM     48  C   UNL A   1      45.968  25.348  35.895  1.00  0.00     0.200 A 
ATOM     49  F   UNL A   1      47.619  26.998  35.540  1.00  0.00    -0.200 F 
ATOM     50  F   UNL A   1      46.831  24.619  36.615  1.00  0.00    -0.200 F 
ENDBRANCH  26  40
BRANCH  27  51
ATOM     51  C   UNL A   1      36.625  31.382  29.251  1.00  0.00     0.064 A 
ATOM     52  C   UNL A   1      35.441  30.815  28.724  1.00  0.00     0.173 A 
ATOM     53  C   UNL A   1      36.748  32.764  29.032  1.00  0.00     0.173 A 
ATOM     54  F   UNL A   1      35.171  29.515  28.906  1.00  0.00    -0.203 F 
ATOM     55  C   UNL A   1      34.446  31.563  28.081  1.00  0.00     0.198 A 
ATOM     56  C   UNL A   1      35.710  33.533  28.483  1.00  0.00     0.198 A 
ATOM     57  F   UNL A   1      37.877  33.407  29.363  1.00  0.00    -0.203 F 
ATOM     58  F   UNL A   1      33.354  30.947  27.608  1.00  0.00    -0.200 F 
ATOM     59  C   UNL A   1      34.558  32.933  28.008  1.00  0.00     0.200 A 
ATOM     60  F   UNL A   1      35.824  34.868  28.439  1.00  0.00    -0.200 F 
ATOM     61  F   UNL A   1      33.560  33.669  27.499  1.00  0.00    -0.200 F 
ENDBRANCH  27  51
BRANCH  39  62
ATOM     62  C   UNL A   1      39.283  32.105  35.651  1.00  0.00     0.064 A 
ATOM     63  C   UNL A   1      39.779  33.409  35.817  1.00  0.00     0.173 A 
ATOM     64  C   UNL A   1      38.317  31.650  36.559  1.00  0.00     0.173 A 
ATOM     65  F   UNL A   1      40.691  33.902  34.965  1.00  0.00    -0.203 F 
ATOM     66  C   UNL A   1      39.382  34.197  36.890  1.00  0.00     0.198 A 
ATOM     67  C   UNL A   1      37.881  32.464  37.602  1.00  0.00     0.198 A 
ATOM     68  F   UNL A   1      37.782  30.427  36.426  1.00  0.00    -0.203 F 
ATOM     69  F   UNL A   1      39.937  35.403  37.072  1.00  0.00    -0.200 F 
ATOM     70  C   UNL A   1      38.427  33.727  37.777  1.00  0.00     0.200 A 
ATOM     71  F   UNL A   1      36.933  32.025  38.441  1.00  0.00    -0.200 F 
ATOM     72  F   UNL A   1      38.035  34.493  38.804  1.00  0.00    -0.200 F 
ENDBRANCH  39  62
ENDBRANCH  13  14
ENDBRANCH   6   8
ENDBRANCH   5   6
ENDBRANCH   4   5
ENDBRANCH   3   4
ENDBRANCH   2   3
ENDBRANCH   1   2
BRANCH   1  73
ATOM     73  C   UNL A   1      40.069  20.906  26.159  1.00  0.00     0.188 C 
BRANCH  73  74
ATOM     74  O   UNL A   1      39.003  21.845  26.053  1.00  0.00    -0.376 OA
BRANCH  74  75
ATOM     75  C   UNL A   1      37.933  21.559  25.164  1.00  0.00     0.202 C 
BRANCH  75  76
ATOM     76  C   UNL A   1      36.531  21.348  25.751  1.00  0.00     0.261 C 
BRANCH  76  77
ATOM     77  O   UNL A   1      35.705  22.516  25.723  1.00  0.00    -0.463 OA
BRANCH  77  78
ATOM     78  C   UNL A   1      34.447  22.314  25.250  1.00  0.00     0.312 C 
ATOM     79  O   UNL A   1      33.510  21.872  25.916  1.00  0.00    -0.252 OA
BRANCH  78  80
ATOM     80  C   UNL A   1      34.292  22.740  23.793  1.00  0.00     0.124 C 
ATOM     81  C   UNL A   1      34.843  24.126  23.713  1.00  0.00    -0.014 C 
ATOM     82  C   UNL A   1      32.868  22.949  23.254  1.00  0.00     0.048 C 
ATOM     83  C   UNL A   1      33.858  25.027  23.694  1.00  0.00    -0.006 C 
ATOM     84  C   UNL A   1      32.498  24.396  23.633  1.00  0.00     0.107 C 
BRANCH  84  85
ATOM     85  N   UNL A   1      31.822  24.419  24.917  1.00  0.00    -0.332 N 
ATOM     86  C   UNL A   1      31.302  25.377  25.706  1.00  0.00     0.318 C 
ATOM     87  H   UNL A   1      31.719  23.520  25.303  1.00  0.00     0.165 HD
ATOM     88  O   UNL A   1      30.989  25.044  26.852  1.00  0.00    -0.249 OA
BRANCH  86  89
ATOM     89  N   UNL A   1      31.212  26.670  25.289  1.00  0.00    -0.317 N 
ATOM     90  C   UNL A   1      30.272  26.919  24.197  1.00  0.00     0.150 C 
ATOM     91  C   UNL A   1      31.670  27.834  26.032  1.00  0.00     0.116 C 
ATOM     92  C   UNL A   1      30.538  28.193  23.403  1.00  0.00     0.182 C 
ATOM     93  C   UNL A   1      31.790  29.101  25.178  1.00  0.00     0.141 C 
ATOM     94  C   UNL A   1      33.086  27.711  26.583  1.00  0.00     0.028 C 
ATOM     95  O   UNL A   1      30.736  29.318  24.257  1.00  0.00    -0.374 OA
ATOM     96  C   UNL A   1      33.197  29.098  24.585  1.00  0.00     0.034 C 
ATOM     97  C   UNL A   1      34.031  28.215  25.505  1.00  0.00     0.005 C 
ENDBRANCH  86  89
ENDBRANCH  84  85
ENDBRANCH  78  80
ENDBRANCH  77  78
ENDBRANCH  76  77
ENDBRANCH  75  76
ENDBRANCH  74  75
ENDBRANCH  73  74
ENDBRANCH   1  73
TORSDOF 19
ENDMDL
MODEL 2
REMARK VINA RESULT:     -11.3      5.063     10.720
REMARK SMILES O=C(OCCOCCOCCOC(=O)[C@@H]1C=C[C@H](NC(=O)N2CCO[C@@H]3CCC[C@@H]32)C1)c1ccc(-c2c3nc(c(-c4c(F)c(F)c(F)c(F)c4F)c4ccc([nH]4)c(-c4c(F)c(F)c(F)c(F)c4F)c4nc(c(-c5c(F)c(F)c(F)c(F)c5F)c5ccc2[nH]5)C=C4)C=C3)cc1
REMARK SMILES IDX 7 1 6 2 5 3 4 4 3 5 2 6 1 7 32 8 33 9 94 10 34 11 93 12
REMARK SMILES IDX 35 13 36 14 37 15 87 16 38 17 92 18 86 19 88 20 39 21 91 22
REMARK SMILES IDX 85 23 84 24 40 26 72 27 52 28 71 29 53 30 56 31 70 32 89 33
REMARK SMILES IDX 54 34 55 35 69 37 90 38 57 39 41 40 42 41 50 42 43 43 44 44
REMARK SMILES IDX 48 45 51 46 45 47 46 48 49 49 47 50 73 51 74 52 82 53 75 54
REMARK SMILES IDX 76 55 80 56 83 57 77 58 78 59 81 60 79 61 58 62 59 63 67 64
REMARK SMILES IDX 60 65 61 66 65 67 68 68 62 69 63 70 66 71 64 72 8 73 9 74
REMARK SMILES IDX 10 75 11 76 12 77 13 78 14 79 15 80 16 81 31 82 17 83 18 84
REMARK SMILES IDX 19 85 20 86 21 88 22 89 23 90 30 91 24 92 26 93 29 94 25 95
REMARK SMILES IDX 27 96 28 97
REMARK H PARENT 88 25 56 36 19 87
REMARK Flexibility Score: inf
ROOT
ATOM      1  C   UNL A   1      33.629  34.885  29.949  1.00  0.00     0.188 C 
ENDROOT
BRANCH   1   2
ATOM      2  O   UNL A   1      33.672  34.216  31.219  1.00  0.00    -0.376 OA
BRANCH   2   3
ATOM      3  C   UNL A   1      33.989  35.088  32.310  1.00  0.00     0.202 C 
BRANCH   3   4
ATOM      4  C   UNL A   1      34.866  34.493  33.421  1.00  0.00     0.261 C 
BRANCH   4   5
ATOM      5  O   UNL A   1      35.311  33.155  33.161  1.00  0.00    -0.460 OA
BRANCH   5   6
ATOM      6  C   UNL A   1      36.414  32.505  33.598  1.00  0.00     0.338 C 
ATOM      7  O   UNL A   1      36.638  32.523  34.809  1.00  0.00    -0.246 OA
BRANCH   6   8
ATOM      8  C   UNL A   1      37.402  31.780  32.729  1.00  0.00     0.060 A 
ATOM      9  C   UNL A   1      38.499  31.024  33.151  1.00  0.00     0.016 A 
ATOM     10  C   UNL A   1      37.168  31.858  31.339  1.00  0.00     0.016 A 
ATOM     11  C   UNL A   1      39.363  30.418  32.231  1.00  0.00     0.010 A 
ATOM     12  C   UNL A   1      38.024  31.257  30.411  1.00  0.00     0.010 A 
ATOM     13  C   UNL A   1      39.148  30.564  30.858  1.00  0.00    -0.014 A 
BRANCH  13  14
ATOM     14  C   UNL A   1      40.233  30.193  29.921  1.00  0.00     0.031 A 
ATOM     15  C   UNL A   1      41.360  31.172  29.791  1.00  0.00     0.074 A 
ATOM     16  C   UNL A   1      40.195  29.035  29.234  1.00  0.00     0.049 A 
ATOM     17  N   UNL A   1      42.529  31.027  29.234  1.00  0.00    -0.248 NA
ATOM     18  C   UNL A   1      41.127  32.515  30.356  1.00  0.00     0.031 C 
ATOM     19  C   UNL A   1      39.077  28.103  29.285  1.00  0.00     0.029 A 
ATOM     20  N   UNL A   1      41.110  28.408  28.416  1.00  0.00    -0.354 N 
ATOM     21  C   UNL A   1      43.126  32.280  29.293  1.00  0.00     0.074 A 
ATOM     22  C   UNL A   1      42.232  33.156  30.010  1.00  0.00     0.031 C 
ATOM     23  C   UNL A   1      39.414  26.974  28.641  1.00  0.00     0.029 A 
ATOM     24  C   UNL A   1      40.774  27.094  28.111  1.00  0.00     0.049 A 
ATOM     25  H   UNL A   1      41.925  28.848  28.082  1.00  0.00     0.167 HD
ATOM     26  C   UNL A   1      44.289  32.663  28.720  1.00  0.00     0.037 A 
ATOM     27  C   UNL A   1      41.552  26.105  27.594  1.00  0.00     0.037 A 
ATOM     28  C   UNL A   1      45.138  31.743  28.016  1.00  0.00     0.049 A 
ATOM     29  C   UNL A   1      42.971  26.531  27.222  1.00  0.00     0.074 A 
ATOM     30  C   UNL A   1      46.311  31.986  27.330  1.00  0.00     0.029 A 
ATOM     31  N   UNL A   1      44.880  30.381  27.913  1.00  0.00    -0.354 N 
ATOM     32  N   UNL A   1      43.617  27.640  27.515  1.00  0.00    -0.248 NA
ATOM     33  C   UNL A   1      43.783  25.557  26.480  1.00  0.00     0.031 C 
ATOM     34  C   UNL A   1      46.733  30.777  26.763  1.00  0.00     0.029 A 
ATOM     35  C   UNL A   1      45.853  29.775  27.143  1.00  0.00     0.049 A 
ATOM     36  H   UNL A   1      44.117  29.918  28.327  1.00  0.00     0.167 HD
ATOM     37  C   UNL A   1      44.906  27.470  27.023  1.00  0.00     0.074 A 
ATOM     38  C   UNL A   1      44.990  26.092  26.585  1.00  0.00     0.031 C 
ATOM     39  C   UNL A   1      45.905  28.370  26.830  1.00  0.00     0.037 A 
BRANCH  26  40
ATOM     40  C   UNL A   1      44.601  34.130  28.698  1.00  0.00     0.064 A 
ATOM     41  C   UNL A   1      44.114  35.000  27.712  1.00  0.00     0.173 A 
ATOM     42  C   UNL A   1      45.452  34.665  29.679  1.00  0.00     0.173 A 
ATOM     43  F   UNL A   1      43.328  34.535  26.730  1.00  0.00    -0.203 F 
ATOM     44  C   UNL A   1      44.486  36.344  27.697  1.00  0.00     0.198 A 
ATOM     45  C   UNL A   1      45.799  36.013  29.677  1.00  0.00     0.198 A 
ATOM     46  F   UNL A   1      45.962  33.875  30.635  1.00  0.00    -0.203 F 
ATOM     47  F   UNL A   1      44.059  37.145  26.711  1.00  0.00    -0.200 F 
ATOM     48  C   UNL A   1      45.324  36.850  28.681  1.00  0.00     0.200 A 
ATOM     49  F   UNL A   1      46.607  36.497  30.631  1.00  0.00    -0.200 F 
ATOM     50  F   UNL A   1      45.685  38.140  28.660  1.00  0.00    -0.200 F 
ENDBRANCH  26  40
BRANCH  27  51
ATOM     51  C   UNL A   1      41.150  24.632  27.604  1.00  0.00     0.064 A 
ATOM     52  C   UNL A   1      40.066  24.159  26.828  1.00  0.00     0.173 A 
ATOM     53  C   UNL A   1      41.846  23.627  28.295  1.00  0.00     0.173 A 
ATOM     54  F   UNL A   1      39.348  25.005  26.077  1.00  0.00    -0.203 F 
ATOM     55  C   UNL A   1      39.735  22.803  26.711  1.00  0.00     0.198 A 
ATOM     56  C   UNL A   1      41.584  22.262  28.099  1.00  0.00     0.198 A 
ATOM     57  F   UNL A   1      42.812  23.946  29.168  1.00  0.00    -0.203 F 
ATOM     58  F   UNL A   1      38.689  22.437  25.956  1.00  0.00    -0.200 F 
ATOM     59  C   UNL A   1      40.529  21.849  27.306  1.00  0.00     0.200 A 
ATOM     60  F   UNL A   1      42.380  21.345  28.668  1.00  0.00    -0.200 F 
ATOM     61  F   UNL A   1      40.289  20.546  27.107  1.00  0.00    -0.200 F 
ENDBRANCH  27  51
BRANCH  39  62
ATOM     62  C   UNL A   1      47.131  27.879  26.106  1.00  0.00     0.064 A 
ATOM     63  C   UNL A   1      48.267  27.464  26.820  1.00  0.00     0.173 A 
ATOM     64  C   UNL A   1      47.157  27.764  24.709  1.00  0.00     0.173 A 
ATOM     65  F   UNL A   1      48.288  27.535  28.161  1.00  0.00    -0.203 F 
ATOM     66  C   UNL A   1      49.409  27.025  26.163  1.00  0.00     0.198 A 
ATOM     67  C   UNL A   1      48.285  27.272  24.056  1.00  0.00     0.198 A 
ATOM     68  F   UNL A   1      46.087  28.111  23.978  1.00  0.00    -0.203 F 
ATOM     69  F   UNL A   1      50.507  26.719  26.867  1.00  0.00    -0.200 F 
ATOM     70  C   UNL A   1      49.414  26.922  24.781  1.00  0.00     0.200 A 
ATOM     71  F   UNL A   1      48.280  27.139  22.723  1.00  0.00    -0.200 F 
ATOM     72  F   UNL A   1      50.512  26.485  24.148  1.00  0.00    -0.200 F 
ENDBRANCH  39  62
ENDBRANCH  13  14
ENDBRANCH   6   8
ENDBRANCH   5   6
ENDBRANCH   4   5
ENDBRANCH   3   4
ENDBRANCH   2   3
ENDBRANCH   1   2
BRANCH   1  73
ATOM     73  C   UNL A   1      33.300  33.961  28.776  1.00  0.00     0.188 C 
BRANCH  73  74
ATOM     74  O   UNL A   1      34.376  33.275  28.141  1.00  0.00    -0.376 OA
BRANCH  74  75
ATOM     75  C   UNL A   1      34.570  31.899  28.435  1.00  0.00     0.202 C 
BRANCH  75  76
ATOM     76  C   UNL A   1      34.144  30.860  27.389  1.00  0.00     0.261 C 
BRANCH  76  77
ATOM     77  O   UNL A   1      32.787  30.426  27.519  1.00  0.00    -0.463 OA
BRANCH  77  78
ATOM     78  C   UNL A   1      32.533  29.189  27.014  1.00  0.00     0.312 C 
ATOM     79  O   UNL A   1      31.877  28.319  27.587  1.00  0.00    -0.252 OA
BRANCH  78  80
ATOM     80  C   UNL A   1      33.114  28.995  25.617  1.00  0.00     0.124 C 
ATOM     81  C   UNL A   1      31.950  29.038  24.681  1.00  0.00    -0.014 C 
ATOM     82  C   UNL A   1      33.726  27.627  25.277  1.00  0.00     0.048 C 
ATOM     83  C   UNL A   1      31.601  27.805  24.304  1.00  0.00    -0.006 C 
ATOM     84  C   UNL A   1      32.541  26.755  24.819  1.00  0.00     0.107 C 
BRANCH  84  85
ATOM     85  N   UNL A   1      31.989  26.027  25.946  1.00  0.00    -0.332 N 
ATOM     86  C   UNL A   1      32.027  24.752  26.372  1.00  0.00     0.318 C 
ATOM     87  H   UNL A   1      31.461  26.606  26.542  1.00  0.00     0.165 HD
ATOM     88  O   UNL A   1      31.247  24.444  27.277  1.00  0.00    -0.249 OA
BRANCH  86  89
ATOM     89  N   UNL A   1      32.823  23.825  25.770  1.00  0.00    -0.317 N 
ATOM     90  C   UNL A   1      34.118  23.592  26.408  1.00  0.00     0.150 C 
ATOM     91  C   UNL A   1      32.383  22.828  24.806  1.00  0.00     0.116 C 
ATOM     92  C   UNL A   1      35.180  22.986  25.497  1.00  0.00     0.182 C 
ATOM     93  C   UNL A   1      33.530  22.183  24.021  1.00  0.00     0.141 C 
ATOM     94  C   UNL A   1      31.525  23.383  23.675  1.00  0.00     0.028 C 
ATOM     95  O   UNL A   1      34.682  21.859  24.780  1.00  0.00    -0.374 OA
ATOM     96  C   UNL A   1      33.772  23.060  22.795  1.00  0.00     0.034 C 
ATOM     97  C   UNL A   1      32.470  23.818  22.568  1.00  0.00     0.005 C 
ENDBRANCH  86  89
ENDBRANCH  84  85
ENDBRANCH  78  80
ENDBRANCH  77  78
ENDBRANCH  76  77
ENDBRANCH  75  76
ENDBRANCH  74  75
ENDBRANCH  73  74
ENDBRANCH   1  73
TORSDOF 19
ENDMDL
MODEL 3
REMARK VINA RESULT:     -11.2      4.948     10.602
REMARK SMILES O=C(OCCOCCOCCOC(=O)[C@@H]1C=C[C@H](NC(=O)N2CCO[C@@H]3CCC[C@@H]32)C1)c1ccc(-c2c3nc(c(-c4c(F)c(F)c(F)c(F)c4F)c4ccc([nH]4)c(-c4c(F)c(F)c(F)c(F)c4F)c4nc(c(-c5c(F)c(F)c(F)c(F)c5F)c5ccc2[nH]5)C=C4)C=C3)cc1
REMARK SMILES IDX 7 1 6 2 5 3 4 4 3 5 2 6 1 7 32 8 33 9 94 10 34 11 93 12
REMARK SMILES IDX 35 13 36 14 37 15 87 16 38 17 92 18 86 19 88 20 39 21 91 22
REMARK SMILES IDX 85 23 84 24 40 26 72 27 52 28 71 29 53 30 56 31 70 32 89 33
REMARK SMILES IDX 54 34 55 35 69 37 90 38 57 39 41 40 42 41 50 42 43 43 44 44
REMARK SMILES IDX 48 45 51 46 45 47 46 48 49 49 47 50 73 51 74 52 82 53 75 54
REMARK SMILES IDX 76 55 80 56 83 57 77 58 78 59 81 60 79 61 58 62 59 63 67 64
REMARK SMILES IDX 60 65 61 66 65 67 68 68 62 69 63 70 66 71 64 72 8 73 9 74
REMARK SMILES IDX 10 75 11 76 12 77 13 78 14 79 15 80 16 81 31 82 17 83 18 84
REMARK SMILES IDX 19 85 20 86 21 88 22 89 23 90 30 91 24 92 26 93 29 94 25 95
REMARK SMILES IDX 27 96 28 97
REMARK H PARENT 88 25 56 36 19 87
REMARK Flexibility Score: inf
ROOT
ATOM      1  C   UNL A   1      34.052  32.937  28.905  1.00  0.00     0.188 C 
ENDROOT
BRANCH   1   2
ATOM      2  O   UNL A   1      34.857  33.760  29.763  1.00  0.00    -0.376 OA
BRANCH   2   3
ATOM      3  C   UNL A   1      34.122  34.335  30.851  1.00  0.00     0.202 C 
BRANCH   3   4
ATOM      4  C   UNL A   1      34.765  34.216  32.240  1.00  0.00     0.261 C 
BRANCH   4   5
ATOM      5  O   UNL A   1      35.009  32.866  32.658  1.00  0.00    -0.460 OA
BRANCH   5   6
ATOM      6  C   UNL A   1      36.129  32.304  33.167  1.00  0.00     0.338 C 
ATOM      7  O   UNL A   1      36.312  32.408  34.381  1.00  0.00    -0.246 OA
BRANCH   6   8
ATOM      8  C   UNL A   1      37.180  31.579  32.375  1.00  0.00     0.060 A 
ATOM      9  C   UNL A   1      38.368  31.026  32.860  1.00  0.00     0.016 A 
ATOM     10  C   UNL A   1      36.912  31.425  30.997  1.00  0.00     0.016 A 
ATOM     11  C   UNL A   1      39.281  30.396  32.005  1.00  0.00     0.010 A 
ATOM     12  C   UNL A   1      37.815  30.799  30.135  1.00  0.00     0.010 A 
ATOM     13  C   UNL A   1      39.024  30.314  30.634  1.00  0.00    -0.014 A 
BRANCH  13  14
ATOM     14  C   UNL A   1      40.127  29.938  29.721  1.00  0.00     0.031 A 
ATOM     15  C   UNL A   1      41.266  30.906  29.625  1.00  0.00     0.074 A 
ATOM     16  C   UNL A   1      40.095  28.785  29.025  1.00  0.00     0.049 A 
ATOM     17  N   UNL A   1      42.446  30.753  29.095  1.00  0.00    -0.248 NA
ATOM     18  C   UNL A   1      41.032  32.248  30.193  1.00  0.00     0.031 C 
ATOM     19  C   UNL A   1      38.966  27.864  29.044  1.00  0.00     0.029 A 
ATOM     20  N   UNL A   1      41.022  28.154  28.226  1.00  0.00    -0.354 N 
ATOM     21  C   UNL A   1      43.054  32.000  29.176  1.00  0.00     0.074 A 
ATOM     22  C   UNL A   1      42.152  32.880  29.878  1.00  0.00     0.031 C 
ATOM     23  C   UNL A   1      39.308  26.735  28.400  1.00  0.00     0.029 A 
ATOM     24  C   UNL A   1      40.681  26.846  27.904  1.00  0.00     0.049 A 
ATOM     25  H   UNL A   1      41.850  28.588  27.914  1.00  0.00     0.167 HD
ATOM     26  C   UNL A   1      44.234  32.375  28.634  1.00  0.00     0.037 A 
ATOM     27  C   UNL A   1      41.461  25.852  27.399  1.00  0.00     0.037 A 
ATOM     28  C   UNL A   1      45.091  31.452  27.944  1.00  0.00     0.049 A 
ATOM     29  C   UNL A   1      42.893  26.267  27.063  1.00  0.00     0.074 A 
ATOM     30  C   UNL A   1      46.282  31.688  27.289  1.00  0.00     0.029 A 
ATOM     31  N   UNL A   1      44.823  30.093  27.826  1.00  0.00    -0.354 N 
ATOM     32  N   UNL A   1      43.543  27.367  27.380  1.00  0.00    -0.248 NA
ATOM     33  C   UNL A   1      43.713  25.290  26.334  1.00  0.00     0.031 C 
ATOM     34  C   UNL A   1      46.706  30.479  26.724  1.00  0.00     0.029 A 
ATOM     35  C   UNL A   1      45.807  29.483  27.075  1.00  0.00     0.049 A 
ATOM     36  H   UNL A   1      44.045  29.635  28.218  1.00  0.00     0.167 HD
ATOM     37  C   UNL A   1      44.841  27.188  26.917  1.00  0.00     0.074 A 
ATOM     38  C   UNL A   1      44.922  25.812  26.472  1.00  0.00     0.031 C 
ATOM     39  C   UNL A   1      45.853  28.080  26.754  1.00  0.00     0.037 A 
BRANCH  26  40
ATOM     40  C   UNL A   1      44.561  33.839  28.629  1.00  0.00     0.064 A 
ATOM     41  C   UNL A   1      45.267  34.469  29.664  1.00  0.00     0.173 A 
ATOM     42  C   UNL A   1      44.110  34.640  27.566  1.00  0.00     0.173 A 
ATOM     43  F   UNL A   1      45.689  33.760  30.722  1.00  0.00    -0.203 F 
ATOM     44  C   UNL A   1      45.488  35.845  29.646  1.00  0.00     0.198 A 
ATOM     45  C   UNL A   1      44.356  36.009  27.538  1.00  0.00     0.198 A 
ATOM     46  F   UNL A   1      43.413  34.094  26.559  1.00  0.00    -0.203 F 
ATOM     47  F   UNL A   1      46.112  36.436  30.675  1.00  0.00    -0.200 F 
ATOM     48  C   UNL A   1      45.038  36.613  28.582  1.00  0.00     0.200 A 
ATOM     49  F   UNL A   1      43.920  36.745  26.506  1.00  0.00    -0.200 F 
ATOM     50  F   UNL A   1      45.246  37.936  28.570  1.00  0.00    -0.200 F 
ENDBRANCH  26  40
BRANCH  27  51
ATOM     51  C   UNL A   1      41.046  24.384  27.389  1.00  0.00     0.064 A 
ATOM     52  C   UNL A   1      39.950  23.933  26.616  1.00  0.00     0.173 A 
ATOM     53  C   UNL A   1      41.737  23.361  28.058  1.00  0.00     0.173 A 
ATOM     54  F   UNL A   1      39.234  24.798  25.884  1.00  0.00    -0.203 F 
ATOM     55  C   UNL A   1      39.605  22.582  26.480  1.00  0.00     0.198 A 
ATOM     56  C   UNL A   1      41.460  22.002  27.843  1.00  0.00     0.198 A 
ATOM     57  F   UNL A   1      42.714  23.657  28.927  1.00  0.00    -0.203 F 
ATOM     58  F   UNL A   1      38.549  22.239  25.729  1.00  0.00    -0.200 F 
ATOM     59  C   UNL A   1      40.394  21.612  27.052  1.00  0.00     0.200 A 
ATOM     60  F   UNL A   1      42.252  21.068  28.390  1.00  0.00    -0.200 F 
ATOM     61  F   UNL A   1      40.140  20.314  26.835  1.00  0.00    -0.200 F 
ENDBRANCH  27  51
BRANCH  39  62
ATOM     62  C   UNL A   1      47.091  27.581  26.056  1.00  0.00     0.064 A 
ATOM     63  C   UNL A   1      47.191  27.625  24.655  1.00  0.00     0.173 A 
ATOM     64  C   UNL A   1      48.199  27.116  26.777  1.00  0.00     0.173 A 
ATOM     65  F   UNL A   1      46.166  28.080  23.916  1.00  0.00    -0.203 F 
ATOM     66  C   UNL A   1      48.321  27.153  23.999  1.00  0.00     0.198 A 
ATOM     67  C   UNL A   1      49.352  26.694  26.118  1.00  0.00     0.198 A 
ATOM     68  F   UNL A   1      48.173  27.087  28.118  1.00  0.00    -0.203 F 
ATOM     69  F   UNL A   1      48.352  27.127  22.660  1.00  0.00    -0.200 F 
ATOM     70  C   UNL A   1      49.404  26.695  24.732  1.00  0.00     0.200 A 
ATOM     71  F   UNL A   1      50.413  26.283  26.825  1.00  0.00    -0.200 F 
ATOM     72  F   UNL A   1      50.499  26.252  24.100  1.00  0.00    -0.200 F 
ENDBRANCH  39  62
ENDBRANCH  13  14
ENDBRANCH   6   8
ENDBRANCH   5   6
ENDBRANCH   4   5
ENDBRANCH   3   4
ENDBRANCH   2   3
ENDBRANCH   1   2
BRANCH   1  73
ATOM     73  C   UNL A   1      34.864  32.060  27.953  1.00  0.00     0.188 C 
BRANCH  73  74
ATOM     74  O   UNL A   1      34.320  30.798  27.575  1.00  0.00    -0.376 OA
BRANCH  74  75
ATOM     75  C   UNL A   1      32.961  30.740  27.165  1.00  0.00     0.202 C 
BRANCH  75  76
ATOM     76  C   UNL A   1      32.630  30.079  25.821  1.00  0.00     0.261 C 
BRANCH  76  77
ATOM     77  O   UNL A   1      32.796  28.658  25.814  1.00  0.00    -0.463 OA
BRANCH  77  78
ATOM     78  C   UNL A   1      32.066  28.003  24.872  1.00  0.00     0.312 C 
ATOM     79  O   UNL A   1      32.234  28.107  23.657  1.00  0.00    -0.252 OA
BRANCH  78  80
ATOM     80  C   UNL A   1      31.024  27.069  25.482  1.00  0.00     0.124 C 
ATOM     81  C   UNL A   1      31.739  26.297  26.542  1.00  0.00    -0.014 C 
ATOM     82  C   UNL A   1      30.473  25.936  24.601  1.00  0.00     0.048 C 
ATOM     83  C   UNL A   1      32.044  25.070  26.109  1.00  0.00    -0.006 C 
ATOM     84  C   UNL A   1      31.481  24.780  24.750  1.00  0.00     0.107 C 
BRANCH  84  85
ATOM     85  N   UNL A   1      32.488  24.857  23.708  1.00  0.00    -0.332 N 
ATOM     86  C   UNL A   1      33.499  24.071  23.296  1.00  0.00     0.318 C 
ATOM     87  H   UNL A   1      32.413  25.681  23.176  1.00  0.00     0.165 HD
ATOM     88  O   UNL A   1      34.299  24.566  22.499  1.00  0.00    -0.249 OA
BRANCH  86  89
ATOM     89  N   UNL A   1      33.680  22.820  23.805  1.00  0.00    -0.317 N 
ATOM     90  C   UNL A   1      32.773  21.792  23.296  1.00  0.00     0.150 C 
ATOM     91  C   UNL A   1      34.868  22.355  24.504  1.00  0.00     0.116 C 
ATOM     92  C   UNL A   1      32.619  20.573  24.199  1.00  0.00     0.182 C 
ATOM     93  C   UNL A   1      34.650  21.054  25.287  1.00  0.00     0.141 C 
ATOM     94  C   UNL A   1      35.355  23.287  25.607  1.00  0.00     0.028 C 
ATOM     95  O   UNL A   1      33.881  20.066  24.626  1.00  0.00    -0.374 OA
ATOM     96  C   UNL A   1      34.159  21.455  26.676  1.00  0.00     0.034 C 
ATOM     97  C   UNL A   1      34.632  22.889  26.883  1.00  0.00     0.005 C 
ENDBRANCH  86  89
ENDBRANCH  84  85
ENDBRANCH  78  80
ENDBRANCH  77  78
ENDBRANCH  76  77
ENDBRANCH  75  76
ENDBRANCH  74  75
ENDBRANCH  73  74
ENDBRANCH   1  73
TORSDOF 19
ENDMDL
