MODEL 1
REMARK VINA RESULT:     -11.1      0.000      0.000
REMARK SMILES O=C(COc1ccccc1C[NH+]1CCC2(CC[NH2+]CC2)CC1)OCCOCCOCCOC(=O)c1ccc(-c2c3nc(c(-c4c(F)c(F)c(F)c(F)c4F)c4ccc([nH]4)c(-c4c(F)c(F)c(F)c(F)c4F)c4nc(c(-c5c(F)c(F)c(F)c(F)c5F)c5ccc2[nH]5)C=C4)C=C3)cc1
REMARK SMILES IDX 27 1 26 2 25 3 24 4 23 5 2 6 1 7 3 8 4 9 5 10 6 11 10 12
REMARK SMILES IDX 7 13 9 14 8 15 11 16 12 17 13 18 22 19 14 21 21 22 15 23
REMARK SMILES IDX 16 24 20 25 17 26 19 27 18 28 28 31 29 32 30 33 31 34 32 35
REMARK SMILES IDX 33 36 34 37 35 38 36 39 97 40 37 41 96 42 38 43 39 44 40 45
REMARK SMILES IDX 90 46 41 47 95 48 89 49 91 50 42 51 94 52 88 53 87 54 43 56
REMARK SMILES IDX 75 57 55 58 74 59 56 60 59 61 73 62 92 63 57 64 58 65 72 67
REMARK SMILES IDX 93 68 60 69 44 70 45 71 53 72 46 73 47 74 51 75 54 76 48 77
REMARK SMILES IDX 49 78 52 79 50 80 76 81 77 82 85 83 78 84 79 85 83 86 86 87
REMARK SMILES IDX 80 88 81 89 84 90 82 91 61 92 62 93 70 94 63 95 64 96 68 97
REMARK SMILES IDX 71 98 65 99 66 100 69 101 67 102
REMARK H PARENT 12 20 18 29 18 30 91 55 59 66
REMARK Flexibility Score: inf
ROOT
ATOM      1  C   UNL A   1      29.087  31.600  24.193  1.00  0.00     0.188 C 
ENDROOT
BRANCH   1   2
ATOM      2  O   UNL A   1      28.586  32.476  23.194  1.00  0.00    -0.376 OA
BRANCH   2   3
ATOM      3  C   UNL A   1      28.771  32.074  21.853  1.00  0.00     0.202 C 
BRANCH   3   4
ATOM      4  C   UNL A   1      28.043  30.791  21.492  1.00  0.00     0.261 C 
BRANCH   4   5
ATOM      5  O   UNL A   1      28.858  29.593  21.523  1.00  0.00    -0.461 OA
BRANCH   5   6
ATOM      6  C   UNL A   1      29.025  28.707  22.535  1.00  0.00     0.344 C 
ATOM      7  O   UNL A   1      28.052  28.266  23.146  1.00  0.00    -0.248 OA
BRANCH   6   8
ATOM      8  C   UNL A   1      30.422  28.287  22.881  1.00  0.00     0.351 C 
BRANCH   8   9
ATOM      9  O   UNL A   1      30.391  27.080  23.632  1.00  0.00    -0.481 OA
BRANCH   9  10
ATOM     10  C   UNL A   1      31.566  26.923  24.311  1.00  0.00     0.129 A 
ATOM     11  C   UNL A   1      31.663  27.696  25.476  1.00  0.00     0.047 A 
ATOM     12  C   UNL A   1      32.605  26.071  23.885  1.00  0.00     0.048 A 
ATOM     13  C   UNL A   1      32.775  27.577  26.293  1.00  0.00     0.004 A 
ATOM     14  C   UNL A   1      33.679  25.921  24.775  1.00  0.00     0.013 A 
ATOM     15  C   UNL A   1      33.773  26.671  25.954  1.00  0.00     0.001 A 
BRANCH  12  16
ATOM     16  C   UNL A   1      32.629  25.266  22.592  1.00  0.00     0.302 C 
BRANCH  16  17
ATOM     17  N   UNL A   1      32.082  23.908  22.507  1.00  0.00    -0.331 N 
ATOM     18  C   UNL A   1      33.024  22.804  22.499  1.00  0.00     0.263 C 
ATOM     19  C   UNL A   1      30.914  23.597  23.301  1.00  0.00     0.263 C 
ATOM     20  H   UNL A   1      31.740  23.986  21.549  1.00  0.00     0.348 HD
ATOM     21  C   UNL A   1      33.576  22.503  23.882  1.00  0.00     0.069 C 
ATOM     22  C   UNL A   1      31.245  23.225  24.741  1.00  0.00     0.069 C 
ATOM     23  C   UNL A   1      32.465  22.279  24.943  1.00  0.00    -0.008 C 
ATOM     24  C   UNL A   1      31.991  20.805  24.899  1.00  0.00     0.069 C 
ATOM     25  C   UNL A   1      33.039  22.570  26.353  1.00  0.00     0.069 C 
ATOM     26  C   UNL A   1      33.037  19.826  25.444  1.00  0.00     0.261 C 
ATOM     27  C   UNL A   1      34.062  21.538  26.804  1.00  0.00     0.261 C 
ATOM     28  N   UNL A   1      33.490  20.192  26.788  1.00  0.00    -0.346 N 
ATOM     29  H   UNL A   1      34.198  19.524  27.094  1.00  0.00     0.346 HD
ATOM     30  H   UNL A   1      32.685  20.175  27.416  1.00  0.00     0.346 HD
ENDBRANCH  16  17
ENDBRANCH  12  16
ENDBRANCH   9  10
ENDBRANCH   8   9
ENDBRANCH   6   8
ENDBRANCH   5   6
ENDBRANCH   4   5
ENDBRANCH   3   4
ENDBRANCH   2   3
ENDBRANCH   1   2
BRANCH   1  31
ATOM     31  C   UNL A   1      30.292  32.158  24.998  1.00  0.00     0.188 C 
BRANCH  31  32
ATOM     32  O   UNL A   1      31.188  31.248  25.624  1.00  0.00    -0.376 OA
BRANCH  32  33
ATOM     33  C   UNL A   1      31.730  31.597  26.885  1.00  0.00     0.202 C 
BRANCH  33  34
ATOM     34  C   UNL A   1      33.055  30.935  27.306  1.00  0.00     0.261 C 
BRANCH  34  35
ATOM     35  O   UNL A   1      34.153  31.844  27.551  1.00  0.00    -0.460 OA
BRANCH  35  36
ATOM     36  C   UNL A   1      34.760  31.753  28.769  1.00  0.00     0.338 C 
ATOM     37  O   UNL A   1      34.377  32.249  29.803  1.00  0.00    -0.246 OA
BRANCH  36  38
ATOM     38  C   UNL A   1      35.882  30.761  28.734  1.00  0.00     0.060 A 
ATOM     39  C   UNL A   1      36.165  30.049  29.914  1.00  0.00     0.016 A 
ATOM     40  C   UNL A   1      36.675  30.550  27.603  1.00  0.00     0.016 A 
ATOM     41  C   UNL A   1      37.283  29.212  29.999  1.00  0.00     0.010 A 
ATOM     42  C   UNL A   1      37.815  29.730  27.696  1.00  0.00     0.010 A 
ATOM     43  C   UNL A   1      38.165  29.116  28.918  1.00  0.00    -0.014 A 
BRANCH  43  44
ATOM     44  C   UNL A   1      39.578  28.711  29.187  1.00  0.00     0.031 A 
ATOM     45  C   UNL A   1      40.395  29.617  30.080  1.00  0.00     0.074 A 
ATOM     46  C   UNL A   1      40.126  27.565  28.739  1.00  0.00     0.049 A 
ATOM     47  N   UNL A   1      41.639  29.510  30.479  1.00  0.00    -0.248 NA
ATOM     48  C   UNL A   1      39.707  30.814  30.592  1.00  0.00     0.031 C 
ATOM     49  C   UNL A   1      39.453  26.560  27.924  1.00  0.00     0.029 A 
ATOM     50  N   UNL A   1      41.394  27.058  28.920  1.00  0.00    -0.354 N 
ATOM     51  C   UNL A   1      41.878  30.628  31.271  1.00  0.00     0.074 A 
ATOM     52  C   UNL A   1      40.669  31.420  31.266  1.00  0.00     0.031 C 
ATOM     53  C   UNL A   1      40.316  25.558  27.668  1.00  0.00     0.029 A 
ATOM     54  C   UNL A   1      41.610  25.859  28.284  1.00  0.00     0.049 A 
ATOM     55  H   UNL A   1      42.083  27.512  29.457  1.00  0.00     0.167 HD
ATOM     56  C   UNL A   1      42.995  30.967  31.958  1.00  0.00     0.037 A 
ATOM     57  C   UNL A   1      42.724  25.101  28.203  1.00  0.00     0.037 A 
ATOM     58  C   UNL A   1      44.201  30.185  31.984  1.00  0.00     0.049 A 
ATOM     59  C   UNL A   1      43.984  25.535  28.919  1.00  0.00     0.074 A 
ATOM     60  C   UNL A   1      45.378  30.440  32.665  1.00  0.00     0.029 A 
ATOM     61  N   UNL A   1      44.386  28.999  31.293  1.00  0.00    -0.354 N 
ATOM     62  N   UNL A   1      44.191  26.578  29.684  1.00  0.00    -0.248 NA
ATOM     63  C   UNL A   1      45.165  24.670  28.765  1.00  0.00     0.031 C 
ATOM     64  C   UNL A   1      46.297  29.438  32.339  1.00  0.00     0.029 A 
ATOM     65  C   UNL A   1      45.669  28.522  31.511  1.00  0.00     0.049 A 
ATOM     66  H   UNL A   1      43.707  28.560  30.731  1.00  0.00     0.167 HD
ATOM     67  C   UNL A   1      45.502  26.470  30.138  1.00  0.00     0.074 A 
ATOM     68  C   UNL A   1      46.041  25.255  29.568  1.00  0.00     0.031 C 
ATOM     69  C   UNL A   1      46.193  27.300  30.959  1.00  0.00     0.037 A 
BRANCH  56  70
ATOM     70  C   UNL A   1      42.973  32.265  32.712  1.00  0.00     0.064 A 
ATOM     71  C   UNL A   1      42.608  32.334  34.066  1.00  0.00     0.173 A 
ATOM     72  C   UNL A   1      43.334  33.459  32.070  1.00  0.00     0.173 A 
ATOM     73  F   UNL A   1      42.236  31.224  34.721  1.00  0.00    -0.203 F 
ATOM     74  C   UNL A   1      42.575  33.553  34.738  1.00  0.00     0.198 A 
ATOM     75  C   UNL A   1      43.335  34.671  32.755  1.00  0.00     0.198 A 
ATOM     76  F   UNL A   1      43.692  33.450  30.777  1.00  0.00    -0.203 F 
ATOM     77  F   UNL A   1      42.167  33.602  36.013  1.00  0.00    -0.200 F 
ATOM     78  C   UNL A   1      42.945  34.718  34.085  1.00  0.00     0.200 A 
ATOM     79  F   UNL A   1      43.706  35.794  32.125  1.00  0.00    -0.200 F 
ATOM     80  F   UNL A   1      42.920  35.890  34.735  1.00  0.00    -0.200 F 
ENDBRANCH  56  70
BRANCH  57  81
ATOM     81  C   UNL A   1      42.719  23.837  27.412  1.00  0.00     0.064 A 
ATOM     82  C   UNL A   1      42.384  22.610  28.007  1.00  0.00     0.173 A 
ATOM     83  C   UNL A   1      43.104  23.820  26.063  1.00  0.00     0.173 A 
ATOM     84  F   UNL A   1      42.044  22.565  29.303  1.00  0.00    -0.203 F 
ATOM     85  C   UNL A   1      42.459  21.416  27.291  1.00  0.00     0.198 A 
ATOM     86  C   UNL A   1      43.148  22.629  25.340  1.00  0.00     0.198 A 
ATOM     87  F   UNL A   1      43.446  24.961  25.448  1.00  0.00    -0.203 F 
ATOM     88  F   UNL A   1      42.192  20.254  27.901  1.00  0.00    -0.200 F 
ATOM     89  C   UNL A   1      42.834  21.427  25.957  1.00  0.00     0.200 A 
ATOM     90  F   UNL A   1      43.505  22.646  24.049  1.00  0.00    -0.200 F 
ATOM     91  F   UNL A   1      42.907  20.280  25.268  1.00  0.00    -0.200 F 
ENDBRANCH  57  81
BRANCH  69  92
ATOM     92  C   UNL A   1      47.589  26.896  31.351  1.00  0.00     0.064 A 
ATOM     93  C   UNL A   1      48.723  27.366  30.673  1.00  0.00     0.173 A 
ATOM     94  C   UNL A   1      47.793  26.046  32.452  1.00  0.00     0.173 A 
ATOM     95  F   UNL A   1      48.587  28.173  29.610  1.00  0.00    -0.203 F 
ATOM     96  C   UNL A   1      50.003  26.971  31.056  1.00  0.00     0.198 A 
ATOM     97  C   UNL A   1      49.075  25.684  32.854  1.00  0.00     0.198 A 
ATOM     98  F   UNL A   1      46.746  25.577  33.148  1.00  0.00    -0.203 F 
ATOM     99  F   UNL A   1      51.067  27.386  30.354  1.00  0.00    -0.200 F 
ATOM    100  C   UNL A   1      50.179  26.136  32.149  1.00  0.00     0.200 A 
ATOM    101  F   UNL A   1      49.242  24.892  33.924  1.00  0.00    -0.200 F 
ATOM    102  F   UNL A   1      51.412  25.762  32.518  1.00  0.00    -0.200 F 
ENDBRANCH  69  92
ENDBRANCH  43  44
ENDBRANCH  36  38
ENDBRANCH  35  36
ENDBRANCH  34  35
ENDBRANCH  33  34
ENDBRANCH  32  33
ENDBRANCH  31  32
ENDBRANCH   1  31
TORSDOF 21
ENDMDL
MODEL 2
REMARK VINA RESULT:     -11.0      4.722      9.655
REMARK SMILES O=C(COc1ccccc1C[NH+]1CCC2(CC[NH2+]CC2)CC1)OCCOCCOCCOC(=O)c1ccc(-c2c3nc(c(-c4c(F)c(F)c(F)c(F)c4F)c4ccc([nH]4)c(-c4c(F)c(F)c(F)c(F)c4F)c4nc(c(-c5c(F)c(F)c(F)c(F)c5F)c5ccc2[nH]5)C=C4)C=C3)cc1
REMARK SMILES IDX 27 1 26 2 25 3 24 4 23 5 2 6 1 7 3 8 4 9 5 10 6 11 10 12
REMARK SMILES IDX 7 13 9 14 8 15 11 16 12 17 13 18 22 19 14 21 21 22 15 23
REMARK SMILES IDX 16 24 20 25 17 26 19 27 18 28 28 31 29 32 30 33 31 34 32 35
REMARK SMILES IDX 33 36 34 37 35 38 36 39 97 40 37 41 96 42 38 43 39 44 40 45
REMARK SMILES IDX 90 46 41 47 95 48 89 49 91 50 42 51 94 52 88 53 87 54 43 56
REMARK SMILES IDX 75 57 55 58 74 59 56 60 59 61 73 62 92 63 57 64 58 65 72 67
REMARK SMILES IDX 93 68 60 69 44 70 45 71 53 72 46 73 47 74 51 75 54 76 48 77
REMARK SMILES IDX 49 78 52 79 50 80 76 81 77 82 85 83 78 84 79 85 83 86 86 87
REMARK SMILES IDX 80 88 81 89 84 90 82 91 61 92 62 93 70 94 63 95 64 96 68 97
REMARK SMILES IDX 71 98 65 99 66 100 69 101 67 102
REMARK H PARENT 12 20 18 29 18 30 91 55 59 66
REMARK Flexibility Score: inf
ROOT
ATOM      1  C   UNL A   1      41.536  21.213  27.285  1.00  0.00     0.188 C 
ENDROOT
BRANCH   1   2
ATOM      2  O   UNL A   1      40.117  21.219  27.269  1.00  0.00    -0.376 OA
BRANCH   2   3
ATOM      3  C   UNL A   1      39.500  22.110  26.363  1.00  0.00     0.202 C 
BRANCH   3   4
ATOM      4  C   UNL A   1      38.256  21.547  25.700  1.00  0.00     0.261 C 
BRANCH   4   5
ATOM      5  O   UNL A   1      37.087  22.401  25.765  1.00  0.00    -0.461 OA
BRANCH   5   6
ATOM      6  C   UNL A   1      36.588  23.229  24.814  1.00  0.00     0.344 C 
ATOM      7  O   UNL A   1      36.721  22.961  23.620  1.00  0.00    -0.248 OA
BRANCH   6   8
ATOM      8  C   UNL A   1      35.876  24.470  25.263  1.00  0.00     0.351 C 
BRANCH   8   9
ATOM      9  O   UNL A   1      34.474  24.233  25.305  1.00  0.00    -0.481 OA
BRANCH   9  10
ATOM     10  C   UNL A   1      33.891  24.687  24.155  1.00  0.00     0.129 A 
ATOM     11  C   UNL A   1      33.835  26.083  24.054  1.00  0.00     0.047 A 
ATOM     12  C   UNL A   1      33.377  23.838  23.154  1.00  0.00     0.048 A 
ATOM     13  C   UNL A   1      33.331  26.673  22.906  1.00  0.00     0.004 A 
ATOM     14  C   UNL A   1      32.945  24.469  21.977  1.00  0.00     0.013 A 
ATOM     15  C   UNL A   1      32.908  25.864  21.858  1.00  0.00     0.001 A 
BRANCH  12  16
ATOM     16  C   UNL A   1      33.310  22.318  23.216  1.00  0.00     0.302 C 
BRANCH  16  17
ATOM     17  N   UNL A   1      32.715  21.608  24.353  1.00  0.00    -0.331 N 
ATOM     18  C   UNL A   1      31.785  20.533  24.061  1.00  0.00     0.263 C 
ATOM     19  C   UNL A   1      33.574  21.271  25.467  1.00  0.00     0.263 C 
ATOM     20  H   UNL A   1      32.144  22.387  24.683  1.00  0.00     0.348 HD
ATOM     21  C   UNL A   1      32.488  19.260  23.625  1.00  0.00     0.069 C 
ATOM     22  C   UNL A   1      34.362  19.984  25.253  1.00  0.00     0.069 C 
ATOM     23  C   UNL A   1      33.578  18.795  24.628  1.00  0.00    -0.008 C 
ATOM     24  C   UNL A   1      32.926  17.954  25.753  1.00  0.00     0.069 C 
ATOM     25  C   UNL A   1      34.610  17.908  23.886  1.00  0.00     0.069 C 
ATOM     26  C   UNL A   1      32.449  16.579  25.271  1.00  0.00     0.261 C 
ATOM     27  C   UNL A   1      34.040  16.564  23.455  1.00  0.00     0.261 C 
ATOM     28  N   UNL A   1      33.514  15.827  24.604  1.00  0.00    -0.346 N 
ATOM     29  H   UNL A   1      33.139  14.934  24.284  1.00  0.00     0.346 HD
ATOM     30  H   UNL A   1      34.273  15.681  25.270  1.00  0.00     0.346 HD
ENDBRANCH  16  17
ENDBRANCH  12  16
ENDBRANCH   9  10
ENDBRANCH   8   9
ENDBRANCH   6   8
ENDBRANCH   5   6
ENDBRANCH   4   5
ENDBRANCH   3   4
ENDBRANCH   2   3
ENDBRANCH   1   2
BRANCH   1  31
ATOM     31  C   UNL A   1      42.191  20.234  26.273  1.00  0.00     0.188 C 
BRANCH  31  32
ATOM     32  O   UNL A   1      43.528  20.465  25.850  1.00  0.00    -0.376 OA
BRANCH  32  33
ATOM     33  C   UNL A   1      43.751  21.373  24.787  1.00  0.00     0.202 C 
BRANCH  33  34
ATOM     34  C   UNL A   1      44.288  22.773  25.138  1.00  0.00     0.261 C 
BRANCH  34  35
ATOM     35  O   UNL A   1      43.315  23.842  25.093  1.00  0.00    -0.460 OA
BRANCH  35  36
ATOM     36  C   UNL A   1      43.796  25.110  25.236  1.00  0.00     0.338 C 
ATOM     37  O   UNL A   1      44.713  25.605  24.624  1.00  0.00    -0.246 OA
BRANCH  36  38
ATOM     38  C   UNL A   1      42.899  25.925  26.117  1.00  0.00     0.060 A 
ATOM     39  C   UNL A   1      43.191  27.293  26.264  1.00  0.00     0.016 A 
ATOM     40  C   UNL A   1      41.825  25.377  26.823  1.00  0.00     0.016 A 
ATOM     41  C   UNL A   1      42.486  28.086  27.177  1.00  0.00     0.010 A 
ATOM     42  C   UNL A   1      41.134  26.167  27.761  1.00  0.00     0.010 A 
ATOM     43  C   UNL A   1      41.511  27.506  27.995  1.00  0.00    -0.014 A 
BRANCH  43  44
ATOM     44  C   UNL A   1      41.185  28.172  29.292  1.00  0.00     0.031 A 
ATOM     45  C   UNL A   1      39.957  29.053  29.324  1.00  0.00     0.074 A 
ATOM     46  C   UNL A   1      41.878  27.972  30.430  1.00  0.00     0.049 A 
ATOM     47  N   UNL A   1      39.442  29.748  30.309  1.00  0.00    -0.248 NA
ATOM     48  C   UNL A   1      39.208  29.165  28.061  1.00  0.00     0.031 C 
ATOM     49  C   UNL A   1      43.042  27.106  30.578  1.00  0.00     0.029 A 
ATOM     50  N   UNL A   1      41.685  28.496  31.690  1.00  0.00    -0.354 N 
ATOM     51  C   UNL A   1      38.325  30.383  29.779  1.00  0.00     0.074 A 
ATOM     52  C   UNL A   1      38.257  30.027  28.379  1.00  0.00     0.031 C 
ATOM     53  C   UNL A   1      43.467  27.163  31.855  1.00  0.00     0.029 A 
ATOM     54  C   UNL A   1      42.618  28.085  32.612  1.00  0.00     0.049 A 
ATOM     55  H   UNL A   1      40.947  29.110  31.909  1.00  0.00     0.167 HD
ATOM     56  C   UNL A   1      37.421  31.181  30.395  1.00  0.00     0.037 A 
ATOM     57  C   UNL A   1      42.770  28.421  33.911  1.00  0.00     0.037 A 
ATOM     58  C   UNL A   1      37.466  31.535  31.787  1.00  0.00     0.049 A 
ATOM     59  C   UNL A   1      41.790  29.373  34.561  1.00  0.00     0.074 A 
ATOM     60  C   UNL A   1      36.585  32.325  32.505  1.00  0.00     0.029 A 
ATOM     61  N   UNL A   1      38.450  31.126  32.672  1.00  0.00    -0.354 N 
ATOM     62  N   UNL A   1      40.725  29.946  34.059  1.00  0.00    -0.248 NA
ATOM     63  C   UNL A   1      42.033  29.711  35.974  1.00  0.00     0.031 C 
ATOM     64  C   UNL A   1      37.069  32.443  33.812  1.00  0.00     0.029 A 
ATOM     65  C   UNL A   1      38.212  31.670  33.925  1.00  0.00     0.049 A 
ATOM     66  H   UNL A   1      39.206  30.538  32.446  1.00  0.00     0.167 HD
ATOM     67  C   UNL A   1      40.149  30.671  35.097  1.00  0.00     0.074 A 
ATOM     68  C   UNL A   1      40.979  30.459  36.263  1.00  0.00     0.031 C 
ATOM     69  C   UNL A   1      39.030  31.437  35.088  1.00  0.00     0.037 A 
BRANCH  56  70
ATOM     70  C   UNL A   1      36.321  31.757  29.550  1.00  0.00     0.064 A 
ATOM     71  C   UNL A   1      35.303  30.958  29.007  1.00  0.00     0.173 A 
ATOM     72  C   UNL A   1      36.281  33.135  29.290  1.00  0.00     0.173 A 
ATOM     73  F   UNL A   1      35.307  29.632  29.210  1.00  0.00    -0.203 F 
ATOM     74  C   UNL A   1      34.306  31.512  28.210  1.00  0.00     0.198 A 
ATOM     75  C   UNL A   1      35.261  33.692  28.522  1.00  0.00     0.198 A 
ATOM     76  F   UNL A   1      37.228  33.945  29.786  1.00  0.00    -0.203 F 
ATOM     77  F   UNL A   1      33.378  30.721  27.653  1.00  0.00    -0.200 F 
ATOM     78  C   UNL A   1      34.281  32.878  27.974  1.00  0.00     0.200 A 
ATOM     79  F   UNL A   1      35.232  35.014  28.307  1.00  0.00    -0.200 F 
ATOM     80  F   UNL A   1      33.316  33.411  27.212  1.00  0.00    -0.200 F 
ENDBRANCH  56  70
BRANCH  57  81
ATOM     81  C   UNL A   1      43.897  27.859  34.707  1.00  0.00     0.064 A 
ATOM     82  C   UNL A   1      43.729  26.706  35.490  1.00  0.00     0.173 A 
ATOM     83  C   UNL A   1      45.148  28.494  34.748  1.00  0.00     0.173 A 
ATOM     84  F   UNL A   1      42.542  26.082  35.516  1.00  0.00    -0.203 F 
ATOM     85  C   UNL A   1      44.757  26.226  36.300  1.00  0.00     0.198 A 
ATOM     86  C   UNL A   1      46.185  27.994  35.535  1.00  0.00     0.198 A 
ATOM     87  F   UNL A   1      45.361  29.605  34.029  1.00  0.00    -0.203 F 
ATOM     88  F   UNL A   1      44.548  25.160  37.083  1.00  0.00    -0.200 F 
ATOM     89  C   UNL A   1      45.986  26.867  36.317  1.00  0.00     0.200 A 
ATOM     90  F   UNL A   1      47.373  28.613  35.542  1.00  0.00    -0.200 F 
ATOM     91  F   UNL A   1      46.975  26.407  37.095  1.00  0.00    -0.200 F 
ENDBRANCH  57  81
BRANCH  69  92
ATOM     92  C   UNL A   1      38.589  32.052  36.388  1.00  0.00     0.064 A 
ATOM     93  C   UNL A   1      37.814  31.350  37.324  1.00  0.00     0.173 A 
ATOM     94  C   UNL A   1      38.981  33.361  36.718  1.00  0.00     0.173 A 
ATOM     95  F   UNL A   1      37.404  30.100  37.059  1.00  0.00    -0.203 F 
ATOM     96  C   UNL A   1      37.417  31.947  38.518  1.00  0.00     0.198 A 
ATOM     97  C   UNL A   1      38.613  33.940  37.929  1.00  0.00     0.198 A 
ATOM     98  F   UNL A   1      39.735  34.075  35.868  1.00  0.00    -0.203 F 
ATOM     99  F   UNL A   1      36.626  31.276  39.368  1.00  0.00    -0.200 F 
ATOM    100  C   UNL A   1      37.821  33.238  38.823  1.00  0.00     0.200 A 
ATOM    101  F   UNL A   1      39.022  35.181  38.228  1.00  0.00    -0.200 F 
ATOM    102  F   UNL A   1      37.441  33.808  39.975  1.00  0.00    -0.200 F 
ENDBRANCH  69  92
ENDBRANCH  43  44
ENDBRANCH  36  38
ENDBRANCH  35  36
ENDBRANCH  34  35
ENDBRANCH  33  34
ENDBRANCH  32  33
ENDBRANCH  31  32
ENDBRANCH   1  31
TORSDOF 21
ENDMDL
MODEL 3
REMARK VINA RESULT:     -10.9      3.148      4.952
REMARK SMILES O=C(COc1ccccc1C[NH+]1CCC2(CC[NH2+]CC2)CC1)OCCOCCOCCOC(=O)c1ccc(-c2c3nc(c(-c4c(F)c(F)c(F)c(F)c4F)c4ccc([nH]4)c(-c4c(F)c(F)c(F)c(F)c4F)c4nc(c(-c5c(F)c(F)c(F)c(F)c5F)c5ccc2[nH]5)C=C4)C=C3)cc1
REMARK SMILES IDX 27 1 26 2 25 3 24 4 23 5 2 6 1 7 3 8 4 9 5 10 6 11 10 12
REMARK SMILES IDX 7 13 9 14 8 15 11 16 12 17 13 18 22 19 14 21 21 22 15 23
REMARK SMILES IDX 16 24 20 25 17 26 19 27 18 28 28 31 29 32 30 33 31 34 32 35
REMARK SMILES IDX 33 36 34 37 35 38 36 39 97 40 37 41 96 42 38 43 39 44 40 45
REMARK SMILES IDX 90 46 41 47 95 48 89 49 91 50 42 51 94 52 88 53 87 54 43 56
REMARK SMILES IDX 75 57 55 58 74 59 56 60 59 61 73 62 92 63 57 64 58 65 72 67
REMARK SMILES IDX 93 68 60 69 44 70 45 71 53 72 46 73 47 74 51 75 54 76 48 77
REMARK SMILES IDX 49 78 52 79 50 80 76 81 77 82 85 83 78 84 79 85 83 86 86 87
REMARK SMILES IDX 80 88 81 89 84 90 82 91 61 92 62 93 70 94 63 95 64 96 68 97
REMARK SMILES IDX 71 98 65 99 66 100 69 101 67 102
REMARK H PARENT 12 20 18 29 18 30 91 55 59 66
REMARK Flexibility Score: inf
ROOT
ATOM      1  C   UNL A   1      32.746  28.215  26.123  1.00  0.00     0.188 C 
ENDROOT
BRANCH   1   2
ATOM      2  O   UNL A   1      31.666  28.052  25.216  1.00  0.00    -0.376 OA
BRANCH   2   3
ATOM      3  C   UNL A   1      31.836  28.608  23.928  1.00  0.00     0.202 C 
BRANCH   3   4
ATOM      4  C   UNL A   1      31.211  27.782  22.818  1.00  0.00     0.261 C 
BRANCH   4   5
ATOM      5  O   UNL A   1      31.305  26.346  22.994  1.00  0.00    -0.461 OA
BRANCH   5   6
ATOM      6  C   UNL A   1      30.389  25.495  23.519  1.00  0.00     0.344 C 
ATOM      7  O   UNL A   1      29.489  25.916  24.245  1.00  0.00    -0.248 OA
BRANCH   6   8
ATOM      8  C   UNL A   1      30.510  24.038  23.188  1.00  0.00     0.351 C 
BRANCH   8   9
ATOM      9  O   UNL A   1      31.880  23.656  23.188  1.00  0.00    -0.481 OA
BRANCH   9  10
ATOM     10  C   UNL A   1      32.000  22.353  23.583  1.00  0.00     0.129 A 
ATOM     11  C   UNL A   1      32.066  21.437  22.524  1.00  0.00     0.047 A 
ATOM     12  C   UNL A   1      32.044  21.948  24.932  1.00  0.00     0.048 A 
ATOM     13  C   UNL A   1      32.258  20.090  22.786  1.00  0.00     0.004 A 
ATOM     14  C   UNL A   1      32.315  20.589  25.157  1.00  0.00     0.013 A 
ATOM     15  C   UNL A   1      32.406  19.670  24.103  1.00  0.00     0.001 A 
BRANCH  12  16
ATOM     16  C   UNL A   1      31.889  22.856  26.145  1.00  0.00     0.302 C 
BRANCH  16  17
ATOM     17  N   UNL A   1      33.027  23.560  26.745  1.00  0.00    -0.331 N 
ATOM     18  C   UNL A   1      34.025  22.760  27.432  1.00  0.00     0.263 C 
ATOM     19  C   UNL A   1      33.640  24.627  25.986  1.00  0.00     0.263 C 
ATOM     20  H   UNL A   1      32.494  24.027  27.479  1.00  0.00     0.348 HD
ATOM     21  C   UNL A   1      34.961  22.050  26.470  1.00  0.00     0.069 C 
ATOM     22  C   UNL A   1      34.660  24.133  24.967  1.00  0.00     0.069 C 
ATOM     23  C   UNL A   1      35.626  23.013  25.449  1.00  0.00    -0.008 C 
ATOM     24  C   UNL A   1      36.888  23.651  26.080  1.00  0.00     0.069 C 
ATOM     25  C   UNL A   1      36.055  22.210  24.195  1.00  0.00     0.069 C 
ATOM     26  C   UNL A   1      38.041  22.655  26.249  1.00  0.00     0.261 C 
ATOM     27  C   UNL A   1      37.209  21.255  24.466  1.00  0.00     0.261 C 
ATOM     28  N   UNL A   1      38.369  21.972  24.995  1.00  0.00    -0.346 N 
ATOM     29  H   UNL A   1      39.124  21.308  25.167  1.00  0.00     0.346 HD
ATOM     30  H   UNL A   1      38.656  22.673  24.311  1.00  0.00     0.346 HD
ENDBRANCH  16  17
ENDBRANCH  12  16
ENDBRANCH   9  10
ENDBRANCH   8   9
ENDBRANCH   6   8
ENDBRANCH   5   6
ENDBRANCH   4   5
ENDBRANCH   3   4
ENDBRANCH   2   3
ENDBRANCH   1   2
BRANCH   1  31
ATOM     31  C   UNL A   1      32.484  29.231  27.267  1.00  0.00     0.188 C 
BRANCH  31  32
ATOM     32  O   UNL A   1      32.780  30.605  27.056  1.00  0.00    -0.376 OA
BRANCH  32  33
ATOM     33  C   UNL A   1      31.720  31.477  26.708  1.00  0.00     0.202 C 
BRANCH  33  34
ATOM     34  C   UNL A   1      31.834  32.953  27.134  1.00  0.00     0.261 C 
BRANCH  34  35
ATOM     35  O   UNL A   1      33.170  33.406  27.453  1.00  0.00    -0.460 OA
BRANCH  35  36
ATOM     36  C   UNL A   1      33.275  34.352  28.430  1.00  0.00     0.338 C 
ATOM     37  O   UNL A   1      32.473  35.222  28.678  1.00  0.00    -0.246 OA
BRANCH  36  38
ATOM     38  C   UNL A   1      34.434  34.060  29.335  1.00  0.00     0.060 A 
ATOM     39  C   UNL A   1      35.724  34.368  28.867  1.00  0.00     0.016 A 
ATOM     40  C   UNL A   1      34.286  33.463  30.589  1.00  0.00     0.016 A 
ATOM     41  C   UNL A   1      36.860  33.997  29.593  1.00  0.00     0.010 A 
ATOM     42  C   UNL A   1      35.430  33.065  31.307  1.00  0.00     0.010 A 
ATOM     43  C   UNL A   1      36.722  33.264  30.777  1.00  0.00    -0.014 A 
BRANCH  43  44
ATOM     44  C   UNL A   1      37.866  32.413  31.224  1.00  0.00     0.031 A 
ATOM     45  C   UNL A   1      38.376  32.630  32.631  1.00  0.00     0.074 A 
ATOM     46  C   UNL A   1      38.407  31.433  30.475  1.00  0.00     0.049 A 
ATOM     47  N   UNL A   1      39.350  32.037  33.276  1.00  0.00    -0.248 NA
ATOM     48  C   UNL A   1      37.687  33.668  33.416  1.00  0.00     0.031 C 
ATOM     49  C   UNL A   1      37.987  31.058  29.129  1.00  0.00     0.029 A 
ATOM     50  N   UNL A   1      39.440  30.567  30.759  1.00  0.00    -0.354 N 
ATOM     51  C   UNL A   1      39.394  32.639  34.529  1.00  0.00     0.074 A 
ATOM     52  C   UNL A   1      38.380  33.669  34.542  1.00  0.00     0.031 C 
ATOM     53  C   UNL A   1      38.760  30.042  28.699  1.00  0.00     0.029 A 
ATOM     54  C   UNL A   1      39.743  29.707  29.731  1.00  0.00     0.049 A 
ATOM     55  H   UNL A   1      39.917  30.565  31.620  1.00  0.00     0.167 HD
ATOM     56  C   UNL A   1      40.193  32.357  35.586  1.00  0.00     0.037 A 
ATOM     57  C   UNL A   1      40.708  28.767  29.634  1.00  0.00     0.037 A 
ATOM     58  C   UNL A   1      41.197  31.330  35.594  1.00  0.00     0.049 A 
ATOM     59  C   UNL A   1      41.637  28.518  30.801  1.00  0.00     0.074 A 
ATOM     60  C   UNL A   1      42.043  30.960  36.625  1.00  0.00     0.029 A 
ATOM     61  N   UNL A   1      41.494  30.510  34.517  1.00  0.00    -0.354 N 
ATOM     62  N   UNL A   1      41.653  29.074  31.987  1.00  0.00    -0.248 NA
ATOM     63  C   UNL A   1      42.678  27.494  30.613  1.00  0.00     0.031 C 
ATOM     64  C   UNL A   1      42.894  29.956  36.152  1.00  0.00     0.029 A 
ATOM     65  C   UNL A   1      42.530  29.653  34.851  1.00  0.00     0.049 A 
ATOM     66  H   UNL A   1      41.038  30.533  33.646  1.00  0.00     0.167 HD
ATOM     67  C   UNL A   1      42.668  28.440  32.698  1.00  0.00     0.074 A 
ATOM     68  C   UNL A   1      43.240  27.450  31.812  1.00  0.00     0.031 C 
ATOM     69  C   UNL A   1      43.082  28.653  33.972  1.00  0.00     0.037 A 
BRANCH  56  70
ATOM     70  C   UNL A   1      40.033  33.206  36.815  1.00  0.00     0.064 A 
ATOM     71  C   UNL A   1      40.838  34.331  37.053  1.00  0.00     0.173 A 
ATOM     72  C   UNL A   1      39.048  32.893  37.764  1.00  0.00     0.173 A 
ATOM     73  F   UNL A   1      41.807  34.662  36.185  1.00  0.00    -0.203 F 
ATOM     74  C   UNL A   1      40.684  35.090  38.209  1.00  0.00     0.198 A 
ATOM     75  C   UNL A   1      38.873  33.675  38.902  1.00  0.00     0.198 A 
ATOM     76  F   UNL A   1      38.251  31.829  37.585  1.00  0.00    -0.203 F 
ATOM     77  F   UNL A   1      41.503  36.125  38.444  1.00  0.00    -0.200 F 
ATOM     78  C   UNL A   1      39.698  34.767  39.129  1.00  0.00     0.200 A 
ATOM     79  F   UNL A   1      37.910  33.369  39.782  1.00  0.00    -0.200 F 
ATOM     80  F   UNL A   1      39.546  35.503  40.238  1.00  0.00    -0.200 F 
ENDBRANCH  56  70
BRANCH  57  81
ATOM     81  C   UNL A   1      40.860  27.971  28.383  1.00  0.00     0.064 A 
ATOM     82  C   UNL A   1      40.303  26.688  28.265  1.00  0.00     0.173 A 
ATOM     83  C   UNL A   1      41.614  28.451  27.301  1.00  0.00     0.173 A 
ATOM     84  F   UNL A   1      39.604  26.166  29.284  1.00  0.00    -0.203 F 
ATOM     85  C   UNL A   1      40.514  25.910  27.129  1.00  0.00     0.198 A 
ATOM     86  C   UNL A   1      41.798  27.684  26.152  1.00  0.00     0.198 A 
ATOM     87  F   UNL A   1      42.179  29.666  27.364  1.00  0.00    -0.203 F 
ATOM     88  F   UNL A   1      40.021  24.665  27.070  1.00  0.00    -0.200 F 
ATOM     89  C   UNL A   1      41.256  26.411  26.070  1.00  0.00     0.200 A 
ATOM     90  F   UNL A   1      42.510  28.175  25.130  1.00  0.00    -0.200 F 
ATOM     91  F   UNL A   1      41.461  25.662  24.977  1.00  0.00    -0.200 F 
ENDBRANCH  57  81
BRANCH  69  92
ATOM     92  C   UNL A   1      44.162  27.759  34.518  1.00  0.00     0.064 A 
ATOM     93  C   UNL A   1      45.518  28.116  34.481  1.00  0.00     0.173 A 
ATOM     94  C   UNL A   1      43.826  26.534  35.120  1.00  0.00     0.173 A 
ATOM     95  F   UNL A   1      45.897  29.271  33.912  1.00  0.00    -0.203 F 
ATOM     96  C   UNL A   1      46.498  27.266  34.990  1.00  0.00     0.198 A 
ATOM     97  C   UNL A   1      44.805  25.705  35.660  1.00  0.00     0.198 A 
ATOM     98  F   UNL A   1      42.544  26.147  35.195  1.00  0.00    -0.203 F 
ATOM     99  F   UNL A   1      47.792  27.603  34.890  1.00  0.00    -0.200 F 
ATOM    100  C   UNL A   1      46.141  26.066  35.584  1.00  0.00     0.200 A 
ATOM    101  F   UNL A   1      44.455  24.554  36.251  1.00  0.00    -0.200 F 
ATOM    102  F   UNL A   1      47.085  25.252  36.078  1.00  0.00    -0.200 F 
ENDBRANCH  69  92
ENDBRANCH  43  44
ENDBRANCH  36  38
ENDBRANCH  35  36
ENDBRANCH  34  35
ENDBRANCH  33  34
ENDBRANCH  32  33
ENDBRANCH  31  32
ENDBRANCH   1  31
TORSDOF 21
ENDMDL
