MODEL 1
REMARK VINA RESULT:     -10.7      0.000      0.000
REMARK SMILES C[C@@H]([NH3+])CCC(=O)N[C@H]1C=C[C@@H](C(=O)OCCOCCOCCOC(=O)c2ccc(-c3c4nc(c(-c5c(F)c(F)c(F)c(F)c5F)c5ccc([nH]5)c(-c5c(F)c(F)c(F)c(F)c5F)c5nc(c(-c6c(F)c(F)c(F)c(F)c6F)c6ccc3[nH]6)C=C5)C=C4)cc2)C1
REMARK SMILES IDX 18 1 17 2 16 3 15 4 13 5 14 6 12 7 9 8 10 9 90 10 11 11 8 12
REMARK SMILES IDX 6 13 7 14 5 16 4 17 2 18 1 19 3 20 19 24 20 25 21 26 22 27
REMARK SMILES IDX 23 28 24 29 25 30 26 31 27 32 28 33 89 34 29 35 88 36 30 37
REMARK SMILES IDX 31 38 32 39 82 40 33 41 87 42 81 43 83 44 34 45 86 46 80 47
REMARK SMILES IDX 79 48 35 50 67 51 47 52 66 53 48 54 51 55 65 56 84 57 49 58
REMARK SMILES IDX 50 59 64 61 85 62 52 63 36 64 37 65 45 66 38 67 39 68 43 69
REMARK SMILES IDX 46 70 40 71 41 72 44 73 42 74 68 75 69 76 77 77 70 78 71 79
REMARK SMILES IDX 75 80 78 81 72 82 73 83 76 84 74 85 53 86 54 87 62 88 55 89
REMARK SMILES IDX 56 90 60 91 63 92 57 93 58 94 61 95 59 96
REMARK H PARENT 8 15 3 21 3 22 3 23 83 49 51 60
REMARK Flexibility Score: inf
ROOT
ATOM      1  O   UNL A   1      40.034  21.547  26.161  1.00  0.00    -0.376 OA
ENDROOT
BRANCH   1   2
ATOM      2  C   UNL A   1      38.771  22.212  26.100  1.00  0.00     0.202 C 
BRANCH   2   3
ATOM      3  C   UNL A   1      37.523  21.458  25.577  1.00  0.00     0.261 C 
BRANCH   3   4
ATOM      4  O   UNL A   1      37.324  21.562  24.150  1.00  0.00    -0.463 OA
BRANCH   4   5
ATOM      5  C   UNL A   1      36.549  22.580  23.677  1.00  0.00     0.312 C 
ATOM      6  O   UNL A   1      36.673  23.068  22.560  1.00  0.00    -0.252 OA
BRANCH   5   7
ATOM      7  C   UNL A   1      35.335  22.851  24.601  1.00  0.00     0.124 C 
ATOM      8  C   UNL A   1      33.357  24.334  24.121  1.00  0.00     0.106 C 
ATOM      9  C   UNL A   1      33.056  22.884  24.036  1.00  0.00    -0.006 C 
ATOM     10  C   UNL A   1      34.768  24.283  24.731  1.00  0.00     0.048 C 
ATOM     11  C   UNL A   1      34.109  22.084  24.247  1.00  0.00    -0.014 C 
BRANCH   8  12
ATOM     12  N   UNL A   1      33.459  25.104  22.878  1.00  0.00    -0.350 N 
ATOM     13  C   UNL A   1      33.154  26.340  22.434  1.00  0.00     0.220 C 
ATOM     14  O   UNL A   1      33.966  26.830  21.639  1.00  0.00    -0.275 OA
ATOM     15  H   UNL A   1      33.866  24.564  22.163  1.00  0.00     0.164 HD
BRANCH  13  16
ATOM     16  C   UNL A   1      31.893  27.095  22.756  1.00  0.00     0.106 C 
BRANCH  16  17
ATOM     17  C   UNL A   1      31.595  27.111  24.263  1.00  0.00     0.074 C 
BRANCH  17  18
ATOM     18  C   UNL A   1      32.255  28.288  24.976  1.00  0.00     0.178 C 
ATOM     19  C   UNL A   1      33.638  27.926  25.521  1.00  0.00     0.075 C 
BRANCH  18  20
ATOM     20  N   UNL A   1      32.369  29.478  24.135  1.00  0.00    -0.355 N 
ATOM     21  H   UNL A   1      31.641  30.145  24.389  1.00  0.00     0.344 HD
ATOM     22  H   UNL A   1      32.262  29.213  23.156  1.00  0.00     0.344 HD
ATOM     23  H   UNL A   1      33.285  29.905  24.273  1.00  0.00     0.344 HD
ENDBRANCH  18  20
ENDBRANCH  17  18
ENDBRANCH  16  17
ENDBRANCH  13  16
ENDBRANCH   8  12
ENDBRANCH   5   7
ENDBRANCH   4   5
ENDBRANCH   3   4
ENDBRANCH   2   3
ENDBRANCH   1   2
BRANCH   1  24
ATOM     24  C   UNL A   1      40.076  20.133  26.064  1.00  0.00     0.188 C 
BRANCH  24  25
ATOM     25  C   UNL A   1      41.392  19.422  26.380  1.00  0.00     0.188 C 
BRANCH  25  26
ATOM     26  O   UNL A   1      42.245  19.200  25.292  1.00  0.00    -0.376 OA
BRANCH  26  27
ATOM     27  C   UNL A   1      43.445  19.943  25.205  1.00  0.00     0.202 C 
BRANCH  27  28
ATOM     28  C   UNL A   1      43.585  21.342  25.838  1.00  0.00     0.261 C 
BRANCH  28  29
ATOM     29  O   UNL A   1      42.890  22.445  25.226  1.00  0.00    -0.460 OA
BRANCH  29  30
ATOM     30  C   UNL A   1      43.578  23.598  25.024  1.00  0.00     0.338 C 
ATOM     31  O   UNL A   1      44.371  23.828  24.135  1.00  0.00    -0.246 OA
BRANCH  30  32
ATOM     32  C   UNL A   1      42.985  24.634  25.917  1.00  0.00     0.060 A 
ATOM     33  C   UNL A   1      43.480  25.948  25.868  1.00  0.00     0.016 A 
ATOM     34  C   UNL A   1      41.930  24.320  26.774  1.00  0.00     0.016 A 
ATOM     35  C   UNL A   1      42.941  26.941  26.696  1.00  0.00     0.010 A 
ATOM     36  C   UNL A   1      41.410  25.307  27.620  1.00  0.00     0.010 A 
ATOM     37  C   UNL A   1      41.932  26.615  27.612  1.00  0.00    -0.014 A 
BRANCH  37  38
ATOM     38  C   UNL A   1      41.565  27.552  28.708  1.00  0.00     0.031 A 
ATOM     39  C   UNL A   1      42.351  27.479  29.991  1.00  0.00     0.074 A 
ATOM     40  C   UNL A   1      40.554  28.433  28.596  1.00  0.00     0.049 A 
ATOM     41  N   UNL A   1      42.141  28.077  31.136  1.00  0.00    -0.248 NA
ATOM     42  C   UNL A   1      43.533  26.603  29.976  1.00  0.00     0.031 C 
ATOM     43  C   UNL A   1      39.745  28.650  27.402  1.00  0.00     0.029 A 
ATOM     44  N   UNL A   1      40.023  29.297  29.526  1.00  0.00    -0.354 N 
ATOM     45  C   UNL A   1      43.156  27.639  31.979  1.00  0.00     0.074 A 
ATOM     46  C   UNL A   1      43.960  26.703  31.224  1.00  0.00     0.031 C 
ATOM     47  C   UNL A   1      38.797  29.565  27.679  1.00  0.00     0.029 A 
ATOM     48  C   UNL A   1      38.908  29.967  29.081  1.00  0.00     0.049 A 
ATOM     49  H   UNL A   1      40.405  29.424  30.424  1.00  0.00     0.167 HD
ATOM     50  C   UNL A   1      43.401  27.989  33.264  1.00  0.00     0.037 A 
ATOM     51  C   UNL A   1      38.056  30.778  29.742  1.00  0.00     0.037 A 
ATOM     52  C   UNL A   1      42.597  28.911  34.021  1.00  0.00     0.049 A 
ATOM     53  C   UNL A   1      38.292  31.081  31.203  1.00  0.00     0.074 A 
ATOM     54  C   UNL A   1      42.765  29.328  35.331  1.00  0.00     0.029 A 
ATOM     55  N   UNL A   1      41.466  29.553  33.539  1.00  0.00    -0.354 N 
ATOM     56  N   UNL A   1      39.258  30.674  31.991  1.00  0.00    -0.248 NA
ATOM     57  C   UNL A   1      37.316  31.960  31.868  1.00  0.00     0.031 C 
ATOM     58  C   UNL A   1      41.705  30.179  35.658  1.00  0.00     0.029 A 
ATOM     59  C   UNL A   1      40.914  30.346  34.534  1.00  0.00     0.049 A 
ATOM     60  H   UNL A   1      41.110  29.461  32.627  1.00  0.00     0.167 HD
ATOM     61  C   UNL A   1      39.027  31.272  33.225  1.00  0.00     0.074 A 
ATOM     62  C   UNL A   1      37.836  32.080  33.081  1.00  0.00     0.031 C 
ATOM     63  C   UNL A   1      39.738  31.162  34.375  1.00  0.00     0.037 A 
BRANCH  50  64
ATOM     64  C   UNL A   1      44.576  27.348  33.942  1.00  0.00     0.064 A 
ATOM     65  C   UNL A   1      45.821  27.990  34.025  1.00  0.00     0.173 A 
ATOM     66  C   UNL A   1      44.448  26.087  34.546  1.00  0.00     0.173 A 
ATOM     67  F   UNL A   1      46.001  29.189  33.450  1.00  0.00    -0.203 F 
ATOM     68  C   UNL A   1      46.900  27.382  34.661  1.00  0.00     0.198 A 
ATOM     69  C   UNL A   1      45.520  25.498  35.210  1.00  0.00     0.198 A 
ATOM     70  F   UNL A   1      43.279  25.430  34.499  1.00  0.00    -0.203 F 
ATOM     71  F   UNL A   1      48.093  27.992  34.680  1.00  0.00    -0.200 F 
ATOM     72  C   UNL A   1      46.747  26.142  35.260  1.00  0.00     0.200 A 
ATOM     73  F   UNL A   1      45.365  24.304  35.801  1.00  0.00    -0.200 F 
ATOM     74  F   UNL A   1      47.784  25.562  35.879  1.00  0.00    -0.200 F 
ENDBRANCH  50  64
BRANCH  51  75
ATOM     75  C   UNL A   1      36.867  31.343  29.045  1.00  0.00     0.064 A 
ATOM     76  C   UNL A   1      36.796  32.705  28.717  1.00  0.00     0.173 A 
ATOM     77  C   UNL A   1      35.756  30.544  28.737  1.00  0.00     0.173 A 
ATOM     78  F   UNL A   1      37.818  33.519  29.019  1.00  0.00    -0.203 F 
ATOM     79  C   UNL A   1      35.653  33.249  28.133  1.00  0.00     0.198 A 
ATOM     80  C   UNL A   1      34.626  31.081  28.122  1.00  0.00     0.198 A 
ATOM     81  F   UNL A   1      35.765  29.236  29.036  1.00  0.00    -0.203 F 
ATOM     82  F   UNL A   1      35.590  34.565  27.888  1.00  0.00    -0.200 F 
ATOM     83  C   UNL A   1      34.571  32.435  27.831  1.00  0.00     0.200 A 
ATOM     84  F   UNL A   1      33.588  30.290  27.822  1.00  0.00    -0.200 F 
ATOM     85  F   UNL A   1      33.472  32.959  27.271  1.00  0.00    -0.200 F 
ENDBRANCH  51  75
BRANCH  63  86
ATOM     86  C   UNL A   1      39.289  31.975  35.557  1.00  0.00     0.064 A 
ATOM     87  C   UNL A   1      39.679  33.311  35.732  1.00  0.00     0.173 A 
ATOM     88  C   UNL A   1      38.408  31.422  36.502  1.00  0.00     0.173 A 
ATOM     89  F   UNL A   1      40.528  33.885  34.867  1.00  0.00    -0.203 F 
ATOM     90  C   UNL A   1      39.227  34.054  36.822  1.00  0.00     0.198 A 
ATOM     91  C   UNL A   1      37.931  32.179  37.570  1.00  0.00     0.198 A 
ATOM     92  F   UNL A   1      37.994  30.153  36.378  1.00  0.00    -0.203 F 
ATOM     93  F   UNL A   1      39.652  35.313  36.993  1.00  0.00    -0.200 F 
ATOM     94  C   UNL A   1      38.346  33.491  37.733  1.00  0.00     0.200 A 
ATOM     95  F   UNL A   1      37.067  31.637  38.439  1.00  0.00    -0.200 F 
ATOM     96  F   UNL A   1      37.904  34.210  38.773  1.00  0.00    -0.200 F 
ENDBRANCH  63  86
ENDBRANCH  37  38
ENDBRANCH  30  32
ENDBRANCH  29  30
ENDBRANCH  28  29
ENDBRANCH  27  28
ENDBRANCH  26  27
ENDBRANCH  25  26
ENDBRANCH  24  25
ENDBRANCH   1  24
TORSDOF 22
ENDMDL
MODEL 2
REMARK VINA RESULT:     -10.4      1.383      2.548
REMARK SMILES C[C@@H]([NH3+])CCC(=O)N[C@H]1C=C[C@@H](C(=O)OCCOCCOCCOC(=O)c2ccc(-c3c4nc(c(-c5c(F)c(F)c(F)c(F)c5F)c5ccc([nH]5)c(-c5c(F)c(F)c(F)c(F)c5F)c5nc(c(-c6c(F)c(F)c(F)c(F)c6F)c6ccc3[nH]6)C=C5)C=C4)cc2)C1
REMARK SMILES IDX 18 1 17 2 16 3 15 4 13 5 14 6 12 7 9 8 10 9 90 10 11 11 8 12
REMARK SMILES IDX 6 13 7 14 5 16 4 17 2 18 1 19 3 20 19 24 20 25 21 26 22 27
REMARK SMILES IDX 23 28 24 29 25 30 26 31 27 32 28 33 89 34 29 35 88 36 30 37
REMARK SMILES IDX 31 38 32 39 82 40 33 41 87 42 81 43 83 44 34 45 86 46 80 47
REMARK SMILES IDX 79 48 35 50 67 51 47 52 66 53 48 54 51 55 65 56 84 57 49 58
REMARK SMILES IDX 50 59 64 61 85 62 52 63 36 64 37 65 45 66 38 67 39 68 43 69
REMARK SMILES IDX 46 70 40 71 41 72 44 73 42 74 68 75 69 76 77 77 70 78 71 79
REMARK SMILES IDX 75 80 78 81 72 82 73 83 76 84 74 85 53 86 54 87 62 88 55 89
REMARK SMILES IDX 56 90 60 91 63 92 57 93 58 94 61 95 59 96
REMARK H PARENT 8 15 3 21 3 22 3 23 83 49 51 60
REMARK Flexibility Score: inf
ROOT
ATOM      1  O   UNL A   1      38.645  22.537  26.271  1.00  0.00    -0.376 OA
ENDROOT
BRANCH   1   2
ATOM      2  C   UNL A   1      37.255  22.688  25.978  1.00  0.00     0.202 C 
BRANCH   2   3
ATOM      3  C   UNL A   1      36.750  23.956  25.246  1.00  0.00     0.261 C 
BRANCH   3   4
ATOM      4  O   UNL A   1      35.311  24.084  25.209  1.00  0.00    -0.463 OA
BRANCH   4   5
ATOM      5  C   UNL A   1      34.722  24.423  24.027  1.00  0.00     0.312 C 
ATOM      6  O   UNL A   1      34.728  23.707  23.033  1.00  0.00    -0.252 OA
BRANCH   5   7
ATOM      7  C   UNL A   1      33.822  25.676  24.175  1.00  0.00     0.124 C 
ATOM      8  C   UNL A   1      31.658  25.856  25.450  1.00  0.00     0.106 C 
ATOM      9  C   UNL A   1      32.805  26.516  26.119  1.00  0.00    -0.006 C 
ATOM     10  C   UNL A   1      32.286  25.540  24.082  1.00  0.00     0.048 C 
ATOM     11  C   UNL A   1      33.973  26.391  25.474  1.00  0.00    -0.014 C 
BRANCH   8  12
ATOM     12  N   UNL A   1      31.162  24.588  25.993  1.00  0.00    -0.350 N 
ATOM     13  C   UNL A   1      31.581  23.626  26.840  1.00  0.00     0.220 C 
ATOM     14  O   UNL A   1      30.701  23.136  27.559  1.00  0.00    -0.275 OA
ATOM     15  H   UNL A   1      30.268  24.380  25.640  1.00  0.00     0.164 HD
BRANCH  13  16
ATOM     16  C   UNL A   1      32.976  23.064  26.900  1.00  0.00     0.106 C 
BRANCH  16  17
ATOM     17  C   UNL A   1      33.008  21.557  26.601  1.00  0.00     0.074 C 
BRANCH  17  18
ATOM     18  C   UNL A   1      33.290  21.261  25.130  1.00  0.00     0.178 C 
ATOM     19  C   UNL A   1      34.564  20.435  24.946  1.00  0.00     0.075 C 
BRANCH  18  20
ATOM     20  N   UNL A   1      32.182  20.586  24.458  1.00  0.00    -0.355 N 
ATOM     21  H   UNL A   1      31.352  21.176  24.495  1.00  0.00     0.344 HD
ATOM     22  H   UNL A   1      31.991  19.700  24.925  1.00  0.00     0.344 HD
ATOM     23  H   UNL A   1      32.431  20.410  23.485  1.00  0.00     0.344 HD
ENDBRANCH  18  20
ENDBRANCH  17  18
ENDBRANCH  16  17
ENDBRANCH  13  16
ENDBRANCH   8  12
ENDBRANCH   5   7
ENDBRANCH   4   5
ENDBRANCH   3   4
ENDBRANCH   2   3
ENDBRANCH   1   2
BRANCH   1  24
ATOM     24  C   UNL A   1      39.319  21.366  25.841  1.00  0.00     0.188 C 
BRANCH  24  25
ATOM     25  C   UNL A   1      40.477  20.842  26.689  1.00  0.00     0.188 C 
BRANCH  25  26
ATOM     26  O   UNL A   1      41.201  19.774  26.144  1.00  0.00    -0.376 OA
BRANCH  26  27
ATOM     27  C   UNL A   1      42.571  19.960  25.850  1.00  0.00     0.202 C 
BRANCH  27  28
ATOM     28  C   UNL A   1      43.242  21.346  25.935  1.00  0.00     0.261 C 
BRANCH  28  29
ATOM     29  O   UNL A   1      42.717  22.413  25.123  1.00  0.00    -0.460 OA
BRANCH  29  30
ATOM     30  C   UNL A   1      43.473  23.533  24.976  1.00  0.00     0.338 C 
ATOM     31  O   UNL A   1      44.311  23.740  24.124  1.00  0.00    -0.246 OA
BRANCH  30  32
ATOM     32  C   UNL A   1      42.900  24.578  25.872  1.00  0.00     0.060 A 
ATOM     33  C   UNL A   1      43.406  25.887  25.810  1.00  0.00     0.016 A 
ATOM     34  C   UNL A   1      41.852  24.278  26.741  1.00  0.00     0.016 A 
ATOM     35  C   UNL A   1      42.886  26.889  26.640  1.00  0.00     0.010 A 
ATOM     36  C   UNL A   1      41.350  25.273  27.589  1.00  0.00     0.010 A 
ATOM     37  C   UNL A   1      41.884  26.576  27.568  1.00  0.00    -0.014 A 
BRANCH  37  38
ATOM     38  C   UNL A   1      41.539  27.522  28.664  1.00  0.00     0.031 A 
ATOM     39  C   UNL A   1      42.343  27.452  29.936  1.00  0.00     0.074 A 
ATOM     40  C   UNL A   1      40.532  28.409  28.562  1.00  0.00     0.049 A 
ATOM     41  N   UNL A   1      42.153  28.057  31.081  1.00  0.00    -0.248 NA
ATOM     42  C   UNL A   1      43.519  26.568  29.910  1.00  0.00     0.031 C 
ATOM     43  C   UNL A   1      39.707  28.624  27.379  1.00  0.00     0.029 A 
ATOM     44  N   UNL A   1      40.019  29.281  29.495  1.00  0.00    -0.354 N 
ATOM     45  C   UNL A   1      43.177  27.617  31.912  1.00  0.00     0.074 A 
ATOM     46  C   UNL A   1      43.964  26.673  31.151  1.00  0.00     0.031 C 
ATOM     47  C   UNL A   1      38.769  29.546  27.663  1.00  0.00     0.029 A 
ATOM     48  C   UNL A   1      38.902  29.955  29.062  1.00  0.00     0.049 A 
ATOM     49  H   UNL A   1      40.414  29.410  30.387  1.00  0.00     0.167 HD
ATOM     50  C   UNL A   1      43.442  27.973  33.191  1.00  0.00     0.037 A 
ATOM     51  C   UNL A   1      38.064  30.775  29.730  1.00  0.00     0.037 A 
ATOM     52  C   UNL A   1      42.655  28.905  33.955  1.00  0.00     0.049 A 
ATOM     53  C   UNL A   1      38.324  31.084  31.186  1.00  0.00     0.074 A 
ATOM     54  C   UNL A   1      42.844  29.327  35.259  1.00  0.00     0.029 A 
ATOM     55  N   UNL A   1      41.521  29.551  33.485  1.00  0.00    -0.354 N 
ATOM     56  N   UNL A   1      39.298  30.676  31.962  1.00  0.00    -0.248 NA
ATOM     57  C   UNL A   1      37.362  31.974  31.860  1.00  0.00     0.031 C 
ATOM     58  C   UNL A   1      41.795  30.187  35.597  1.00  0.00     0.029 A 
ATOM     59  C   UNL A   1      40.988  30.352  34.483  1.00  0.00     0.049 A 
ATOM     60  H   UNL A   1      41.151  29.456  32.579  1.00  0.00     0.167 HD
ATOM     61  C   UNL A   1      39.088  31.282  33.196  1.00  0.00     0.074 A 
ATOM     62  C   UNL A   1      37.900  32.097  33.065  1.00  0.00     0.031 C 
ATOM     63  C   UNL A   1      39.815  31.175  34.336  1.00  0.00     0.037 A 
BRANCH  50  64
ATOM     64  C   UNL A   1      44.623  27.329  33.856  1.00  0.00     0.064 A 
ATOM     65  C   UNL A   1      44.511  26.108  34.539  1.00  0.00     0.173 A 
ATOM     66  C   UNL A   1      45.893  27.924  33.785  1.00  0.00     0.173 A 
ATOM     67  F   UNL A   1      43.317  25.506  34.652  1.00  0.00    -0.203 F 
ATOM     68  C   UNL A   1      45.617  25.523  35.149  1.00  0.00     0.198 A 
ATOM     69  C   UNL A   1      47.003  27.320  34.365  1.00  0.00     0.198 A 
ATOM     70  F   UNL A   1      46.058  29.091  33.142  1.00  0.00    -0.203 F 
ATOM     71  F   UNL A   1      45.474  24.384  35.840  1.00  0.00    -0.200 F 
ATOM     72  C   UNL A   1      46.863  26.124  35.054  1.00  0.00     0.200 A 
ATOM     73  F   UNL A   1      48.209  27.895  34.261  1.00  0.00    -0.200 F 
ATOM     74  F   UNL A   1      47.929  25.556  35.634  1.00  0.00    -0.200 F 
ENDBRANCH  50  64
BRANCH  51  75
ATOM     75  C   UNL A   1      36.869  31.343  29.047  1.00  0.00     0.064 A 
ATOM     76  C   UNL A   1      36.802  32.704  28.712  1.00  0.00     0.173 A 
ATOM     77  C   UNL A   1      35.748  30.550  28.761  1.00  0.00     0.173 A 
ATOM     78  F   UNL A   1      37.834  33.513  28.994  1.00  0.00    -0.203 F 
ATOM     79  C   UNL A   1      35.654  33.252  28.141  1.00  0.00     0.198 A 
ATOM     80  C   UNL A   1      34.613  31.091  28.159  1.00  0.00     0.198 A 
ATOM     81  F   UNL A   1      35.754  29.244  29.067  1.00  0.00    -0.203 F 
ATOM     82  F   UNL A   1      35.596  34.566  27.889  1.00  0.00    -0.200 F 
ATOM     83  C   UNL A   1      34.563  32.443  27.860  1.00  0.00     0.200 A 
ATOM     84  F   UNL A   1      33.566  30.304  27.879  1.00  0.00    -0.200 F 
ATOM     85  F   UNL A   1      33.459  32.970  27.312  1.00  0.00    -0.200 F 
ENDBRANCH  51  75
BRANCH  63  86
ATOM     86  C   UNL A   1      39.388  31.997  35.521  1.00  0.00     0.064 A 
ATOM     87  C   UNL A   1      39.832  33.314  35.710  1.00  0.00     0.173 A 
ATOM     88  C   UNL A   1      38.475  31.475  36.452  1.00  0.00     0.173 A 
ATOM     89  F   UNL A   1      40.713  33.859  34.858  1.00  0.00    -0.203 F 
ATOM     90  C   UNL A   1      39.399  34.068  36.801  1.00  0.00     0.198 A 
ATOM     91  C   UNL A   1      38.018  32.243  37.521  1.00  0.00     0.198 A 
ATOM     92  F   UNL A   1      38.009  30.225  36.313  1.00  0.00    -0.203 F 
ATOM     93  F   UNL A   1      39.875  35.306  36.986  1.00  0.00    -0.200 F 
ATOM     94  C   UNL A   1      38.487  33.535  37.699  1.00  0.00     0.200 A 
ATOM     95  F   UNL A   1      37.123  31.731  38.376  1.00  0.00    -0.200 F 
ATOM     96  F   UNL A   1      38.063  34.265  38.739  1.00  0.00    -0.200 F 
ENDBRANCH  63  86
ENDBRANCH  37  38
ENDBRANCH  30  32
ENDBRANCH  29  30
ENDBRANCH  28  29
ENDBRANCH  27  28
ENDBRANCH  26  27
ENDBRANCH  25  26
ENDBRANCH  24  25
ENDBRANCH   1  24
TORSDOF 22
ENDMDL
MODEL 3
REMARK VINA RESULT:     -10.1      3.582      8.662
REMARK SMILES C[C@@H]([NH3+])CCC(=O)N[C@H]1C=C[C@@H](C(=O)OCCOCCOCCOC(=O)c2ccc(-c3c4nc(c(-c5c(F)c(F)c(F)c(F)c5F)c5ccc([nH]5)c(-c5c(F)c(F)c(F)c(F)c5F)c5nc(c(-c6c(F)c(F)c(F)c(F)c6F)c6ccc3[nH]6)C=C5)C=C4)cc2)C1
REMARK SMILES IDX 18 1 17 2 16 3 15 4 13 5 14 6 12 7 9 8 10 9 90 10 11 11 8 12
REMARK SMILES IDX 6 13 7 14 5 16 4 17 2 18 1 19 3 20 19 24 20 25 21 26 22 27
REMARK SMILES IDX 23 28 24 29 25 30 26 31 27 32 28 33 89 34 29 35 88 36 30 37
REMARK SMILES IDX 31 38 32 39 82 40 33 41 87 42 81 43 83 44 34 45 86 46 80 47
REMARK SMILES IDX 79 48 35 50 67 51 47 52 66 53 48 54 51 55 65 56 84 57 49 58
REMARK SMILES IDX 50 59 64 61 85 62 52 63 36 64 37 65 45 66 38 67 39 68 43 69
REMARK SMILES IDX 46 70 40 71 41 72 44 73 42 74 68 75 69 76 77 77 70 78 71 79
REMARK SMILES IDX 75 80 78 81 72 82 73 83 76 84 74 85 53 86 54 87 62 88 55 89
REMARK SMILES IDX 56 90 60 91 63 92 57 93 58 94 61 95 59 96
REMARK H PARENT 8 15 3 21 3 22 3 23 83 49 51 60
REMARK Flexibility Score: inf
ROOT
ATOM      1  O   UNL A   1      31.461  27.171  22.318  1.00  0.00    -0.376 OA
ENDROOT
BRANCH   1   2
ATOM      2  C   UNL A   1      31.125  25.808  22.584  1.00  0.00     0.202 C 
BRANCH   2   3
ATOM      3  C   UNL A   1      31.065  25.296  24.044  1.00  0.00     0.261 C 
BRANCH   3   4
ATOM      4  O   UNL A   1      32.219  25.646  24.842  1.00  0.00    -0.463 OA
BRANCH   4   5
ATOM      5  C   UNL A   1      32.327  25.114  26.092  1.00  0.00     0.312 C 
ATOM      6  O   UNL A   1      31.393  25.036  26.882  1.00  0.00    -0.252 OA
BRANCH   5   7
ATOM      7  C   UNL A   1      33.679  24.383  26.289  1.00  0.00     0.124 C 
ATOM      8  C   UNL A   1      34.621  22.520  24.881  1.00  0.00     0.106 C 
ATOM      9  C   UNL A   1      35.282  23.830  24.665  1.00  0.00    -0.006 C 
ATOM     10  C   UNL A   1      33.760  22.850  26.113  1.00  0.00     0.048 C 
ATOM     11  C   UNL A   1      34.763  24.840  25.375  1.00  0.00    -0.014 C 
BRANCH   8  12
ATOM     12  N   UNL A   1      33.711  22.013  23.850  1.00  0.00    -0.350 N 
ATOM     13  C   UNL A   1      32.627  21.215  23.770  1.00  0.00     0.220 C 
ATOM     14  O   UNL A   1      31.772  21.567  22.948  1.00  0.00    -0.275 OA
ATOM     15  H   UNL A   1      33.963  22.354  22.962  1.00  0.00     0.164 HD
BRANCH  13  16
ATOM     16  C   UNL A   1      32.440  19.923  24.519  1.00  0.00     0.106 C 
BRANCH  16  17
ATOM     17  C   UNL A   1      33.555  18.910  24.217  1.00  0.00     0.074 C 
BRANCH  17  18
ATOM     18  C   UNL A   1      33.008  17.536  23.839  1.00  0.00     0.178 C 
ATOM     19  C   UNL A   1      34.125  16.549  23.494  1.00  0.00     0.075 C 
BRANCH  18  20
ATOM     20  N   UNL A   1      32.158  16.953  24.874  1.00  0.00    -0.355 N 
ATOM     21  H   UNL A   1      31.864  16.020  24.587  1.00  0.00     0.344 HD
ATOM     22  H   UNL A   1      31.336  17.542  25.011  1.00  0.00     0.344 HD
ATOM     23  H   UNL A   1      32.680  16.890  25.748  1.00  0.00     0.344 HD
ENDBRANCH  18  20
ENDBRANCH  17  18
ENDBRANCH  16  17
ENDBRANCH  13  16
ENDBRANCH   8  12
ENDBRANCH   5   7
ENDBRANCH   4   5
ENDBRANCH   3   4
ENDBRANCH   2   3
ENDBRANCH   1   2
BRANCH   1  24
ATOM     24  C   UNL A   1      30.445  28.158  22.382  1.00  0.00     0.188 C 
BRANCH  24  25
ATOM     25  C   UNL A   1      30.401  29.077  23.603  1.00  0.00     0.188 C 
BRANCH  25  26
ATOM     26  O   UNL A   1      31.549  29.085  24.405  1.00  0.00    -0.376 OA
BRANCH  26  27
ATOM     27  C   UNL A   1      31.403  28.932  25.803  1.00  0.00     0.202 C 
BRANCH  27  28
ATOM     28  C   UNL A   1      31.935  29.983  26.798  1.00  0.00     0.261 C 
BRANCH  28  29
ATOM     29  O   UNL A   1      33.092  30.756  26.426  1.00  0.00    -0.460 OA
BRANCH  29  30
ATOM     30  C   UNL A   1      33.470  31.772  27.244  1.00  0.00     0.338 C 
ATOM     31  O   UNL A   1      32.786  32.701  27.617  1.00  0.00    -0.246 OA
BRANCH  30  32
ATOM     32  C   UNL A   1      34.790  31.403  27.832  1.00  0.00     0.060 A 
ATOM     33  C   UNL A   1      35.066  30.054  28.108  1.00  0.00     0.016 A 
ATOM     34  C   UNL A   1      35.758  32.376  28.081  1.00  0.00     0.016 A 
ATOM     35  C   UNL A   1      36.297  29.679  28.661  1.00  0.00     0.010 A 
ATOM     36  C   UNL A   1      36.979  32.004  28.657  1.00  0.00     0.010 A 
ATOM     37  C   UNL A   1      37.245  30.660  28.982  1.00  0.00    -0.014 A 
BRANCH  37  38
ATOM     38  C   UNL A   1      38.412  30.337  29.847  1.00  0.00     0.031 A 
ATOM     39  C   UNL A   1      39.427  29.355  29.326  1.00  0.00     0.074 A 
ATOM     40  C   UNL A   1      38.573  30.873  31.071  1.00  0.00     0.049 A 
ATOM     41  N   UNL A   1      40.445  28.801  29.933  1.00  0.00    -0.248 NA
ATOM     42  C   UNL A   1      39.261  28.937  27.924  1.00  0.00     0.031 C 
ATOM     43  C   UNL A   1      37.702  31.871  31.682  1.00  0.00     0.029 A 
ATOM     44  N   UNL A   1      39.526  30.622  32.032  1.00  0.00    -0.354 N 
ATOM     45  C   UNL A   1      41.031  27.961  28.993  1.00  0.00     0.074 A 
ATOM     46  C   UNL A   1      40.238  28.056  27.787  1.00  0.00     0.031 C 
ATOM     47  C   UNL A   1      38.142  32.128  32.928  1.00  0.00     0.029 A 
ATOM     48  C   UNL A   1      39.299  31.281  33.217  1.00  0.00     0.049 A 
ATOM     49  H   UNL A   1      40.296  30.027  31.885  1.00  0.00     0.167 HD
ATOM     50  C   UNL A   1      42.135  27.187  29.120  1.00  0.00     0.037 A 
ATOM     51  C   UNL A   1      39.929  31.180  34.405  1.00  0.00     0.037 A 
ATOM     52  C   UNL A   1      42.920  27.083  30.321  1.00  0.00     0.049 A 
ATOM     53  C   UNL A   1      41.101  30.237  34.553  1.00  0.00     0.074 A 
ATOM     54  C   UNL A   1      44.055  26.322  30.546  1.00  0.00     0.029 A 
ATOM     55  N   UNL A   1      42.646  27.752  31.504  1.00  0.00    -0.354 N 
ATOM     56  N   UNL A   1      41.658  29.456  33.660  1.00  0.00    -0.248 NA
ATOM     57  C   UNL A   1      41.734  30.164  35.881  1.00  0.00     0.031 C 
ATOM     58  C   UNL A   1      44.436  26.490  31.881  1.00  0.00     0.029 A 
ATOM     59  C   UNL A   1      43.578  27.405  32.469  1.00  0.00     0.049 A 
ATOM     60  H   UNL A   1      41.902  28.381  31.638  1.00  0.00     0.167 HD
ATOM     61  C   UNL A   1      42.720  28.830  34.303  1.00  0.00     0.074 A 
ATOM     62  C   UNL A   1      42.740  29.330  35.660  1.00  0.00     0.031 C 
ATOM     63  C   UNL A   1      43.601  27.923  33.813  1.00  0.00     0.037 A 
BRANCH  50  64
ATOM     64  C   UNL A   1      42.544  26.367  27.931  1.00  0.00     0.064 A 
ATOM     65  C   UNL A   1      42.012  25.089  27.697  1.00  0.00     0.173 A 
ATOM     66  C   UNL A   1      43.457  26.878  26.994  1.00  0.00     0.173 A 
ATOM     67  F   UNL A   1      41.148  24.549  28.570  1.00  0.00    -0.203 F 
ATOM     68  C   UNL A   1      42.400  24.344  26.587  1.00  0.00     0.198 A 
ATOM     69  C   UNL A   1      43.816  26.143  25.869  1.00  0.00     0.198 A 
ATOM     70  F   UNL A   1      43.994  28.095  27.168  1.00  0.00    -0.203 F 
ATOM     71  F   UNL A   1      41.919  23.105  26.414  1.00  0.00    -0.200 F 
ATOM     72  C   UNL A   1      43.294  24.874  25.670  1.00  0.00     0.200 A 
ATOM     73  F   UNL A   1      44.670  26.664  24.976  1.00  0.00    -0.200 F 
ATOM     74  F   UNL A   1      43.660  24.159  24.598  1.00  0.00    -0.200 F 
ENDBRANCH  50  64
BRANCH  51  75
ATOM     75  C   UNL A   1      39.451  31.967  35.576  1.00  0.00     0.064 A 
ATOM     76  C   UNL A   1      39.997  33.223  35.880  1.00  0.00     0.173 A 
ATOM     77  C   UNL A   1      38.474  31.458  36.445  1.00  0.00     0.173 A 
ATOM     78  F   UNL A   1      40.958  33.741  35.100  1.00  0.00    -0.203 F 
ATOM     79  C   UNL A   1      39.604  33.926  37.018  1.00  0.00     0.198 A 
ATOM     80  C   UNL A   1      38.057  32.176  37.564  1.00  0.00     0.198 A 
ATOM     81  F   UNL A   1      37.924  30.258  36.208  1.00  0.00    -0.203 F 
ATOM     82  F   UNL A   1      40.188  35.094  37.316  1.00  0.00    -0.200 F 
ATOM     83  C   UNL A   1      38.630  33.404  37.856  1.00  0.00     0.200 A 
ATOM     84  F   UNL A   1      37.108  31.674  38.365  1.00  0.00    -0.200 F 
ATOM     85  F   UNL A   1      38.253  34.079  38.951  1.00  0.00    -0.200 F 
ENDBRANCH  51  75
BRANCH  63  86
ATOM     86  C   UNL A   1      44.700  27.449  34.724  1.00  0.00     0.064 A 
ATOM     87  C   UNL A   1      44.568  26.296  35.510  1.00  0.00     0.173 A 
ATOM     88  C   UNL A   1      45.927  28.133  34.768  1.00  0.00     0.173 A 
ATOM     89  F   UNL A   1      43.414  25.611  35.516  1.00  0.00    -0.203 F 
ATOM     90  C   UNL A   1      45.612  25.859  36.325  1.00  0.00     0.198 A 
ATOM     91  C   UNL A   1      46.979  27.675  35.557  1.00  0.00     0.198 A 
ATOM     92  F   UNL A   1      46.112  29.236  34.028  1.00  0.00    -0.203 F 
ATOM     93  F   UNL A   1      45.444  24.781  37.103  1.00  0.00    -0.200 F 
ATOM     94  C   UNL A   1      46.818  26.543  36.340  1.00  0.00     0.200 A 
ATOM     95  F   UNL A   1      48.149  28.327  35.555  1.00  0.00    -0.200 F 
ATOM     96  F   UNL A   1      47.823  26.115  37.115  1.00  0.00    -0.200 F 
ENDBRANCH  63  86
ENDBRANCH  37  38
ENDBRANCH  30  32
ENDBRANCH  29  30
ENDBRANCH  28  29
ENDBRANCH  27  28
ENDBRANCH  26  27
ENDBRANCH  25  26
ENDBRANCH  24  25
ENDBRANCH   1  24
TORSDOF 22
ENDMDL
