MODEL 1
REMARK VINA RESULT:     -11.0      0.000      0.000
REMARK SMILES Cc1ccc([C@@](C)(O)[C@H](F)C(=O)OCCOCCOCCOC(=O)c2ccc(-c3c4nc(c(-c5c(F)c(F)c(F)c(F)c5F)c5ccc([nH]5)c(-c5c(F)c(F)c(F)c(F)c5F)c5nc(c(-c6c(F)c(F)c(F)c(F)c6F)c6ccc3[nH]6)C=C5)C=C4)cc2)cc1F
REMARK SMILES IDX 17 1 16 2 15 3 14 4 13 5 11 6 12 7 9 8 10 9 6 10 7 11 5 12
REMARK SMILES IDX 1 13 2 14 3 15 89 16 4 17 88 18 90 19 8 20 18 22 19 23 20 24
REMARK SMILES IDX 21 25 22 26 23 27 24 28 25 29 26 30 87 31 27 32 86 33 28 34
REMARK SMILES IDX 29 35 30 36 80 37 31 38 85 39 79 40 81 41 32 42 84 43 78 44
REMARK SMILES IDX 77 45 33 47 65 48 45 49 64 50 46 51 49 52 63 53 82 54 47 55
REMARK SMILES IDX 48 56 62 58 83 59 50 60 34 61 35 62 43 63 36 64 37 65 41 66
REMARK SMILES IDX 44 67 38 68 39 69 42 70 40 71 66 72 67 73 75 74 68 75 69 76
REMARK SMILES IDX 73 77 76 78 70 79 71 80 74 81 72 82 51 83 52 84 60 85 53 86
REMARK SMILES IDX 54 87 58 88 61 89 55 90 56 91 59 92 57 93
REMARK H PARENT 8 21 81 46 49 57
REMARK Flexibility Score: inf
ROOT
ATOM      1  C   UNL A   1      31.717  28.643  25.338  1.00  0.00     0.188 C 
ENDROOT
BRANCH   1   2
ATOM      2  O   UNL A   1      30.763  28.031  24.479  1.00  0.00    -0.376 OA
BRANCH   2   3
ATOM      3  C   UNL A   1      30.648  26.612  24.477  1.00  0.00     0.202 C 
BRANCH   3   4
ATOM      4  C   UNL A   1      30.235  25.888  25.776  1.00  0.00     0.261 C 
BRANCH   4   5
ATOM      5  O   UNL A   1      31.310  25.370  26.578  1.00  0.00    -0.461 OA
BRANCH   5   6
ATOM      6  C   UNL A   1      31.255  24.043  26.905  1.00  0.00     0.344 C 
ATOM      7  O   UNL A   1      30.235  23.476  27.278  1.00  0.00    -0.249 OA
BRANCH   6   8
ATOM      8  C   UNL A   1      32.542  23.321  26.487  1.00  0.00     0.311 C 
ATOM      9  F   UNL A   1      32.745  22.170  27.213  1.00  0.00    -0.231 F 
BRANCH   8  10
ATOM     10  C   UNL A   1      32.639  22.921  25.015  1.00  0.00     0.129 C 
ATOM     11  C   UNL A   1      33.550  23.852  24.212  1.00  0.00     0.051 C 
BRANCH  10  12
ATOM     12  C   UNL A   1      33.125  21.469  24.825  1.00  0.00    -0.010 A 
ATOM     13  C   UNL A   1      34.740  17.470  24.344  1.00  0.00     0.047 C 
ATOM     14  C   UNL A   1      34.159  18.840  24.507  1.00  0.00    -0.015 A 
ATOM     15  C   UNL A   1      32.790  19.083  24.369  1.00  0.00     0.007 A 
ATOM     16  C   UNL A   1      34.996  19.913  24.803  1.00  0.00     0.126 A 
ATOM     17  C   UNL A   1      32.279  20.381  24.527  1.00  0.00     0.007 A 
ATOM     18  C   UNL A   1      34.496  21.200  24.968  1.00  0.00     0.046 A 
ATOM     19  F   UNL A   1      36.315  19.715  24.934  1.00  0.00    -0.207 F 
ENDBRANCH  10  12
BRANCH  10  20
ATOM     20  O   UNL A   1      31.311  23.015  24.466  1.00  0.00    -0.382 OA
ATOM     21  H   UNL A   1      30.807  23.684  24.953  1.00  0.00     0.212 HD
ENDBRANCH  10  20
ENDBRANCH   8  10
ENDBRANCH   6   8
ENDBRANCH   5   6
ENDBRANCH   4   5
ENDBRANCH   3   4
ENDBRANCH   2   3
ENDBRANCH   1   2
BRANCH   1  22
ATOM     22  C   UNL A   1      32.975  29.346  24.760  1.00  0.00     0.188 C 
BRANCH  22  23
ATOM     23  O   UNL A   1      34.183  28.992  25.400  1.00  0.00    -0.376 OA
BRANCH  23  24
ATOM     24  C   UNL A   1      34.114  28.568  26.747  1.00  0.00     0.202 C 
BRANCH  24  25
ATOM     25  C   UNL A   1      34.680  29.468  27.855  1.00  0.00     0.261 C 
BRANCH  25  26
ATOM     26  O   UNL A   1      35.158  30.758  27.479  1.00  0.00    -0.460 OA
BRANCH  26  27
ATOM     27  C   UNL A   1      34.497  31.769  28.045  1.00  0.00     0.338 C 
ATOM     28  O   UNL A   1      33.340  32.134  27.773  1.00  0.00    -0.246 OA
BRANCH  27  29
ATOM     29  C   UNL A   1      35.289  32.548  28.993  1.00  0.00     0.060 A 
ATOM     30  C   UNL A   1      36.308  33.291  28.359  1.00  0.00     0.016 A 
ATOM     31  C   UNL A   1      35.496  31.847  30.176  1.00  0.00     0.016 A 
ATOM     32  C   UNL A   1      37.607  32.949  28.634  1.00  0.00     0.010 A 
ATOM     33  C   UNL A   1      36.789  31.496  30.439  1.00  0.00     0.010 A 
ATOM     34  C   UNL A   1      37.806  31.969  29.597  1.00  0.00    -0.014 A 
BRANCH  34  35
ATOM     35  C   UNL A   1      39.111  31.444  29.874  1.00  0.00     0.031 A 
ATOM     36  C   UNL A   1      39.377  30.116  29.318  1.00  0.00     0.074 A 
ATOM     37  C   UNL A   1      40.003  32.203  30.543  1.00  0.00     0.049 A 
ATOM     38  N   UNL A   1      40.161  29.259  29.866  1.00  0.00    -0.248 NA
ATOM     39  C   UNL A   1      38.664  29.590  28.149  1.00  0.00     0.031 C 
ATOM     40  C   UNL A   1      41.445  32.036  30.543  1.00  0.00     0.029 A 
ATOM     41  N   UNL A   1      39.770  33.269  31.429  1.00  0.00    -0.354 N 
ATOM     42  C   UNL A   1      40.321  28.249  28.949  1.00  0.00     0.074 A 
ATOM     43  C   UNL A   1      39.258  28.404  27.988  1.00  0.00     0.031 C 
ATOM     44  C   UNL A   1      41.975  32.798  31.513  1.00  0.00     0.029 A 
ATOM     45  C   UNL A   1      40.884  33.353  32.294  1.00  0.00     0.049 A 
ATOM     46  H   UNL A   1      38.976  33.850  31.444  1.00  0.00     0.167 HD
ATOM     47  C   UNL A   1      41.472  27.529  28.971  1.00  0.00     0.037 A 
ATOM     48  C   UNL A   1      40.771  33.191  33.650  1.00  0.00     0.037 A 
ATOM     49  C   UNL A   1      42.358  28.031  30.011  1.00  0.00     0.049 A 
ATOM     50  C   UNL A   1      41.402  31.934  34.155  1.00  0.00     0.074 A 
ATOM     51  C   UNL A   1      43.339  29.010  29.971  1.00  0.00     0.029 A 
ATOM     52  N   UNL A   1      42.007  27.881  31.348  1.00  0.00    -0.354 N 
ATOM     53  N   UNL A   1      41.675  30.919  33.390  1.00  0.00    -0.248 NA
ATOM     54  C   UNL A   1      41.755  31.712  35.550  1.00  0.00     0.031 C 
ATOM     55  C   UNL A   1      43.567  29.461  31.292  1.00  0.00     0.029 A 
ATOM     56  C   UNL A   1      42.738  28.748  32.138  1.00  0.00     0.049 A 
ATOM     57  H   UNL A   1      41.333  27.248  31.684  1.00  0.00     0.167 HD
ATOM     58  C   UNL A   1      42.231  29.927  34.143  1.00  0.00     0.074 A 
ATOM     59  C   UNL A   1      42.277  30.476  35.486  1.00  0.00     0.031 C 
ATOM     60  C   UNL A   1      42.601  28.739  33.586  1.00  0.00     0.037 A 
BRANCH  47  61
ATOM     61  C   UNL A   1      41.903  26.668  27.822  1.00  0.00     0.064 A 
ATOM     62  C   UNL A   1      41.449  25.339  27.707  1.00  0.00     0.173 A 
ATOM     63  C   UNL A   1      42.784  27.100  26.813  1.00  0.00     0.173 A 
ATOM     64  F   UNL A   1      40.589  24.813  28.587  1.00  0.00    -0.203 F 
ATOM     65  C   UNL A   1      41.880  24.490  26.688  1.00  0.00     0.198 A 
ATOM     66  C   UNL A   1      43.246  26.235  25.816  1.00  0.00     0.198 A 
ATOM     67  F   UNL A   1      43.206  28.373  26.767  1.00  0.00    -0.203 F 
ATOM     68  F   UNL A   1      41.413  23.235  26.632  1.00  0.00    -0.200 F 
ATOM     69  C   UNL A   1      42.793  24.931  25.754  1.00  0.00     0.200 A 
ATOM     70  F   UNL A   1      44.137  26.673  24.915  1.00  0.00    -0.200 F 
ATOM     71  F   UNL A   1      43.225  24.105  24.791  1.00  0.00    -0.200 F 
ENDBRANCH  47  61
BRANCH  48  72
ATOM     72  C   UNL A   1      39.562  33.810  34.249  1.00  0.00     0.064 A 
ATOM     73  C   UNL A   1      38.579  32.880  34.609  1.00  0.00     0.173 A 
ATOM     74  C   UNL A   1      39.739  34.950  35.041  1.00  0.00     0.173 A 
ATOM     75  F   UNL A   1      38.296  31.847  33.802  1.00  0.00    -0.203 F 
ATOM     76  C   UNL A   1      38.075  32.887  35.895  1.00  0.00     0.198 A 
ATOM     77  C   UNL A   1      39.220  34.965  36.329  1.00  0.00     0.198 A 
ATOM     78  F   UNL A   1      40.558  35.933  34.641  1.00  0.00    -0.203 F 
ATOM     79  F   UNL A   1      37.348  31.852  36.340  1.00  0.00    -0.200 F 
ATOM     80  C   UNL A   1      38.448  33.892  36.769  1.00  0.00     0.200 A 
ATOM     81  F   UNL A   1      39.566  35.958  37.160  1.00  0.00    -0.200 F 
ATOM     82  F   UNL A   1      38.068  33.767  38.043  1.00  0.00    -0.200 F 
ENDBRANCH  48  72
BRANCH  60  83
ATOM     83  C   UNL A   1      42.985  27.495  34.339  1.00  0.00     0.064 A 
ATOM     84  C   UNL A   1      42.080  26.492  34.710  1.00  0.00     0.173 A 
ATOM     85  C   UNL A   1      44.351  27.213  34.595  1.00  0.00     0.173 A 
ATOM     86  F   UNL A   1      40.781  26.565  34.394  1.00  0.00    -0.203 F 
ATOM     87  C   UNL A   1      42.495  25.336  35.370  1.00  0.00     0.198 A 
ATOM     88  C   UNL A   1      44.768  26.020  35.174  1.00  0.00     0.198 A 
ATOM     89  F   UNL A   1      45.327  28.071  34.268  1.00  0.00    -0.203 F 
ATOM     90  F   UNL A   1      41.582  24.441  35.771  1.00  0.00    -0.200 F 
ATOM     91  C   UNL A   1      43.838  25.093  35.588  1.00  0.00     0.200 A 
ATOM     92  F   UNL A   1      46.078  25.773  35.309  1.00  0.00    -0.200 F 
ATOM     93  F   UNL A   1      44.235  23.958  36.175  1.00  0.00    -0.200 F 
ENDBRANCH  60  83
ENDBRANCH  34  35
ENDBRANCH  27  29
ENDBRANCH  26  27
ENDBRANCH  25  26
ENDBRANCH  24  25
ENDBRANCH  23  24
ENDBRANCH  22  23
ENDBRANCH   1  22
TORSDOF 20
ENDMDL
MODEL 2
REMARK VINA RESULT:     -11.0      4.572     10.077
REMARK SMILES Cc1ccc([C@@](C)(O)[C@H](F)C(=O)OCCOCCOCCOC(=O)c2ccc(-c3c4nc(c(-c5c(F)c(F)c(F)c(F)c5F)c5ccc([nH]5)c(-c5c(F)c(F)c(F)c(F)c5F)c5nc(c(-c6c(F)c(F)c(F)c(F)c6F)c6ccc3[nH]6)C=C5)C=C4)cc2)cc1F
REMARK SMILES IDX 17 1 16 2 15 3 14 4 13 5 11 6 12 7 9 8 10 9 6 10 7 11 5 12
REMARK SMILES IDX 1 13 2 14 3 15 89 16 4 17 88 18 90 19 8 20 18 22 19 23 20 24
REMARK SMILES IDX 21 25 22 26 23 27 24 28 25 29 26 30 87 31 27 32 86 33 28 34
REMARK SMILES IDX 29 35 30 36 80 37 31 38 85 39 79 40 81 41 32 42 84 43 78 44
REMARK SMILES IDX 77 45 33 47 65 48 45 49 64 50 46 51 49 52 63 53 82 54 47 55
REMARK SMILES IDX 48 56 62 58 83 59 50 60 34 61 35 62 43 63 36 64 37 65 41 66
REMARK SMILES IDX 44 67 38 68 39 69 42 70 40 71 66 72 67 73 75 74 68 75 69 76
REMARK SMILES IDX 73 77 76 78 70 79 71 80 74 81 72 82 51 83 52 84 60 85 53 86
REMARK SMILES IDX 54 87 58 88 61 89 55 90 56 91 59 92 57 93
REMARK H PARENT 8 21 81 46 49 57
REMARK Flexibility Score: inf
ROOT
ATOM      1  C   UNL A   1      39.859  20.684  26.000  1.00  0.00     0.188 C 
ENDROOT
BRANCH   1   2
ATOM      2  O   UNL A   1      38.600  20.477  25.372  1.00  0.00    -0.376 OA
BRANCH   2   3
ATOM      3  C   UNL A   1      37.643  21.532  25.383  1.00  0.00     0.202 C 
BRANCH   3   4
ATOM      4  C   UNL A   1      36.140  21.185  25.355  1.00  0.00     0.261 C 
BRANCH   4   5
ATOM      5  O   UNL A   1      35.275  22.072  26.087  1.00  0.00    -0.461 OA
BRANCH   5   6
ATOM      6  C   UNL A   1      34.335  22.754  25.364  1.00  0.00     0.344 C 
ATOM      7  O   UNL A   1      34.524  23.181  24.232  1.00  0.00    -0.249 OA
BRANCH   6   8
ATOM      8  C   UNL A   1      32.960  22.673  26.039  1.00  0.00     0.311 C 
ATOM      9  F   UNL A   1      32.450  23.920  26.319  1.00  0.00    -0.231 F 
BRANCH   8  10
ATOM     10  C   UNL A   1      31.874  21.931  25.260  1.00  0.00     0.129 C 
ATOM     11  C   UNL A   1      31.397  22.709  24.031  1.00  0.00     0.051 C 
BRANCH  10  12
ATOM     12  C   UNL A   1      32.321  20.524  24.812  1.00  0.00    -0.010 A 
ATOM     13  C   UNL A   1      33.510  16.634  23.300  1.00  0.00     0.047 C 
ATOM     14  C   UNL A   1      33.109  17.969  23.846  1.00  0.00    -0.015 A 
ATOM     15  C   UNL A   1      33.245  18.286  25.199  1.00  0.00     0.007 A 
ATOM     16  C   UNL A   1      32.581  18.932  22.989  1.00  0.00     0.126 A 
ATOM     17  C   UNL A   1      32.857  19.547  25.676  1.00  0.00     0.007 A 
ATOM     18  C   UNL A   1      32.202  20.187  23.454  1.00  0.00     0.046 A 
ATOM     19  F   UNL A   1      32.430  18.657  21.686  1.00  0.00    -0.207 F 
ENDBRANCH  10  12
BRANCH  10  20
ATOM     20  O   UNL A   1      30.754  21.773  26.150  1.00  0.00    -0.382 OA
ATOM     21  H   UNL A   1      31.066  21.446  27.008  1.00  0.00     0.212 HD
ENDBRANCH  10  20
ENDBRANCH   8  10
ENDBRANCH   6   8
ENDBRANCH   5   6
ENDBRANCH   4   5
ENDBRANCH   3   4
ENDBRANCH   2   3
ENDBRANCH   1   2
BRANCH   1  22
ATOM     22  C   UNL A   1      40.789  19.487  26.333  1.00  0.00     0.188 C 
BRANCH  22  23
ATOM     23  O   UNL A   1      41.752  19.204  25.339  1.00  0.00    -0.376 OA
BRANCH  23  24
ATOM     24  C   UNL A   1      42.969  18.614  25.752  1.00  0.00     0.202 C 
BRANCH  24  25
ATOM     25  C   UNL A   1      44.301  19.251  25.331  1.00  0.00     0.261 C 
BRANCH  25  26
ATOM     26  O   UNL A   1      44.247  20.474  24.600  1.00  0.00    -0.460 OA
BRANCH  26  27
ATOM     27  C   UNL A   1      44.418  21.564  25.350  1.00  0.00     0.338 C 
ATOM     28  O   UNL A   1      45.491  21.959  25.838  1.00  0.00    -0.246 OA
BRANCH  27  29
ATOM     29  C   UNL A   1      43.180  22.265  25.682  1.00  0.00     0.060 A 
ATOM     30  C   UNL A   1      43.021  23.453  24.938  1.00  0.00     0.016 A 
ATOM     31  C   UNL A   1      42.904  22.188  27.042  1.00  0.00     0.016 A 
ATOM     32  C   UNL A   1      43.050  24.641  25.624  1.00  0.00     0.010 A 
ATOM     33  C   UNL A   1      42.948  23.369  27.725  1.00  0.00     0.010 A 
ATOM     34  C   UNL A   1      43.128  24.560  27.008  1.00  0.00    -0.014 A 
BRANCH  34  35
ATOM     35  C   UNL A   1      43.292  25.732  27.818  1.00  0.00     0.031 A 
ATOM     36  C   UNL A   1      42.072  26.516  28.029  1.00  0.00     0.074 A 
ATOM     37  C   UNL A   1      44.493  25.995  28.371  1.00  0.00     0.049 A 
ATOM     38  N   UNL A   1      42.065  27.789  28.193  1.00  0.00    -0.248 NA
ATOM     39  C   UNL A   1      40.730  25.931  27.936  1.00  0.00     0.031 C 
ATOM     40  C   UNL A   1      44.743  26.848  29.519  1.00  0.00     0.029 A 
ATOM     41  N   UNL A   1      45.769  25.577  27.957  1.00  0.00    -0.354 N 
ATOM     42  C   UNL A   1      40.787  28.116  28.577  1.00  0.00     0.074 A 
ATOM     43  C   UNL A   1      39.963  26.981  28.241  1.00  0.00     0.031 C 
ATOM     44  C   UNL A   1      46.062  27.075  29.619  1.00  0.00     0.029 A 
ATOM     45  C   UNL A   1      46.703  26.522  28.438  1.00  0.00     0.049 A 
ATOM     46  H   UNL A   1      45.975  24.773  27.427  1.00  0.00     0.167 HD
ATOM     47  C   UNL A   1      40.602  29.217  29.349  1.00  0.00     0.037 A 
ATOM     48  C   UNL A   1      47.497  27.258  27.599  1.00  0.00     0.037 A 
ATOM     49  C   UNL A   1      41.883  29.842  29.646  1.00  0.00     0.049 A 
ATOM     50  C   UNL A   1      47.149  28.712  27.570  1.00  0.00     0.074 A 
ATOM     51  C   UNL A   1      42.769  29.641  30.693  1.00  0.00     0.029 A 
ATOM     52  N   UNL A   1      42.613  30.438  28.624  1.00  0.00    -0.354 N 
ATOM     53  N   UNL A   1      46.001  29.175  27.967  1.00  0.00    -0.248 NA
ATOM     54  C   UNL A   1      48.047  29.747  27.079  1.00  0.00     0.031 C 
ATOM     55  C   UNL A   1      44.042  30.105  30.291  1.00  0.00     0.029 A 
ATOM     56  C   UNL A   1      43.930  30.604  29.006  1.00  0.00     0.049 A 
ATOM     57  H   UNL A   1      42.243  30.704  27.751  1.00  0.00     0.167 HD
ATOM     58  C   UNL A   1      45.985  30.530  27.806  1.00  0.00     0.074 A 
ATOM     59  C   UNL A   1      47.294  30.844  27.264  1.00  0.00     0.031 C 
ATOM     60  C   UNL A   1      44.887  31.268  28.133  1.00  0.00     0.037 A 
BRANCH  47  61
ATOM     61  C   UNL A   1      39.334  29.461  30.111  1.00  0.00     0.064 A 
ATOM     62  C   UNL A   1      38.362  30.357  29.624  1.00  0.00     0.173 A 
ATOM     63  C   UNL A   1      39.036  28.849  31.342  1.00  0.00     0.173 A 
ATOM     64  F   UNL A   1      38.512  30.986  28.453  1.00  0.00    -0.203 F 
ATOM     65  C   UNL A   1      37.202  30.658  30.338  1.00  0.00     0.198 A 
ATOM     66  C   UNL A   1      37.892  29.182  32.075  1.00  0.00     0.198 A 
ATOM     67  F   UNL A   1      39.842  27.908  31.856  1.00  0.00    -0.203 F 
ATOM     68  F   UNL A   1      36.315  31.520  29.823  1.00  0.00    -0.200 F 
ATOM     69  C   UNL A   1      36.976  30.085  31.571  1.00  0.00     0.200 A 
ATOM     70  F   UNL A   1      37.683  28.623  33.276  1.00  0.00    -0.200 F 
ATOM     71  F   UNL A   1      35.873  30.395  32.266  1.00  0.00    -0.200 F 
ENDBRANCH  47  61
BRANCH  48  72
ATOM     72  C   UNL A   1      48.025  26.510  26.432  1.00  0.00     0.064 A 
ATOM     73  C   UNL A   1      47.398  26.842  25.224  1.00  0.00     0.173 A 
ATOM     74  C   UNL A   1      49.390  26.196  26.422  1.00  0.00     0.173 A 
ATOM     75  F   UNL A   1      46.069  27.019  25.178  1.00  0.00    -0.203 F 
ATOM     76  C   UNL A   1      48.166  27.224  24.142  1.00  0.00     0.198 A 
ATOM     77  C   UNL A   1      50.161  26.567  25.328  1.00  0.00     0.198 A 
ATOM     78  F   UNL A   1      49.984  25.724  27.527  1.00  0.00    -0.203 F 
ATOM     79  F   UNL A   1      47.591  27.802  23.078  1.00  0.00    -0.200 F 
ATOM     80  C   UNL A   1      49.545  27.146  24.221  1.00  0.00     0.200 A 
ATOM     81  F   UNL A   1      51.495  26.461  25.404  1.00  0.00    -0.200 F 
ATOM     82  F   UNL A   1      50.246  27.678  23.216  1.00  0.00    -0.200 F 
ENDBRANCH  48  72
BRANCH  60  83
ATOM     83  C   UNL A   1      44.656  32.710  27.775  1.00  0.00     0.064 A 
ATOM     84  C   UNL A   1      45.045  33.789  28.581  1.00  0.00     0.173 A 
ATOM     85  C   UNL A   1      44.140  33.052  26.500  1.00  0.00     0.173 A 
ATOM     86  F   UNL A   1      45.681  33.604  29.745  1.00  0.00    -0.203 F 
ATOM     87  C   UNL A   1      44.846  35.110  28.184  1.00  0.00     0.198 A 
ATOM     88  C   UNL A   1      44.027  34.370  26.073  1.00  0.00     0.198 A 
ATOM     89  F   UNL A   1      43.755  32.121  25.616  1.00  0.00    -0.203 F 
ATOM     90  F   UNL A   1      45.166  36.106  29.021  1.00  0.00    -0.200 F 
ATOM     91  C   UNL A   1      44.353  35.401  26.925  1.00  0.00     0.200 A 
ATOM     92  F   UNL A   1      43.616  34.628  24.824  1.00  0.00    -0.200 F 
ATOM     93  F   UNL A   1      44.215  36.672  26.529  1.00  0.00    -0.200 F 
ENDBRANCH  60  83
ENDBRANCH  34  35
ENDBRANCH  27  29
ENDBRANCH  26  27
ENDBRANCH  25  26
ENDBRANCH  24  25
ENDBRANCH  23  24
ENDBRANCH  22  23
ENDBRANCH   1  22
TORSDOF 20
ENDMDL
MODEL 3
REMARK VINA RESULT:     -10.7      2.130      7.610
REMARK SMILES Cc1ccc([C@@](C)(O)[C@H](F)C(=O)OCCOCCOCCOC(=O)c2ccc(-c3c4nc(c(-c5c(F)c(F)c(F)c(F)c5F)c5ccc([nH]5)c(-c5c(F)c(F)c(F)c(F)c5F)c5nc(c(-c6c(F)c(F)c(F)c(F)c6F)c6ccc3[nH]6)C=C5)C=C4)cc2)cc1F
REMARK SMILES IDX 17 1 16 2 15 3 14 4 13 5 11 6 12 7 9 8 10 9 6 10 7 11 5 12
REMARK SMILES IDX 1 13 2 14 3 15 89 16 4 17 88 18 90 19 8 20 18 22 19 23 20 24
REMARK SMILES IDX 21 25 22 26 23 27 24 28 25 29 26 30 87 31 27 32 86 33 28 34
REMARK SMILES IDX 29 35 30 36 80 37 31 38 85 39 79 40 81 41 32 42 84 43 78 44
REMARK SMILES IDX 77 45 33 47 65 48 45 49 64 50 46 51 49 52 63 53 82 54 47 55
REMARK SMILES IDX 48 56 62 58 83 59 50 60 34 61 35 62 43 63 36 64 37 65 41 66
REMARK SMILES IDX 44 67 38 68 39 69 42 70 40 71 66 72 67 73 75 74 68 75 69 76
REMARK SMILES IDX 73 77 76 78 70 79 71 80 74 81 72 82 51 83 52 84 60 85 53 86
REMARK SMILES IDX 54 87 58 88 61 89 55 90 56 91 59 92 57 93
REMARK H PARENT 8 21 81 46 49 57
REMARK Flexibility Score: inf
ROOT
ATOM      1  C   UNL A   1      31.536  29.101  24.820  1.00  0.00     0.188 C 
ENDROOT
BRANCH   1   2
ATOM      2  O   UNL A   1      30.602  28.829  23.783  1.00  0.00    -0.376 OA
BRANCH   2   3
ATOM      3  C   UNL A   1      30.424  27.483  23.352  1.00  0.00     0.202 C 
BRANCH   3   4
ATOM      4  C   UNL A   1      29.498  26.550  24.159  1.00  0.00     0.261 C 
BRANCH   4   5
ATOM      5  O   UNL A   1      30.089  25.323  24.623  1.00  0.00    -0.461 OA
BRANCH   5   6
ATOM      6  C   UNL A   1      30.675  25.348  25.859  1.00  0.00     0.344 C 
ATOM      7  O   UNL A   1      30.540  26.266  26.659  1.00  0.00    -0.249 OA
BRANCH   6   8
ATOM      8  C   UNL A   1      31.283  23.983  26.205  1.00  0.00     0.311 C 
ATOM      9  F   UNL A   1      30.406  22.952  25.956  1.00  0.00    -0.231 F 
BRANCH   8  10
ATOM     10  C   UNL A   1      32.581  23.625  25.482  1.00  0.00     0.129 C 
ATOM     11  C   UNL A   1      33.803  23.687  26.402  1.00  0.00     0.051 C 
BRANCH  10  12
ATOM     12  C   UNL A   1      32.528  22.229  24.825  1.00  0.00    -0.010 A 
ATOM     13  C   UNL A   1      32.322  18.427  22.744  1.00  0.00     0.047 C 
ATOM     14  C   UNL A   1      32.401  19.726  23.483  1.00  0.00    -0.015 A 
ATOM     15  C   UNL A   1      32.706  19.783  24.845  1.00  0.00     0.007 A 
ATOM     16  C   UNL A   1      32.163  20.920  22.806  1.00  0.00     0.126 A 
ATOM     17  C   UNL A   1      32.769  21.019  25.508  1.00  0.00     0.007 A 
ATOM     18  C   UNL A   1      32.232  22.148  23.454  1.00  0.00     0.046 A 
ATOM     19  F   UNL A   1      31.860  20.898  21.501  1.00  0.00    -0.207 F 
ENDBRANCH  10  12
BRANCH  10  20
ATOM     20  O   UNL A   1      32.761  24.596  24.435  1.00  0.00    -0.382 OA
ATOM     21  H   UNL A   1      31.989  25.181  24.402  1.00  0.00     0.212 HD
ENDBRANCH  10  20
ENDBRANCH   8  10
ENDBRANCH   6   8
ENDBRANCH   5   6
ENDBRANCH   4   5
ENDBRANCH   3   4
ENDBRANCH   2   3
ENDBRANCH   1   2
BRANCH   1  22
ATOM     22  C   UNL A   1      33.061  28.943  24.581  1.00  0.00     0.188 C 
BRANCH  22  23
ATOM     23  O   UNL A   1      33.691  28.012  25.437  1.00  0.00    -0.376 OA
BRANCH  23  24
ATOM     24  C   UNL A   1      33.564  28.211  26.831  1.00  0.00     0.202 C 
BRANCH  24  25
ATOM     25  C   UNL A   1      34.633  29.018  27.581  1.00  0.00     0.261 C 
BRANCH  25  26
ATOM     26  O   UNL A   1      34.957  30.313  27.080  1.00  0.00    -0.460 OA
BRANCH  26  27
ATOM     27  C   UNL A   1      34.166  31.286  27.535  1.00  0.00     0.338 C 
ATOM     28  O   UNL A   1      32.955  31.423  27.290  1.00  0.00    -0.246 OA
BRANCH  27  29
ATOM     29  C   UNL A   1      34.861  32.314  28.306  1.00  0.00     0.060 A 
ATOM     30  C   UNL A   1      36.230  32.400  27.974  1.00  0.00     0.016 A 
ATOM     31  C   UNL A   1      34.403  32.359  29.618  1.00  0.00     0.016 A 
ATOM     32  C   UNL A   1      37.141  32.055  28.940  1.00  0.00     0.010 A 
ATOM     33  C   UNL A   1      35.307  32.001  30.576  1.00  0.00     0.010 A 
ATOM     34  C   UNL A   1      36.634  31.752  30.197  1.00  0.00    -0.014 A 
BRANCH  34  35
ATOM     35  C   UNL A   1      37.478  31.259  31.245  1.00  0.00     0.031 A 
ATOM     36  C   UNL A   1      37.929  32.268  32.206  1.00  0.00     0.074 A 
ATOM     37  C   UNL A   1      37.739  29.938  31.321  1.00  0.00     0.049 A 
ATOM     38  N   UNL A   1      39.053  32.211  32.823  1.00  0.00    -0.248 NA
ATOM     39  C   UNL A   1      37.191  33.512  32.452  1.00  0.00     0.031 C 
ATOM     40  C   UNL A   1      38.190  29.217  32.498  1.00  0.00     0.029 A 
ATOM     41  N   UNL A   1      37.706  28.969  30.304  1.00  0.00    -0.354 N 
ATOM     42  C   UNL A   1      39.013  33.195  33.781  1.00  0.00     0.074 A 
ATOM     43  C   UNL A   1      37.933  34.076  33.409  1.00  0.00     0.031 C 
ATOM     44  C   UNL A   1      38.590  27.988  32.134  1.00  0.00     0.029 A 
ATOM     45  C   UNL A   1      38.579  27.925  30.683  1.00  0.00     0.049 A 
ATOM     46  H   UNL A   1      37.172  29.011  29.479  1.00  0.00     0.167 HD
ATOM     47  C   UNL A   1      39.745  33.030  34.912  1.00  0.00     0.037 A 
ATOM     48  C   UNL A   1      39.676  27.582  29.937  1.00  0.00     0.037 A 
ATOM     49  C   UNL A   1      40.442  31.752  34.877  1.00  0.00     0.049 A 
ATOM     50  C   UNL A   1      40.974  27.917  30.597  1.00  0.00     0.074 A 
ATOM     51  C   UNL A   1      40.055  30.496  35.319  1.00  0.00     0.029 A 
ATOM     52  N   UNL A   1      41.459  31.547  33.952  1.00  0.00    -0.354 N 
ATOM     53  N   UNL A   1      41.078  28.779  31.564  1.00  0.00    -0.248 NA
ATOM     54  C   UNL A   1      42.250  27.330  30.212  1.00  0.00     0.031 C 
ATOM     55  C   UNL A   1      40.834  29.531  34.643  1.00  0.00     0.029 A 
ATOM     56  C   UNL A   1      41.707  30.196  33.802  1.00  0.00     0.049 A 
ATOM     57  H   UNL A   1      41.934  32.262  33.472  1.00  0.00     0.167 HD
ATOM     58  C   UNL A   1      42.386  28.872  31.943  1.00  0.00     0.074 A 
ATOM     59  C   UNL A   1      43.078  27.933  31.080  1.00  0.00     0.031 C 
ATOM     60  C   UNL A   1      42.775  29.721  32.935  1.00  0.00     0.037 A 
BRANCH  47  61
ATOM     61  C   UNL A   1      39.503  33.839  36.151  1.00  0.00     0.064 A 
ATOM     62  C   UNL A   1      40.134  35.085  36.333  1.00  0.00     0.173 A 
ATOM     63  C   UNL A   1      38.670  33.419  37.204  1.00  0.00     0.173 A 
ATOM     64  F   UNL A   1      40.933  35.610  35.396  1.00  0.00    -0.203 F 
ATOM     65  C   UNL A   1      39.984  35.834  37.500  1.00  0.00     0.198 A 
ATOM     66  C   UNL A   1      38.551  34.151  38.390  1.00  0.00     0.198 A 
ATOM     67  F   UNL A   1      37.944  32.296  37.101  1.00  0.00    -0.203 F 
ATOM     68  F   UNL A   1      40.611  37.012  37.615  1.00  0.00    -0.200 F 
ATOM     69  C   UNL A   1      39.209  35.359  38.536  1.00  0.00     0.200 A 
ATOM     70  F   UNL A   1      37.799  33.679  39.393  1.00  0.00    -0.200 F 
ATOM     71  F   UNL A   1      39.086  36.068  39.667  1.00  0.00    -0.200 F 
ENDBRANCH  47  61
BRANCH  48  72
ATOM     72  C   UNL A   1      39.460  27.612  28.469  1.00  0.00     0.064 A 
ATOM     73  C   UNL A   1      40.006  28.743  27.847  1.00  0.00     0.173 A 
ATOM     74  C   UNL A   1      39.470  26.392  27.783  1.00  0.00     0.173 A 
ATOM     75  F   UNL A   1      39.894  29.950  28.421  1.00  0.00    -0.203 F 
ATOM     76  C   UNL A   1      40.862  28.583  26.776  1.00  0.00     0.198 A 
ATOM     77  C   UNL A   1      40.320  26.234  26.697  1.00  0.00     0.198 A 
ATOM     78  F   UNL A   1      38.820  25.330  28.281  1.00  0.00    -0.203 F 
ATOM     79  F   UNL A   1      41.602  29.614  26.345  1.00  0.00    -0.200 F 
ATOM     80  C   UNL A   1      41.066  27.321  26.247  1.00  0.00     0.200 A 
ATOM     81  F   UNL A   1      40.490  25.012  26.173  1.00  0.00    -0.200 F 
ATOM     82  F   UNL A   1      42.022  27.193  25.324  1.00  0.00    -0.200 F 
ENDBRANCH  48  72
BRANCH  60  83
ATOM     83  C   UNL A   1      44.193  30.094  33.269  1.00  0.00     0.064 A 
ATOM     84  C   UNL A   1      44.990  29.400  34.190  1.00  0.00     0.173 A 
ATOM     85  C   UNL A   1      44.850  31.116  32.539  1.00  0.00     0.173 A 
ATOM     86  F   UNL A   1      44.537  28.319  34.838  1.00  0.00    -0.203 F 
ATOM     87  C   UNL A   1      46.315  29.760  34.432  1.00  0.00     0.198 A 
ATOM     88  C   UNL A   1      46.196  31.413  32.721  1.00  0.00     0.198 A 
ATOM     89  F   UNL A   1      44.218  31.842  31.607  1.00  0.00    -0.203 F 
ATOM     90  F   UNL A   1      47.012  29.114  35.377  1.00  0.00    -0.200 F 
ATOM     91  C   UNL A   1      46.922  30.754  33.688  1.00  0.00     0.200 A 
ATOM     92  F   UNL A   1      46.784  32.329  31.939  1.00  0.00    -0.200 F 
ATOM     93  F   UNL A   1      48.209  31.060  33.888  1.00  0.00    -0.200 F 
ENDBRANCH  60  83
ENDBRANCH  34  35
ENDBRANCH  27  29
ENDBRANCH  26  27
ENDBRANCH  25  26
ENDBRANCH  24  25
ENDBRANCH  23  24
ENDBRANCH  22  23
ENDBRANCH   1  22
TORSDOF 20
ENDMDL
