MODEL 1
REMARK VINA RESULT:     -12.0      0.000      0.000
REMARK SMILES NS(=O)(=O)c1ccc(-n2nc(C(F)F)cc2-c2ccc(C(=O)OCCOCCOCCOC(=O)c3ccc(-c4c5nc(c(-c6c(F)c(F)c(F)c(F)c6F)c6ccc([nH]6)c(-c6c(F)c(F)c(F)c(F)c6F)c6nc(c(-c7c(F)c(F)c(F)c(F)c7F)c7ccc4[nH]7)C=C6)C=C5)cc3)cc2)cc1
REMARK SMILES IDX 27 1 26 2 25 3 24 4 23 5 21 6 22 7 20 8 17 9 18 10 99 11
REMARK SMILES IDX 19 12 98 13 16 14 9 15 10 16 11 17 15 18 8 19 5 20 6 21
REMARK SMILES IDX 101 22 7 23 100 24 2 25 3 26 4 27 1 28 12 31 13 32 14 33
REMARK SMILES IDX 28 34 29 35 30 36 31 37 32 38 33 39 34 40 35 41 36 42 97 43
REMARK SMILES IDX 37 44 96 45 38 46 39 47 40 48 90 49 41 50 95 51 89 52 91 53
REMARK SMILES IDX 42 54 94 55 88 56 87 57 43 59 75 60 55 61 74 62 56 63 59 64
REMARK SMILES IDX 73 65 92 66 57 67 58 68 72 70 93 71 60 72 44 73 45 74 53 75
REMARK SMILES IDX 46 76 47 77 51 78 54 79 48 80 49 81 52 82 50 83 76 84 77 85
REMARK SMILES IDX 85 86 78 87 79 88 83 89 86 90 80 91 81 92 84 93 82 94 61 95
REMARK SMILES IDX 62 96 70 97 63 98 64 99 68 100 71 101 65 102 66 103 69 104
REMARK SMILES IDX 67 105
REMARK H PARENT 1 29 1 30 91 58 59 69
REMARK Flexibility Score: inf
ROOT
ATOM      1  C   UNL A   1      38.742  21.373  25.655  1.00  0.00     0.188 C 
ENDROOT
BRANCH   1   2
ATOM      2  O   UNL A   1      38.201  22.670  25.756  1.00  0.00    -0.376 OA
BRANCH   2   3
ATOM      3  C   UNL A   1      36.885  22.920  25.289  1.00  0.00     0.202 C 
BRANCH   3   4
ATOM      4  C   UNL A   1      35.659  23.144  26.202  1.00  0.00     0.261 C 
BRANCH   4   5
ATOM      5  O   UNL A   1      34.953  24.383  26.092  1.00  0.00    -0.460 OA
BRANCH   5   6
ATOM      6  C   UNL A   1      33.602  24.310  26.134  1.00  0.00     0.338 C 
ATOM      7  O   UNL A   1      32.937  23.391  26.579  1.00  0.00    -0.246 OA
BRANCH   6   8
ATOM      8  C   UNL A   1      33.024  25.615  25.734  1.00  0.00     0.060 A 
ATOM      9  C   UNL A   1      31.802  28.033  25.003  1.00  0.00     0.000 A 
ATOM     10  C   UNL A   1      31.271  27.257  26.044  1.00  0.00     0.011 A 
ATOM     11  C   UNL A   1      32.981  27.614  24.370  1.00  0.00     0.011 A 
ATOM     12  C   UNL A   1      31.871  26.049  26.399  1.00  0.00     0.016 A 
ATOM     13  C   UNL A   1      33.602  26.414  24.742  1.00  0.00     0.016 A 
BRANCH   9  14
ATOM     14  C   UNL A   1      31.045  29.170  24.483  1.00  0.00     0.075 A 
ATOM     15  N   UNL A   1      30.916  30.426  25.064  1.00  0.00    -0.233 N 
ATOM     16  N   UNL A   1      29.848  31.101  24.563  1.00  0.00    -0.166 NA
ATOM     17  C   UNL A   1      29.443  30.380  23.506  1.00  0.00     0.129 A 
ATOM     18  C   UNL A   1      30.146  29.157  23.433  1.00  0.00     0.060 A 
BRANCH  15  19
ATOM     19  C   UNL A   1      31.748  31.049  26.034  1.00  0.00     0.065 A 
ATOM     20  C   UNL A   1      33.391  32.309  27.902  1.00  0.00     0.082 A 
ATOM     21  C   UNL A   1      33.734  31.042  27.426  1.00  0.00     0.024 A 
ATOM     22  C   UNL A   1      32.241  32.959  27.440  1.00  0.00     0.024 A 
ATOM     23  C   UNL A   1      32.901  30.403  26.502  1.00  0.00     0.030 A 
ATOM     24  C   UNL A   1      31.433  32.340  26.483  1.00  0.00     0.030 A 
BRANCH  20  25
ATOM     25  S   UNL A   1      34.381  33.147  29.104  1.00  0.00     0.238 S 
ATOM     26  O   UNL A   1      33.531  34.081  29.811  1.00  0.00    -0.207 OA
ATOM     27  O   UNL A   1      35.627  33.529  28.493  1.00  0.00    -0.207 OA
BRANCH  25  28
ATOM     28  N   UNL A   1      34.770  31.975  30.243  1.00  0.00    -0.225 NA
ATOM     29  H   UNL A   1      34.954  31.090  29.771  1.00  0.00     0.137 HD
ATOM     30  H   UNL A   1      33.991  31.860  30.891  1.00  0.00     0.137 HD
ENDBRANCH  25  28
ENDBRANCH  20  25
ENDBRANCH  15  19
BRANCH  17  31
ATOM     31  C   UNL A   1      28.356  30.834  22.577  1.00  0.00     0.393 C 
ATOM     32  F   UNL A   1      27.362  31.503  23.221  1.00  0.00    -0.203 F 
ATOM     33  F   UNL A   1      28.837  31.674  21.620  1.00  0.00    -0.203 F 
ENDBRANCH  17  31
ENDBRANCH   9  14
ENDBRANCH   6   8
ENDBRANCH   5   6
ENDBRANCH   4   5
ENDBRANCH   3   4
ENDBRANCH   2   3
ENDBRANCH   1   2
BRANCH   1  34
ATOM     34  C   UNL A   1      40.046  21.167  26.453  1.00  0.00     0.188 C 
BRANCH  34  35
ATOM     35  O   UNL A   1      40.826  19.985  26.333  1.00  0.00    -0.376 OA
BRANCH  35  36
ATOM     36  C   UNL A   1      42.245  19.997  26.384  1.00  0.00     0.202 C 
BRANCH  36  37
ATOM     37  C   UNL A   1      43.106  18.956  25.669  1.00  0.00     0.261 C 
BRANCH  37  38
ATOM     38  O   UNL A   1      44.437  19.352  25.403  1.00  0.00    -0.460 OA
BRANCH  38  39
ATOM     39  C   UNL A   1      44.574  19.989  24.227  1.00  0.00     0.338 C 
ATOM     40  O   UNL A   1      44.509  19.513  23.105  1.00  0.00    -0.246 OA
BRANCH  39  41
ATOM     41  C   UNL A   1      44.939  21.381  24.477  1.00  0.00     0.060 A 
ATOM     42  C   UNL A   1      45.793  21.602  25.556  1.00  0.00     0.016 A 
ATOM     43  C   UNL A   1      44.172  22.401  23.899  1.00  0.00     0.016 A 
ATOM     44  C   UNL A   1      45.688  22.797  26.225  1.00  0.00     0.010 A 
ATOM     45  C   UNL A   1      44.062  23.592  24.572  1.00  0.00     0.010 A 
ATOM     46  C   UNL A   1      44.742  23.729  25.778  1.00  0.00    -0.014 A 
BRANCH  46  47
ATOM     47  C   UNL A   1      44.524  24.894  26.604  1.00  0.00     0.031 A 
ATOM     48  C   UNL A   1      45.606  25.892  26.488  1.00  0.00     0.074 A 
ATOM     49  C   UNL A   1      43.413  25.059  27.344  1.00  0.00     0.049 A 
ATOM     50  N   UNL A   1      46.441  26.256  27.401  1.00  0.00    -0.248 NA
ATOM     51  C   UNL A   1      45.897  26.422  25.148  1.00  0.00     0.031 C 
ATOM     52  C   UNL A   1      42.176  24.275  27.326  1.00  0.00     0.029 A 
ATOM     53  N   UNL A   1      43.130  26.053  28.227  1.00  0.00    -0.354 N 
ATOM     54  C   UNL A   1      47.257  27.206  26.798  1.00  0.00     0.074 A 
ATOM     55  C   UNL A   1      46.996  27.136  25.384  1.00  0.00     0.031 C 
ATOM     56  C   UNL A   1      41.208  24.960  27.978  1.00  0.00     0.029 A 
ATOM     57  C   UNL A   1      41.790  26.154  28.568  1.00  0.00     0.049 A 
ATOM     58  H   UNL A   1      43.820  26.650  28.595  1.00  0.00     0.167 HD
ATOM     59  C   UNL A   1      47.892  28.148  27.543  1.00  0.00     0.037 A 
ATOM     60  C   UNL A   1      41.213  27.198  29.214  1.00  0.00     0.037 A 
ATOM     61  C   UNL A   1      48.007  27.733  28.918  1.00  0.00     0.049 A 
ATOM     62  C   UNL A   1      42.298  27.954  29.896  1.00  0.00     0.074 A 
ATOM     63  C   UNL A   1      48.610  26.667  29.558  1.00  0.00     0.029 A 
ATOM     64  N   UNL A   1      47.131  28.265  29.832  1.00  0.00    -0.354 N 
ATOM     65  N   UNL A   1      42.973  27.496  30.913  1.00  0.00    -0.248 NA
ATOM     66  C   UNL A   1      42.940  29.029  29.153  1.00  0.00     0.031 C 
ATOM     67  C   UNL A   1      47.727  26.325  30.624  1.00  0.00     0.029 A 
ATOM     68  C   UNL A   1      46.670  27.233  30.608  1.00  0.00     0.049 A 
ATOM     69  H   UNL A   1      46.882  29.214  29.916  1.00  0.00     0.167 HD
ATOM     70  C   UNL A   1      44.278  27.905  30.682  1.00  0.00     0.074 A 
ATOM     71  C   UNL A   1      44.182  28.914  29.630  1.00  0.00     0.031 C 
ATOM     72  C   UNL A   1      45.335  27.184  31.156  1.00  0.00     0.037 A 
BRANCH  59  73
ATOM     73  C   UNL A   1      48.037  29.586  27.109  1.00  0.00     0.064 A 
ATOM     74  C   UNL A   1      49.275  30.230  27.302  1.00  0.00     0.173 A 
ATOM     75  C   UNL A   1      46.950  30.438  26.806  1.00  0.00     0.173 A 
ATOM     76  F   UNL A   1      50.373  29.524  27.609  1.00  0.00    -0.203 F 
ATOM     77  C   UNL A   1      49.391  31.622  27.288  1.00  0.00     0.198 A 
ATOM     78  C   UNL A   1      47.083  31.822  26.738  1.00  0.00     0.198 A 
ATOM     79  F   UNL A   1      45.697  29.990  26.678  1.00  0.00    -0.203 F 
ATOM     80  F   UNL A   1      50.558  32.193  27.616  1.00  0.00    -0.200 F 
ATOM     81  C   UNL A   1      48.293  32.417  27.014  1.00  0.00     0.200 A 
ATOM     82  F   UNL A   1      46.001  32.574  26.488  1.00  0.00    -0.200 F 
ATOM     83  F   UNL A   1      48.386  33.752  27.069  1.00  0.00    -0.200 F 
ENDBRANCH  59  73
BRANCH  60  84
ATOM     84  C   UNL A   1      39.865  27.780  28.997  1.00  0.00     0.064 A 
ATOM     85  C   UNL A   1      38.963  27.926  30.064  1.00  0.00     0.173 A 
ATOM     86  C   UNL A   1      39.545  28.466  27.810  1.00  0.00     0.173 A 
ATOM     87  F   UNL A   1      39.215  27.344  31.246  1.00  0.00    -0.203 F 
ATOM     88  C   UNL A   1      37.823  28.732  29.957  1.00  0.00     0.198 A 
ATOM     89  C   UNL A   1      38.405  29.264  27.702  1.00  0.00     0.198 A 
ATOM     90  F   UNL A   1      40.381  28.458  26.762  1.00  0.00    -0.203 F 
ATOM     91  F   UNL A   1      37.021  28.899  31.017  1.00  0.00    -0.200 F 
ATOM     92  C   UNL A   1      37.552  29.409  28.779  1.00  0.00     0.200 A 
ATOM     93  F   UNL A   1      38.175  29.943  26.568  1.00  0.00    -0.200 F 
ATOM     94  F   UNL A   1      36.498  30.232  28.696  1.00  0.00    -0.200 F 
ENDBRANCH  60  84
BRANCH  72  95
ATOM     95  C   UNL A   1      45.051  26.096  32.153  1.00  0.00     0.064 A 
ATOM     96  C   UNL A   1      44.982  26.300  33.543  1.00  0.00     0.173 A 
ATOM     97  C   UNL A   1      44.693  24.831  31.670  1.00  0.00     0.173 A 
ATOM     98  F   UNL A   1      45.208  27.508  34.075  1.00  0.00    -0.203 F 
ATOM     99  C   UNL A   1      44.618  25.268  34.407  1.00  0.00     0.198 A 
ATOM    100  C   UNL A   1      44.291  23.814  32.531  1.00  0.00     0.198 A 
ATOM    101  F   UNL A   1      44.687  24.594  30.349  1.00  0.00    -0.203 F 
ATOM    102  F   UNL A   1      44.571  25.485  35.730  1.00  0.00    -0.200 F 
ATOM    103  C   UNL A   1      44.265  24.030  33.899  1.00  0.00     0.200 A 
ATOM    104  F   UNL A   1      43.903  22.633  32.031  1.00  0.00    -0.200 F 
ATOM    105  F   UNL A   1      43.872  23.051  34.726  1.00  0.00    -0.200 F 
ENDBRANCH  72  95
ENDBRANCH  46  47
ENDBRANCH  39  41
ENDBRANCH  38  39
ENDBRANCH  37  38
ENDBRANCH  36  37
ENDBRANCH  35  36
ENDBRANCH  34  35
ENDBRANCH   1  34
TORSDOF 22
ENDMDL
MODEL 2
REMARK VINA RESULT:     -11.5      3.774      5.448
REMARK SMILES NS(=O)(=O)c1ccc(-n2nc(C(F)F)cc2-c2ccc(C(=O)OCCOCCOCCOC(=O)c3ccc(-c4c5nc(c(-c6c(F)c(F)c(F)c(F)c6F)c6ccc([nH]6)c(-c6c(F)c(F)c(F)c(F)c6F)c6nc(c(-c7c(F)c(F)c(F)c(F)c7F)c7ccc4[nH]7)C=C6)C=C5)cc3)cc2)cc1
REMARK SMILES IDX 27 1 26 2 25 3 24 4 23 5 21 6 22 7 20 8 17 9 18 10 99 11
REMARK SMILES IDX 19 12 98 13 16 14 9 15 10 16 11 17 15 18 8 19 5 20 6 21
REMARK SMILES IDX 101 22 7 23 100 24 2 25 3 26 4 27 1 28 12 31 13 32 14 33
REMARK SMILES IDX 28 34 29 35 30 36 31 37 32 38 33 39 34 40 35 41 36 42 97 43
REMARK SMILES IDX 37 44 96 45 38 46 39 47 40 48 90 49 41 50 95 51 89 52 91 53
REMARK SMILES IDX 42 54 94 55 88 56 87 57 43 59 75 60 55 61 74 62 56 63 59 64
REMARK SMILES IDX 73 65 92 66 57 67 58 68 72 70 93 71 60 72 44 73 45 74 53 75
REMARK SMILES IDX 46 76 47 77 51 78 54 79 48 80 49 81 52 82 50 83 76 84 77 85
REMARK SMILES IDX 85 86 78 87 79 88 83 89 86 90 80 91 81 92 84 93 82 94 61 95
REMARK SMILES IDX 62 96 70 97 63 98 64 99 68 100 71 101 65 102 66 103 69 104
REMARK SMILES IDX 67 105
REMARK H PARENT 1 29 1 30 91 58 59 69
REMARK Flexibility Score: inf
ROOT
ATOM      1  C   UNL A   1      35.970  21.563  25.618  1.00  0.00     0.188 C 
ENDROOT
BRANCH   1   2
ATOM      2  O   UNL A   1      35.068  20.980  24.706  1.00  0.00    -0.376 OA
BRANCH   2   3
ATOM      3  C   UNL A   1      33.783  20.574  25.151  1.00  0.00     0.202 C 
BRANCH   3   4
ATOM      4  C   UNL A   1      32.481  20.738  24.334  1.00  0.00     0.261 C 
BRANCH   4   5
ATOM      5  O   UNL A   1      31.946  22.055  24.178  1.00  0.00    -0.460 OA
BRANCH   5   6
ATOM      6  C   UNL A   1      31.244  22.545  25.226  1.00  0.00     0.338 C 
ATOM      7  O   UNL A   1      30.543  21.909  25.994  1.00  0.00    -0.246 OA
BRANCH   6   8
ATOM      8  C   UNL A   1      31.604  23.967  25.440  1.00  0.00     0.060 A 
ATOM      9  C   UNL A   1      32.420  26.619  25.856  1.00  0.00     0.000 A 
ATOM     10  C   UNL A   1      33.231  25.734  25.130  1.00  0.00     0.011 A 
ATOM     11  C   UNL A   1      31.174  26.178  26.324  1.00  0.00     0.011 A 
ATOM     12  C   UNL A   1      32.831  24.413  24.934  1.00  0.00     0.016 A 
ATOM     13  C   UNL A   1      30.757  24.859  26.106  1.00  0.00     0.016 A 
BRANCH   9  14
ATOM     14  C   UNL A   1      32.944  27.924  26.256  1.00  0.00     0.075 A 
ATOM     15  N   UNL A   1      32.659  29.155  25.675  1.00  0.00    -0.233 N 
ATOM     16  N   UNL A   1      33.592  30.088  26.001  1.00  0.00    -0.166 NA
ATOM     17  C   UNL A   1      34.329  29.524  26.969  1.00  0.00     0.129 A 
ATOM     18  C   UNL A   1      33.975  28.168  27.144  1.00  0.00     0.060 A 
BRANCH  15  19
ATOM     19  C   UNL A   1      31.552  29.521  24.862  1.00  0.00     0.065 A 
ATOM     20  C   UNL A   1      29.411  30.246  23.228  1.00  0.00     0.082 A 
ATOM     21  C   UNL A   1      29.718  31.022  24.348  1.00  0.00     0.024 A 
ATOM     22  C   UNL A   1      30.176  29.118  22.910  1.00  0.00     0.024 A 
ATOM     23  C   UNL A   1      30.780  30.649  25.177  1.00  0.00     0.030 A 
ATOM     24  C   UNL A   1      31.265  28.771  23.712  1.00  0.00     0.030 A 
BRANCH  20  25
ATOM     25  S   UNL A   1      28.053  30.644  22.169  1.00  0.00     0.238 S 
ATOM     26  O   UNL A   1      28.404  30.244  20.822  1.00  0.00    -0.207 OA
ATOM     27  O   UNL A   1      27.580  31.963  22.497  1.00  0.00    -0.207 OA
BRANCH  25  28
ATOM     28  N   UNL A   1      26.824  29.591  22.621  1.00  0.00    -0.225 NA
ATOM     29  H   UNL A   1      27.214  28.834  23.182  1.00  0.00     0.137 HD
ATOM     30  H   UNL A   1      26.384  29.204  21.787  1.00  0.00     0.137 HD
ENDBRANCH  25  28
ENDBRANCH  20  25
ENDBRANCH  15  19
BRANCH  17  31
ATOM     31  C   UNL A   1      35.403  30.262  27.711  1.00  0.00     0.393 C 
ATOM     32  F   UNL A   1      35.609  29.771  28.963  1.00  0.00    -0.203 F 
ATOM     33  F   UNL A   1      36.597  30.191  27.061  1.00  0.00    -0.203 F 
ENDBRANCH  17  31
ENDBRANCH   9  14
ENDBRANCH   6   8
ENDBRANCH   5   6
ENDBRANCH   4   5
ENDBRANCH   3   4
ENDBRANCH   2   3
ENDBRANCH   1   2
BRANCH   1  34
ATOM     34  C   UNL A   1      35.918  23.104  25.662  1.00  0.00     0.188 C 
BRANCH  34  35
ATOM     35  O   UNL A   1      37.049  23.886  26.026  1.00  0.00    -0.376 OA
BRANCH  35  36
ATOM     36  C   UNL A   1      38.332  23.318  26.247  1.00  0.00     0.202 C 
BRANCH  36  37
ATOM     37  C   UNL A   1      39.314  23.874  27.277  1.00  0.00     0.261 C 
BRANCH  37  38
ATOM     38  O   UNL A   1      40.511  23.138  27.429  1.00  0.00    -0.460 OA
BRANCH  38  39
ATOM     39  C   UNL A   1      41.418  23.401  26.472  1.00  0.00     0.338 C 
ATOM     40  O   UNL A   1      41.870  22.635  25.636  1.00  0.00    -0.246 OA
BRANCH  39  41
ATOM     41  C   UNL A   1      41.905  24.768  26.638  1.00  0.00     0.060 A 
ATOM     42  C   UNL A   1      42.714  24.996  27.749  1.00  0.00     0.016 A 
ATOM     43  C   UNL A   1      41.277  25.805  25.935  1.00  0.00     0.016 A 
ATOM     44  C   UNL A   1      42.691  26.245  28.318  1.00  0.00     0.010 A 
ATOM     45  C   UNL A   1      41.249  27.053  26.508  1.00  0.00     0.010 A 
ATOM     46  C   UNL A   1      41.869  27.223  27.741  1.00  0.00    -0.014 A 
BRANCH  46  47
ATOM     47  C   UNL A   1      41.721  28.467  28.461  1.00  0.00     0.031 A 
ATOM     48  C   UNL A   1      42.848  29.396  28.240  1.00  0.00     0.074 A 
ATOM     49  C   UNL A   1      40.633  28.753  29.197  1.00  0.00     0.049 A 
ATOM     50  N   UNL A   1      43.715  29.800  29.105  1.00  0.00    -0.248 NA
ATOM     51  C   UNL A   1      43.141  29.788  26.853  1.00  0.00     0.031 C 
ATOM     52  C   UNL A   1      39.359  28.032  29.265  1.00  0.00     0.029 A 
ATOM     53  N   UNL A   1      40.413  29.835  29.989  1.00  0.00    -0.354 N 
ATOM     54  C   UNL A   1      44.565  30.650  28.407  1.00  0.00     0.074 A 
ATOM     55  C   UNL A   1      44.277  30.465  27.010  1.00  0.00     0.031 C 
ATOM     56  C   UNL A   1      38.436  28.820  29.865  1.00  0.00     0.029 A 
ATOM     57  C   UNL A   1      39.085  30.033  30.336  1.00  0.00     0.049 A 
ATOM     58  H   UNL A   1      41.137  30.429  30.292  1.00  0.00     0.167 HD
ATOM     59  C   UNL A   1      45.256  31.624  29.055  1.00  0.00     0.037 A 
ATOM     60  C   UNL A   1      38.570  31.158  30.892  1.00  0.00     0.037 A 
ATOM     61  C   UNL A   1      45.375  31.329  30.461  1.00  0.00     0.049 A 
ATOM     62  C   UNL A   1      39.701  31.918  31.488  1.00  0.00     0.074 A 
ATOM     63  C   UNL A   1      45.938  30.297  31.188  1.00  0.00     0.029 A 
ATOM     64  N   UNL A   1      44.542  31.984  31.334  1.00  0.00    -0.354 N 
ATOM     65  N   UNL A   1      40.371  31.521  32.534  1.00  0.00    -0.248 NA
ATOM     66  C   UNL A   1      40.381  32.888  30.642  1.00  0.00     0.031 C 
ATOM     67  C   UNL A   1      45.058  30.096  32.292  1.00  0.00     0.029 A 
ATOM     68  C   UNL A   1      44.045  31.050  32.206  1.00  0.00     0.049 A 
ATOM     69  H   UNL A   1      44.340  32.947  31.334  1.00  0.00     0.167 HD
ATOM     70  C   UNL A   1      41.690  31.843  32.249  1.00  0.00     0.074 A 
ATOM     71  C   UNL A   1      41.625  32.756  31.111  1.00  0.00     0.031 C 
ATOM     72  C   UNL A   1      42.719  31.116  32.773  1.00  0.00     0.037 A 
BRANCH  59  73
ATOM     73  C   UNL A   1      45.463  33.007  28.490  1.00  0.00     0.064 A 
ATOM     74  C   UNL A   1      44.334  33.756  28.104  1.00  0.00     0.173 A 
ATOM     75  C   UNL A   1      46.704  33.500  28.029  1.00  0.00     0.173 A 
ATOM     76  F   UNL A   1      43.102  33.375  28.472  1.00  0.00    -0.203 F 
ATOM     77  C   UNL A   1      44.436  34.853  27.245  1.00  0.00     0.198 A 
ATOM     78  C   UNL A   1      46.806  34.627  27.218  1.00  0.00     0.198 A 
ATOM     79  F   UNL A   1      47.858  32.858  28.239  1.00  0.00    -0.203 F 
ATOM     80  F   UNL A   1      43.323  35.447  26.793  1.00  0.00    -0.200 F 
ATOM     81  C   UNL A   1      45.671  35.283  26.796  1.00  0.00     0.200 A 
ATOM     82  F   UNL A   1      48.013  35.015  26.780  1.00  0.00    -0.200 F 
ATOM     83  F   UNL A   1      45.766  36.288  25.918  1.00  0.00    -0.200 F 
ENDBRANCH  59  73
BRANCH  60  84
ATOM     84  C   UNL A   1      37.248  31.783  30.640  1.00  0.00     0.064 A 
ATOM     85  C   UNL A   1      36.221  31.710  31.597  1.00  0.00     0.173 A 
ATOM     86  C   UNL A   1      37.061  32.705  29.593  1.00  0.00     0.173 A 
ATOM     87  F   UNL A   1      36.340  30.892  32.652  1.00  0.00    -0.203 F 
ATOM     88  C   UNL A   1      35.089  32.530  31.524  1.00  0.00     0.198 A 
ATOM     89  C   UNL A   1      35.928  33.518  29.517  1.00  0.00     0.198 A 
ATOM     90  F   UNL A   1      38.016  32.910  28.675  1.00  0.00    -0.203 F 
ATOM     91  F   UNL A   1      34.163  32.478  32.491  1.00  0.00    -0.200 F 
ATOM     92  C   UNL A   1      34.950  33.440  30.489  1.00  0.00     0.200 A 
ATOM     93  F   UNL A   1      35.824  34.421  28.531  1.00  0.00    -0.200 F 
ATOM     94  F   UNL A   1      33.899  34.271  30.454  1.00  0.00    -0.200 F 
ENDBRANCH  60  84
BRANCH  72  95
ATOM     95  C   UNL A   1      42.400  30.139  33.870  1.00  0.00     0.064 A 
ATOM     96  C   UNL A   1      41.906  28.842  33.649  1.00  0.00     0.173 A 
ATOM     97  C   UNL A   1      42.746  30.482  35.184  1.00  0.00     0.173 A 
ATOM     98  F   UNL A   1      41.649  28.401  32.411  1.00  0.00    -0.203 F 
ATOM     99  C   UNL A   1      41.722  27.949  34.706  1.00  0.00     0.198 A 
ATOM    100  C   UNL A   1      42.599  29.577  36.230  1.00  0.00     0.198 A 
ATOM    101  F   UNL A   1      43.274  31.687  35.446  1.00  0.00    -0.203 F 
ATOM    102  F   UNL A   1      41.237  26.721  34.471  1.00  0.00    -0.200 F 
ATOM    103  C   UNL A   1      42.077  28.316  35.993  1.00  0.00     0.200 A 
ATOM    104  F   UNL A   1      42.991  29.918  37.465  1.00  0.00    -0.200 F 
ATOM    105  F   UNL A   1      41.943  27.443  37.001  1.00  0.00    -0.200 F 
ENDBRANCH  72  95
ENDBRANCH  46  47
ENDBRANCH  39  41
ENDBRANCH  38  39
ENDBRANCH  37  38
ENDBRANCH  36  37
ENDBRANCH  35  36
ENDBRANCH  34  35
ENDBRANCH   1  34
TORSDOF 22
ENDMDL
MODEL 3
REMARK VINA RESULT:     -11.5      4.358      9.795
REMARK SMILES NS(=O)(=O)c1ccc(-n2nc(C(F)F)cc2-c2ccc(C(=O)OCCOCCOCCOC(=O)c3ccc(-c4c5nc(c(-c6c(F)c(F)c(F)c(F)c6F)c6ccc([nH]6)c(-c6c(F)c(F)c(F)c(F)c6F)c6nc(c(-c7c(F)c(F)c(F)c(F)c7F)c7ccc4[nH]7)C=C6)C=C5)cc3)cc2)cc1
REMARK SMILES IDX 27 1 26 2 25 3 24 4 23 5 21 6 22 7 20 8 17 9 18 10 99 11
REMARK SMILES IDX 19 12 98 13 16 14 9 15 10 16 11 17 15 18 8 19 5 20 6 21
REMARK SMILES IDX 101 22 7 23 100 24 2 25 3 26 4 27 1 28 12 31 13 32 14 33
REMARK SMILES IDX 28 34 29 35 30 36 31 37 32 38 33 39 34 40 35 41 36 42 97 43
REMARK SMILES IDX 37 44 96 45 38 46 39 47 40 48 90 49 41 50 95 51 89 52 91 53
REMARK SMILES IDX 42 54 94 55 88 56 87 57 43 59 75 60 55 61 74 62 56 63 59 64
REMARK SMILES IDX 73 65 92 66 57 67 58 68 72 70 93 71 60 72 44 73 45 74 53 75
REMARK SMILES IDX 46 76 47 77 51 78 54 79 48 80 49 81 52 82 50 83 76 84 77 85
REMARK SMILES IDX 85 86 78 87 79 88 83 89 86 90 80 91 81 92 84 93 82 94 61 95
REMARK SMILES IDX 62 96 70 97 63 98 64 99 68 100 71 101 65 102 66 103 69 104
REMARK SMILES IDX 67 105
REMARK H PARENT 1 29 1 30 91 58 59 69
REMARK Flexibility Score: inf
ROOT
ATOM      1  C   UNL A   1      33.180  29.863  26.126  1.00  0.00     0.188 C 
ENDROOT
BRANCH   1   2
ATOM      2  O   UNL A   1      31.794  29.733  25.912  1.00  0.00    -0.376 OA
BRANCH   2   3
ATOM      3  C   UNL A   1      31.302  29.538  24.595  1.00  0.00     0.202 C 
BRANCH   3   4
ATOM      4  C   UNL A   1      30.743  28.202  24.057  1.00  0.00     0.261 C 
BRANCH   4   5
ATOM      5  O   UNL A   1      30.592  27.116  24.976  1.00  0.00    -0.460 OA
BRANCH   5   6
ATOM      6  C   UNL A   1      30.503  25.879  24.434  1.00  0.00     0.338 C 
ATOM      7  O   UNL A   1      29.582  25.442  23.767  1.00  0.00    -0.246 OA
BRANCH   6   8
ATOM      8  C   UNL A   1      31.796  25.174  24.599  1.00  0.00     0.060 A 
ATOM      9  C   UNL A   1      34.260  23.903  25.036  1.00  0.00     0.000 A 
ATOM     10  C   UNL A   1      33.402  24.174  26.112  1.00  0.00     0.011 A 
ATOM     11  C   UNL A   1      33.848  24.226  23.735  1.00  0.00     0.011 A 
ATOM     12  C   UNL A   1      32.183  24.816  25.897  1.00  0.00     0.016 A 
ATOM     13  C   UNL A   1      32.613  24.847  23.512  1.00  0.00     0.016 A 
BRANCH   9  14
ATOM     14  C   UNL A   1      35.624  23.446  25.291  1.00  0.00     0.075 A 
ATOM     15  N   UNL A   1      36.049  22.133  25.462  1.00  0.00    -0.233 N 
ATOM     16  N   UNL A   1      37.263  22.077  26.073  1.00  0.00    -0.166 NA
ATOM     17  C   UNL A   1      37.713  23.342  26.074  1.00  0.00     0.129 A 
ATOM     18  C   UNL A   1      36.715  24.230  25.617  1.00  0.00     0.060 A 
BRANCH  15  19
ATOM     19  C   UNL A   1      35.408  20.930  25.061  1.00  0.00     0.065 A 
ATOM     20  C   UNL A   1      34.120  18.571  24.315  1.00  0.00     0.082 A 
ATOM     21  C   UNL A   1      35.490  18.553  24.588  1.00  0.00     0.024 A 
ATOM     22  C   UNL A   1      33.386  19.757  24.427  1.00  0.00     0.024 A 
ATOM     23  C   UNL A   1      36.139  19.739  24.945  1.00  0.00     0.030 A 
ATOM     24  C   UNL A   1      34.025  20.933  24.828  1.00  0.00     0.030 A 
BRANCH  20  25
ATOM     25  S   UNL A   1      33.255  17.112  23.816  1.00  0.00     0.238 S 
ATOM     26  O   UNL A   1      34.074  15.968  24.157  1.00  0.00    -0.207 OA
ATOM     27  O   UNL A   1      32.712  17.323  22.501  1.00  0.00    -0.207 OA
BRANCH  25  28
ATOM     28  N   UNL A   1      31.932  17.015  24.848  1.00  0.00    -0.225 NA
ATOM     29  H   UNL A   1      31.908  16.091  25.281  1.00  0.00     0.137 HD
ATOM     30  H   UNL A   1      31.075  17.164  24.316  1.00  0.00     0.137 HD
ENDBRANCH  25  28
ENDBRANCH  20  25
ENDBRANCH  15  19
BRANCH  17  31
ATOM     31  C   UNL A   1      39.086  23.717  26.545  1.00  0.00     0.393 C 
ATOM     32  F   UNL A   1      39.618  24.752  25.840  1.00  0.00    -0.203 F 
ATOM     33  F   UNL A   1      39.078  24.096  27.853  1.00  0.00    -0.203 F 
ENDBRANCH  17  31
ENDBRANCH   9  14
ENDBRANCH   6   8
ENDBRANCH   5   6
ENDBRANCH   4   5
ENDBRANCH   3   4
ENDBRANCH   2   3
ENDBRANCH   1   2
BRANCH   1  34
ATOM     34  C   UNL A   1      33.664  29.319  27.486  1.00  0.00     0.188 C 
BRANCH  34  35
ATOM     35  O   UNL A   1      35.032  29.361  27.872  1.00  0.00    -0.376 OA
BRANCH  35  36
ATOM     36  C   UNL A   1      35.894  30.432  27.515  1.00  0.00     0.202 C 
BRANCH  36  37
ATOM     37  C   UNL A   1      35.734  31.843  28.081  1.00  0.00     0.261 C 
BRANCH  37  38
ATOM     38  O   UNL A   1      36.558  32.146  29.189  1.00  0.00    -0.460 OA
BRANCH  38  39
ATOM     39  C   UNL A   1      36.066  31.687  30.353  1.00  0.00     0.338 C 
ATOM     40  O   UNL A   1      34.993  31.954  30.871  1.00  0.00    -0.246 OA
BRANCH  39  41
ATOM     41  C   UNL A   1      37.081  30.868  31.012  1.00  0.00     0.060 A 
ATOM     42  C   UNL A   1      38.294  31.500  31.278  1.00  0.00     0.016 A 
ATOM     43  C   UNL A   1      36.940  29.474  31.008  1.00  0.00     0.016 A 
ATOM     44  C   UNL A   1      39.431  30.730  31.289  1.00  0.00     0.010 A 
ATOM     45  C   UNL A   1      38.078  28.706  31.012  1.00  0.00     0.010 A 
ATOM     46  C   UNL A   1      39.307  29.356  31.048  1.00  0.00    -0.014 A 
BRANCH  46  47
ATOM     47  C   UNL A   1      40.529  28.602  30.884  1.00  0.00     0.031 A 
ATOM     48  C   UNL A   1      41.274  28.432  32.147  1.00  0.00     0.074 A 
ATOM     49  C   UNL A   1      40.897  28.068  29.706  1.00  0.00     0.049 A 
ATOM     50  N   UNL A   1      42.429  28.917  32.451  1.00  0.00    -0.248 NA
ATOM     51  C   UNL A   1      40.571  27.784  33.265  1.00  0.00     0.031 C 
ATOM     52  C   UNL A   1      40.117  27.946  28.473  1.00  0.00     0.029 A 
ATOM     53  N   UNL A   1      42.054  27.425  29.398  1.00  0.00    -0.354 N 
ATOM     54  C   UNL A   1      42.686  28.480  33.745  1.00  0.00     0.074 A 
ATOM     55  C   UNL A   1      41.450  27.947  34.253  1.00  0.00     0.031 C 
ATOM     56  C   UNL A   1      40.733  27.072  27.643  1.00  0.00     0.029 A 
ATOM     57  C   UNL A   1      42.006  26.683  28.228  1.00  0.00     0.049 A 
ATOM     58  H   UNL A   1      42.860  27.482  29.960  1.00  0.00     0.167 HD
ATOM     59  C   UNL A   1      43.962  28.360  34.196  1.00  0.00     0.037 A 
ATOM     60  C   UNL A   1      42.919  25.760  27.836  1.00  0.00     0.037 A 
ATOM     61  C   UNL A   1      44.867  29.166  33.416  1.00  0.00     0.049 A 
ATOM     62  C   UNL A   1      44.170  26.021  28.597  1.00  0.00     0.074 A 
ATOM     63  C   UNL A   1      44.974  30.518  33.152  1.00  0.00     0.029 A 
ATOM     64  N   UNL A   1      45.636  28.542  32.464  1.00  0.00    -0.354 N 
ATOM     65  N   UNL A   1      44.924  27.070  28.418  1.00  0.00    -0.248 NA
ATOM     66  C   UNL A   1      44.334  25.346  29.876  1.00  0.00     0.031 C 
ATOM     67  C   UNL A   1      45.393  30.600  31.791  1.00  0.00     0.029 A 
ATOM     68  C   UNL A   1      45.571  29.299  31.323  1.00  0.00     0.049 A 
ATOM     69  H   UNL A   1      46.142  27.706  32.581  1.00  0.00     0.167 HD
ATOM     70  C   UNL A   1      45.323  27.438  29.694  1.00  0.00     0.074 A 
ATOM     71  C   UNL A   1      45.000  26.294  30.542  1.00  0.00     0.031 C 
ATOM     72  C   UNL A   1      45.609  28.739  29.993  1.00  0.00     0.037 A 
BRANCH  59  73
ATOM     73  C   UNL A   1      44.428  27.220  35.067  1.00  0.00     0.064 A 
ATOM     74  C   UNL A   1      45.150  27.514  36.240  1.00  0.00     0.173 A 
ATOM     75  C   UNL A   1      44.469  25.869  34.652  1.00  0.00     0.173 A 
ATOM     76  F   UNL A   1      45.194  28.766  36.720  1.00  0.00    -0.203 F 
ATOM     77  C   UNL A   1      45.928  26.552  36.888  1.00  0.00     0.198 A 
ATOM     78  C   UNL A   1      45.202  24.900  35.334  1.00  0.00     0.198 A 
ATOM     79  F   UNL A   1      43.906  25.446  33.517  1.00  0.00    -0.203 F 
ATOM     80  F   UNL A   1      46.708  26.912  37.916  1.00  0.00    -0.200 F 
ATOM     81  C   UNL A   1      45.960  25.248  36.429  1.00  0.00     0.200 A 
ATOM     82  F   UNL A   1      45.232  23.646  34.861  1.00  0.00    -0.200 F 
ATOM     83  F   UNL A   1      46.759  24.341  37.005  1.00  0.00    -0.200 F 
ENDBRANCH  59  73
BRANCH  60  84
ATOM     84  C   UNL A   1      42.682  24.478  27.128  1.00  0.00     0.064 A 
ATOM     85  C   UNL A   1      43.082  24.307  25.792  1.00  0.00     0.173 A 
ATOM     86  C   UNL A   1      42.326  23.309  27.827  1.00  0.00     0.173 A 
ATOM     87  F   UNL A   1      43.482  25.362  25.067  1.00  0.00    -0.203 F 
ATOM     88  C   UNL A   1      43.148  23.040  25.201  1.00  0.00     0.198 A 
ATOM     89  C   UNL A   1      42.386  22.046  27.235  1.00  0.00     0.198 A 
ATOM     90  F   UNL A   1      42.009  23.354  29.129  1.00  0.00    -0.203 F 
ATOM     91  F   UNL A   1      43.598  22.911  23.945  1.00  0.00    -0.200 F 
ATOM     92  C   UNL A   1      42.810  21.910  25.927  1.00  0.00     0.200 A 
ATOM     93  F   UNL A   1      42.092  20.958  27.961  1.00  0.00    -0.200 F 
ATOM     94  F   UNL A   1      42.935  20.691  25.384  1.00  0.00    -0.200 F 
ENDBRANCH  60  84
BRANCH  72  95
ATOM     95  C   UNL A   1      45.741  29.708  28.852  1.00  0.00     0.064 A 
ATOM     96  C   UNL A   1      44.665  30.420  28.295  1.00  0.00     0.173 A 
ATOM     97  C   UNL A   1      47.029  30.031  28.405  1.00  0.00     0.173 A 
ATOM     98  F   UNL A   1      43.415  30.244  28.741  1.00  0.00    -0.203 F 
ATOM     99  C   UNL A   1      44.870  31.377  27.301  1.00  0.00     0.198 A 
ATOM    100  C   UNL A   1      47.234  31.015  27.442  1.00  0.00     0.198 A 
ATOM    101  F   UNL A   1      48.099  29.423  28.940  1.00  0.00    -0.203 F 
ATOM    102  F   UNL A   1      43.826  32.035  26.776  1.00  0.00    -0.200 F 
ATOM    103  C   UNL A   1      46.155  31.678  26.882  1.00  0.00     0.200 A 
ATOM    104  F   UNL A   1      48.482  31.338  27.076  1.00  0.00    -0.200 F 
ATOM    105  F   UNL A   1      46.356  32.630  25.960  1.00  0.00    -0.200 F 
ENDBRANCH  72  95
ENDBRANCH  46  47
ENDBRANCH  39  41
ENDBRANCH  38  39
ENDBRANCH  37  38
ENDBRANCH  36  37
ENDBRANCH  35  36
ENDBRANCH  34  35
ENDBRANCH   1  34
TORSDOF 22
ENDMDL
