MODEL 1
REMARK VINA RESULT:     -10.5      0.000      0.000
REMARK SMILES CC(C)C[C@H](NC(=O)[C@](C)([NH3+])C(F)(F)F)C(=O)OCCOCCOCCOC(=O)c1ccc(-c2c3nc(c(-c4c(F)c(F)c(F)c(F)c4F)c4ccc([nH]4)c(-c4c(F)c(F)c(F)c(F)c4F)c4nc(c(-c5c(F)c(F)c(F)c(F)c5F)c5ccc2[nH]5)C=C4)C=C3)cc1
REMARK SMILES IDX 22 1 21 2 20 3 19 4 18 5 16 6 17 7 5 8 4 9 2 10 1 11 3 12
REMARK SMILES IDX 6 13 7 14 8 16 9 17 10 18 11 19 12 23 13 24 14 25 15 26
REMARK SMILES IDX 23 27 24 28 25 29 26 30 27 31 28 32 29 33 30 34 31 35 92 36
REMARK SMILES IDX 32 37 91 38 33 39 34 40 35 41 85 42 36 43 90 44 84 45 86 46
REMARK SMILES IDX 37 47 89 48 83 49 82 50 38 52 70 53 50 54 69 55 51 56 54 57
REMARK SMILES IDX 68 58 87 59 52 60 53 61 67 63 88 64 55 65 39 66 40 67 48 68
REMARK SMILES IDX 41 69 42 70 46 71 49 72 43 73 44 74 47 75 45 76 71 77 72 78
REMARK SMILES IDX 80 79 73 80 74 81 78 82 81 83 75 84 76 85 79 86 77 87 56 88
REMARK SMILES IDX 57 89 65 90 58 91 59 92 63 93 66 94 60 95 61 96 64 97 62 98
REMARK H PARENT 6 15 11 20 11 21 11 22 86 51 54 62
REMARK Flexibility Score: inf
ROOT
ATOM      1  C   UNL A   1      31.983  28.089  26.315  1.00  0.00     0.188 C 
ENDROOT
BRANCH   1   2
ATOM      2  O   UNL A   1      31.800  26.837  26.941  1.00  0.00    -0.376 OA
BRANCH   2   3
ATOM      3  C   UNL A   1      31.497  25.726  26.117  1.00  0.00     0.202 C 
BRANCH   3   4
ATOM      4  C   UNL A   1      32.598  24.844  25.483  1.00  0.00     0.261 C 
BRANCH   4   5
ATOM      5  O   UNL A   1      32.791  23.499  25.954  1.00  0.00    -0.462 OA
BRANCH   5   6
ATOM      6  C   UNL A   1      32.177  22.531  25.228  1.00  0.00     0.328 C 
ATOM      7  O   UNL A   1      30.959  22.474  25.090  1.00  0.00    -0.250 OA
BRANCH   6   8
ATOM      8  C   UNL A   1      33.149  21.427  24.721  1.00  0.00     0.192 C 
BRANCH   8   9
ATOM      9  C   UNL A   1      34.244  22.199  23.976  1.00  0.00     0.040 C 
BRANCH   9  10
ATOM     10  C   UNL A   1      35.677  22.014  24.515  1.00  0.00    -0.015 C 
ATOM     11  C   UNL A   1      36.547  23.275  24.492  1.00  0.00     0.007 C 
ATOM     12  C   UNL A   1      35.607  21.469  25.939  1.00  0.00     0.007 C 
ENDBRANCH   9  10
ENDBRANCH   8   9
BRANCH   8  13
ATOM     13  N   UNL A   1      32.588  20.387  23.834  1.00  0.00    -0.337 N 
ATOM     14  C   UNL A   1      32.580  19.022  23.846  1.00  0.00     0.291 C 
ATOM     15  H   UNL A   1      32.113  20.764  23.060  1.00  0.00     0.164 HD
ATOM     16  O   UNL A   1      31.845  18.526  22.974  1.00  0.00    -0.267 OA
BRANCH  14  17
ATOM     17  C   UNL A   1      33.235  18.062  24.901  1.00  0.00     0.267 C 
ATOM     18  C   UNL A   1      32.364  16.777  24.958  1.00  0.00     0.100 C 
BRANCH  17  19
ATOM     19  N   UNL A   1      33.115  18.709  26.254  1.00  0.00    -0.337 N 
ATOM     20  H   UNL A   1      33.876  19.377  26.381  1.00  0.00     0.345 HD
ATOM     21  H   UNL A   1      33.166  17.993  26.979  1.00  0.00     0.345 HD
ATOM     22  H   UNL A   1      32.221  19.197  26.321  1.00  0.00     0.345 HD
ENDBRANCH  17  19
BRANCH  17  23
ATOM     23  C   UNL A   1      34.646  17.577  24.535  1.00  0.00     0.453 C 
ATOM     24  F   UNL A   1      35.570  18.563  24.664  1.00  0.00    -0.164 F 
ATOM     25  F   UNL A   1      35.053  16.562  25.327  1.00  0.00    -0.164 F 
ATOM     26  F   UNL A   1      34.722  17.173  23.249  1.00  0.00    -0.164 F 
ENDBRANCH  17  23
ENDBRANCH  14  17
ENDBRANCH   8  13
ENDBRANCH   6   8
ENDBRANCH   5   6
ENDBRANCH   4   5
ENDBRANCH   3   4
ENDBRANCH   2   3
ENDBRANCH   1   2
BRANCH   1  27
ATOM     27  C   UNL A   1      32.015  29.253  27.321  1.00  0.00     0.188 C 
BRANCH  27  28
ATOM     28  O   UNL A   1      32.969  30.289  27.162  1.00  0.00    -0.376 OA
BRANCH  28  29
ATOM     29  C   UNL A   1      32.501  31.623  26.985  1.00  0.00     0.202 C 
BRANCH  29  30
ATOM     30  C   UNL A   1      33.186  32.844  27.650  1.00  0.00     0.261 C 
BRANCH  30  31
ATOM     31  O   UNL A   1      32.385  34.015  27.890  1.00  0.00    -0.460 OA
BRANCH  31  32
ATOM     32  C   UNL A   1      32.956  34.993  28.634  1.00  0.00     0.338 C 
ATOM     33  O   UNL A   1      32.530  36.125  28.820  1.00  0.00    -0.246 OA
BRANCH  32  34
ATOM     34  C   UNL A   1      34.089  34.425  29.400  1.00  0.00     0.060 A 
ATOM     35  C   UNL A   1      35.377  34.464  28.837  1.00  0.00     0.016 A 
ATOM     36  C   UNL A   1      33.895  33.846  30.653  1.00  0.00     0.016 A 
ATOM     37  C   UNL A   1      36.469  33.929  29.519  1.00  0.00     0.010 A 
ATOM     38  C   UNL A   1      34.983  33.266  31.317  1.00  0.00     0.010 A 
ATOM     39  C   UNL A   1      36.269  33.285  30.744  1.00  0.00    -0.014 A 
BRANCH  39  40
ATOM     40  C   UNL A   1      37.356  32.455  31.325  1.00  0.00     0.031 A 
ATOM     41  C   UNL A   1      37.858  32.802  32.699  1.00  0.00     0.074 A 
ATOM     42  C   UNL A   1      37.877  31.409  30.661  1.00  0.00     0.049 A 
ATOM     43  N   UNL A   1      38.858  32.295  33.375  1.00  0.00    -0.248 NA
ATOM     44  C   UNL A   1      37.136  33.873  33.405  1.00  0.00     0.031 C 
ATOM     45  C   UNL A   1      37.439  30.931  29.352  1.00  0.00     0.029 A 
ATOM     46  N   UNL A   1      38.911  30.568  30.998  1.00  0.00    -0.354 N 
ATOM     47  C   UNL A   1      38.892  32.994  34.575  1.00  0.00     0.074 A 
ATOM     48  C   UNL A   1      37.831  33.975  34.528  1.00  0.00     0.031 C 
ATOM     49  C   UNL A   1      38.215  29.895  28.985  1.00  0.00     0.029 A 
ATOM     50  C   UNL A   1      39.228  29.664  30.014  1.00  0.00     0.049 A 
ATOM     51  H   UNL A   1      39.379  30.609  31.863  1.00  0.00     0.167 HD
ATOM     52  C   UNL A   1      39.734  32.829  35.623  1.00  0.00     0.037 A 
ATOM     53  C   UNL A   1      40.244  28.780  29.939  1.00  0.00     0.037 A 
ATOM     54  C   UNL A   1      40.789  31.852  35.669  1.00  0.00     0.049 A 
ATOM     55  C   UNL A   1      41.222  28.676  31.087  1.00  0.00     0.074 A 
ATOM     56  C   UNL A   1      41.683  31.596  36.693  1.00  0.00     0.029 A 
ATOM     57  N   UNL A   1      41.098  30.974  34.641  1.00  0.00    -0.354 N 
ATOM     58  N   UNL A   1      41.241  29.326  32.225  1.00  0.00    -0.248 NA
ATOM     59  C   UNL A   1      42.323  27.713  30.935  1.00  0.00     0.031 C 
ATOM     60  C   UNL A   1      42.574  30.610  36.261  1.00  0.00     0.029 A 
ATOM     61  C   UNL A   1      42.190  30.198  34.995  1.00  0.00     0.049 A 
ATOM     62  H   UNL A   1      40.614  30.911  33.785  1.00  0.00     0.167 HD
ATOM     63  C   UNL A   1      42.325  28.825  32.937  1.00  0.00     0.074 A 
ATOM     64  C   UNL A   1      42.932  27.807  32.108  1.00  0.00     0.031 C 
ATOM     65  C   UNL A   1      42.777  29.176  34.166  1.00  0.00     0.037 A 
BRANCH  52  66
ATOM     66  C   UNL A   1      39.573  33.749  36.798  1.00  0.00     0.064 A 
ATOM     67  C   UNL A   1      40.110  35.044  36.805  1.00  0.00     0.173 A 
ATOM     68  C   UNL A   1      38.826  33.343  37.916  1.00  0.00     0.173 A 
ATOM     69  F   UNL A   1      40.845  35.476  35.769  1.00  0.00    -0.203 F 
ATOM     70  C   UNL A   1      39.922  35.893  37.893  1.00  0.00     0.198 A 
ATOM     71  C   UNL A   1      38.612  34.205  38.987  1.00  0.00     0.198 A 
ATOM     72  F   UNL A   1      38.288  32.115  37.960  1.00  0.00    -0.203 F 
ATOM     73  F   UNL A   1      40.479  37.111  37.895  1.00  0.00    -0.200 F 
ATOM     74  C   UNL A   1      39.164  35.477  38.978  1.00  0.00     0.200 A 
ATOM     75  F   UNL A   1      37.867  33.806  40.028  1.00  0.00    -0.200 F 
ATOM     76  F   UNL A   1      38.970  36.300  40.018  1.00  0.00    -0.200 F 
ENDBRANCH  52  66
BRANCH  53  77
ATOM     77  C   UNL A   1      40.419  27.936  28.726  1.00  0.00     0.064 A 
ATOM     78  C   UNL A   1      41.146  28.398  27.619  1.00  0.00     0.173 A 
ATOM     79  C   UNL A   1      39.820  26.671  28.627  1.00  0.00     0.173 A 
ATOM     80  F   UNL A   1      41.713  29.612  27.650  1.00  0.00    -0.203 F 
ATOM     81  C   UNL A   1      41.242  27.641  26.452  1.00  0.00     0.198 A 
ATOM     82  C   UNL A   1      39.946  25.900  27.472  1.00  0.00     0.198 A 
ATOM     83  F   UNL A   1      39.107  26.182  29.652  1.00  0.00    -0.203 F 
ATOM     84  F   UNL A   1      41.888  28.136  25.388  1.00  0.00    -0.200 F 
ATOM     85  C   UNL A   1      40.647  26.391  26.382  1.00  0.00     0.200 A 
ATOM     86  F   UNL A   1      39.378  24.688  27.414  1.00  0.00    -0.200 F 
ATOM     87  F   UNL A   1      40.737  25.665  25.258  1.00  0.00    -0.200 F 
ENDBRANCH  53  77
BRANCH  65  88
ATOM     88  C   UNL A   1      43.953  28.419  34.719  1.00  0.00     0.064 A 
ATOM     89  C   UNL A   1      43.796  27.244  35.467  1.00  0.00     0.173 A 
ATOM     90  C   UNL A   1      45.263  28.856  34.455  1.00  0.00     0.173 A 
ATOM     91  F   UNL A   1      42.568  26.788  35.759  1.00  0.00    -0.203 F 
ATOM     92  C   UNL A   1      44.902  26.552  35.957  1.00  0.00     0.198 A 
ATOM     93  C   UNL A   1      46.365  28.142  34.914  1.00  0.00     0.198 A 
ATOM     94  F   UNL A   1      45.473  29.969  33.734  1.00  0.00    -0.203 F 
ATOM     95  F   UNL A   1      44.724  25.462  36.716  1.00  0.00    -0.200 F 
ATOM     96  C   UNL A   1      46.184  26.996  35.673  1.00  0.00     0.200 A 
ATOM     97  F   UNL A   1      47.604  28.563  34.622  1.00  0.00    -0.200 F 
ATOM     98  F   UNL A   1      47.246  26.324  36.137  1.00  0.00    -0.200 F 
ENDBRANCH  65  88
ENDBRANCH  39  40
ENDBRANCH  32  34
ENDBRANCH  31  32
ENDBRANCH  30  31
ENDBRANCH  29  30
ENDBRANCH  28  29
ENDBRANCH  27  28
ENDBRANCH   1  27
TORSDOF 23
ENDMDL
MODEL 2
REMARK VINA RESULT:     -10.5      3.347      8.648
REMARK SMILES CC(C)C[C@H](NC(=O)[C@](C)([NH3+])C(F)(F)F)C(=O)OCCOCCOCCOC(=O)c1ccc(-c2c3nc(c(-c4c(F)c(F)c(F)c(F)c4F)c4ccc([nH]4)c(-c4c(F)c(F)c(F)c(F)c4F)c4nc(c(-c5c(F)c(F)c(F)c(F)c5F)c5ccc2[nH]5)C=C4)C=C3)cc1
REMARK SMILES IDX 22 1 21 2 20 3 19 4 18 5 16 6 17 7 5 8 4 9 2 10 1 11 3 12
REMARK SMILES IDX 6 13 7 14 8 16 9 17 10 18 11 19 12 23 13 24 14 25 15 26
REMARK SMILES IDX 23 27 24 28 25 29 26 30 27 31 28 32 29 33 30 34 31 35 92 36
REMARK SMILES IDX 32 37 91 38 33 39 34 40 35 41 85 42 36 43 90 44 84 45 86 46
REMARK SMILES IDX 37 47 89 48 83 49 82 50 38 52 70 53 50 54 69 55 51 56 54 57
REMARK SMILES IDX 68 58 87 59 52 60 53 61 67 63 88 64 55 65 39 66 40 67 48 68
REMARK SMILES IDX 41 69 42 70 46 71 49 72 43 73 44 74 47 75 45 76 71 77 72 78
REMARK SMILES IDX 80 79 73 80 74 81 78 82 81 83 75 84 76 85 79 86 77 87 56 88
REMARK SMILES IDX 57 89 65 90 58 91 59 92 63 93 66 94 60 95 61 96 64 97 62 98
REMARK H PARENT 6 15 11 20 11 21 11 22 86 51 54 62
REMARK Flexibility Score: inf
ROOT
ATOM      1  C   UNL A   1      39.350  21.044  25.646  1.00  0.00     0.188 C 
ENDROOT
BRANCH   1   2
ATOM      2  O   UNL A   1      38.001  21.367  25.909  1.00  0.00    -0.376 OA
BRANCH   2   3
ATOM      3  C   UNL A   1      37.603  22.717  25.747  1.00  0.00     0.202 C 
BRANCH   3   4
ATOM      4  C   UNL A   1      36.148  23.182  25.982  1.00  0.00     0.261 C 
BRANCH   4   5
ATOM      5  O   UNL A   1      35.129  22.210  26.279  1.00  0.00    -0.462 OA
BRANCH   5   6
ATOM      6  C   UNL A   1      34.594  21.577  25.206  1.00  0.00     0.328 C 
ATOM      7  O   UNL A   1      34.980  21.768  24.058  1.00  0.00    -0.250 OA
BRANCH   6   8
ATOM      8  C   UNL A   1      33.352  20.707  25.557  1.00  0.00     0.192 C 
BRANCH   8   9
ATOM      9  C   UNL A   1      33.096  19.883  24.289  1.00  0.00     0.040 C 
BRANCH   9  10
ATOM     10  C   UNL A   1      33.383  18.372  24.406  1.00  0.00    -0.015 C 
ATOM     11  C   UNL A   1      32.707  17.674  25.591  1.00  0.00     0.007 C 
ATOM     12  C   UNL A   1      32.970  17.685  23.107  1.00  0.00     0.007 C 
ENDBRANCH   9  10
ENDBRANCH   8   9
BRANCH   8  13
ATOM     13  N   UNL A   1      32.115  21.417  25.942  1.00  0.00    -0.337 N 
ATOM     14  C   UNL A   1      31.451  22.509  25.465  1.00  0.00     0.291 C 
ATOM     15  H   UNL A   1      31.669  21.009  26.718  1.00  0.00     0.164 HD
ATOM     16  O   UNL A   1      30.339  22.681  25.995  1.00  0.00    -0.267 OA
BRANCH  14  17
ATOM     17  C   UNL A   1      31.847  23.430  24.257  1.00  0.00     0.267 C 
ATOM     18  C   UNL A   1      30.549  24.118  23.755  1.00  0.00     0.100 C 
BRANCH  17  19
ATOM     19  N   UNL A   1      32.313  22.543  23.132  1.00  0.00    -0.337 N 
ATOM     20  H   UNL A   1      32.930  21.819  23.502  1.00  0.00     0.345 HD
ATOM     21  H   UNL A   1      32.818  23.102  22.445  1.00  0.00     0.345 HD
ATOM     22  H   UNL A   1      31.506  22.106  22.687  1.00  0.00     0.345 HD
ENDBRANCH  17  19
BRANCH  17  23
ATOM     23  C   UNL A   1      32.801  24.579  24.615  1.00  0.00     0.453 C 
ATOM     24  F   UNL A   1      32.237  25.794  24.394  1.00  0.00    -0.164 F 
ATOM     25  F   UNL A   1      33.158  24.553  25.917  1.00  0.00    -0.164 F 
ATOM     26  F   UNL A   1      33.922  24.557  23.863  1.00  0.00    -0.164 F 
ENDBRANCH  17  23
ENDBRANCH  14  17
ENDBRANCH   8  13
ENDBRANCH   6   8
ENDBRANCH   5   6
ENDBRANCH   4   5
ENDBRANCH   3   4
ENDBRANCH   2   3
ENDBRANCH   1   2
BRANCH   1  27
ATOM     27  C   UNL A   1      40.277  21.371  26.830  1.00  0.00     0.188 C 
BRANCH  27  28
ATOM     28  O   UNL A   1      41.417  20.564  27.070  1.00  0.00    -0.376 OA
BRANCH  28  29
ATOM     29  C   UNL A   1      42.707  21.137  26.883  1.00  0.00     0.202 C 
BRANCH  29  30
ATOM     30  C   UNL A   1      43.204  21.645  25.505  1.00  0.00     0.261 C 
BRANCH  30  31
ATOM     31  O   UNL A   1      42.653  22.876  25.004  1.00  0.00    -0.460 OA
BRANCH  31  32
ATOM     32  C   UNL A   1      43.447  23.971  25.090  1.00  0.00     0.338 C 
ATOM     33  O   UNL A   1      44.419  24.236  24.397  1.00  0.00    -0.246 OA
BRANCH  32  34
ATOM     34  C   UNL A   1      42.832  24.947  26.020  1.00  0.00     0.060 A 
ATOM     35  C   UNL A   1      43.396  26.231  26.126  1.00  0.00     0.016 A 
ATOM     36  C   UNL A   1      41.722  24.609  26.792  1.00  0.00     0.016 A 
ATOM     37  C   UNL A   1      42.856  27.175  26.998  1.00  0.00     0.010 A 
ATOM     38  C   UNL A   1      41.210  25.541  27.702  1.00  0.00     0.010 A 
ATOM     39  C   UNL A   1      41.786  26.819  27.826  1.00  0.00    -0.014 A 
BRANCH  39  40
ATOM     40  C   UNL A   1      41.407  27.702  28.958  1.00  0.00     0.031 A 
ATOM     41  C   UNL A   1      42.201  27.606  30.232  1.00  0.00     0.074 A 
ATOM     42  C   UNL A   1      40.394  28.581  28.860  1.00  0.00     0.049 A 
ATOM     43  N   UNL A   1      42.004  28.194  31.384  1.00  0.00    -0.248 NA
ATOM     44  C   UNL A   1      43.375  26.718  30.202  1.00  0.00     0.031 C 
ATOM     45  C   UNL A   1      39.587  28.816  27.665  1.00  0.00     0.029 A 
ATOM     46  N   UNL A   1      39.860  29.430  29.800  1.00  0.00    -0.354 N 
ATOM     47  C   UNL A   1      43.018  27.737  32.217  1.00  0.00     0.074 A 
ATOM     48  C   UNL A   1      43.814  26.807  31.447  1.00  0.00     0.031 C 
ATOM     49  C   UNL A   1      38.645  29.731  27.950  1.00  0.00     0.029 A 
ATOM     50  C   UNL A   1      38.756  30.116  29.357  1.00  0.00     0.049 A 
ATOM     51  H   UNL A   1      40.235  29.538  30.703  1.00  0.00     0.167 HD
ATOM     52  C   UNL A   1      43.264  28.068  33.507  1.00  0.00     0.037 A 
ATOM     53  C   UNL A   1      37.912  30.930  30.023  1.00  0.00     0.037 A 
ATOM     54  C   UNL A   1      42.470  28.994  34.270  1.00  0.00     0.049 A 
ATOM     55  C   UNL A   1      38.158  31.214  31.487  1.00  0.00     0.074 A 
ATOM     56  C   UNL A   1      42.648  29.407  35.579  1.00  0.00     0.029 A 
ATOM     57  N   UNL A   1      41.342  29.646  33.796  1.00  0.00    -0.354 N 
ATOM     58  N   UNL A   1      39.127  30.794  32.265  1.00  0.00    -0.248 NA
ATOM     59  C   UNL A   1      37.188  32.087  32.165  1.00  0.00     0.031 C 
ATOM     60  C   UNL A   1      41.592  30.257  35.918  1.00  0.00     0.029 A 
ATOM     61  C   UNL A   1      40.795  30.433  34.798  1.00  0.00     0.049 A 
ATOM     62  H   UNL A   1      40.981  29.563  32.883  1.00  0.00     0.167 HD
ATOM     63  C   UNL A   1      38.905  31.380  33.506  1.00  0.00     0.074 A 
ATOM     64  C   UNL A   1      37.718  32.196  33.375  1.00  0.00     0.031 C 
ATOM     65  C   UNL A   1      39.621  31.254  34.651  1.00  0.00     0.037 A 
BRANCH  52  66
ATOM     66  C   UNL A   1      44.418  27.397  34.192  1.00  0.00     0.064 A 
ATOM     67  C   UNL A   1      44.284  26.154  34.825  1.00  0.00     0.173 A 
ATOM     68  C   UNL A   1      45.692  27.987  34.169  1.00  0.00     0.173 A 
ATOM     69  F   UNL A   1      43.085  25.554  34.889  1.00  0.00    -0.203 F 
ATOM     70  C   UNL A   1      45.376  25.533  35.427  1.00  0.00     0.198 A 
ATOM     71  C   UNL A   1      46.788  27.350  34.742  1.00  0.00     0.198 A 
ATOM     72  F   UNL A   1      45.876  29.175  33.573  1.00  0.00    -0.203 F 
ATOM     73  F   UNL A   1      45.216  24.365  36.063  1.00  0.00    -0.200 F 
ATOM     74  C   UNL A   1      46.629  26.127  35.376  1.00  0.00     0.200 A 
ATOM     75  F   UNL A   1      48.001  27.918  34.678  1.00  0.00    -0.200 F 
ATOM     76  F   UNL A   1      47.683  25.522  35.941  1.00  0.00    -0.200 F 
ENDBRANCH  52  66
BRANCH  53  77
ATOM     77  C   UNL A   1      36.732  31.519  29.333  1.00  0.00     0.064 A 
ATOM     78  C   UNL A   1      35.644  30.721  28.948  1.00  0.00     0.173 A 
ATOM     79  C   UNL A   1      36.690  32.880  28.997  1.00  0.00     0.173 A 
ATOM     80  F   UNL A   1      35.648  29.408  29.218  1.00  0.00    -0.203 F 
ATOM     81  C   UNL A   1      34.575  31.257  28.231  1.00  0.00     0.198 A 
ATOM     82  C   UNL A   1      35.605  33.422  28.310  1.00  0.00     0.198 A 
ATOM     83  F   UNL A   1      37.706  33.688  29.334  1.00  0.00    -0.203 F 
ATOM     84  F   UNL A   1      33.581  30.458  27.820  1.00  0.00    -0.200 F 
ATOM     85  C   UNL A   1      34.554  32.607  27.918  1.00  0.00     0.200 A 
ATOM     86  F   UNL A   1      35.584  34.730  28.020  1.00  0.00    -0.200 F 
ATOM     87  F   UNL A   1      33.528  33.121  27.225  1.00  0.00    -0.200 F 
ENDBRANCH  53  77
BRANCH  65  88
ATOM     88  C   UNL A   1      39.177  32.057  35.843  1.00  0.00     0.064 A 
ATOM     89  C   UNL A   1      39.564  33.392  36.025  1.00  0.00     0.173 A 
ATOM     90  C   UNL A   1      38.311  31.491  36.794  1.00  0.00     0.173 A 
ATOM     91  F   UNL A   1      40.398  33.979  35.153  1.00  0.00    -0.203 F 
ATOM     92  C   UNL A   1      39.128  34.121  37.130  1.00  0.00     0.198 A 
ATOM     93  C   UNL A   1      37.849  32.233  37.877  1.00  0.00     0.198 A 
ATOM     94  F   UNL A   1      37.900  30.220  36.663  1.00  0.00    -0.203 F 
ATOM     95  F   UNL A   1      39.556  35.377  37.312  1.00  0.00    -0.200 F 
ATOM     96  C   UNL A   1      38.265  33.544  38.049  1.00  0.00     0.200 A 
ATOM     97  F   UNL A   1      36.999  31.679  38.753  1.00  0.00    -0.200 F 
ATOM     98  F   UNL A   1      37.839  34.249  39.106  1.00  0.00    -0.200 F 
ENDBRANCH  65  88
ENDBRANCH  39  40
ENDBRANCH  32  34
ENDBRANCH  31  32
ENDBRANCH  30  31
ENDBRANCH  29  30
ENDBRANCH  28  29
ENDBRANCH  27  28
ENDBRANCH   1  27
TORSDOF 23
ENDMDL
MODEL 3
REMARK VINA RESULT:     -10.5      0.458      7.384
REMARK SMILES CC(C)C[C@H](NC(=O)[C@](C)([NH3+])C(F)(F)F)C(=O)OCCOCCOCCOC(=O)c1ccc(-c2c3nc(c(-c4c(F)c(F)c(F)c(F)c4F)c4ccc([nH]4)c(-c4c(F)c(F)c(F)c(F)c4F)c4nc(c(-c5c(F)c(F)c(F)c(F)c5F)c5ccc2[nH]5)C=C4)C=C3)cc1
REMARK SMILES IDX 22 1 21 2 20 3 19 4 18 5 16 6 17 7 5 8 4 9 2 10 1 11 3 12
REMARK SMILES IDX 6 13 7 14 8 16 9 17 10 18 11 19 12 23 13 24 14 25 15 26
REMARK SMILES IDX 23 27 24 28 25 29 26 30 27 31 28 32 29 33 30 34 31 35 92 36
REMARK SMILES IDX 32 37 91 38 33 39 34 40 35 41 85 42 36 43 90 44 84 45 86 46
REMARK SMILES IDX 37 47 89 48 83 49 82 50 38 52 70 53 50 54 69 55 51 56 54 57
REMARK SMILES IDX 68 58 87 59 52 60 53 61 67 63 88 64 55 65 39 66 40 67 48 68
REMARK SMILES IDX 41 69 42 70 46 71 49 72 43 73 44 74 47 75 45 76 71 77 72 78
REMARK SMILES IDX 80 79 73 80 74 81 78 82 81 83 75 84 76 85 79 86 77 87 56 88
REMARK SMILES IDX 57 89 65 90 58 91 59 92 63 93 66 94 60 95 61 96 64 97 62 98
REMARK H PARENT 6 15 11 20 11 21 11 22 86 51 54 62
REMARK Flexibility Score: inf
ROOT
ATOM      1  C   UNL A   1      31.757  28.178  26.368  1.00  0.00     0.188 C 
ENDROOT
BRANCH   1   2
ATOM      2  O   UNL A   1      31.781  26.956  27.074  1.00  0.00    -0.376 OA
BRANCH   2   3
ATOM      3  C   UNL A   1      31.394  25.784  26.377  1.00  0.00     0.202 C 
BRANCH   3   4
ATOM      4  C   UNL A   1      32.416  24.886  25.644  1.00  0.00     0.261 C 
BRANCH   4   5
ATOM      5  O   UNL A   1      32.644  23.543  26.106  1.00  0.00    -0.462 OA
BRANCH   5   6
ATOM      6  C   UNL A   1      32.049  22.565  25.378  1.00  0.00     0.328 C 
ATOM      7  O   UNL A   1      30.832  22.471  25.256  1.00  0.00    -0.250 OA
BRANCH   6   8
ATOM      8  C   UNL A   1      33.048  21.497  24.844  1.00  0.00     0.192 C 
BRANCH   8   9
ATOM      9  C   UNL A   1      34.124  22.314  24.117  1.00  0.00     0.040 C 
BRANCH   9  10
ATOM     10  C   UNL A   1      35.557  22.167  24.666  1.00  0.00    -0.015 C 
ATOM     11  C   UNL A   1      36.360  23.471  24.737  1.00  0.00     0.007 C 
ATOM     12  C   UNL A   1      35.497  21.529  26.051  1.00  0.00     0.007 C 
ENDBRANCH   9  10
ENDBRANCH   8   9
BRANCH   8  13
ATOM     13  N   UNL A   1      32.512  20.466  23.932  1.00  0.00    -0.337 N 
ATOM     14  C   UNL A   1      32.551  19.102  23.901  1.00  0.00     0.291 C 
ATOM     15  H   UNL A   1      32.014  20.849  23.175  1.00  0.00     0.164 HD
ATOM     16  O   UNL A   1      31.822  18.607  23.024  1.00  0.00    -0.267 OA
BRANCH  14  17
ATOM     17  C   UNL A   1      33.252  18.133  24.918  1.00  0.00     0.267 C 
ATOM     18  C   UNL A   1      32.460  16.797  24.904  1.00  0.00     0.100 C 
BRANCH  17  19
ATOM     19  N   UNL A   1      33.079  18.707  26.300  1.00  0.00    -0.337 N 
ATOM     20  H   UNL A   1      33.797  19.412  26.468  1.00  0.00     0.345 HD
ATOM     21  H   UNL A   1      33.166  17.961  26.990  1.00  0.00     0.345 HD
ATOM     22  H   UNL A   1      32.157  19.136  26.378  1.00  0.00     0.345 HD
ENDBRANCH  17  19
BRANCH  17  23
ATOM     23  C   UNL A   1      34.693  17.752  24.548  1.00  0.00     0.453 C 
ATOM     24  F   UNL A   1      35.530  18.819  24.601  1.00  0.00    -0.164 F 
ATOM     25  F   UNL A   1      35.202  16.824  25.387  1.00  0.00    -0.164 F 
ATOM     26  F   UNL A   1      34.781  17.282  23.286  1.00  0.00    -0.164 F 
ENDBRANCH  17  23
ENDBRANCH  14  17
ENDBRANCH   8  13
ENDBRANCH   6   8
ENDBRANCH   5   6
ENDBRANCH   4   5
ENDBRANCH   3   4
ENDBRANCH   2   3
ENDBRANCH   1   2
BRANCH   1  27
ATOM     27  C   UNL A   1      31.860  29.400  27.298  1.00  0.00     0.188 C 
BRANCH  27  28
ATOM     28  O   UNL A   1      32.591  30.538  26.878  1.00  0.00    -0.376 OA
BRANCH  28  29
ATOM     29  C   UNL A   1      31.983  31.820  27.001  1.00  0.00     0.202 C 
BRANCH  29  30
ATOM     30  C   UNL A   1      32.799  33.111  27.270  1.00  0.00     0.261 C 
BRANCH  30  31
ATOM     31  O   UNL A   1      32.138  34.193  27.950  1.00  0.00    -0.460 OA
BRANCH  31  32
ATOM     32  C   UNL A   1      32.928  35.020  28.676  1.00  0.00     0.338 C 
ATOM     33  O   UNL A   1      32.656  36.146  29.072  1.00  0.00    -0.246 OA
BRANCH  32  34
ATOM     34  C   UNL A   1      34.123  34.274  29.137  1.00  0.00     0.060 A 
ATOM     35  C   UNL A   1      33.960  33.261  30.098  1.00  0.00     0.016 A 
ATOM     36  C   UNL A   1      35.392  34.569  28.643  1.00  0.00     0.016 A 
ATOM     37  C   UNL A   1      35.060  32.544  30.568  1.00  0.00     0.010 A 
ATOM     38  C   UNL A   1      36.501  33.881  29.149  1.00  0.00     0.010 A 
ATOM     39  C   UNL A   1      36.344  32.882  30.129  1.00  0.00    -0.014 A 
BRANCH  39  40
ATOM     40  C   UNL A   1      37.531  32.341  30.840  1.00  0.00     0.031 A 
ATOM     41  C   UNL A   1      38.313  31.239  30.180  1.00  0.00     0.074 A 
ATOM     42  C   UNL A   1      37.919  32.822  32.033  1.00  0.00     0.049 A 
ATOM     43  N   UNL A   1      39.319  30.540  30.640  1.00  0.00    -0.248 NA
ATOM     44  C   UNL A   1      37.898  30.872  28.817  1.00  0.00     0.031 C 
ATOM     45  C   UNL A   1      37.286  33.926  32.750  1.00  0.00     0.029 A 
ATOM     46  N   UNL A   1      38.938  32.421  32.864  1.00  0.00    -0.354 N 
ATOM     47  C   UNL A   1      39.646  29.643  29.629  1.00  0.00     0.074 A 
ATOM     48  C   UNL A   1      38.719  29.870  28.543  1.00  0.00     0.031 C 
ATOM     49  C   UNL A   1      37.917  34.101  33.925  1.00  0.00     0.029 A 
ATOM     50  C   UNL A   1      38.970  33.095  34.060  1.00  0.00     0.049 A 
ATOM     51  H   UNL A   1      39.585  31.719  32.623  1.00  0.00     0.167 HD
ATOM     52  C   UNL A   1      40.633  28.717  29.610  1.00  0.00     0.037 A 
ATOM     53  C   UNL A   1      39.737  32.895  35.151  1.00  0.00     0.037 A 
ATOM     54  C   UNL A   1      41.555  28.493  30.693  1.00  0.00     0.049 A 
ATOM     55  C   UNL A   1      40.774  31.796  35.137  1.00  0.00     0.074 A 
ATOM     56  C   UNL A   1      42.600  27.590  30.762  1.00  0.00     0.029 A 
ATOM     57  N   UNL A   1      41.537  29.176  31.900  1.00  0.00    -0.354 N 
ATOM     58  N   UNL A   1      41.090  30.963  34.175  1.00  0.00    -0.248 NA
ATOM     59  C   UNL A   1      41.560  31.609  36.366  1.00  0.00     0.031 C 
ATOM     60  C   UNL A   1      43.173  27.678  32.034  1.00  0.00     0.029 A 
ATOM     61  C   UNL A   1      42.532  28.690  32.732  1.00  0.00     0.049 A 
ATOM     62  H   UNL A   1      40.909  29.898  32.132  1.00  0.00     0.167 HD
ATOM     63  C   UNL A   1      42.133  30.185  34.666  1.00  0.00     0.074 A 
ATOM     64  C   UNL A   1      42.405  30.653  36.008  1.00  0.00     0.031 C 
ATOM     65  C   UNL A   1      42.804  29.174  34.061  1.00  0.00     0.037 A 
BRANCH  52  66
ATOM     66  C   UNL A   1      40.749  27.846  28.394  1.00  0.00     0.064 A 
ATOM     67  C   UNL A   1      40.082  26.616  28.296  1.00  0.00     0.173 A 
ATOM     68  C   UNL A   1      41.502  28.274  27.288  1.00  0.00     0.173 A 
ATOM     69  F   UNL A   1      39.362  26.154  29.330  1.00  0.00    -0.203 F 
ATOM     70  C   UNL A   1      40.178  25.839  27.144  1.00  0.00     0.198 A 
ATOM     71  C   UNL A   1      41.568  27.510  26.127  1.00  0.00     0.198 A 
ATOM     72  F   UNL A   1      42.158  29.443  27.329  1.00  0.00    -0.203 F 
ATOM     73  F   UNL A   1      39.566  24.648  27.089  1.00  0.00    -0.200 F 
ATOM     74  C   UNL A   1      40.912  26.290  26.058  1.00  0.00     0.200 A 
ATOM     75  F   UNL A   1      42.266  27.956  25.073  1.00  0.00    -0.200 F 
ATOM     76  F   UNL A   1      40.991  25.549  24.944  1.00  0.00    -0.200 F 
ENDBRANCH  52  66
BRANCH  53  77
ATOM     77  C   UNL A   1      39.544  33.728  36.370  1.00  0.00     0.064 A 
ATOM     78  C   UNL A   1      38.737  33.287  37.430  1.00  0.00     0.173 A 
ATOM     79  C   UNL A   1      40.119  35.003  36.479  1.00  0.00     0.173 A 
ATOM     80  F   UNL A   1      38.139  32.089  37.362  1.00  0.00    -0.203 F 
ATOM     81  C   UNL A   1      38.491  34.100  38.535  1.00  0.00     0.198 A 
ATOM     82  C   UNL A   1      39.900  35.801  37.600  1.00  0.00     0.198 A 
ATOM     83  F   UNL A   1      40.893  35.477  35.493  1.00  0.00    -0.203 F 
ATOM     84  F   UNL A   1      37.663  33.679  39.501  1.00  0.00    -0.200 F 
ATOM     85  C   UNL A   1      39.077  35.353  38.622  1.00  0.00     0.200 A 
ATOM     86  F   UNL A   1      40.478  37.007  37.685  1.00  0.00    -0.200 F 
ATOM     87  F   UNL A   1      38.837  36.136  39.684  1.00  0.00    -0.200 F 
ENDBRANCH  53  77
BRANCH  65  88
ATOM     88  C   UNL A   1      43.937  28.538  34.819  1.00  0.00     0.064 A 
ATOM     89  C   UNL A   1      45.265  28.960  34.662  1.00  0.00     0.173 A 
ATOM     90  C   UNL A   1      43.680  27.518  35.751  1.00  0.00     0.173 A 
ATOM     91  F   UNL A   1      45.569  29.922  33.777  1.00  0.00    -0.203 F 
ATOM     92  C   UNL A   1      46.297  28.365  35.386  1.00  0.00     0.198 A 
ATOM     93  C   UNL A   1      44.708  26.952  36.498  1.00  0.00     0.198 A 
ATOM     94  F   UNL A   1      42.426  27.083  35.950  1.00  0.00    -0.203 F 
ATOM     95  F   UNL A   1      47.564  28.747  35.178  1.00  0.00    -0.200 F 
ATOM     96  C   UNL A   1      46.017  27.368  36.308  1.00  0.00     0.200 A 
ATOM     97  F   UNL A   1      44.432  26.003  37.404  1.00  0.00    -0.200 F 
ATOM     98  F   UNL A   1      47.009  26.804  37.010  1.00  0.00    -0.200 F 
ENDBRANCH  65  88
ENDBRANCH  39  40
ENDBRANCH  32  34
ENDBRANCH  31  32
ENDBRANCH  30  31
ENDBRANCH  29  30
ENDBRANCH  28  29
ENDBRANCH  27  28
ENDBRANCH   1  27
TORSDOF 23
ENDMDL
