MODEL 1
REMARK VINA RESULT:      -9.3      0.000      0.000
REMARK SMILES C[C@@H]([NH2+]CC(C)(C)S(C)(=O)=O)C(=O)OCCOCCOCCOC(=O)c1ccc(-c2c3nc(c(-c4c(F)c(F)c(F)c(F)c4F)c4ccc([nH]4)c(-c4c(F)c(F)c(F)c(F)c4F)c4nc(c(-c5c(F)c(F)c(F)c(F)c5F)c5ccc2[nH]5)C=C4)C=C3)cc1
REMARK SMILES IDX 18 1 17 2 16 3 15 4 14 5 12 6 13 7 2 8 1 9 3 10 4 13 5 14
REMARK SMILES IDX 6 15 7 16 8 17 9 18 10 19 11 20 19 21 20 22 21 23 22 24
REMARK SMILES IDX 23 25 24 26 25 27 26 28 27 29 88 30 28 31 87 32 29 33 30 34
REMARK SMILES IDX 31 35 81 36 32 37 86 38 80 39 82 40 33 41 85 42 79 43 78 44
REMARK SMILES IDX 34 46 66 47 46 48 65 49 47 50 50 51 64 52 83 53 48 54 49 55
REMARK SMILES IDX 63 57 84 58 51 59 35 60 36 61 44 62 37 63 38 64 42 65 45 66
REMARK SMILES IDX 39 67 40 68 43 69 41 70 67 71 68 72 76 73 69 74 70 75 74 76
REMARK SMILES IDX 77 77 71 78 72 79 75 80 73 81 52 82 53 83 61 84 54 85 55 86
REMARK SMILES IDX 59 87 62 88 56 89 57 90 60 91 58 92
REMARK H PARENT 3 11 3 12 82 45 50 56
REMARK Flexibility Score: inf
ROOT
ATOM      1  C   UNL A   1      35.739  23.403  24.808  1.00  0.00     0.188 C 
ENDROOT
BRANCH   1   2
ATOM      2  O   UNL A   1      35.572  23.579  26.208  1.00  0.00    -0.376 OA
BRANCH   2   3
ATOM      3  C   UNL A   1      34.659  22.675  26.828  1.00  0.00     0.202 C 
BRANCH   3   4
ATOM      4  C   UNL A   1      34.314  21.419  26.013  1.00  0.00     0.261 C 
BRANCH   4   5
ATOM      5  O   UNL A   1      32.959  20.969  26.176  1.00  0.00    -0.459 OA
BRANCH   5   6
ATOM      6  C   UNL A   1      32.045  21.410  25.270  1.00  0.00     0.364 C 
ATOM      7  O   UNL A   1      31.075  22.082  25.597  1.00  0.00    -0.245 OA
BRANCH   6   8
ATOM      8  C   UNL A   1      32.533  21.139  23.817  1.00  0.00     0.290 C 
ATOM      9  C   UNL A   1      32.161  19.731  23.315  1.00  0.00     0.088 C 
BRANCH   8  10
ATOM     10  N   UNL A   1      32.085  22.126  22.811  1.00  0.00    -0.333 N 
ATOM     11  H   UNL A   1      31.095  22.302  22.985  1.00  0.00     0.347 HD
ATOM     12  H   UNL A   1      32.321  21.690  21.919  1.00  0.00     0.347 HD
BRANCH  10  13
ATOM     13  C   UNL A   1      32.747  23.428  22.749  1.00  0.00     0.283 C 
BRANCH  13  14
ATOM     14  C   UNL A   1      32.056  24.769  23.128  1.00  0.00     0.115 C 
ATOM     15  C   UNL A   1      30.531  24.600  23.212  1.00  0.00     0.034 C 
ATOM     16  C   UNL A   1      32.590  25.150  24.531  1.00  0.00     0.034 C 
BRANCH  14  17
ATOM     17  S   UNL A   1      32.417  26.175  22.004  1.00  0.00     0.158 S 
ATOM     18  C   UNL A   1      32.698  27.600  23.029  1.00  0.00     0.159 C 
ATOM     19  O   UNL A   1      33.646  25.921  21.279  1.00  0.00    -0.228 OA
ATOM     20  O   UNL A   1      31.212  26.465  21.244  1.00  0.00    -0.228 OA
ENDBRANCH  14  17
ENDBRANCH  13  14
ENDBRANCH  10  13
ENDBRANCH   8  10
ENDBRANCH   6   8
ENDBRANCH   5   6
ENDBRANCH   4   5
ENDBRANCH   3   4
ENDBRANCH   2   3
ENDBRANCH   1   2
BRANCH   1  21
ATOM     21  C   UNL A   1      37.078  22.769  24.383  1.00  0.00     0.188 C 
BRANCH  21  22
ATOM     22  O   UNL A   1      37.774  21.884  25.245  1.00  0.00    -0.376 OA
BRANCH  22  23
ATOM     23  C   UNL A   1      37.732  20.490  24.971  1.00  0.00     0.202 C 
BRANCH  23  24
ATOM     24  C   UNL A   1      38.918  19.602  25.381  1.00  0.00     0.261 C 
BRANCH  24  25
ATOM     25  O   UNL A   1      39.851  20.206  26.291  1.00  0.00    -0.460 OA
BRANCH  25  26
ATOM     26  C   UNL A   1      41.138  19.795  26.150  1.00  0.00     0.338 C 
ATOM     27  O   UNL A   1      41.535  18.714  25.756  1.00  0.00    -0.246 OA
BRANCH  26  28
ATOM     28  C   UNL A   1      42.048  20.932  26.387  1.00  0.00     0.060 A 
ATOM     29  C   UNL A   1      42.445  21.207  27.705  1.00  0.00     0.016 A 
ATOM     30  C   UNL A   1      42.431  21.770  25.341  1.00  0.00     0.016 A 
ATOM     31  C   UNL A   1      43.205  22.339  27.987  1.00  0.00     0.010 A 
ATOM     32  C   UNL A   1      43.161  22.926  25.630  1.00  0.00     0.010 A 
ATOM     33  C   UNL A   1      43.517  23.232  26.957  1.00  0.00    -0.014 A 
BRANCH  33  34
ATOM     34  C   UNL A   1      43.998  24.593  27.286  1.00  0.00     0.031 A 
ATOM     35  C   UNL A   1      42.994  25.596  27.781  1.00  0.00     0.074 A 
ATOM     36  C   UNL A   1      45.289  24.936  27.149  1.00  0.00     0.049 A 
ATOM     37  N   UNL A   1      43.133  26.877  28.006  1.00  0.00    -0.248 NA
ATOM     38  C   UNL A   1      41.643  25.079  28.056  1.00  0.00     0.031 C 
ATOM     39  C   UNL A   1      46.367  24.033  26.759  1.00  0.00     0.029 A 
ATOM     40  N   UNL A   1      45.903  26.153  27.311  1.00  0.00    -0.354 N 
ATOM     41  C   UNL A   1      41.889  27.320  28.433  1.00  0.00     0.074 A 
ATOM     42  C   UNL A   1      41.000  26.178  28.419  1.00  0.00     0.031 C 
ATOM     43  C   UNL A   1      47.512  24.735  26.680  1.00  0.00     0.029 A 
ATOM     44  C   UNL A   1      47.233  26.140  26.977  1.00  0.00     0.049 A 
ATOM     45  H   UNL A   1      45.434  26.956  27.634  1.00  0.00     0.167 HD
ATOM     46  C   UNL A   1      41.521  28.568  28.804  1.00  0.00     0.037 A 
ATOM     47  C   UNL A   1      48.112  27.158  26.888  1.00  0.00     0.037 A 
ATOM     48  C   UNL A   1      42.408  29.701  28.813  1.00  0.00     0.049 A 
ATOM     49  C   UNL A   1      47.658  28.557  27.217  1.00  0.00     0.074 A 
ATOM     50  C   UNL A   1      42.136  31.008  29.172  1.00  0.00     0.029 A 
ATOM     51  N   UNL A   1      43.742  29.656  28.438  1.00  0.00    -0.354 N 
ATOM     52  N   UNL A   1      46.480  28.976  27.615  1.00  0.00    -0.248 NA
ATOM     53  C   UNL A   1      48.658  29.627  27.084  1.00  0.00     0.031 C 
ATOM     54  C   UNL A   1      43.294  31.766  28.969  1.00  0.00     0.029 A 
ATOM     55  C   UNL A   1      44.302  30.920  28.535  1.00  0.00     0.049 A 
ATOM     56  H   UNL A   1      44.221  28.847  28.147  1.00  0.00     0.167 HD
ATOM     57  C   UNL A   1      46.606  30.346  27.814  1.00  0.00     0.074 A 
ATOM     58  C   UNL A   1      47.976  30.688  27.494  1.00  0.00     0.031 C 
ATOM     59  C   UNL A   1      45.673  31.239  28.227  1.00  0.00     0.037 A 
BRANCH  46  60
ATOM     60  C   UNL A   1      40.087  28.777  29.187  1.00  0.00     0.064 A 
ATOM     61  C   UNL A   1      39.640  28.601  30.505  1.00  0.00     0.173 A 
ATOM     62  C   UNL A   1      39.146  29.166  28.220  1.00  0.00     0.173 A 
ATOM     63  F   UNL A   1      40.495  28.211  31.462  1.00  0.00    -0.203 F 
ATOM     64  C   UNL A   1      38.299  28.781  30.836  1.00  0.00     0.198 A 
ATOM     65  C   UNL A   1      37.813  29.373  28.560  1.00  0.00     0.198 A 
ATOM     66  F   UNL A   1      39.523  29.347  26.945  1.00  0.00    -0.203 F 
ATOM     67  F   UNL A   1      37.883  28.558  32.090  1.00  0.00    -0.200 F 
ATOM     68  C   UNL A   1      37.388  29.173  29.864  1.00  0.00     0.200 A 
ATOM     69  F   UNL A   1      36.937  29.760  27.623  1.00  0.00    -0.200 F 
ATOM     70  F   UNL A   1      36.099  29.347  30.185  1.00  0.00    -0.200 F 
ENDBRANCH  46  60
BRANCH  47  71
ATOM     71  C   UNL A   1      49.504  26.896  26.443  1.00  0.00     0.064 A 
ATOM     72  C   UNL A   1      50.520  26.622  27.369  1.00  0.00     0.173 A 
ATOM     73  C   UNL A   1      49.851  26.933  25.084  1.00  0.00     0.173 A 
ATOM     74  F   UNL A   1      50.244  26.610  28.681  1.00  0.00    -0.203 F 
ATOM     75  C   UNL A   1      51.833  26.409  26.954  1.00  0.00     0.198 A 
ATOM     76  C   UNL A   1      51.159  26.693  24.669  1.00  0.00     0.198 A 
ATOM     77  F   UNL A   1      48.918  27.199  24.159  1.00  0.00    -0.203 F 
ATOM     78  F   UNL A   1      52.795  26.195  27.862  1.00  0.00    -0.200 F 
ATOM     79  C   UNL A   1      52.150  26.438  25.604  1.00  0.00     0.200 A 
ATOM     80  F   UNL A   1      51.460  26.716  23.362  1.00  0.00    -0.200 F 
ATOM     81  F   UNL A   1      53.413  26.232  25.206  1.00  0.00    -0.200 F 
ENDBRANCH  47  71
BRANCH  59  82
ATOM     82  C   UNL A   1      46.109  32.663  28.409  1.00  0.00     0.064 A 
ATOM     83  C   UNL A   1      45.999  33.608  27.377  1.00  0.00     0.173 A 
ATOM     84  C   UNL A   1      46.590  33.102  29.653  1.00  0.00     0.173 A 
ATOM     85  F   UNL A   1      45.557  33.236  26.167  1.00  0.00    -0.203 F 
ATOM     86  C   UNL A   1      46.373  34.934  27.580  1.00  0.00     0.198 A 
ATOM     87  C   UNL A   1      46.936  34.433  29.860  1.00  0.00     0.198 A 
ATOM     88  F   UNL A   1      46.706  32.240  30.675  1.00  0.00    -0.203 F 
ATOM     89  F   UNL A   1      46.299  35.810  26.569  1.00  0.00    -0.200 F 
ATOM     90  C   UNL A   1      46.834  35.347  28.822  1.00  0.00     0.200 A 
ATOM     91  F   UNL A   1      47.366  34.834  31.064  1.00  0.00    -0.200 F 
ATOM     92  F   UNL A   1      47.183  36.626  29.016  1.00  0.00    -0.200 F 
ENDBRANCH  59  82
ENDBRANCH  33  34
ENDBRANCH  26  28
ENDBRANCH  25  26
ENDBRANCH  24  25
ENDBRANCH  23  24
ENDBRANCH  22  23
ENDBRANCH  21  22
ENDBRANCH   1  21
TORSDOF 21
ENDMDL
MODEL 2
REMARK VINA RESULT:      -9.3      1.350      2.386
REMARK SMILES C[C@@H]([NH2+]CC(C)(C)S(C)(=O)=O)C(=O)OCCOCCOCCOC(=O)c1ccc(-c2c3nc(c(-c4c(F)c(F)c(F)c(F)c4F)c4ccc([nH]4)c(-c4c(F)c(F)c(F)c(F)c4F)c4nc(c(-c5c(F)c(F)c(F)c(F)c5F)c5ccc2[nH]5)C=C4)C=C3)cc1
REMARK SMILES IDX 18 1 17 2 16 3 15 4 14 5 12 6 13 7 2 8 1 9 3 10 4 13 5 14
REMARK SMILES IDX 6 15 7 16 8 17 9 18 10 19 11 20 19 21 20 22 21 23 22 24
REMARK SMILES IDX 23 25 24 26 25 27 26 28 27 29 88 30 28 31 87 32 29 33 30 34
REMARK SMILES IDX 31 35 81 36 32 37 86 38 80 39 82 40 33 41 85 42 79 43 78 44
REMARK SMILES IDX 34 46 66 47 46 48 65 49 47 50 50 51 64 52 83 53 48 54 49 55
REMARK SMILES IDX 63 57 84 58 51 59 35 60 36 61 44 62 37 63 38 64 42 65 45 66
REMARK SMILES IDX 39 67 40 68 43 69 41 70 67 71 68 72 76 73 69 74 70 75 74 76
REMARK SMILES IDX 77 77 71 78 72 79 75 80 73 81 52 82 53 83 61 84 54 85 55 86
REMARK SMILES IDX 59 87 62 88 56 89 57 90 60 91 58 92
REMARK H PARENT 3 11 3 12 82 45 50 56
REMARK Flexibility Score: inf
ROOT
ATOM      1  C   UNL A   1      35.786  23.567  24.773  1.00  0.00     0.188 C 
ENDROOT
BRANCH   1   2
ATOM      2  O   UNL A   1      35.418  23.597  26.145  1.00  0.00    -0.376 OA
BRANCH   2   3
ATOM      3  C   UNL A   1      34.136  23.047  26.441  1.00  0.00     0.202 C 
BRANCH   3   4
ATOM      4  C   UNL A   1      33.181  22.913  25.245  1.00  0.00     0.261 C 
BRANCH   4   5
ATOM      5  O   UNL A   1      31.823  22.616  25.611  1.00  0.00    -0.459 OA
BRANCH   5   6
ATOM      6  C   UNL A   1      31.075  23.640  26.106  1.00  0.00     0.364 C 
ATOM      7  O   UNL A   1      30.664  23.647  27.260  1.00  0.00    -0.245 OA
BRANCH   6   8
ATOM      8  C   UNL A   1      31.036  24.830  25.105  1.00  0.00     0.290 C 
ATOM      9  C   UNL A   1      30.341  24.471  23.778  1.00  0.00     0.088 C 
BRANCH   8  10
ATOM     10  N   UNL A   1      30.425  26.071  25.630  1.00  0.00    -0.333 N 
ATOM     11  H   UNL A   1      30.595  26.085  26.636  1.00  0.00     0.347 HD
ATOM     12  H   UNL A   1      29.451  26.009  25.332  1.00  0.00     0.347 HD
BRANCH  10  13
ATOM     13  C   UNL A   1      30.870  27.360  25.102  1.00  0.00     0.283 C 
BRANCH  13  14
ATOM     14  C   UNL A   1      31.829  28.322  25.861  1.00  0.00     0.115 C 
ATOM     15  C   UNL A   1      31.575  29.783  25.461  1.00  0.00     0.034 C 
ATOM     16  C   UNL A   1      31.506  28.156  27.367  1.00  0.00     0.034 C 
BRANCH  14  17
ATOM     17  S   UNL A   1      33.616  27.969  25.642  1.00  0.00     0.158 S 
ATOM     18  C   UNL A   1      33.990  28.229  23.923  1.00  0.00     0.159 C 
ATOM     19  O   UNL A   1      34.402  28.925  26.398  1.00  0.00    -0.228 OA
ATOM     20  O   UNL A   1      33.829  26.551  25.884  1.00  0.00    -0.228 OA
ENDBRANCH  14  17
ENDBRANCH  13  14
ENDBRANCH  10  13
ENDBRANCH   8  10
ENDBRANCH   6   8
ENDBRANCH   5   6
ENDBRANCH   4   5
ENDBRANCH   3   4
ENDBRANCH   2   3
ENDBRANCH   1   2
BRANCH   1  21
ATOM     21  C   UNL A   1      37.076  22.784  24.457  1.00  0.00     0.188 C 
BRANCH  21  22
ATOM     22  O   UNL A   1      37.577  21.809  25.356  1.00  0.00    -0.376 OA
BRANCH  22  23
ATOM     23  C   UNL A   1      37.669  20.460  24.917  1.00  0.00     0.202 C 
BRANCH  23  24
ATOM     24  C   UNL A   1      38.900  19.622  25.298  1.00  0.00     0.261 C 
BRANCH  24  25
ATOM     25  O   UNL A   1      39.810  20.250  26.217  1.00  0.00    -0.460 OA
BRANCH  25  26
ATOM     26  C   UNL A   1      41.096  19.825  26.130  1.00  0.00     0.338 C 
ATOM     27  O   UNL A   1      41.500  18.752  25.721  1.00  0.00    -0.246 OA
BRANCH  26  28
ATOM     28  C   UNL A   1      42.008  20.940  26.453  1.00  0.00     0.060 A 
ATOM     29  C   UNL A   1      42.218  21.262  27.803  1.00  0.00     0.016 A 
ATOM     30  C   UNL A   1      42.574  21.715  25.442  1.00  0.00     0.016 A 
ATOM     31  C   UNL A   1      42.974  22.378  28.149  1.00  0.00     0.010 A 
ATOM     32  C   UNL A   1      43.300  22.857  25.790  1.00  0.00     0.010 A 
ATOM     33  C   UNL A   1      43.470  23.212  27.141  1.00  0.00    -0.014 A 
BRANCH  33  34
ATOM     34  C   UNL A   1      43.953  24.569  27.483  1.00  0.00     0.031 A 
ATOM     35  C   UNL A   1      42.946  25.575  27.966  1.00  0.00     0.074 A 
ATOM     36  C   UNL A   1      45.247  24.905  27.368  1.00  0.00     0.049 A 
ATOM     37  N   UNL A   1      43.088  26.854  28.198  1.00  0.00    -0.248 NA
ATOM     38  C   UNL A   1      41.588  25.064  28.219  1.00  0.00     0.031 C 
ATOM     39  C   UNL A   1      46.327  23.999  26.991  1.00  0.00     0.029 A 
ATOM     40  N   UNL A   1      45.864  26.119  27.544  1.00  0.00    -0.354 N 
ATOM     41  C   UNL A   1      41.839  27.302  28.607  1.00  0.00     0.074 A 
ATOM     42  C   UNL A   1      40.946  26.165  28.576  1.00  0.00     0.031 C 
ATOM     43  C   UNL A   1      47.476  24.695  26.933  1.00  0.00     0.029 A 
ATOM     44  C   UNL A   1      47.200  26.101  27.230  1.00  0.00     0.049 A 
ATOM     45  H   UNL A   1      45.395  26.923  27.863  1.00  0.00     0.167 HD
ATOM     46  C   UNL A   1      41.473  28.551  28.978  1.00  0.00     0.037 A 
ATOM     47  C   UNL A   1      48.085  27.114  27.159  1.00  0.00     0.037 A 
ATOM     48  C   UNL A   1      42.364  29.679  29.005  1.00  0.00     0.049 A 
ATOM     49  C   UNL A   1      47.633  28.515  27.486  1.00  0.00     0.074 A 
ATOM     50  C   UNL A   1      42.093  30.987  29.365  1.00  0.00     0.029 A 
ATOM     51  N   UNL A   1      43.704  29.629  28.650  1.00  0.00    -0.354 N 
ATOM     52  N   UNL A   1      46.451  28.938  27.868  1.00  0.00    -0.248 NA
ATOM     53  C   UNL A   1      48.640  29.580  27.373  1.00  0.00     0.031 C 
ATOM     54  C   UNL A   1      43.258  31.739  29.182  1.00  0.00     0.029 A 
ATOM     55  C   UNL A   1      44.269  30.889  28.760  1.00  0.00     0.049 A 
ATOM     56  H   UNL A   1      44.183  28.818  28.364  1.00  0.00     0.167 HD
ATOM     57  C   UNL A   1      46.581  30.307  28.073  1.00  0.00     0.074 A 
ATOM     58  C   UNL A   1      47.957  30.643  27.776  1.00  0.00     0.031 C 
ATOM     59  C   UNL A   1      45.646  31.203  28.476  1.00  0.00     0.037 A 
BRANCH  46  60
ATOM     60  C   UNL A   1      40.033  28.766  29.339  1.00  0.00     0.064 A 
ATOM     61  C   UNL A   1      39.563  28.578  30.647  1.00  0.00     0.173 A 
ATOM     62  C   UNL A   1      39.112  29.172  28.361  1.00  0.00     0.173 A 
ATOM     63  F   UNL A   1      40.400  28.172  31.614  1.00  0.00    -0.203 F 
ATOM     64  C   UNL A   1      38.218  28.764  30.958  1.00  0.00     0.198 A 
ATOM     65  C   UNL A   1      37.774  29.385  28.681  1.00  0.00     0.198 A 
ATOM     66  F   UNL A   1      39.511  29.365  27.095  1.00  0.00    -0.203 F 
ATOM     67  F   UNL A   1      37.780  28.530  32.202  1.00  0.00    -0.200 F 
ATOM     68  C   UNL A   1      37.326  29.173  29.976  1.00  0.00     0.200 A 
ATOM     69  F   UNL A   1      36.917  29.788  27.735  1.00  0.00    -0.200 F 
ATOM     70  F   UNL A   1      36.033  29.353  30.277  1.00  0.00    -0.200 F 
ENDBRANCH  46  60
BRANCH  47  71
ATOM     71  C   UNL A   1      49.483  26.847  26.735  1.00  0.00     0.064 A 
ATOM     72  C   UNL A   1      49.857  26.925  25.386  1.00  0.00     0.173 A 
ATOM     73  C   UNL A   1      50.469  26.489  27.667  1.00  0.00     0.173 A 
ATOM     74  F   UNL A   1      48.941  27.229  24.455  1.00  0.00    -0.203 F 
ATOM     75  C   UNL A   1      51.160  26.641  24.985  1.00  0.00     0.198 A 
ATOM     76  C   UNL A   1      51.778  26.233  27.266  1.00  0.00     0.198 A 
ATOM     77  F   UNL A   1      50.161  26.393  28.969  1.00  0.00    -0.203 F 
ATOM     78  F   UNL A   1      51.481  26.678  23.683  1.00  0.00    -0.200 F 
ATOM     79  C   UNL A   1      52.122  26.302  25.925  1.00  0.00     0.200 A 
ATOM     80  F   UNL A   1      52.706  25.912  28.180  1.00  0.00    -0.200 F 
ATOM     81  F   UNL A   1      53.375  26.031  25.537  1.00  0.00    -0.200 F 
ENDBRANCH  47  71
BRANCH  59  82
ATOM     82  C   UNL A   1      46.086  32.624  28.669  1.00  0.00     0.064 A 
ATOM     83  C   UNL A   1      46.585  33.083  29.897  1.00  0.00     0.173 A 
ATOM     84  C   UNL A   1      46.062  33.524  27.592  1.00  0.00     0.173 A 
ATOM     85  F   UNL A   1      46.617  32.267  30.960  1.00  0.00    -0.203 F 
ATOM     86  C   UNL A   1      47.024  34.397  30.044  1.00  0.00     0.198 A 
ATOM     87  C   UNL A   1      46.528  34.827  27.734  1.00  0.00     0.198 A 
ATOM     88  F   UNL A   1      45.603  33.132  26.394  1.00  0.00    -0.203 F 
ATOM     89  F   UNL A   1      47.458  34.826  31.236  1.00  0.00    -0.200 F 
ATOM     90  C   UNL A   1      47.003  35.264  28.961  1.00  0.00     0.200 A 
ATOM     91  F   UNL A   1      46.520  35.659  26.684  1.00  0.00    -0.200 F 
ATOM     92  F   UNL A   1      47.436  36.525  29.103  1.00  0.00    -0.200 F 
ENDBRANCH  59  82
ENDBRANCH  33  34
ENDBRANCH  26  28
ENDBRANCH  25  26
ENDBRANCH  24  25
ENDBRANCH  23  24
ENDBRANCH  22  23
ENDBRANCH  21  22
ENDBRANCH   1  21
TORSDOF 21
ENDMDL
MODEL 3
REMARK VINA RESULT:      -9.2      3.575      8.771
REMARK SMILES C[C@@H]([NH2+]CC(C)(C)S(C)(=O)=O)C(=O)OCCOCCOCCOC(=O)c1ccc(-c2c3nc(c(-c4c(F)c(F)c(F)c(F)c4F)c4ccc([nH]4)c(-c4c(F)c(F)c(F)c(F)c4F)c4nc(c(-c5c(F)c(F)c(F)c(F)c5F)c5ccc2[nH]5)C=C4)C=C3)cc1
REMARK SMILES IDX 18 1 17 2 16 3 15 4 14 5 12 6 13 7 2 8 1 9 3 10 4 13 5 14
REMARK SMILES IDX 6 15 7 16 8 17 9 18 10 19 11 20 19 21 20 22 21 23 22 24
REMARK SMILES IDX 23 25 24 26 25 27 26 28 27 29 88 30 28 31 87 32 29 33 30 34
REMARK SMILES IDX 31 35 81 36 32 37 86 38 80 39 82 40 33 41 85 42 79 43 78 44
REMARK SMILES IDX 34 46 66 47 46 48 65 49 47 50 50 51 64 52 83 53 48 54 49 55
REMARK SMILES IDX 63 57 84 58 51 59 35 60 36 61 44 62 37 63 38 64 42 65 45 66
REMARK SMILES IDX 39 67 40 68 43 69 41 70 67 71 68 72 76 73 69 74 70 75 74 76
REMARK SMILES IDX 77 77 71 78 72 79 75 80 73 81 52 82 53 83 61 84 54 85 55 86
REMARK SMILES IDX 59 87 62 88 56 89 57 90 60 91 58 92
REMARK H PARENT 3 11 3 12 82 45 50 56
REMARK Flexibility Score: inf
ROOT
ATOM      1  C   UNL A   1      33.842  19.753  24.738  1.00  0.00     0.188 C 
ENDROOT
BRANCH   1   2
ATOM      2  O   UNL A   1      32.494  20.191  24.645  1.00  0.00    -0.376 OA
BRANCH   2   3
ATOM      3  C   UNL A   1      32.318  21.604  24.567  1.00  0.00     0.202 C 
BRANCH   3   4
ATOM      4  C   UNL A   1      32.104  22.167  23.154  1.00  0.00     0.261 C 
BRANCH   4   5
ATOM      5  O   UNL A   1      32.227  23.597  23.069  1.00  0.00    -0.459 OA
BRANCH   5   6
ATOM      6  C   UNL A   1      33.414  24.093  22.625  1.00  0.00     0.364 C 
ATOM      7  O   UNL A   1      34.368  23.369  22.371  1.00  0.00    -0.245 OA
BRANCH   6   8
ATOM      8  C   UNL A   1      33.287  25.607  22.287  1.00  0.00     0.290 C 
ATOM      9  C   UNL A   1      31.852  26.014  21.900  1.00  0.00     0.088 C 
BRANCH   8  10
ATOM     10  N   UNL A   1      33.763  26.527  23.343  1.00  0.00    -0.333 N 
ATOM     11  H   UNL A   1      34.661  26.898  23.032  1.00  0.00     0.347 HD
ATOM     12  H   UNL A   1      33.774  25.949  24.184  1.00  0.00     0.347 HD
BRANCH  10  13
ATOM     13  C   UNL A   1      32.933  27.671  23.717  1.00  0.00     0.283 C 
BRANCH  13  14
ATOM     14  C   UNL A   1      32.483  27.974  25.174  1.00  0.00     0.115 C 
ATOM     15  C   UNL A   1      33.678  28.392  26.045  1.00  0.00     0.034 C 
ATOM     16  C   UNL A   1      31.495  29.164  25.084  1.00  0.00     0.034 C 
BRANCH  14  17
ATOM     17  S   UNL A   1      31.610  26.599  26.020  1.00  0.00     0.158 S 
ATOM     18  C   UNL A   1      30.112  26.297  25.110  1.00  0.00     0.159 C 
ATOM     19  O   UNL A   1      32.407  25.390  25.944  1.00  0.00    -0.228 OA
ATOM     20  O   UNL A   1      31.190  27.070  27.330  1.00  0.00    -0.228 OA
ENDBRANCH  14  17
ENDBRANCH  13  14
ENDBRANCH  10  13
ENDBRANCH   8  10
ENDBRANCH   6   8
ENDBRANCH   5   6
ENDBRANCH   4   5
ENDBRANCH   3   4
ENDBRANCH   2   3
ENDBRANCH   1   2
BRANCH   1  21
ATOM     21  C   UNL A   1      34.854  20.835  25.162  1.00  0.00     0.188 C 
BRANCH  21  22
ATOM     22  O   UNL A   1      36.246  20.568  25.176  1.00  0.00    -0.376 OA
BRANCH  22  23
ATOM     23  C   UNL A   1      37.124  21.482  24.534  1.00  0.00     0.202 C 
BRANCH  23  24
ATOM     24  C   UNL A   1      37.755  22.625  25.347  1.00  0.00     0.261 C 
BRANCH  24  25
ATOM     25  O   UNL A   1      38.581  22.212  26.447  1.00  0.00    -0.460 OA
BRANCH  25  26
ATOM     26  C   UNL A   1      39.839  22.722  26.443  1.00  0.00     0.338 C 
ATOM     27  O   UNL A   1      40.848  22.210  25.993  1.00  0.00    -0.246 OA
BRANCH  26  28
ATOM     28  C   UNL A   1      39.810  24.116  26.927  1.00  0.00     0.060 A 
ATOM     29  C   UNL A   1      40.397  25.112  26.132  1.00  0.00     0.016 A 
ATOM     30  C   UNL A   1      39.297  24.422  28.186  1.00  0.00     0.016 A 
ATOM     31  C   UNL A   1      40.498  26.418  26.604  1.00  0.00     0.010 A 
ATOM     32  C   UNL A   1      39.434  25.724  28.675  1.00  0.00     0.010 A 
ATOM     33  C   UNL A   1      40.067  26.715  27.901  1.00  0.00    -0.014 A 
BRANCH  33  34
ATOM     34  C   UNL A   1      40.488  27.981  28.542  1.00  0.00     0.031 A 
ATOM     35  C   UNL A   1      41.922  28.111  28.975  1.00  0.00     0.074 A 
ATOM     36  C   UNL A   1      39.626  28.991  28.739  1.00  0.00     0.049 A 
ATOM     37  N   UNL A   1      42.502  29.052  29.673  1.00  0.00    -0.248 NA
ATOM     38  C   UNL A   1      42.824  27.021  28.565  1.00  0.00     0.031 C 
ATOM     39  C   UNL A   1      38.238  29.018  28.292  1.00  0.00     0.029 A 
ATOM     40  N   UNL A   1      39.800  30.188  29.389  1.00  0.00    -0.354 N 
ATOM     41  C   UNL A   1      43.829  28.662  29.797  1.00  0.00     0.074 A 
ATOM     42  C   UNL A   1      43.967  27.391  29.121  1.00  0.00     0.031 C 
ATOM     43  C   UNL A   1      37.671  30.165  28.707  1.00  0.00     0.029 A 
ATOM     44  C   UNL A   1      38.649  30.928  29.482  1.00  0.00     0.049 A 
ATOM     45  H   UNL A   1      40.665  30.485  29.753  1.00  0.00     0.167 HD
ATOM     46  C   UNL A   1      44.842  29.308  30.421  1.00  0.00     0.037 A 
ATOM     47  C   UNL A   1      38.410  32.075  30.149  1.00  0.00     0.037 A 
ATOM     48  C   UNL A   1      44.699  30.571  31.095  1.00  0.00     0.049 A 
ATOM     49  C   UNL A   1      39.531  32.732  30.915  1.00  0.00     0.074 A 
ATOM     50  C   UNL A   1      45.662  31.311  31.756  1.00  0.00     0.029 A 
ATOM     51  N   UNL A   1      43.510  31.277  31.194  1.00  0.00    -0.354 N 
ATOM     52  N   UNL A   1      40.783  32.360  31.037  1.00  0.00    -0.248 NA
ATOM     53  C   UNL A   1      39.203  33.971  31.636  1.00  0.00     0.031 C 
ATOM     54  C   UNL A   1      45.045  32.442  32.299  1.00  0.00     0.029 A 
ATOM     55  C   UNL A   1      43.709  32.434  31.929  1.00  0.00     0.049 A 
ATOM     56  H   UNL A   1      42.652  30.997  30.802  1.00  0.00     0.167 HD
ATOM     57  C   UNL A   1      41.399  33.332  31.816  1.00  0.00     0.074 A 
ATOM     58  C   UNL A   1      40.383  34.313  32.137  1.00  0.00     0.031 C 
ATOM     59  C   UNL A   1      42.689  33.409  32.225  1.00  0.00     0.037 A 
BRANCH  46  60
ATOM     60  C   UNL A   1      46.181  28.633  30.437  1.00  0.00     0.064 A 
ATOM     61  C   UNL A   1      46.548  27.744  31.458  1.00  0.00     0.173 A 
ATOM     62  C   UNL A   1      47.107  28.875  29.411  1.00  0.00     0.173 A 
ATOM     63  F   UNL A   1      45.705  27.493  32.471  1.00  0.00    -0.203 F 
ATOM     64  C   UNL A   1      47.804  27.142  31.465  1.00  0.00     0.198 A 
ATOM     65  C   UNL A   1      48.351  28.251  29.406  1.00  0.00     0.198 A 
ATOM     66  F   UNL A   1      46.805  29.718  28.412  1.00  0.00    -0.203 F 
ATOM     67  F   UNL A   1      48.154  26.336  32.475  1.00  0.00    -0.200 F 
ATOM     68  C   UNL A   1      48.702  27.392  30.436  1.00  0.00     0.200 A 
ATOM     69  F   UNL A   1      49.212  28.485  28.408  1.00  0.00    -0.200 F 
ATOM     70  F   UNL A   1      49.909  26.811  30.443  1.00  0.00    -0.200 F 
ENDBRANCH  46  60
BRANCH  47  71
ATOM     71  C   UNL A   1      37.046  32.662  30.145  1.00  0.00     0.064 A 
ATOM     72  C   UNL A   1      36.639  33.539  29.130  1.00  0.00     0.173 A 
ATOM     73  C   UNL A   1      36.129  32.374  31.167  1.00  0.00     0.173 A 
ATOM     74  F   UNL A   1      37.492  33.872  28.151  1.00  0.00    -0.203 F 
ATOM     75  C   UNL A   1      35.371  34.116  29.145  1.00  0.00     0.198 A 
ATOM     76  C   UNL A   1      34.852  32.930  31.165  1.00  0.00     0.198 A 
ATOM     77  F   UNL A   1      36.472  31.547  32.165  1.00  0.00    -0.203 F 
ATOM     78  F   UNL A   1      35.022  34.987  28.188  1.00  0.00    -0.200 F 
ATOM     79  C   UNL A   1      34.476  33.806  30.158  1.00  0.00     0.200 A 
ATOM     80  F   UNL A   1      33.988  32.622  32.143  1.00  0.00    -0.200 F 
ATOM     81  F   UNL A   1      33.256  34.360  30.171  1.00  0.00    -0.200 F 
ENDBRANCH  47  71
BRANCH  59  82
ATOM     82  C   UNL A   1      43.094  34.614  33.021  1.00  0.00     0.064 A 
ATOM     83  C   UNL A   1      43.425  35.830  32.405  1.00  0.00     0.173 A 
ATOM     84  C   UNL A   1      43.094  34.567  34.424  1.00  0.00     0.173 A 
ATOM     85  F   UNL A   1      43.453  35.923  31.067  1.00  0.00    -0.203 F 
ATOM     86  C   UNL A   1      43.761  36.948  33.165  1.00  0.00     0.198 A 
ATOM     87  C   UNL A   1      43.401  35.694  35.180  1.00  0.00     0.198 A 
ATOM     88  F   UNL A   1      42.775  33.431  35.062  1.00  0.00    -0.203 F 
ATOM     89  F   UNL A   1      44.115  38.087  32.555  1.00  0.00    -0.200 F 
ATOM     90  C   UNL A   1      43.741  36.881  34.550  1.00  0.00     0.200 A 
ATOM     91  F   UNL A   1      43.368  35.631  36.518  1.00  0.00    -0.200 F 
ATOM     92  F   UNL A   1      44.055  37.961  35.279  1.00  0.00    -0.200 F 
ENDBRANCH  59  82
ENDBRANCH  33  34
ENDBRANCH  26  28
ENDBRANCH  25  26
ENDBRANCH  24  25
ENDBRANCH  23  24
ENDBRANCH  22  23
ENDBRANCH  21  22
ENDBRANCH   1  21
TORSDOF 21
ENDMDL
