MODEL 1
REMARK VINA RESULT:     -10.8      0.000      0.000
REMARK SMILES C/C(=N/OCc1ccccc1Nc1c(Cl)cccc1Cl)C(=O)OCCOCCOCCOC(=O)c1ccc(-c2c3nc(c(-c4c(F)c(F)c(F)c(F)c4F)c4ccc([nH]4)c(-c4c(F)c(F)c(F)c(F)c4F)c4nc(c(-c5c(F)c(F)c(F)c(F)c5F)c5ccc2[nH]5)C=C4)C=C3)cc1
REMARK SMILES IDX 26 1 25 2 24 3 23 4 21 5 22 6 2 7 1 8 3 9 4 10 5 11 6 12
REMARK SMILES IDX 7 13 11 14 8 15 10 16 9 17 12 18 13 20 14 21 19 22 15 23
REMARK SMILES IDX 16 24 18 25 20 26 17 27 27 28 28 29 29 30 30 31 31 32 32 33
REMARK SMILES IDX 33 34 34 35 35 36 36 37 97 38 37 39 96 40 38 41 39 42 40 43
REMARK SMILES IDX 90 44 41 45 95 46 89 47 91 48 42 49 94 50 88 51 87 52 43 54
REMARK SMILES IDX 75 55 55 56 74 57 56 58 59 59 73 60 92 61 57 62 58 63 72 65
REMARK SMILES IDX 93 66 60 67 44 68 45 69 53 70 46 71 47 72 51 73 54 74 48 75
REMARK SMILES IDX 49 76 52 77 50 78 76 79 77 80 85 81 78 82 79 83 83 84 86 85
REMARK SMILES IDX 80 86 81 87 84 88 82 89 61 90 62 91 70 92 63 93 64 94 68 95
REMARK SMILES IDX 71 96 65 97 66 98 69 99 67 100
REMARK H PARENT 12 19 91 53 59 64
REMARK Flexibility Score: inf
ROOT
ATOM      1  O   UNL A   1      34.135  21.344  24.174  1.00  0.00    -0.376 OA
ENDROOT
BRANCH   1   2
ATOM      2  C   UNL A   1      32.791  21.432  23.701  1.00  0.00     0.202 C 
BRANCH   2   3
ATOM      3  C   UNL A   1      32.536  22.451  22.587  1.00  0.00     0.261 C 
BRANCH   3   4
ATOM      4  O   UNL A   1      32.619  23.783  23.109  1.00  0.00    -0.459 OA
BRANCH   4   5
ATOM      5  C   UNL A   1      33.673  24.519  22.716  1.00  0.00     0.355 C 
ATOM      6  O   UNL A   1      34.844  24.184  22.679  1.00  0.00    -0.245 OA
BRANCH   5   7
ATOM      7  C   UNL A   1      33.176  25.779  22.027  1.00  0.00     0.161 C 
ATOM      8  C   UNL A   1      32.516  25.576  20.692  1.00  0.00     0.079 C 
ATOM      9  N   UNL A   1      33.206  26.980  22.524  1.00  0.00    -0.084 NA
BRANCH   9  10
ATOM     10  O   UNL A   1      33.877  27.028  23.758  1.00  0.00    -0.390 OA
BRANCH  10  11
ATOM     11  C   UNL A   1      32.907  26.928  24.816  1.00  0.00     0.302 C 
BRANCH  11  12
ATOM     12  C   UNL A   1      32.704  28.300  25.416  1.00  0.00     0.016 A 
ATOM     13  C   UNL A   1      33.428  28.616  26.587  1.00  0.00     0.009 A 
ATOM     14  C   UNL A   1      31.769  29.223  24.911  1.00  0.00     0.045 A 
ATOM     15  C   UNL A   1      33.208  29.805  27.273  1.00  0.00     0.001 A 
ATOM     16  C   UNL A   1      31.567  30.419  25.621  1.00  0.00     0.026 A 
ATOM     17  C   UNL A   1      32.270  30.705  26.793  1.00  0.00     0.002 A 
BRANCH  14  18
ATOM     18  N   UNL A   1      31.082  28.971  23.703  1.00  0.00    -0.353 N 
ATOM     19  H   UNL A   1      31.656  28.857  22.912  1.00  0.00     0.167 HD
BRANCH  18  20
ATOM     20  C   UNL A   1      29.690  28.858  23.456  1.00  0.00     0.076 A 
ATOM     21  C   UNL A   1      29.075  27.594  23.582  1.00  0.00     0.066 A 
ATOM     22  C   UNL A   1      28.850  29.956  23.172  1.00  0.00     0.066 A 
ATOM     23  Cl  UNL A   1      30.025  26.174  23.880  1.00  0.00    -0.082 Cl
ATOM     24  C   UNL A   1      27.688  27.438  23.481  1.00  0.00     0.023 A 
ATOM     25  C   UNL A   1      27.460  29.799  23.079  1.00  0.00     0.023 A 
ATOM     26  Cl  UNL A   1      29.468  31.535  22.813  1.00  0.00    -0.082 Cl
ATOM     27  C   UNL A   1      26.878  28.544  23.246  1.00  0.00     0.003 A 
ENDBRANCH  18  20
ENDBRANCH  14  18
ENDBRANCH  11  12
ENDBRANCH  10  11
ENDBRANCH   9  10
ENDBRANCH   5   7
ENDBRANCH   4   5
ENDBRANCH   3   4
ENDBRANCH   2   3
ENDBRANCH   1   2
BRANCH   1  28
ATOM     28  C   UNL A   1      34.455  21.900  25.448  1.00  0.00     0.188 C 
BRANCH  28  29
ATOM     29  C   UNL A   1      35.783  21.519  26.135  1.00  0.00     0.188 C 
BRANCH  29  30
ATOM     30  O   UNL A   1      36.940  21.962  25.444  1.00  0.00    -0.376 OA
BRANCH  30  31
ATOM     31  C   UNL A   1      37.592  20.975  24.656  1.00  0.00     0.202 C 
BRANCH  31  32
ATOM     32  C   UNL A   1      38.621  20.172  25.457  1.00  0.00     0.261 C 
BRANCH  32  33
ATOM     33  O   UNL A   1      39.896  20.825  25.605  1.00  0.00    -0.460 OA
BRANCH  33  34
ATOM     34  C   UNL A   1      40.470  20.753  26.827  1.00  0.00     0.338 C 
ATOM     35  O   UNL A   1      40.821  19.748  27.417  1.00  0.00    -0.246 OA
BRANCH  34  36
ATOM     36  C   UNL A   1      40.773  22.126  27.280  1.00  0.00     0.060 A 
ATOM     37  C   UNL A   1      40.195  23.199  26.593  1.00  0.00     0.016 A 
ATOM     38  C   UNL A   1      41.635  22.355  28.356  1.00  0.00     0.016 A 
ATOM     39  C   UNL A   1      40.511  24.509  26.959  1.00  0.00     0.010 A 
ATOM     40  C   UNL A   1      41.959  23.668  28.714  1.00  0.00     0.010 A 
ATOM     41  C   UNL A   1      41.423  24.751  27.996  1.00  0.00    -0.014 A 
BRANCH  41  42
ATOM     42  C   UNL A   1      41.927  26.130  28.216  1.00  0.00     0.031 A 
ATOM     43  C   UNL A   1      43.279  26.506  27.675  1.00  0.00     0.074 A 
ATOM     44  C   UNL A   1      41.181  27.052  28.849  1.00  0.00     0.049 A 
ATOM     45  N   UNL A   1      43.885  27.666  27.680  1.00  0.00    -0.248 NA
ATOM     46  C   UNL A   1      44.053  25.425  27.042  1.00  0.00     0.031 C 
ATOM     47  C   UNL A   1      39.856  26.822  29.420  1.00  0.00     0.029 A 
ATOM     48  N   UNL A   1      41.438  28.375  29.113  1.00  0.00    -0.354 N 
ATOM     49  C   UNL A   1      45.100  27.460  27.040  1.00  0.00     0.074 A 
ATOM     50  C   UNL A   1      45.165  26.055  26.697  1.00  0.00     0.031 C 
ATOM     51  C   UNL A   1      39.415  27.969  29.967  1.00  0.00     0.029 A 
ATOM     52  C   UNL A   1      40.428  29.008  29.793  1.00  0.00     0.049 A 
ATOM     53  H   UNL A   1      42.270  28.827  28.840  1.00  0.00     0.167 HD
ATOM     54  C   UNL A   1      46.068  28.360  26.748  1.00  0.00     0.037 A 
ATOM     55  C   UNL A   1      40.334  30.283  30.222  1.00  0.00     0.037 A 
ATOM     56  C   UNL A   1      46.019  29.755  27.097  1.00  0.00     0.049 A 
ATOM     57  C   UNL A   1      41.444  31.256  29.922  1.00  0.00     0.074 A 
ATOM     58  C   UNL A   1      46.947  30.747  26.829  1.00  0.00     0.029 A 
ATOM     59  N   UNL A   1      44.988  30.355  27.803  1.00  0.00    -0.354 N 
ATOM     60  N   UNL A   1      42.562  31.066  29.264  1.00  0.00    -0.248 NA
ATOM     61  C   UNL A   1      41.269  32.631  30.414  1.00  0.00     0.031 C 
ATOM     62  C   UNL A   1      46.497  31.939  27.410  1.00  0.00     0.029 A 
ATOM     63  C   UNL A   1      45.266  31.699  27.998  1.00  0.00     0.049 A 
ATOM     64  H   UNL A   1      44.178  29.895  28.120  1.00  0.00     0.167 HD
ATOM     65  C   UNL A   1      43.206  32.296  29.237  1.00  0.00     0.074 A 
ATOM     66  C   UNL A   1      42.347  33.232  29.932  1.00  0.00     0.031 C 
ATOM     67  C   UNL A   1      44.402  32.623  28.688  1.00  0.00     0.037 A 
BRANCH  54  68
ATOM     68  C   UNL A   1      47.276  27.856  26.015  1.00  0.00     0.064 A 
ATOM     69  C   UNL A   1      48.422  27.430  26.702  1.00  0.00     0.173 A 
ATOM     70  C   UNL A   1      47.277  27.771  24.616  1.00  0.00     0.173 A 
ATOM     71  F   UNL A   1      48.476  27.506  28.040  1.00  0.00    -0.203 F 
ATOM     72  C   UNL A   1      49.537  26.960  26.012  1.00  0.00     0.198 A 
ATOM     73  C   UNL A   1      48.383  27.277  23.930  1.00  0.00     0.198 A 
ATOM     74  F   UNL A   1      46.204  28.165  23.913  1.00  0.00    -0.203 F 
ATOM     75  F   UNL A   1      50.637  26.599  26.685  1.00  0.00    -0.200 F 
ATOM     76  C   UNL A   1      49.514  26.877  24.627  1.00  0.00     0.200 A 
ATOM     77  F   UNL A   1      48.356  27.190  22.592  1.00  0.00    -0.200 F 
ATOM     78  F   UNL A   1      50.585  26.421  23.964  1.00  0.00    -0.200 F 
ENDBRANCH  54  68
BRANCH  55  79
ATOM     79  C   UNL A   1      39.130  30.726  30.970  1.00  0.00     0.064 A 
ATOM     80  C   UNL A   1      39.080  30.653  32.370  1.00  0.00     0.173 A 
ATOM     81  C   UNL A   1      37.993  31.199  30.301  1.00  0.00     0.173 A 
ATOM     82  F   UNL A   1      40.134  30.179  33.052  1.00  0.00    -0.203 F 
ATOM     83  C   UNL A   1      37.932  31.017  33.069  1.00  0.00     0.198 A 
ATOM     84  C   UNL A   1      36.853  31.586  31.003  1.00  0.00     0.198 A 
ATOM     85  F   UNL A   1      37.987  31.282  28.962  1.00  0.00    -0.203 F 
ATOM     86  F   UNL A   1      37.894  30.888  34.403  1.00  0.00    -0.200 F 
ATOM     87  C   UNL A   1      36.821  31.486  32.386  1.00  0.00     0.200 A 
ATOM     88  F   UNL A   1      35.784  32.046  30.340  1.00  0.00    -0.200 F 
ATOM     89  F   UNL A   1      35.715  31.833  33.059  1.00  0.00    -0.200 F 
ENDBRANCH  55  79
BRANCH  67  90
ATOM     90  C   UNL A   1      44.837  34.057  28.786  1.00  0.00     0.064 A 
ATOM     91  C   UNL A   1      44.430  35.016  27.847  1.00  0.00     0.173 A 
ATOM     92  C   UNL A   1      45.660  34.480  29.842  1.00  0.00     0.173 A 
ATOM     93  F   UNL A   1      43.655  34.661  26.812  1.00  0.00    -0.203 F 
ATOM     94  C   UNL A   1      44.858  36.339  27.942  1.00  0.00     0.198 A 
ATOM     95  C   UNL A   1      46.062  35.808  29.950  1.00  0.00     0.198 A 
ATOM     96  F   UNL A   1      46.071  33.605  30.771  1.00  0.00    -0.203 F 
ATOM     97  F   UNL A   1      44.502  37.226  27.002  1.00  0.00    -0.200 F 
ATOM     98  C   UNL A   1      45.670  36.734  28.995  1.00  0.00     0.200 A 
ATOM     99  F   UNL A   1      46.836  36.192  30.974  1.00  0.00    -0.200 F 
ATOM    100  F   UNL A   1      46.083  38.006  29.084  1.00  0.00    -0.200 F 
ENDBRANCH  67  90
ENDBRANCH  41  42
ENDBRANCH  34  36
ENDBRANCH  33  34
ENDBRANCH  32  33
ENDBRANCH  31  32
ENDBRANCH  30  31
ENDBRANCH  29  30
ENDBRANCH  28  29
ENDBRANCH   1  28
TORSDOF 22
ENDMDL
MODEL 2
REMARK VINA RESULT:     -10.6      1.319      3.128
REMARK SMILES C/C(=N/OCc1ccccc1Nc1c(Cl)cccc1Cl)C(=O)OCCOCCOCCOC(=O)c1ccc(-c2c3nc(c(-c4c(F)c(F)c(F)c(F)c4F)c4ccc([nH]4)c(-c4c(F)c(F)c(F)c(F)c4F)c4nc(c(-c5c(F)c(F)c(F)c(F)c5F)c5ccc2[nH]5)C=C4)C=C3)cc1
REMARK SMILES IDX 26 1 25 2 24 3 23 4 21 5 22 6 2 7 1 8 3 9 4 10 5 11 6 12
REMARK SMILES IDX 7 13 11 14 8 15 10 16 9 17 12 18 13 20 14 21 19 22 15 23
REMARK SMILES IDX 16 24 18 25 20 26 17 27 27 28 28 29 29 30 30 31 31 32 32 33
REMARK SMILES IDX 33 34 34 35 35 36 36 37 97 38 37 39 96 40 38 41 39 42 40 43
REMARK SMILES IDX 90 44 41 45 95 46 89 47 91 48 42 49 94 50 88 51 87 52 43 54
REMARK SMILES IDX 75 55 55 56 74 57 56 58 59 59 73 60 92 61 57 62 58 63 72 65
REMARK SMILES IDX 93 66 60 67 44 68 45 69 53 70 46 71 47 72 51 73 54 74 48 75
REMARK SMILES IDX 49 76 52 77 50 78 76 79 77 80 85 81 78 82 79 83 83 84 86 85
REMARK SMILES IDX 80 86 81 87 84 88 82 89 61 90 62 91 70 92 63 93 64 94 68 95
REMARK SMILES IDX 71 96 65 97 66 98 69 99 67 100
REMARK H PARENT 12 19 91 53 59 64
REMARK Flexibility Score: inf
ROOT
ATOM      1  O   UNL A   1      33.555  22.663  23.183  1.00  0.00    -0.376 OA
ENDROOT
BRANCH   1   2
ATOM      2  C   UNL A   1      32.210  23.094  23.393  1.00  0.00     0.202 C 
BRANCH   2   3
ATOM      3  C   UNL A   1      31.475  22.454  24.573  1.00  0.00     0.261 C 
BRANCH   3   4
ATOM      4  O   UNL A   1      30.441  23.328  25.041  1.00  0.00    -0.459 OA
BRANCH   4   5
ATOM      5  C   UNL A   1      30.533  23.740  26.317  1.00  0.00     0.355 C 
ATOM      6  O   UNL A   1      29.915  23.325  27.282  1.00  0.00    -0.245 OA
BRANCH   5   7
ATOM      7  C   UNL A   1      31.757  24.629  26.470  1.00  0.00     0.161 C 
ATOM      8  C   UNL A   1      32.953  23.987  27.117  1.00  0.00     0.079 C 
ATOM      9  N   UNL A   1      31.873  25.846  26.028  1.00  0.00    -0.084 NA
BRANCH   9  10
ATOM     10  O   UNL A   1      30.673  26.328  25.477  1.00  0.00    -0.390 OA
BRANCH  10  11
ATOM     11  C   UNL A   1      30.908  26.693  24.105  1.00  0.00     0.302 C 
BRANCH  11  12
ATOM     12  C   UNL A   1      30.008  27.854  23.754  1.00  0.00     0.016 A 
ATOM     13  C   UNL A   1      28.637  27.583  23.555  1.00  0.00     0.009 A 
ATOM     14  C   UNL A   1      30.494  29.157  23.533  1.00  0.00     0.045 A 
ATOM     15  C   UNL A   1      27.762  28.567  23.108  1.00  0.00     0.001 A 
ATOM     16  C   UNL A   1      29.590  30.135  23.083  1.00  0.00     0.026 A 
ATOM     17  C   UNL A   1      28.242  29.844  22.864  1.00  0.00     0.002 A 
BRANCH  14  18
ATOM     18  N   UNL A   1      31.844  29.481  23.792  1.00  0.00    -0.353 N 
ATOM     19  H   UNL A   1      32.388  29.671  22.994  1.00  0.00     0.167 HD
BRANCH  18  20
ATOM     20  C   UNL A   1      32.536  29.573  25.027  1.00  0.00     0.076 A 
ATOM     21  C   UNL A   1      33.638  28.723  25.257  1.00  0.00     0.066 A 
ATOM     22  C   UNL A   1      32.244  30.532  26.021  1.00  0.00     0.066 A 
ATOM     23  Cl  UNL A   1      34.049  27.480  24.121  1.00  0.00    -0.082 Cl
ATOM     24  C   UNL A   1      34.441  28.853  26.396  1.00  0.00     0.023 A 
ATOM     25  C   UNL A   1      33.054  30.665  27.157  1.00  0.00     0.023 A 
ATOM     26  Cl  UNL A   1      30.824  31.525  25.970  1.00  0.00    -0.082 Cl
ATOM     27  C   UNL A   1      34.158  29.836  27.338  1.00  0.00     0.003 A 
ENDBRANCH  18  20
ENDBRANCH  14  18
ENDBRANCH  11  12
ENDBRANCH  10  11
ENDBRANCH   9  10
ENDBRANCH   5   7
ENDBRANCH   4   5
ENDBRANCH   3   4
ENDBRANCH   2   3
ENDBRANCH   1   2
BRANCH   1  28
ATOM     28  C   UNL A   1      34.097  21.656  24.035  1.00  0.00     0.188 C 
BRANCH  28  29
ATOM     29  C   UNL A   1      35.513  21.832  24.619  1.00  0.00     0.188 C 
BRANCH  29  30
ATOM     30  O   UNL A   1      35.919  20.782  25.482  1.00  0.00    -0.376 OA
BRANCH  30  31
ATOM     31  C   UNL A   1      36.833  19.852  24.918  1.00  0.00     0.202 C 
BRANCH  31  32
ATOM     32  C   UNL A   1      38.282  20.344  24.979  1.00  0.00     0.261 C 
BRANCH  32  33
ATOM     33  O   UNL A   1      38.746  20.654  26.307  1.00  0.00    -0.460 OA
BRANCH  33  34
ATOM     34  C   UNL A   1      40.086  20.710  26.477  1.00  0.00     0.338 C 
ATOM     35  O   UNL A   1      40.907  19.880  26.132  1.00  0.00    -0.246 OA
BRANCH  34  36
ATOM     36  C   UNL A   1      40.432  22.046  27.004  1.00  0.00     0.060 A 
ATOM     37  C   UNL A   1      39.762  23.161  26.490  1.00  0.00     0.016 A 
ATOM     38  C   UNL A   1      41.421  22.201  27.980  1.00  0.00     0.016 A 
ATOM     39  C   UNL A   1      40.109  24.442  26.924  1.00  0.00     0.010 A 
ATOM     40  C   UNL A   1      41.776  23.485  28.405  1.00  0.00     0.010 A 
ATOM     41  C   UNL A   1      41.144  24.614  27.856  1.00  0.00    -0.014 A 
BRANCH  41  42
ATOM     42  C   UNL A   1      41.659  25.979  28.128  1.00  0.00     0.031 A 
ATOM     43  C   UNL A   1      43.027  26.354  27.629  1.00  0.00     0.074 A 
ATOM     44  C   UNL A   1      40.909  26.892  28.771  1.00  0.00     0.049 A 
ATOM     45  N   UNL A   1      43.646  27.506  27.682  1.00  0.00    -0.248 NA
ATOM     46  C   UNL A   1      43.802  25.283  26.981  1.00  0.00     0.031 C 
ATOM     47  C   UNL A   1      39.569  26.661  29.306  1.00  0.00     0.029 A 
ATOM     48  N   UNL A   1      41.176  28.203  29.081  1.00  0.00    -0.354 N 
ATOM     49  C   UNL A   1      44.873  27.304  27.063  1.00  0.00     0.074 A 
ATOM     50  C   UNL A   1      44.929  25.909  26.680  1.00  0.00     0.031 C 
ATOM     51  C   UNL A   1      39.129  27.797  29.877  1.00  0.00     0.029 A 
ATOM     52  C   UNL A   1      40.159  28.828  29.757  1.00  0.00     0.049 A 
ATOM     53  H   UNL A   1      42.019  28.652  28.840  1.00  0.00     0.167 HD
ATOM     54  C   UNL A   1      45.858  28.201  26.819  1.00  0.00     0.037 A 
ATOM     55  C   UNL A   1      40.069  30.090  30.221  1.00  0.00     0.037 A 
ATOM     56  C   UNL A   1      45.817  29.585  27.209  1.00  0.00     0.049 A 
ATOM     57  C   UNL A   1      41.198  31.058  29.975  1.00  0.00     0.074 A 
ATOM     58  C   UNL A   1      46.763  30.573  26.992  1.00  0.00     0.029 A 
ATOM     59  N   UNL A   1      44.777  30.177  27.910  1.00  0.00    -0.354 N 
ATOM     60  N   UNL A   1      42.328  30.873  29.337  1.00  0.00    -0.248 NA
ATOM     61  C   UNL A   1      41.028  32.420  30.504  1.00  0.00     0.031 C 
ATOM     62  C   UNL A   1      46.314  31.752  27.598  1.00  0.00     0.029 A 
ATOM     63  C   UNL A   1      45.067  31.510  28.152  1.00  0.00     0.049 A 
ATOM     64  H   UNL A   1      43.955  29.717  28.195  1.00  0.00     0.167 HD
ATOM     65  C   UNL A   1      42.987  32.096  29.362  1.00  0.00     0.074 A 
ATOM     66  C   UNL A   1      42.123  33.021  30.065  1.00  0.00     0.031 C 
ATOM     67  C   UNL A   1      44.199  32.424  28.849  1.00  0.00     0.037 A 
BRANCH  54  68
ATOM     68  C   UNL A   1      47.075  27.703  26.099  1.00  0.00     0.064 A 
ATOM     69  C   UNL A   1      47.166  27.745  24.700  1.00  0.00     0.173 A 
ATOM     70  C   UNL A   1      48.173  27.204  26.815  1.00  0.00     0.173 A 
ATOM     71  F   UNL A   1      46.136  28.199  23.970  1.00  0.00    -0.203 F 
ATOM     72  C   UNL A   1      48.303  27.283  24.042  1.00  0.00     0.198 A 
ATOM     73  C   UNL A   1      49.318  26.766  26.156  1.00  0.00     0.198 A 
ATOM     74  F   UNL A   1      48.137  27.144  28.155  1.00  0.00    -0.203 F 
ATOM     75  F   UNL A   1      48.350  27.292  22.703  1.00  0.00    -0.200 F 
ATOM     76  C   UNL A   1      49.380  26.800  24.770  1.00  0.00     0.200 A 
ATOM     77  F   UNL A   1      50.362  26.308  26.861  1.00  0.00    -0.200 F 
ATOM     78  F   UNL A   1      50.475  26.359  24.136  1.00  0.00    -0.200 F 
ENDBRANCH  54  68
BRANCH  55  79
ATOM     79  C   UNL A   1      38.855  30.526  30.956  1.00  0.00     0.064 A 
ATOM     80  C   UNL A   1      37.729  31.007  30.271  1.00  0.00     0.173 A 
ATOM     81  C   UNL A   1      38.807  30.505  32.357  1.00  0.00     0.173 A 
ATOM     82  F   UNL A   1      37.739  31.075  28.931  1.00  0.00    -0.203 F 
ATOM     83  C   UNL A   1      36.610  31.468  30.961  1.00  0.00     0.198 A 
ATOM     84  C   UNL A   1      37.677  30.943  33.045  1.00  0.00     0.198 A 
ATOM     85  F   UNL A   1      39.860  30.060  33.058  1.00  0.00    -0.203 F 
ATOM     86  F   UNL A   1      35.568  31.970  30.283  1.00  0.00    -0.200 F 
ATOM     87  C   UNL A   1      36.584  31.433  32.347  1.00  0.00     0.200 A 
ATOM     88  F   UNL A   1      37.653  30.901  34.383  1.00  0.00    -0.200 F 
ATOM     89  F   UNL A   1      35.508  31.880  33.010  1.00  0.00    -0.200 F 
ENDBRANCH  55  79
BRANCH  67  90
ATOM     90  C   UNL A   1      44.648  33.849  29.000  1.00  0.00     0.064 A 
ATOM     91  C   UNL A   1      45.405  34.271  30.103  1.00  0.00     0.173 A 
ATOM     92  C   UNL A   1      44.330  34.803  28.020  1.00  0.00     0.173 A 
ATOM     93  F   UNL A   1      45.725  33.402  31.074  1.00  0.00    -0.203 F 
ATOM     94  C   UNL A   1      45.798  35.601  30.237  1.00  0.00     0.198 A 
ATOM     95  C   UNL A   1      44.748  36.125  28.143  1.00  0.00     0.198 A 
ATOM     96  F   UNL A   1      43.615  34.450  26.942  1.00  0.00    -0.203 F 
ATOM     97  F   UNL A   1      46.473  35.992  31.327  1.00  0.00    -0.200 F 
ATOM     98  C   UNL A   1      45.472  36.525  29.255  1.00  0.00     0.200 A 
ATOM     99  F   UNL A   1      44.444  37.014  27.188  1.00  0.00    -0.200 F 
ATOM    100  F   UNL A   1      45.849  37.805  29.387  1.00  0.00    -0.200 F 
ENDBRANCH  67  90
ENDBRANCH  41  42
ENDBRANCH  34  36
ENDBRANCH  33  34
ENDBRANCH  32  33
ENDBRANCH  31  32
ENDBRANCH  30  31
ENDBRANCH  29  30
ENDBRANCH  28  29
ENDBRANCH   1  28
TORSDOF 22
ENDMDL
MODEL 3
REMARK VINA RESULT:     -10.6      2.753      4.984
REMARK SMILES C/C(=N/OCc1ccccc1Nc1c(Cl)cccc1Cl)C(=O)OCCOCCOCCOC(=O)c1ccc(-c2c3nc(c(-c4c(F)c(F)c(F)c(F)c4F)c4ccc([nH]4)c(-c4c(F)c(F)c(F)c(F)c4F)c4nc(c(-c5c(F)c(F)c(F)c(F)c5F)c5ccc2[nH]5)C=C4)C=C3)cc1
REMARK SMILES IDX 26 1 25 2 24 3 23 4 21 5 22 6 2 7 1 8 3 9 4 10 5 11 6 12
REMARK SMILES IDX 7 13 11 14 8 15 10 16 9 17 12 18 13 20 14 21 19 22 15 23
REMARK SMILES IDX 16 24 18 25 20 26 17 27 27 28 28 29 29 30 30 31 31 32 32 33
REMARK SMILES IDX 33 34 34 35 35 36 36 37 97 38 37 39 96 40 38 41 39 42 40 43
REMARK SMILES IDX 90 44 41 45 95 46 89 47 91 48 42 49 94 50 88 51 87 52 43 54
REMARK SMILES IDX 75 55 55 56 74 57 56 58 59 59 73 60 92 61 57 62 58 63 72 65
REMARK SMILES IDX 93 66 60 67 44 68 45 69 53 70 46 71 47 72 51 73 54 74 48 75
REMARK SMILES IDX 49 76 52 77 50 78 76 79 77 80 85 81 78 82 79 83 83 84 86 85
REMARK SMILES IDX 80 86 81 87 84 88 82 89 61 90 62 91 70 92 63 93 64 94 68 95
REMARK SMILES IDX 71 96 65 97 66 98 69 99 67 100
REMARK H PARENT 12 19 91 53 59 64
REMARK Flexibility Score: inf
ROOT
ATOM      1  O   UNL A   1      34.093  24.032  25.563  1.00  0.00    -0.376 OA
ENDROOT
BRANCH   1   2
ATOM      2  C   UNL A   1      34.269  25.407  25.222  1.00  0.00     0.202 C 
BRANCH   2   3
ATOM      3  C   UNL A   1      33.482  26.415  26.062  1.00  0.00     0.261 C 
BRANCH   3   4
ATOM      4  O   UNL A   1      33.512  27.705  25.440  1.00  0.00    -0.459 OA
BRANCH   4   5
ATOM      5  C   UNL A   1      33.824  28.748  26.229  1.00  0.00     0.355 C 
ATOM      6  O   UNL A   1      34.898  28.995  26.749  1.00  0.00    -0.245 OA
BRANCH   5   7
ATOM      7  C   UNL A   1      32.708  29.778  26.163  1.00  0.00     0.161 C 
ATOM      8  C   UNL A   1      31.555  29.435  25.261  1.00  0.00     0.079 C 
ATOM      9  N   UNL A   1      32.637  30.868  26.868  1.00  0.00    -0.084 NA
BRANCH   9  10
ATOM     10  O   UNL A   1      33.792  31.078  27.640  1.00  0.00    -0.390 OA
BRANCH  10  11
ATOM     11  C   UNL A   1      33.730  32.395  28.216  1.00  0.00     0.302 C 
BRANCH  11  12
ATOM     12  C   UNL A   1      35.085  32.736  28.790  1.00  0.00     0.016 A 
ATOM     13  C   UNL A   1      36.223  32.401  28.025  1.00  0.00     0.009 A 
ATOM     14  C   UNL A   1      35.253  33.284  30.076  1.00  0.00     0.045 A 
ATOM     15  C   UNL A   1      37.508  32.565  28.531  1.00  0.00     0.001 A 
ATOM     16  C   UNL A   1      36.562  33.442  30.565  1.00  0.00     0.026 A 
ATOM     17  C   UNL A   1      37.677  33.079  29.807  1.00  0.00     0.002 A 
BRANCH  14  18
ATOM     18  N   UNL A   1      34.139  33.697  30.839  1.00  0.00    -0.353 N 
ATOM     19  H   UNL A   1      33.416  33.034  30.916  1.00  0.00     0.167 HD
BRANCH  18  20
ATOM     20  C   UNL A   1      33.902  34.923  31.512  1.00  0.00     0.076 A 
ATOM     21  C   UNL A   1      34.209  35.019  32.886  1.00  0.00     0.066 A 
ATOM     22  C   UNL A   1      33.455  36.098  30.870  1.00  0.00     0.066 A 
ATOM     23  Cl  UNL A   1      34.719  33.621  33.777  1.00  0.00    -0.082 Cl
ATOM     24  C   UNL A   1      34.122  36.233  33.576  1.00  0.00     0.023 A 
ATOM     25  C   UNL A   1      33.376  37.316  31.561  1.00  0.00     0.023 A 
ATOM     26  Cl  UNL A   1      32.872  36.104  29.237  1.00  0.00    -0.082 Cl
ATOM     27  C   UNL A   1      33.722  37.386  32.908  1.00  0.00     0.003 A 
ENDBRANCH  18  20
ENDBRANCH  14  18
ENDBRANCH  11  12
ENDBRANCH  10  11
ENDBRANCH   9  10
ENDBRANCH   5   7
ENDBRANCH   4   5
ENDBRANCH   3   4
ENDBRANCH   2   3
ENDBRANCH   1   2
BRANCH   1  28
ATOM     28  C   UNL A   1      35.221  23.283  26.010  1.00  0.00     0.188 C 
BRANCH  28  29
ATOM     29  C   UNL A   1      35.914  22.298  25.046  1.00  0.00     0.188 C 
BRANCH  29  30
ATOM     30  O   UNL A   1      36.742  21.344  25.690  1.00  0.00    -0.376 OA
BRANCH  30  31
ATOM     31  C   UNL A   1      38.127  21.441  25.389  1.00  0.00     0.202 C 
BRANCH  31  32
ATOM     32  C   UNL A   1      38.823  20.077  25.381  1.00  0.00     0.261 C 
BRANCH  32  33
ATOM     33  O   UNL A   1      39.673  19.839  26.519  1.00  0.00    -0.460 OA
BRANCH  33  34
ATOM     34  C   UNL A   1      40.999  19.752  26.271  1.00  0.00     0.338 C 
ATOM     35  O   UNL A   1      41.593  18.818  25.764  1.00  0.00    -0.246 OA
BRANCH  34  36
ATOM     36  C   UNL A   1      41.612  21.065  26.556  1.00  0.00     0.060 A 
ATOM     37  C   UNL A   1      41.733  21.471  27.890  1.00  0.00     0.016 A 
ATOM     38  C   UNL A   1      42.046  21.898  25.520  1.00  0.00     0.016 A 
ATOM     39  C   UNL A   1      42.252  22.732  28.188  1.00  0.00     0.010 A 
ATOM     40  C   UNL A   1      42.555  23.166  25.821  1.00  0.00     0.010 A 
ATOM     41  C   UNL A   1      42.631  23.602  27.155  1.00  0.00    -0.014 A 
BRANCH  41  42
ATOM     42  C   UNL A   1      42.956  25.014  27.474  1.00  0.00     0.031 A 
ATOM     43  C   UNL A   1      44.281  25.574  27.035  1.00  0.00     0.074 A 
ATOM     44  C   UNL A   1      42.072  25.806  28.107  1.00  0.00     0.049 A 
ATOM     45  N   UNL A   1      44.744  26.794  27.136  1.00  0.00    -0.248 NA
ATOM     46  C   UNL A   1      45.210  24.628  26.395  1.00  0.00     0.031 C 
ATOM     47  C   UNL A   1      40.756  25.392  28.585  1.00  0.00     0.029 A 
ATOM     48  N   UNL A   1      42.157  27.132  28.453  1.00  0.00    -0.354 N 
ATOM     49  C   UNL A   1      46.007  26.767  26.560  1.00  0.00     0.074 A 
ATOM     50  C   UNL A   1      46.257  25.401  26.151  1.00  0.00     0.031 C 
ATOM     51  C   UNL A   1      40.153  26.447  29.163  1.00  0.00     0.029 A 
ATOM     52  C   UNL A   1      41.044  27.605  29.103  1.00  0.00     0.049 A 
ATOM     53  H   UNL A   1      42.942  27.692  28.254  1.00  0.00     0.167 HD
ATOM     54  C   UNL A   1      46.876  27.789  26.372  1.00  0.00     0.037 A 
ATOM     55  C   UNL A   1      40.776  28.833  29.589  1.00  0.00     0.037 A 
ATOM     56  C   UNL A   1      46.643  29.146  26.788  1.00  0.00     0.049 A 
ATOM     57  C   UNL A   1      41.778  29.944  29.407  1.00  0.00     0.074 A 
ATOM     58  C   UNL A   1      47.460  30.252  26.628  1.00  0.00     0.029 A 
ATOM     59  N   UNL A   1      45.512  29.581  27.462  1.00  0.00    -0.354 N 
ATOM     60  N   UNL A   1      42.944  29.922  28.808  1.00  0.00    -0.248 NA
ATOM     61  C   UNL A   1      41.415  31.258  29.957  1.00  0.00     0.031 C 
ATOM     62  C   UNL A   1      46.841  31.348  27.240  1.00  0.00     0.029 A 
ATOM     63  C   UNL A   1      45.618  30.935  27.741  1.00  0.00     0.049 A 
ATOM     64  H   UNL A   1      44.746  29.013  27.705  1.00  0.00     0.167 HD
ATOM     65  C   UNL A   1      43.439  31.218  28.883  1.00  0.00     0.074 A 
ATOM     66  C   UNL A   1      42.438  32.006  29.572  1.00  0.00     0.031 C 
ATOM     67  C   UNL A   1      44.615  31.711  28.424  1.00  0.00     0.037 A 
BRANCH  54  68
ATOM     68  C   UNL A   1      48.172  27.469  25.689  1.00  0.00     0.064 A 
ATOM     69  C   UNL A   1      48.282  27.476  24.290  1.00  0.00     0.173 A 
ATOM     70  C   UNL A   1      49.321  27.181  26.438  1.00  0.00     0.173 A 
ATOM     71  F   UNL A   1      47.208  27.731  23.529  1.00  0.00    -0.203 F 
ATOM     72  C   UNL A   1      49.492  27.181  23.667  1.00  0.00     0.198 A 
ATOM     73  C   UNL A   1      50.535  26.911  25.813  1.00  0.00     0.198 A 
ATOM     74  F   UNL A   1      49.268  27.163  27.779  1.00  0.00    -0.203 F 
ATOM     75  F   UNL A   1      49.564  27.150  22.329  1.00  0.00    -0.200 F 
ATOM     76  C   UNL A   1      50.618  26.906  24.428  1.00  0.00     0.200 A 
ATOM     77  F   UNL A   1      51.625  26.653  26.549  1.00  0.00    -0.200 F 
ATOM     78  F   UNL A   1      51.783  26.626  23.826  1.00  0.00    -0.200 F 
ENDBRANCH  54  68
BRANCH  55  79
ATOM     79  C   UNL A   1      39.490  29.091  30.286  1.00  0.00     0.064 A 
ATOM     80  C   UNL A   1      38.290  29.208  29.570  1.00  0.00     0.173 A 
ATOM     81  C   UNL A   1      39.439  29.261  31.676  1.00  0.00     0.173 A 
ATOM     82  F   UNL A   1      38.294  29.083  28.234  1.00  0.00    -0.203 F 
ATOM     83  C   UNL A   1      37.092  29.505  30.216  1.00  0.00     0.198 A 
ATOM     84  C   UNL A   1      38.237  29.533  32.325  1.00  0.00     0.198 A 
ATOM     85  F   UNL A   1      40.561  29.165  32.406  1.00  0.00    -0.203 F 
ATOM     86  F   UNL A   1      35.969  29.662  29.501  1.00  0.00    -0.200 F 
ATOM     87  C   UNL A   1      37.066  29.663  31.593  1.00  0.00     0.200 A 
ATOM     88  F   UNL A   1      38.213  29.678  33.656  1.00  0.00    -0.200 F 
ATOM     89  F   UNL A   1      35.914  29.952  32.214  1.00  0.00    -0.200 F 
ENDBRANCH  55  79
BRANCH  67  90
ATOM     90  C   UNL A   1      44.871  33.178  28.621  1.00  0.00     0.064 A 
ATOM     91  C   UNL A   1      45.561  33.662  29.742  1.00  0.00     0.173 A 
ATOM     92  C   UNL A   1      44.433  34.111  27.667  1.00  0.00     0.173 A 
ATOM     93  F   UNL A   1      45.989  32.814  30.689  1.00  0.00    -0.203 F 
ATOM     94  C   UNL A   1      45.773  35.027  29.918  1.00  0.00     0.198 A 
ATOM     95  C   UNL A   1      44.671  35.472  27.833  1.00  0.00     0.198 A 
ATOM     96  F   UNL A   1      43.775  33.700  26.573  1.00  0.00    -0.203 F 
ATOM     97  F   UNL A   1      46.387  35.471  31.025  1.00  0.00    -0.200 F 
ATOM     98  C   UNL A   1      45.332  35.930  28.963  1.00  0.00     0.200 A 
ATOM     99  F   UNL A   1      44.256  36.342  26.903  1.00  0.00    -0.200 F 
ATOM    100  F   UNL A   1      45.535  37.244  29.136  1.00  0.00    -0.200 F 
ENDBRANCH  67  90
ENDBRANCH  41  42
ENDBRANCH  34  36
ENDBRANCH  33  34
ENDBRANCH  32  33
ENDBRANCH  31  32
ENDBRANCH  30  31
ENDBRANCH  29  30
ENDBRANCH  28  29
ENDBRANCH   1  28
TORSDOF 22
ENDMDL
