MODEL 1
REMARK VINA RESULT:     -11.4      0.000      0.000
REMARK SMILES C[C@@H](C(=O)OCCOCCOCCOC(=O)c1ccc(-c2c3nc(c(-c4c(F)c(F)c(F)c(F)c4F)c4ccc([nH]4)c(-c4c(F)c(F)c(F)c(F)c4F)c4nc(c(-c5c(F)c(F)c(F)c(F)c5F)c5ccc2[nH]5)C=C4)C=C3)cc1)c1ccc(Cc2ccoc2)cc1F
REMARK SMILES IDX 9 1 8 2 7 3 6 4 5 5 3 6 4 7 2 8 1 9 80 10 81 11 91 12 82 13
REMARK SMILES IDX 90 14 92 15 83 16 84 17 85 18 86 19 89 20 87 21 88 22 10 23
REMARK SMILES IDX 11 24 12 25 13 26 14 27 15 28 16 29 17 30 18 31 79 32 19 33
REMARK SMILES IDX 78 34 20 35 21 36 22 37 72 38 23 39 77 40 71 41 73 42 24 43
REMARK SMILES IDX 76 44 70 45 69 46 25 48 57 49 37 50 56 51 38 52 41 53 55 54
REMARK SMILES IDX 74 55 39 56 40 57 54 59 75 60 42 61 26 62 27 63 35 64 28 65
REMARK SMILES IDX 29 66 33 67 36 68 30 69 31 70 34 71 32 72 58 73 59 74 67 75
REMARK SMILES IDX 60 76 61 77 65 78 68 79 62 80 63 81 66 82 64 83 43 84 44 85
REMARK SMILES IDX 52 86 45 87 46 88 50 89 53 90 47 91 48 92 51 93 49 94
REMARK H PARENT 73 47 41 58
REMARK Flexibility Score: inf
ROOT
ATOM      1  C   UNL A   1      40.041  21.467  26.787  1.00  0.00     0.188 C 
ENDROOT
BRANCH   1   2
ATOM      2  O   UNL A   1      38.971  21.612  25.885  1.00  0.00    -0.376 OA
BRANCH   2   3
ATOM      3  C   UNL A   1      38.223  22.821  25.910  1.00  0.00     0.202 C 
BRANCH   3   4
ATOM      4  C   UNL A   1      36.822  22.955  25.274  1.00  0.00     0.261 C 
BRANCH   4   5
ATOM      5  O   UNL A   1      35.719  23.209  26.171  1.00  0.00    -0.463 OA
BRANCH   5   6
ATOM      6  C   UNL A   1      34.716  23.997  25.684  1.00  0.00     0.313 C 
ATOM      7  O   UNL A   1      34.919  25.056  25.095  1.00  0.00    -0.252 OA
BRANCH   6   8
ATOM      8  C   UNL A   1      33.291  23.433  25.864  1.00  0.00     0.129 C 
ATOM      9  C   UNL A   1      32.697  23.446  27.277  1.00  0.00     0.025 C 
BRANCH   8  10
ATOM     10  C   UNL A   1      33.099  22.068  25.202  1.00  0.00     0.002 A 
ATOM     11  C   UNL A   1      32.681  21.931  23.877  1.00  0.00     0.008 A 
ATOM     12  C   UNL A   1      33.338  20.887  25.911  1.00  0.00     0.127 A 
ATOM     13  C   UNL A   1      32.499  20.682  23.290  1.00  0.00     0.004 A 
ATOM     14  C   UNL A   1      33.085  19.626  25.354  1.00  0.00     0.043 A 
ATOM     15  F   UNL A   1      33.799  20.953  27.169  1.00  0.00    -0.207 F 
ATOM     16  C   UNL A   1      32.618  19.511  24.038  1.00  0.00    -0.041 A 
BRANCH  16  17
ATOM     17  C   UNL A   1      32.236  18.182  23.431  1.00  0.00     0.074 C 
BRANCH  17  18
ATOM     18  C   UNL A   1      33.035  17.102  24.112  1.00  0.00    -0.005 A 
ATOM     19  C   UNL A   1      32.670  16.210  25.173  1.00  0.00     0.046 A 
ATOM     20  C   UNL A   1      34.316  16.711  23.770  1.00  0.00     0.198 A 
ATOM     21  C   UNL A   1      33.737  15.376  25.392  1.00  0.00     0.195 A 
ATOM     22  O   UNL A   1      34.739  15.671  24.533  1.00  0.00    -0.472 OA
ENDBRANCH  17  18
ENDBRANCH  16  17
ENDBRANCH   8  10
ENDBRANCH   6   8
ENDBRANCH   5   6
ENDBRANCH   4   5
ENDBRANCH   3   4
ENDBRANCH   2   3
ENDBRANCH   1   2
BRANCH   1  23
ATOM     23  C   UNL A   1      40.938  20.225  26.701  1.00  0.00     0.188 C 
BRANCH  23  24
ATOM     24  O   UNL A   1      41.797  20.027  25.604  1.00  0.00    -0.376 OA
BRANCH  24  25
ATOM     25  C   UNL A   1      43.181  20.291  25.743  1.00  0.00     0.202 C 
BRANCH  25  26
ATOM     26  C   UNL A   1      43.823  21.638  25.364  1.00  0.00     0.261 C 
BRANCH  26  27
ATOM     27  O   UNL A   1      42.964  22.781  25.255  1.00  0.00    -0.460 OA
BRANCH  27  28
ATOM     28  C   UNL A   1      43.590  23.976  25.142  1.00  0.00     0.338 C 
ATOM     29  O   UNL A   1      44.459  24.285  24.333  1.00  0.00    -0.246 OA
BRANCH  28  30
ATOM     30  C   UNL A   1      42.951  24.952  26.044  1.00  0.00     0.060 A 
ATOM     31  C   UNL A   1      43.498  26.238  26.161  1.00  0.00     0.016 A 
ATOM     32  C   UNL A   1      41.850  24.583  26.819  1.00  0.00     0.016 A 
ATOM     33  C   UNL A   1      42.961  27.151  27.072  1.00  0.00     0.010 A 
ATOM     34  C   UNL A   1      41.330  25.489  27.750  1.00  0.00     0.010 A 
ATOM     35  C   UNL A   1      41.899  26.766  27.901  1.00  0.00    -0.014 A 
BRANCH  35  36
ATOM     36  C   UNL A   1      41.491  27.629  29.039  1.00  0.00     0.031 A 
ATOM     37  C   UNL A   1      42.288  27.575  30.311  1.00  0.00     0.074 A 
ATOM     38  C   UNL A   1      40.411  28.426  28.964  1.00  0.00     0.049 A 
ATOM     39  N   UNL A   1      42.076  28.182  31.451  1.00  0.00    -0.248 NA
ATOM     40  C   UNL A   1      43.461  26.688  30.309  1.00  0.00     0.031 C 
ATOM     41  C   UNL A   1      39.527  28.524  27.810  1.00  0.00     0.029 A 
ATOM     42  N   UNL A   1      39.867  29.292  29.882  1.00  0.00    -0.354 N 
ATOM     43  C   UNL A   1      43.059  27.719  32.313  1.00  0.00     0.074 A 
ATOM     44  C   UNL A   1      43.868  26.779  31.566  1.00  0.00     0.031 C 
ATOM     45  C   UNL A   1      38.565  29.423  28.076  1.00  0.00     0.029 A 
ATOM     46  C   UNL A   1      38.747  29.948  29.427  1.00  0.00     0.049 A 
ATOM     47  H   UNL A   1      40.243  29.430  30.780  1.00  0.00     0.167 HD
ATOM     48  C   UNL A   1      43.261  28.037  33.614  1.00  0.00     0.037 A 
ATOM     49  C   UNL A   1      37.957  30.856  30.036  1.00  0.00     0.037 A 
ATOM     50  C   UNL A   1      42.453  28.968  34.359  1.00  0.00     0.049 A 
ATOM     51  C   UNL A   1      38.227  31.214  31.478  1.00  0.00     0.074 A 
ATOM     52  C   UNL A   1      42.591  29.365  35.678  1.00  0.00     0.029 A 
ATOM     53  N   UNL A   1      41.349  29.639  33.855  1.00  0.00    -0.354 N 
ATOM     54  N   UNL A   1      39.184  30.801  32.274  1.00  0.00    -0.248 NA
ATOM     55  C   UNL A   1      37.283  32.146  32.117  1.00  0.00     0.031 C 
ATOM     56  C   UNL A   1      41.541  30.234  35.988  1.00  0.00     0.029 A 
ATOM     57  C   UNL A   1      40.786  30.433  34.844  1.00  0.00     0.049 A 
ATOM     58  H   UNL A   1      41.015  29.565  32.933  1.00  0.00     0.167 HD
ATOM     59  C   UNL A   1      38.961  31.424  33.496  1.00  0.00     0.074 A 
ATOM     60  C   UNL A   1      37.807  32.279  33.326  1.00  0.00     0.031 C 
ATOM     61  C   UNL A   1      39.639  31.284  34.661  1.00  0.00     0.037 A 
BRANCH  48  62
ATOM     62  C   UNL A   1      44.376  27.334  34.332  1.00  0.00     0.064 A 
ATOM     63  C   UNL A   1      45.657  27.895  34.438  1.00  0.00     0.173 A 
ATOM     64  C   UNL A   1      44.148  26.095  34.949  1.00  0.00     0.173 A 
ATOM     65  F   UNL A   1      45.931  29.070  33.852  1.00  0.00    -0.203 F 
ATOM     66  C   UNL A   1      46.677  27.225  35.110  1.00  0.00     0.198 A 
ATOM     67  C   UNL A   1      45.160  25.446  35.650  1.00  0.00     0.198 A 
ATOM     68  F   UNL A   1      42.940  25.517  34.881  1.00  0.00    -0.203 F 
ATOM     69  F   UNL A   1      47.907  27.755  35.152  1.00  0.00    -0.200 F 
ATOM     70  C   UNL A   1      46.426  26.007  35.723  1.00  0.00     0.200 A 
ATOM     71  F   UNL A   1      44.911  24.276  36.254  1.00  0.00    -0.200 F 
ATOM     72  F   UNL A   1      47.406  25.370  36.377  1.00  0.00    -0.200 F 
ENDBRANCH  48  62
BRANCH  49  73
ATOM     73  C   UNL A   1      36.827  31.502  29.309  1.00  0.00     0.064 A 
ATOM     74  C   UNL A   1      36.854  32.876  29.020  1.00  0.00     0.173 A 
ATOM     75  C   UNL A   1      35.681  30.787  28.936  1.00  0.00     0.173 A 
ATOM     76  F   UNL A   1      37.915  33.614  29.382  1.00  0.00    -0.203 F 
ATOM     77  C   UNL A   1      35.772  33.511  28.413  1.00  0.00     0.198 A 
ATOM     78  C   UNL A   1      34.618  31.414  28.286  1.00  0.00     0.198 A 
ATOM     79  F   UNL A   1      35.588  29.476  29.200  1.00  0.00    -0.203 F 
ATOM     80  F   UNL A   1      35.800  34.837  28.215  1.00  0.00    -0.200 F 
ATOM     81  C   UNL A   1      34.659  32.777  28.036  1.00  0.00     0.200 A 
ATOM     82  F   UNL A   1      33.550  30.697  27.912  1.00  0.00    -0.200 F 
ATOM     83  F   UNL A   1      33.621  33.382  27.443  1.00  0.00    -0.200 F 
ENDBRANCH  49  73
BRANCH  61  84
ATOM     84  C   UNL A   1      39.167  32.092  35.838  1.00  0.00     0.064 A 
ATOM     85  C   UNL A   1      38.311  31.551  36.811  1.00  0.00     0.173 A 
ATOM     86  C   UNL A   1      39.601  33.415  36.013  1.00  0.00     0.173 A 
ATOM     87  F   UNL A   1      37.855  30.295  36.687  1.00  0.00    -0.203 F 
ATOM     88  C   UNL A   1      37.884  32.313  37.895  1.00  0.00     0.198 A 
ATOM     89  C   UNL A   1      39.200  34.163  37.117  1.00  0.00     0.198 A 
ATOM     90  F   UNL A   1      40.426  33.979  35.117  1.00  0.00    -0.203 F 
ATOM     91  F   UNL A   1      37.023  31.793  38.781  1.00  0.00    -0.200 F 
ATOM     92  C   UNL A   1      38.334  33.616  38.051  1.00  0.00     0.200 A 
ATOM     93  F   UNL A   1      39.649  35.415  37.273  1.00  0.00    -0.200 F 
ATOM     94  F   UNL A   1      37.928  34.347  39.098  1.00  0.00    -0.200 F 
ENDBRANCH  61  84
ENDBRANCH  35  36
ENDBRANCH  28  30
ENDBRANCH  27  28
ENDBRANCH  26  27
ENDBRANCH  25  26
ENDBRANCH  24  25
ENDBRANCH  23  24
ENDBRANCH   1  23
TORSDOF 20
ENDMDL
MODEL 2
REMARK VINA RESULT:     -11.3      5.722     11.345
REMARK SMILES C[C@@H](C(=O)OCCOCCOCCOC(=O)c1ccc(-c2c3nc(c(-c4c(F)c(F)c(F)c(F)c4F)c4ccc([nH]4)c(-c4c(F)c(F)c(F)c(F)c4F)c4nc(c(-c5c(F)c(F)c(F)c(F)c5F)c5ccc2[nH]5)C=C4)C=C3)cc1)c1ccc(Cc2ccoc2)cc1F
REMARK SMILES IDX 9 1 8 2 7 3 6 4 5 5 3 6 4 7 2 8 1 9 80 10 81 11 91 12 82 13
REMARK SMILES IDX 90 14 92 15 83 16 84 17 85 18 86 19 89 20 87 21 88 22 10 23
REMARK SMILES IDX 11 24 12 25 13 26 14 27 15 28 16 29 17 30 18 31 79 32 19 33
REMARK SMILES IDX 78 34 20 35 21 36 22 37 72 38 23 39 77 40 71 41 73 42 24 43
REMARK SMILES IDX 76 44 70 45 69 46 25 48 57 49 37 50 56 51 38 52 41 53 55 54
REMARK SMILES IDX 74 55 39 56 40 57 54 59 75 60 42 61 26 62 27 63 35 64 28 65
REMARK SMILES IDX 29 66 33 67 36 68 30 69 31 70 34 71 32 72 58 73 59 74 67 75
REMARK SMILES IDX 60 76 61 77 65 78 68 79 62 80 63 81 66 82 64 83 43 84 44 85
REMARK SMILES IDX 52 86 45 87 46 88 50 89 53 90 47 91 48 92 51 93 49 94
REMARK H PARENT 73 47 41 58
REMARK Flexibility Score: inf
ROOT
ATOM      1  C   UNL A   1      34.120  31.876  27.890  1.00  0.00     0.188 C 
ENDROOT
BRANCH   1   2
ATOM      2  O   UNL A   1      33.182  30.885  27.547  1.00  0.00    -0.376 OA
BRANCH   2   3
ATOM      3  C   UNL A   1      33.542  29.922  26.566  1.00  0.00     0.202 C 
BRANCH   3   4
ATOM      4  C   UNL A   1      33.341  28.404  26.766  1.00  0.00     0.261 C 
BRANCH   4   5
ATOM      5  O   UNL A   1      33.899  27.533  25.758  1.00  0.00    -0.463 OA
BRANCH   5   6
ATOM      6  C   UNL A   1      33.174  26.414  25.459  1.00  0.00     0.313 C 
ATOM      7  O   UNL A   1      32.895  25.554  26.290  1.00  0.00    -0.252 OA
BRANCH   6   8
ATOM      8  C   UNL A   1      32.662  26.332  24.006  1.00  0.00     0.129 C 
ATOM      9  C   UNL A   1      33.645  26.699  22.887  1.00  0.00     0.025 C 
BRANCH   8  10
ATOM     10  C   UNL A   1      31.317  27.030  23.804  1.00  0.00     0.002 A 
ATOM     11  C   UNL A   1      30.104  26.340  23.842  1.00  0.00     0.008 A 
ATOM     12  C   UNL A   1      31.251  28.406  23.568  1.00  0.00     0.127 A 
ATOM     13  C   UNL A   1      28.886  26.985  23.645  1.00  0.00     0.004 A 
ATOM     14  C   UNL A   1      30.039  29.052  23.293  1.00  0.00     0.043 A 
ATOM     15  F   UNL A   1      32.378  29.133  23.579  1.00  0.00    -0.207 F 
ATOM     16  C   UNL A   1      28.836  28.332  23.287  1.00  0.00    -0.041 A 
BRANCH  16  17
ATOM     17  C   UNL A   1      27.520  28.964  22.898  1.00  0.00     0.074 C 
BRANCH  17  18
ATOM     18  C   UNL A   1      27.768  30.411  22.564  1.00  0.00    -0.005 A 
ATOM     19  C   UNL A   1      28.083  31.032  21.311  1.00  0.00     0.046 A 
ATOM     20  C   UNL A   1      27.666  31.471  23.447  1.00  0.00     0.198 A 
ATOM     21  C   UNL A   1      28.154  32.384  21.531  1.00  0.00     0.195 A 
ATOM     22  O   UNL A   1      27.892  32.658  22.829  1.00  0.00    -0.472 OA
ENDBRANCH  17  18
ENDBRANCH  16  17
ENDBRANCH   8  10
ENDBRANCH   6   8
ENDBRANCH   5   6
ENDBRANCH   4   5
ENDBRANCH   3   4
ENDBRANCH   2   3
ENDBRANCH   1   2
BRANCH   1  23
ATOM     23  C   UNL A   1      33.632  33.287  28.246  1.00  0.00     0.188 C 
BRANCH  23  24
ATOM     24  O   UNL A   1      34.538  34.289  28.640  1.00  0.00    -0.376 OA
BRANCH  24  25
ATOM     25  C   UNL A   1      35.144  34.219  29.917  1.00  0.00     0.202 C 
BRANCH  25  26
ATOM     26  C   UNL A   1      34.439  33.629  31.153  1.00  0.00     0.261 C 
BRANCH  26  27
ATOM     27  O   UNL A   1      34.713  32.262  31.487  1.00  0.00    -0.460 OA
BRANCH  27  28
ATOM     28  C   UNL A   1      35.720  32.067  32.371  1.00  0.00     0.338 C 
ATOM     29  O   UNL A   1      35.720  32.332  33.568  1.00  0.00    -0.246 OA
BRANCH  28  30
ATOM     30  C   UNL A   1      36.805  31.310  31.717  1.00  0.00     0.060 A 
ATOM     31  C   UNL A   1      37.865  30.821  32.495  1.00  0.00     0.016 A 
ATOM     32  C   UNL A   1      36.809  31.134  30.333  1.00  0.00     0.016 A 
ATOM     33  C   UNL A   1      38.944  30.176  31.887  1.00  0.00     0.010 A 
ATOM     34  C   UNL A   1      37.903  30.510  29.722  1.00  0.00     0.010 A 
ATOM     35  C   UNL A   1      38.989  30.054  30.492  1.00  0.00    -0.014 A 
BRANCH  35  36
ATOM     36  C   UNL A   1      40.236  29.605  29.821  1.00  0.00     0.031 A 
ATOM     37  C   UNL A   1      41.375  30.576  29.686  1.00  0.00     0.074 A 
ATOM     38  C   UNL A   1      40.351  28.368  29.308  1.00  0.00     0.049 A 
ATOM     39  N   UNL A   1      42.524  30.427  29.080  1.00  0.00    -0.248 NA
ATOM     40  C   UNL A   1      41.174  31.904  30.285  1.00  0.00     0.031 C 
ATOM     41  C   UNL A   1      39.301  27.358  29.325  1.00  0.00     0.029 A 
ATOM     42  N   UNL A   1      41.397  27.758  28.660  1.00  0.00    -0.354 N 
ATOM     43  C   UNL A   1      43.165  31.653  29.183  1.00  0.00     0.074 A 
ATOM     44  C   UNL A   1      42.277  32.535  29.910  1.00  0.00     0.031 C 
ATOM     45  C   UNL A   1      39.765  26.241  28.741  1.00  0.00     0.029 A 
ATOM     46  C   UNL A   1      41.135  26.461  28.286  1.00  0.00     0.049 A 
ATOM     47  H   UNL A   1      42.255  28.206  28.481  1.00  0.00     0.167 HD
ATOM     48  C   UNL A   1      44.379  32.016  28.703  1.00  0.00     0.037 A 
ATOM     49  C   UNL A   1      41.908  25.563  27.640  1.00  0.00     0.037 A 
ATOM     50  C   UNL A   1      45.260  31.140  27.975  1.00  0.00     0.049 A 
ATOM     51  C   UNL A   1      43.269  25.987  27.145  1.00  0.00     0.074 A 
ATOM     52  C   UNL A   1      46.517  31.415  27.463  1.00  0.00     0.029 A 
ATOM     53  N   UNL A   1      44.976  29.824  27.645  1.00  0.00    -0.354 N 
ATOM     54  N   UNL A   1      43.884  27.138  27.283  1.00  0.00    -0.248 NA
ATOM     55  C   UNL A   1      44.034  24.993  26.375  1.00  0.00     0.031 C 
ATOM     56  C   UNL A   1      46.970  30.284  26.778  1.00  0.00     0.029 A 
ATOM     57  C   UNL A   1      46.026  29.280  26.920  1.00  0.00     0.049 A 
ATOM     58  H   UNL A   1      44.152  29.346  27.890  1.00  0.00     0.167 HD
ATOM     59  C   UNL A   1      45.102  27.002  26.627  1.00  0.00     0.074 A 
ATOM     60  C   UNL A   1      45.161  25.645  26.129  1.00  0.00     0.031 C 
ATOM     61  C   UNL A   1      46.075  27.926  26.434  1.00  0.00     0.037 A 
BRANCH  48  62
ATOM     62  C   UNL A   1      44.807  33.440  28.910  1.00  0.00     0.064 A 
ATOM     63  C   UNL A   1      45.562  33.831  30.025  1.00  0.00     0.173 A 
ATOM     64  C   UNL A   1      44.479  34.420  27.961  1.00  0.00     0.173 A 
ATOM     65  F   UNL A   1      45.887  32.935  30.969  1.00  0.00    -0.203 F 
ATOM     66  C   UNL A   1      45.949  35.158  30.196  1.00  0.00     0.198 A 
ATOM     67  C   UNL A   1      44.898  35.738  28.118  1.00  0.00     0.198 A 
ATOM     68  F   UNL A   1      43.761  34.098  26.875  1.00  0.00    -0.203 F 
ATOM     69  F   UNL A   1      46.625  35.519  31.296  1.00  0.00    -0.200 F 
ATOM     70  C   UNL A   1      45.625  36.108  29.239  1.00  0.00     0.200 A 
ATOM     71  F   UNL A   1      44.596  36.651  27.185  1.00  0.00    -0.200 F 
ATOM     72  F   UNL A   1      46.006  37.382  29.402  1.00  0.00    -0.200 F 
ENDBRANCH  48  62
BRANCH  49  73
ATOM     73  C   UNL A   1      41.435  24.168  27.409  1.00  0.00     0.064 A 
ATOM     74  C   UNL A   1      40.336  23.915  26.571  1.00  0.00     0.173 A 
ATOM     75  C   UNL A   1      42.023  23.070  28.050  1.00  0.00     0.173 A 
ATOM     76  F   UNL A   1      39.716  24.934  25.955  1.00  0.00    -0.203 F 
ATOM     77  C   UNL A   1      39.831  22.626  26.407  1.00  0.00     0.198 A 
ATOM     78  C   UNL A   1      41.547  21.775  27.848  1.00  0.00     0.198 A 
ATOM     79  F   UNL A   1      43.065  23.250  28.876  1.00  0.00    -0.203 F 
ATOM     80  F   UNL A   1      38.738  22.427  25.657  1.00  0.00    -0.200 F 
ATOM     81  C   UNL A   1      40.444  21.555  27.036  1.00  0.00     0.200 A 
ATOM     82  F   UNL A   1      42.151  20.741  28.450  1.00  0.00    -0.200 F 
ATOM     83  F   UNL A   1      39.968  20.313  26.873  1.00  0.00    -0.200 F 
ENDBRANCH  49  73
BRANCH  61  84
ATOM     84  C   UNL A   1      47.299  27.494  25.674  1.00  0.00     0.064 A 
ATOM     85  C   UNL A   1      47.409  27.671  24.287  1.00  0.00     0.173 A 
ATOM     86  C   UNL A   1      48.389  26.923  26.349  1.00  0.00     0.173 A 
ATOM     87  F   UNL A   1      46.391  28.199  23.590  1.00  0.00    -0.203 F 
ATOM     88  C   UNL A   1      48.551  27.266  23.599  1.00  0.00     0.198 A 
ATOM     89  C   UNL A   1      49.543  26.551  25.664  1.00  0.00     0.198 A 
ATOM     90  F   UNL A   1      48.341  26.737  27.677  1.00  0.00    -0.203 F 
ATOM     91  F   UNL A   1      48.610  27.394  22.266  1.00  0.00    -0.200 F 
ATOM     92  C   UNL A   1      49.619  26.712  24.290  1.00  0.00     0.200 A 
ATOM     93  F   UNL A   1      50.580  26.032  26.335  1.00  0.00    -0.200 F 
ATOM     94  F   UNL A   1      50.720  26.329  23.628  1.00  0.00    -0.200 F 
ENDBRANCH  61  84
ENDBRANCH  35  36
ENDBRANCH  28  30
ENDBRANCH  27  28
ENDBRANCH  26  27
ENDBRANCH  25  26
ENDBRANCH  24  25
ENDBRANCH  23  24
ENDBRANCH   1  23
TORSDOF 20
ENDMDL
MODEL 3
REMARK VINA RESULT:     -11.1      1.799      3.835
REMARK SMILES C[C@@H](C(=O)OCCOCCOCCOC(=O)c1ccc(-c2c3nc(c(-c4c(F)c(F)c(F)c(F)c4F)c4ccc([nH]4)c(-c4c(F)c(F)c(F)c(F)c4F)c4nc(c(-c5c(F)c(F)c(F)c(F)c5F)c5ccc2[nH]5)C=C4)C=C3)cc1)c1ccc(Cc2ccoc2)cc1F
REMARK SMILES IDX 9 1 8 2 7 3 6 4 5 5 3 6 4 7 2 8 1 9 80 10 81 11 91 12 82 13
REMARK SMILES IDX 90 14 92 15 83 16 84 17 85 18 86 19 89 20 87 21 88 22 10 23
REMARK SMILES IDX 11 24 12 25 13 26 14 27 15 28 16 29 17 30 18 31 79 32 19 33
REMARK SMILES IDX 78 34 20 35 21 36 22 37 72 38 23 39 77 40 71 41 73 42 24 43
REMARK SMILES IDX 76 44 70 45 69 46 25 48 57 49 37 50 56 51 38 52 41 53 55 54
REMARK SMILES IDX 74 55 39 56 40 57 54 59 75 60 42 61 26 62 27 63 35 64 28 65
REMARK SMILES IDX 29 66 33 67 36 68 30 69 31 70 34 71 32 72 58 73 59 74 67 75
REMARK SMILES IDX 60 76 61 77 65 78 68 79 62 80 63 81 66 82 64 83 43 84 44 85
REMARK SMILES IDX 52 86 45 87 46 88 50 89 53 90 47 91 48 92 51 93 49 94
REMARK H PARENT 73 47 41 58
REMARK Flexibility Score: inf
ROOT
ATOM      1  C   UNL A   1      40.308  20.965  26.432  1.00  0.00     0.188 C 
ENDROOT
BRANCH   1   2
ATOM      2  O   UNL A   1      39.217  20.678  25.591  1.00  0.00    -0.376 OA
BRANCH   2   3
ATOM      3  C   UNL A   1      38.130  21.594  25.556  1.00  0.00     0.202 C 
BRANCH   3   4
ATOM      4  C   UNL A   1      36.895  21.397  24.650  1.00  0.00     0.261 C 
BRANCH   4   5
ATOM      5  O   UNL A   1      35.624  21.212  25.310  1.00  0.00    -0.463 OA
BRANCH   5   6
ATOM      6  C   UNL A   1      34.705  22.208  25.140  1.00  0.00     0.313 C 
ATOM      7  O   UNL A   1      34.084  22.377  24.094  1.00  0.00    -0.252 OA
BRANCH   6   8
ATOM      8  C   UNL A   1      34.444  23.080  26.386  1.00  0.00     0.129 C 
ATOM      9  C   UNL A   1      33.841  22.393  27.617  1.00  0.00     0.025 C 
BRANCH   8  10
ATOM     10  C   UNL A   1      33.701  24.377  26.064  1.00  0.00     0.002 A 
ATOM     11  C   UNL A   1      34.369  25.562  25.747  1.00  0.00     0.008 A 
ATOM     12  C   UNL A   1      32.305  24.427  26.076  1.00  0.00     0.127 A 
ATOM     13  C   UNL A   1      33.682  26.740  25.467  1.00  0.00     0.004 A 
ATOM     14  C   UNL A   1      31.605  25.623  25.871  1.00  0.00     0.043 A 
ATOM     15  F   UNL A   1      31.606  23.307  26.315  1.00  0.00    -0.207 F 
ATOM     16  C   UNL A   1      32.295  26.813  25.603  1.00  0.00    -0.041 A 
BRANCH  16  17
ATOM     17  C   UNL A   1      31.591  28.143  25.476  1.00  0.00     0.074 C 
BRANCH  17  18
ATOM     18  C   UNL A   1      30.922  28.199  24.127  1.00  0.00    -0.005 A 
ATOM     19  C   UNL A   1      29.650  28.736  23.746  1.00  0.00     0.046 A 
ATOM     20  C   UNL A   1      31.480  27.777  22.934  1.00  0.00     0.198 A 
ATOM     21  C   UNL A   1      29.534  28.591  22.387  1.00  0.00     0.195 A 
ATOM     22  O   UNL A   1      30.651  28.015  21.886  1.00  0.00    -0.472 OA
ENDBRANCH  17  18
ENDBRANCH  16  17
ENDBRANCH   8  10
ENDBRANCH   6   8
ENDBRANCH   5   6
ENDBRANCH   4   5
ENDBRANCH   3   4
ENDBRANCH   2   3
ENDBRANCH   1   2
BRANCH   1  23
ATOM     23  C   UNL A   1      41.467  19.963  26.534  1.00  0.00     0.188 C 
BRANCH  23  24
ATOM     24  O   UNL A   1      42.244  19.639  25.407  1.00  0.00    -0.376 OA
BRANCH  24  25
ATOM     25  C   UNL A   1      43.613  19.995  25.376  1.00  0.00     0.202 C 
BRANCH  25  26
ATOM     26  C   UNL A   1      44.103  21.436  25.140  1.00  0.00     0.261 C 
BRANCH  26  27
ATOM     27  O   UNL A   1      43.358  22.502  25.745  1.00  0.00    -0.460 OA
BRANCH  27  28
ATOM     28  C   UNL A   1      43.711  23.752  25.365  1.00  0.00     0.338 C 
ATOM     29  O   UNL A   1      44.355  24.072  24.371  1.00  0.00    -0.246 OA
BRANCH  28  30
ATOM     30  C   UNL A   1      43.054  24.737  26.245  1.00  0.00     0.060 A 
ATOM     31  C   UNL A   1      43.555  26.045  26.306  1.00  0.00     0.016 A 
ATOM     32  C   UNL A   1      41.983  24.356  27.055  1.00  0.00     0.016 A 
ATOM     33  C   UNL A   1      43.003  26.970  27.194  1.00  0.00     0.010 A 
ATOM     34  C   UNL A   1      41.447  25.276  27.964  1.00  0.00     0.010 A 
ATOM     35  C   UNL A   1      41.972  26.577  28.059  1.00  0.00    -0.014 A 
BRANCH  35  36
ATOM     36  C   UNL A   1      41.554  27.465  29.174  1.00  0.00     0.031 A 
ATOM     37  C   UNL A   1      42.342  27.440  30.453  1.00  0.00     0.074 A 
ATOM     38  C   UNL A   1      40.474  28.259  29.072  1.00  0.00     0.049 A 
ATOM     39  N   UNL A   1      42.120  28.073  31.576  1.00  0.00    -0.248 NA
ATOM     40  C   UNL A   1      43.515  26.554  30.479  1.00  0.00     0.031 C 
ATOM     41  C   UNL A   1      39.600  28.331  27.909  1.00  0.00     0.029 A 
ATOM     42  N   UNL A   1      39.923  29.145  29.966  1.00  0.00    -0.354 N 
ATOM     43  C   UNL A   1      43.097  27.630  32.457  1.00  0.00     0.074 A 
ATOM     44  C   UNL A   1      43.912  26.673  31.737  1.00  0.00     0.031 C 
ATOM     45  C   UNL A   1      38.635  29.235  28.147  1.00  0.00     0.029 A 
ATOM     46  C   UNL A   1      38.807  29.790  29.487  1.00  0.00     0.049 A 
ATOM     47  H   UNL A   1      40.292  29.304  30.864  1.00  0.00     0.167 HD
ATOM     48  C   UNL A   1      43.288  27.977  33.752  1.00  0.00     0.037 A 
ATOM     49  C   UNL A   1      38.011  30.711  30.070  1.00  0.00     0.037 A 
ATOM     50  C   UNL A   1      42.473  28.923  34.469  1.00  0.00     0.049 A 
ATOM     51  C   UNL A   1      38.269  31.102  31.505  1.00  0.00     0.074 A 
ATOM     52  C   UNL A   1      42.602  29.350  35.780  1.00  0.00     0.029 A 
ATOM     53  N   UNL A   1      41.373  29.583  33.942  1.00  0.00    -0.354 N 
ATOM     54  N   UNL A   1      39.220  30.707  32.318  1.00  0.00    -0.248 NA
ATOM     55  C   UNL A   1      37.320  32.047  32.116  1.00  0.00     0.031 C 
ATOM     56  C   UNL A   1      41.549  30.226  36.062  1.00  0.00     0.029 A 
ATOM     57  C   UNL A   1      40.802  30.398  34.908  1.00  0.00     0.049 A 
ATOM     58  H   UNL A   1      41.047  29.487  33.019  1.00  0.00     0.167 HD
ATOM     59  C   UNL A   1      38.988  31.357  33.523  1.00  0.00     0.074 A 
ATOM     60  C   UNL A   1      37.834  32.207  33.326  1.00  0.00     0.031 C 
ATOM     61  C   UNL A   1      39.657  31.244  34.697  1.00  0.00     0.037 A 
BRANCH  48  62
ATOM     62  C   UNL A   1      44.398  27.291  34.494  1.00  0.00     0.064 A 
ATOM     63  C   UNL A   1      44.202  26.070  35.157  1.00  0.00     0.173 A 
ATOM     64  C   UNL A   1      45.684  27.852  34.518  1.00  0.00     0.173 A 
ATOM     65  F   UNL A   1      42.987  25.501  35.179  1.00  0.00    -0.203 F 
ATOM     66  C   UNL A   1      45.246  25.452  35.839  1.00  0.00     0.198 A 
ATOM     67  C   UNL A   1      46.734  27.213  35.170  1.00  0.00     0.198 A 
ATOM     68  F   UNL A   1      45.925  29.016  33.897  1.00  0.00    -0.203 F 
ATOM     69  F   UNL A   1      45.023  24.313  36.509  1.00  0.00    -0.200 F 
ATOM     70  C   UNL A   1      46.512  26.018  35.838  1.00  0.00     0.200 A 
ATOM     71  F   UNL A   1      47.959  27.754  35.155  1.00  0.00    -0.200 F 
ATOM     72  F   UNL A   1      47.518  25.416  36.487  1.00  0.00    -0.200 F 
ENDBRANCH  48  62
BRANCH  49  73
ATOM     73  C   UNL A   1      36.886  31.340  29.319  1.00  0.00     0.064 A 
ATOM     74  C   UNL A   1      36.928  32.701  28.976  1.00  0.00     0.173 A 
ATOM     75  C   UNL A   1      35.732  30.623  28.977  1.00  0.00     0.173 A 
ATOM     76  F   UNL A   1      37.997  33.441  29.307  1.00  0.00    -0.203 F 
ATOM     77  C   UNL A   1      35.851  33.323  28.347  1.00  0.00     0.198 A 
ATOM     78  C   UNL A   1      34.674  31.235  28.304  1.00  0.00     0.198 A 
ATOM     79  F   UNL A   1      35.626  29.324  29.293  1.00  0.00    -0.203 F 
ATOM     80  F   UNL A   1      35.892  34.639  28.096  1.00  0.00    -0.200 F 
ATOM     81  C   UNL A   1      34.730  32.587  28.000  1.00  0.00     0.200 A 
ATOM     82  F   UNL A   1      33.598  30.515  27.961  1.00  0.00    -0.200 F 
ATOM     83  F   UNL A   1      33.697  33.178  27.385  1.00  0.00    -0.200 F 
ENDBRANCH  49  73
BRANCH  61  84
ATOM     84  C   UNL A   1      39.174  32.077  35.852  1.00  0.00     0.064 A 
ATOM     85  C   UNL A   1      39.610  33.398  36.044  1.00  0.00     0.173 A 
ATOM     86  C   UNL A   1      38.239  31.560  36.762  1.00  0.00     0.173 A 
ATOM     87  F   UNL A   1      40.513  33.939  35.212  1.00  0.00    -0.203 F 
ATOM     88  C   UNL A   1      39.151  34.156  37.118  1.00  0.00     0.198 A 
ATOM     89  C   UNL A   1      37.757  32.332  37.815  1.00  0.00     0.198 A 
ATOM     90  F   UNL A   1      37.783  30.305  36.622  1.00  0.00    -0.203 F 
ATOM     91  F   UNL A   1      39.624  35.396  37.312  1.00  0.00    -0.200 F 
ATOM     92  C   UNL A   1      38.220  33.625  37.999  1.00  0.00     0.200 A 
ATOM     93  F   UNL A   1      36.845  31.823  38.654  1.00  0.00    -0.200 F 
ATOM     94  F   UNL A   1      37.775  34.358  39.028  1.00  0.00    -0.200 F 
ENDBRANCH  61  84
ENDBRANCH  35  36
ENDBRANCH  28  30
ENDBRANCH  27  28
ENDBRANCH  26  27
ENDBRANCH  25  26
ENDBRANCH  24  25
ENDBRANCH  23  24
ENDBRANCH   1  23
TORSDOF 20
ENDMDL
