MODEL 1
REMARK VINA RESULT:     -11.5      0.000      0.000
REMARK SMILES O=C(OCCOCCOCCOC(=O)c1ccccc1/C=C1\SC(=S)N(Cc2ccccc2)C1=O)c1ccc(-c2c3nc(c(-c4c(F)c(F)c(F)c(F)c4F)c4ccc([nH]4)c(-c4c(F)c(F)c(F)c(F)c4F)c4nc(c(-c5c(F)c(F)c(F)c(F)c5F)c5ccc2[nH]5)C=C4)C=C3)cc1
REMARK SMILES IDX 8 1 7 2 6 3 5 4 4 5 3 6 2 7 1 8 36 9 37 10 98 11 38 12 97 13
REMARK SMILES IDX 39 14 40 15 41 16 91 17 42 18 96 19 90 20 92 21 43 22 95 23
REMARK SMILES IDX 89 24 88 25 44 27 76 28 56 29 75 30 57 31 60 32 74 33 93 34
REMARK SMILES IDX 58 35 59 36 73 38 94 39 61 40 45 41 46 42 54 43 47 44 48 45
REMARK SMILES IDX 52 46 55 47 49 48 50 49 53 50 51 51 77 52 78 53 86 54 79 55
REMARK SMILES IDX 80 56 84 57 87 58 81 59 82 60 85 61 83 62 62 63 63 64 71 65
REMARK SMILES IDX 64 66 65 67 69 68 72 69 66 70 67 71 70 72 68 73 9 74 10 75
REMARK SMILES IDX 11 76 12 77 13 78 14 79 15 80 16 81 20 82 17 83 19 84 18 85
REMARK SMILES IDX 21 86 22 87 23 88 34 89 24 90 26 91 35 92 25 93 27 94 28 95
REMARK SMILES IDX 29 96 33 97 30 98 32 99 31 100
REMARK H PARENT 92 26 60 37
REMARK Flexibility Score: inf
ROOT
ATOM      1  C   UNL A   1      30.624  27.760  24.994  1.00  0.00     0.188 C 
ENDROOT
BRANCH   1   2
ATOM      2  C   UNL A   1      30.423  29.006  24.141  1.00  0.00     0.188 C 
BRANCH   2   3
ATOM      3  O   UNL A   1      31.326  30.067  24.472  1.00  0.00    -0.376 OA
BRANCH   3   4
ATOM      4  C   UNL A   1      31.167  30.540  25.814  1.00  0.00     0.202 C 
BRANCH   4   5
ATOM      5  C   UNL A   1      32.482  30.866  26.542  1.00  0.00     0.261 C 
BRANCH   5   6
ATOM      6  O   UNL A   1      32.578  32.239  26.961  1.00  0.00    -0.460 OA
BRANCH   6   7
ATOM      7  C   UNL A   1      33.502  32.817  27.768  1.00  0.00     0.338 C 
ATOM      8  O   UNL A   1      33.268  33.935  28.225  1.00  0.00    -0.246 OA
BRANCH   7   9
ATOM      9  C   UNL A   1      34.789  32.166  28.163  1.00  0.00     0.060 A 
ATOM     10  C   UNL A   1      34.939  30.817  28.482  1.00  0.00     0.016 A 
ATOM     11  C   UNL A   1      35.941  32.973  28.176  1.00  0.00     0.016 A 
ATOM     12  C   UNL A   1      36.143  30.309  28.941  1.00  0.00     0.010 A 
ATOM     13  C   UNL A   1      37.178  32.457  28.582  1.00  0.00     0.010 A 
ATOM     14  C   UNL A   1      37.262  31.132  29.019  1.00  0.00    -0.014 A 
BRANCH  14  15
ATOM     15  C   UNL A   1      38.437  30.608  29.740  1.00  0.00     0.031 A 
ATOM     16  C   UNL A   1      38.590  30.966  31.188  1.00  0.00     0.074 A 
ATOM     17  C   UNL A   1      39.225  29.689  29.156  1.00  0.00     0.049 A 
ATOM     18  N   UNL A   1      39.509  30.605  32.042  1.00  0.00    -0.248 NA
ATOM     19  C   UNL A   1      37.546  31.836  31.760  1.00  0.00     0.031 C 
ATOM     20  C   UNL A   1      39.051  29.180  27.795  1.00  0.00     0.029 A 
ATOM     21  N   UNL A   1      40.292  28.986  29.643  1.00  0.00    -0.354 N 
ATOM     22  C   UNL A   1      39.172  31.225  33.237  1.00  0.00     0.074 A 
ATOM     23  C   UNL A   1      37.972  31.993  33.003  1.00  0.00     0.031 C 
ATOM     24  C   UNL A   1      39.957  28.216  27.571  1.00  0.00     0.029 A 
ATOM     25  C   UNL A   1      40.817  28.095  28.740  1.00  0.00     0.049 A 
ATOM     26  H   UNL A   1      40.649  29.106  30.552  1.00  0.00     0.167 HD
ATOM     27  C   UNL A   1      39.817  31.156  34.425  1.00  0.00     0.037 A 
ATOM     28  C   UNL A   1      41.895  27.294  28.847  1.00  0.00     0.037 A 
ATOM     29  C   UNL A   1      41.007  30.376  34.627  1.00  0.00     0.049 A 
ATOM     30  C   UNL A   1      42.659  27.320  30.143  1.00  0.00     0.074 A 
ATOM     31  C   UNL A   1      41.794  30.268  35.757  1.00  0.00     0.029 A 
ATOM     32  N   UNL A   1      41.581  29.563  33.656  1.00  0.00    -0.354 N 
ATOM     33  N   UNL A   1      42.381  27.963  31.254  1.00  0.00    -0.248 NA
ATOM     34  C   UNL A   1      43.890  26.527  30.200  1.00  0.00     0.031 C 
ATOM     35  C   UNL A   1      42.872  29.430  35.453  1.00  0.00     0.029 A 
ATOM     36  C   UNL A   1      42.726  28.967  34.153  1.00  0.00     0.049 A 
ATOM     37  H   UNL A   1      41.224  29.431  32.748  1.00  0.00     0.167 HD
ATOM     38  C   UNL A   1      43.387  27.635  32.149  1.00  0.00     0.074 A 
ATOM     39  C   UNL A   1      44.273  26.719  31.454  1.00  0.00     0.031 C 
ATOM     40  C   UNL A   1      43.572  28.052  33.427  1.00  0.00     0.037 A 
BRANCH  27  41
ATOM     41  C   UNL A   1      39.285  32.008  35.540  1.00  0.00     0.064 A 
ATOM     42  C   UNL A   1      39.695  33.337  35.727  1.00  0.00     0.173 A 
ATOM     43  C   UNL A   1      38.390  31.462  36.472  1.00  0.00     0.173 A 
ATOM     44  F   UNL A   1      40.574  33.899  34.884  1.00  0.00    -0.203 F 
ATOM     45  C   UNL A   1      39.261  34.073  36.828  1.00  0.00     0.198 A 
ATOM     46  C   UNL A   1      37.934  32.209  37.555  1.00  0.00     0.198 A 
ATOM     47  F   UNL A   1      37.973  30.194  36.345  1.00  0.00    -0.203 F 
ATOM     48  F   UNL A   1      39.723  35.315  37.027  1.00  0.00    -0.200 F 
ATOM     49  C   UNL A   1      38.378  33.510  37.739  1.00  0.00     0.200 A 
ATOM     50  F   UNL A   1      37.080  31.663  38.431  1.00  0.00    -0.200 F 
ATOM     51  F   UNL A   1      37.973  34.212  38.805  1.00  0.00    -0.200 F 
ENDBRANCH  27  41
BRANCH  28  52
ATOM     52  C   UNL A   1      42.326  26.448  27.700  1.00  0.00     0.064 A 
ATOM     53  C   UNL A   1      41.804  25.162  27.503  1.00  0.00     0.173 A 
ATOM     54  C   UNL A   1      43.282  26.905  26.779  1.00  0.00     0.173 A 
ATOM     55  F   UNL A   1      40.901  24.668  28.363  1.00  0.00    -0.203 F 
ATOM     56  C   UNL A   1      42.233  24.362  26.445  1.00  0.00     0.198 A 
ATOM     57  C   UNL A   1      43.686  26.118  25.702  1.00  0.00     0.198 A 
ATOM     58  F   UNL A   1      43.815  28.129  26.911  1.00  0.00    -0.203 F 
ATOM     59  F   UNL A   1      41.750  23.119  26.309  1.00  0.00    -0.200 F 
ATOM     60  C   UNL A   1      43.170  24.842  25.542  1.00  0.00     0.200 A 
ATOM     61  F   UNL A   1      44.576  26.597  24.823  1.00  0.00    -0.200 F 
ATOM     62  F   UNL A   1      43.578  24.075  24.522  1.00  0.00    -0.200 F 
ENDBRANCH  28  52
BRANCH  40  63
ATOM     63  C   UNL A   1      44.752  27.485  34.157  1.00  0.00     0.064 A 
ATOM     64  C   UNL A   1      45.987  28.146  34.185  1.00  0.00     0.173 A 
ATOM     65  C   UNL A   1      44.627  26.283  34.870  1.00  0.00     0.173 A 
ATOM     66  F   UNL A   1      46.157  29.289  33.505  1.00  0.00    -0.203 F 
ATOM     67  C   UNL A   1      47.066  27.609  34.880  1.00  0.00     0.198 A 
ATOM     68  C   UNL A   1      45.698  25.767  35.591  1.00  0.00     0.198 A 
ATOM     69  F   UNL A   1      43.461  25.619  34.878  1.00  0.00    -0.203 F 
ATOM     70  F   UNL A   1      48.254  28.229  34.852  1.00  0.00    -0.200 F 
ATOM     71  C   UNL A   1      46.918  26.426  35.589  1.00  0.00     0.200 A 
ATOM     72  F   UNL A   1      45.549  24.632  36.288  1.00  0.00    -0.200 F 
ATOM     73  F   UNL A   1      47.956  25.913  36.264  1.00  0.00    -0.200 F 
ENDBRANCH  40  63
ENDBRANCH  14  15
ENDBRANCH   7   9
ENDBRANCH   6   7
ENDBRANCH   5   6
ENDBRANCH   4   5
ENDBRANCH   3   4
ENDBRANCH   2   3
ENDBRANCH   1   2
BRANCH   1  74
ATOM     74  O   UNL A   1      29.804  26.638  24.696  1.00  0.00    -0.376 OA
BRANCH  74  75
ATOM     75  C   UNL A   1      29.888  26.080  23.391  1.00  0.00     0.202 C 
BRANCH  75  76
ATOM     76  C   UNL A   1      30.863  24.920  23.157  1.00  0.00     0.261 C 
BRANCH  76  77
ATOM     77  O   UNL A   1      31.888  25.103  22.162  1.00  0.00    -0.460 OA
BRANCH  77  78
ATOM     78  C   UNL A   1      33.154  25.061  22.651  1.00  0.00     0.338 C 
ATOM     79  O   UNL A   1      33.992  24.198  22.433  1.00  0.00    -0.246 OA
BRANCH  78  80
ATOM     80  C   UNL A   1      33.429  26.179  23.572  1.00  0.00     0.067 A 
ATOM     81  C   UNL A   1      33.696  27.434  23.016  1.00  0.00     0.016 A 
ATOM     82  C   UNL A   1      33.604  25.952  24.951  1.00  0.00    -0.010 A 
ATOM     83  C   UNL A   1      34.150  28.467  23.834  1.00  0.00     0.001 A 
ATOM     84  C   UNL A   1      34.101  26.987  25.751  1.00  0.00     0.009 A 
ATOM     85  C   UNL A   1      34.375  28.238  25.192  1.00  0.00     0.001 A 
BRANCH  82  86
ATOM     86  C   UNL A   1      33.156  24.704  25.577  1.00  0.00     0.030 C 
ATOM     87  C   UNL A   1      33.888  23.599  25.751  1.00  0.00     0.081 C 
ATOM     88  S   UNL A   1      35.573  23.360  25.574  1.00  0.00    -0.054 SA
ATOM     89  C   UNL A   1      33.193  22.300  25.927  1.00  0.00     0.266 C 
ATOM     90  C   UNL A   1      35.401  21.609  25.494  1.00  0.00     0.148 C 
ATOM     91  N   UNL A   1      34.100  21.262  25.790  1.00  0.00    -0.288 N 
ATOM     92  O   UNL A   1      31.991  22.201  26.078  1.00  0.00    -0.268 OA
ATOM     93  S   UNL A   1      36.674  20.607  25.096  1.00  0.00    -0.052 S 
BRANCH  91  94
ATOM     94  C   UNL A   1      33.627  19.904  26.044  1.00  0.00     0.163 C 
BRANCH  94  95
ATOM     95  C   UNL A   1      33.476  19.187  24.719  1.00  0.00    -0.028 A 
ATOM     96  C   UNL A   1      34.180  18.003  24.464  1.00  0.00     0.005 A 
ATOM     97  C   UNL A   1      32.519  19.622  23.788  1.00  0.00     0.005 A 
ATOM     98  C   UNL A   1      33.903  17.255  23.321  1.00  0.00     0.000 A 
ATOM     99  C   UNL A   1      32.230  18.864  22.656  1.00  0.00     0.000 A 
ATOM    100  C   UNL A   1      32.919  17.676  22.427  1.00  0.00     0.000 A 
ENDBRANCH  94  95
ENDBRANCH  91  94
ENDBRANCH  82  86
ENDBRANCH  78  80
ENDBRANCH  77  78
ENDBRANCH  76  77
ENDBRANCH  75  76
ENDBRANCH  74  75
ENDBRANCH   1  74
TORSDOF 20
ENDMDL
MODEL 2
REMARK VINA RESULT:     -11.4      2.636      4.811
REMARK SMILES O=C(OCCOCCOCCOC(=O)c1ccccc1/C=C1\SC(=S)N(Cc2ccccc2)C1=O)c1ccc(-c2c3nc(c(-c4c(F)c(F)c(F)c(F)c4F)c4ccc([nH]4)c(-c4c(F)c(F)c(F)c(F)c4F)c4nc(c(-c5c(F)c(F)c(F)c(F)c5F)c5ccc2[nH]5)C=C4)C=C3)cc1
REMARK SMILES IDX 8 1 7 2 6 3 5 4 4 5 3 6 2 7 1 8 36 9 37 10 98 11 38 12 97 13
REMARK SMILES IDX 39 14 40 15 41 16 91 17 42 18 96 19 90 20 92 21 43 22 95 23
REMARK SMILES IDX 89 24 88 25 44 27 76 28 56 29 75 30 57 31 60 32 74 33 93 34
REMARK SMILES IDX 58 35 59 36 73 38 94 39 61 40 45 41 46 42 54 43 47 44 48 45
REMARK SMILES IDX 52 46 55 47 49 48 50 49 53 50 51 51 77 52 78 53 86 54 79 55
REMARK SMILES IDX 80 56 84 57 87 58 81 59 82 60 85 61 83 62 62 63 63 64 71 65
REMARK SMILES IDX 64 66 65 67 69 68 72 69 66 70 67 71 70 72 68 73 9 74 10 75
REMARK SMILES IDX 11 76 12 77 13 78 14 79 15 80 16 81 20 82 17 83 19 84 18 85
REMARK SMILES IDX 21 86 22 87 23 88 34 89 24 90 26 91 35 92 25 93 27 94 28 95
REMARK SMILES IDX 29 96 33 97 30 98 32 99 31 100
REMARK H PARENT 92 26 60 37
REMARK Flexibility Score: inf
ROOT
ATOM      1  C   UNL A   1      33.563  32.226  27.778  1.00  0.00     0.188 C 
ENDROOT
BRANCH   1   2
ATOM      2  C   UNL A   1      34.691  32.624  28.722  1.00  0.00     0.188 C 
BRANCH   2   3
ATOM      3  O   UNL A   1      34.634  33.998  29.120  1.00  0.00    -0.376 OA
BRANCH   3   4
ATOM      4  C   UNL A   1      33.309  34.541  29.074  1.00  0.00     0.202 C 
BRANCH   4   5
ATOM      5  C   UNL A   1      33.213  36.035  29.426  1.00  0.00     0.261 C 
BRANCH   5   6
ATOM      6  O   UNL A   1      32.527  36.286  30.665  1.00  0.00    -0.460 OA
BRANCH   6   7
ATOM      7  C   UNL A   1      32.556  35.563  31.812  1.00  0.00     0.338 C 
ATOM      8  O   UNL A   1      31.493  35.326  32.385  1.00  0.00    -0.246 OA
BRANCH   7   9
ATOM      9  C   UNL A   1      33.805  35.008  32.418  1.00  0.00     0.060 A 
ATOM     10  C   UNL A   1      35.023  35.683  32.501  1.00  0.00     0.016 A 
ATOM     11  C   UNL A   1      33.732  33.720  32.979  1.00  0.00     0.016 A 
ATOM     12  C   UNL A   1      36.165  35.063  32.982  1.00  0.00     0.010 A 
ATOM     13  C   UNL A   1      34.867  33.105  33.522  1.00  0.00     0.010 A 
ATOM     14  C   UNL A   1      36.099  33.762  33.469  1.00  0.00    -0.014 A 
BRANCH  14  15
ATOM     15  C   UNL A   1      37.376  33.074  33.733  1.00  0.00     0.031 A 
ATOM     16  C   UNL A   1      38.029  33.294  35.066  1.00  0.00     0.074 A 
ATOM     17  C   UNL A   1      37.823  32.140  32.877  1.00  0.00     0.049 A 
ATOM     18  N   UNL A   1      39.127  32.780  35.548  1.00  0.00    -0.248 NA
ATOM     19  C   UNL A   1      37.333  34.204  35.993  1.00  0.00     0.031 C 
ATOM     20  C   UNL A   1      37.161  31.765  31.627  1.00  0.00     0.029 A 
ATOM     21  N   UNL A   1      38.903  31.303  32.948  1.00  0.00    -0.354 N 
ATOM     22  C   UNL A   1      39.269  33.325  36.817  1.00  0.00     0.074 A 
ATOM     23  C   UNL A   1      38.153  34.216  37.031  1.00  0.00     0.031 C 
ATOM     24  C   UNL A   1      37.829  30.745  31.068  1.00  0.00     0.029 A 
ATOM     25  C   UNL A   1      39.002  30.448  31.879  1.00  0.00     0.049 A 
ATOM     26  H   UNL A   1      39.546  31.313  33.694  1.00  0.00     0.167 HD
ATOM     27  C   UNL A   1      40.250  33.098  37.720  1.00  0.00     0.037 A 
ATOM     28  C   UNL A   1      39.958  29.545  31.584  1.00  0.00     0.037 A 
ATOM     29  C   UNL A   1      41.345  32.198  37.478  1.00  0.00     0.049 A 
ATOM     30  C   UNL A   1      41.098  29.392  32.555  1.00  0.00     0.074 A 
ATOM     31  C   UNL A   1      42.438  31.924  38.278  1.00  0.00     0.029 A 
ATOM     32  N   UNL A   1      41.477  31.420  36.333  1.00  0.00    -0.354 N 
ATOM     33  N   UNL A   1      41.269  29.963  33.725  1.00  0.00    -0.248 NA
ATOM     34  C   UNL A   1      42.182  28.488  32.161  1.00  0.00     0.031 C 
ATOM     35  C   UNL A   1      43.257  31.019  37.593  1.00  0.00     0.029 A 
ATOM     36  C   UNL A   1      42.646  30.683  36.393  1.00  0.00     0.049 A 
ATOM     37  H   UNL A   1      40.834  31.398  35.588  1.00  0.00     0.167 HD
ATOM     38  C   UNL A   1      42.467  29.469  34.220  1.00  0.00     0.074 A 
ATOM     39  C   UNL A   1      42.970  28.538  33.227  1.00  0.00     0.031 C 
ATOM     40  C   UNL A   1      43.101  29.759  35.384  1.00  0.00     0.037 A 
BRANCH  27  41
ATOM     41  C   UNL A   1      40.209  33.898  38.989  1.00  0.00     0.064 A 
ATOM     42  C   UNL A   1      39.476  33.484  40.111  1.00  0.00     0.173 A 
ATOM     43  C   UNL A   1      40.872  35.132  39.059  1.00  0.00     0.173 A 
ATOM     44  F   UNL A   1      38.797  32.327  40.086  1.00  0.00    -0.203 F 
ATOM     45  C   UNL A   1      39.375  34.295  41.240  1.00  0.00     0.198 A 
ATOM     46  C   UNL A   1      40.794  35.927  40.200  1.00  0.00     0.198 A 
ATOM     47  F   UNL A   1      41.580  35.580  38.011  1.00  0.00    -0.203 F 
ATOM     48  F   UNL A   1      38.610  33.913  42.273  1.00  0.00    -0.200 F 
ATOM     49  C   UNL A   1      40.037  35.514  41.285  1.00  0.00     0.200 A 
ATOM     50  F   UNL A   1      41.436  37.103  40.240  1.00  0.00    -0.200 F 
ATOM     51  F   UNL A   1      39.927  36.299  42.365  1.00  0.00    -0.200 F 
ENDBRANCH  27  41
BRANCH  28  52
ATOM     52  C   UNL A   1      39.895  28.764  30.319  1.00  0.00     0.064 A 
ATOM     53  C   UNL A   1      39.301  27.495  30.273  1.00  0.00     0.173 A 
ATOM     54  C   UNL A   1      40.441  29.265  29.126  1.00  0.00     0.173 A 
ATOM     55  F   UNL A   1      38.780  26.958  31.387  1.00  0.00    -0.203 F 
ATOM     56  C   UNL A   1      39.272  26.753  29.092  1.00  0.00     0.198 A 
ATOM     57  C   UNL A   1      40.382  28.538  27.939  1.00  0.00     0.198 A 
ATOM     58  F   UNL A   1      41.019  30.476  29.107  1.00  0.00    -0.203 F 
ATOM     59  F   UNL A   1      38.739  25.523  29.088  1.00  0.00    -0.200 F 
ATOM     60  C   UNL A   1      39.807  27.277  27.925  1.00  0.00     0.200 A 
ATOM     61  F   UNL A   1      40.883  29.060  26.812  1.00  0.00    -0.200 F 
ATOM     62  F   UNL A   1      39.774  26.566  26.790  1.00  0.00    -0.200 F 
ENDBRANCH  28  52
BRANCH  40  63
ATOM     63  C   UNL A   1      44.381  29.027  35.654  1.00  0.00     0.064 A 
ATOM     64  C   UNL A   1      44.399  27.801  36.333  1.00  0.00     0.173 A 
ATOM     65  C   UNL A   1      45.600  29.545  35.189  1.00  0.00     0.173 A 
ATOM     66  F   UNL A   1      43.260  27.277  36.811  1.00  0.00    -0.203 F 
ATOM     67  C   UNL A   1      45.596  27.132  36.563  1.00  0.00     0.198 A 
ATOM     68  C   UNL A   1      46.790  28.855  35.391  1.00  0.00     0.198 A 
ATOM     69  F   UNL A   1      45.631  30.711  34.528  1.00  0.00    -0.203 F 
ATOM     70  F   UNL A   1      45.599  25.986  37.260  1.00  0.00    -0.200 F 
ATOM     71  C   UNL A   1      46.789  27.654  36.084  1.00  0.00     0.200 A 
ATOM     72  F   UNL A   1      47.939  29.354  34.914  1.00  0.00    -0.200 F 
ATOM     73  F   UNL A   1      47.941  27.004  36.298  1.00  0.00    -0.200 F 
ENDBRANCH  40  63
ENDBRANCH  14  15
ENDBRANCH   7   9
ENDBRANCH   6   7
ENDBRANCH   5   6
ENDBRANCH   4   5
ENDBRANCH   3   4
ENDBRANCH   2   3
ENDBRANCH   1   2
BRANCH   1  74
ATOM     74  O   UNL A   1      33.690  30.973  27.118  1.00  0.00    -0.376 OA
BRANCH  74  75
ATOM     75  C   UNL A   1      32.860  29.905  27.554  1.00  0.00     0.202 C 
BRANCH  75  76
ATOM     76  C   UNL A   1      33.026  28.535  26.886  1.00  0.00     0.261 C 
BRANCH  76  77
ATOM     77  O   UNL A   1      32.079  28.176  25.862  1.00  0.00    -0.460 OA
BRANCH  77  78
ATOM     78  C   UNL A   1      32.413  28.608  24.618  1.00  0.00     0.338 C 
ATOM     79  O   UNL A   1      33.542  28.734  24.169  1.00  0.00    -0.246 OA
BRANCH  78  80
ATOM     80  C   UNL A   1      31.228  28.993  23.830  1.00  0.00     0.067 A 
ATOM     81  C   UNL A   1      30.597  30.200  24.145  1.00  0.00     0.016 A 
ATOM     82  C   UNL A   1      30.641  28.091  22.920  1.00  0.00    -0.010 A 
ATOM     83  C   UNL A   1      29.370  30.509  23.562  1.00  0.00     0.001 A 
ATOM     84  C   UNL A   1      29.389  28.396  22.377  1.00  0.00     0.009 A 
ATOM     85  C   UNL A   1      28.756  29.599  22.700  1.00  0.00     0.001 A 
BRANCH  82  86
ATOM     86  C   UNL A   1      31.372  26.914  22.442  1.00  0.00     0.030 C 
ATOM     87  C   UNL A   1      31.322  25.685  22.964  1.00  0.00     0.081 C 
ATOM     88  S   UNL A   1      30.246  25.028  24.121  1.00  0.00    -0.054 SA
ATOM     89  C   UNL A   1      32.447  24.752  22.710  1.00  0.00     0.266 C 
ATOM     90  C   UNL A   1      31.314  23.671  24.466  1.00  0.00     0.148 C 
ATOM     91  N   UNL A   1      32.356  23.665  23.563  1.00  0.00    -0.288 N 
ATOM     92  O   UNL A   1      33.344  24.986  21.924  1.00  0.00    -0.268 OA
ATOM     93  S   UNL A   1      31.033  22.617  25.728  1.00  0.00    -0.052 S 
BRANCH  91  94
ATOM     94  C   UNL A   1      33.312  22.576  23.388  1.00  0.00     0.163 C 
BRANCH  94  95
ATOM     95  C   UNL A   1      34.607  22.952  24.077  1.00  0.00    -0.028 A 
ATOM     96  C   UNL A   1      34.651  23.134  25.465  1.00  0.00     0.005 A 
ATOM     97  C   UNL A   1      35.808  22.979  23.351  1.00  0.00     0.005 A 
ATOM     98  C   UNL A   1      35.874  23.302  26.113  1.00  0.00     0.000 A 
ATOM     99  C   UNL A   1      37.031  23.129  24.001  1.00  0.00     0.000 A 
ATOM    100  C   UNL A   1      37.062  23.284  25.384  1.00  0.00     0.000 A 
ENDBRANCH  94  95
ENDBRANCH  91  94
ENDBRANCH  82  86
ENDBRANCH  78  80
ENDBRANCH  77  78
ENDBRANCH  76  77
ENDBRANCH  75  76
ENDBRANCH  74  75
ENDBRANCH   1  74
TORSDOF 20
ENDMDL
MODEL 3
REMARK VINA RESULT:     -11.3      2.455      8.004
REMARK SMILES O=C(OCCOCCOCCOC(=O)c1ccccc1/C=C1\SC(=S)N(Cc2ccccc2)C1=O)c1ccc(-c2c3nc(c(-c4c(F)c(F)c(F)c(F)c4F)c4ccc([nH]4)c(-c4c(F)c(F)c(F)c(F)c4F)c4nc(c(-c5c(F)c(F)c(F)c(F)c5F)c5ccc2[nH]5)C=C4)C=C3)cc1
REMARK SMILES IDX 8 1 7 2 6 3 5 4 4 5 3 6 2 7 1 8 36 9 37 10 98 11 38 12 97 13
REMARK SMILES IDX 39 14 40 15 41 16 91 17 42 18 96 19 90 20 92 21 43 22 95 23
REMARK SMILES IDX 89 24 88 25 44 27 76 28 56 29 75 30 57 31 60 32 74 33 93 34
REMARK SMILES IDX 58 35 59 36 73 38 94 39 61 40 45 41 46 42 54 43 47 44 48 45
REMARK SMILES IDX 52 46 55 47 49 48 50 49 53 50 51 51 77 52 78 53 86 54 79 55
REMARK SMILES IDX 80 56 84 57 87 58 81 59 82 60 85 61 83 62 62 63 63 64 71 65
REMARK SMILES IDX 64 66 65 67 69 68 72 69 66 70 67 71 70 72 68 73 9 74 10 75
REMARK SMILES IDX 11 76 12 77 13 78 14 79 15 80 16 81 20 82 17 83 19 84 18 85
REMARK SMILES IDX 21 86 22 87 23 88 34 89 24 90 26 91 35 92 25 93 27 94 28 95
REMARK SMILES IDX 29 96 33 97 30 98 32 99 31 100
REMARK H PARENT 92 26 60 37
REMARK Flexibility Score: inf
ROOT
ATOM      1  C   UNL A   1      34.309  32.531  28.371  1.00  0.00     0.188 C 
ENDROOT
BRANCH   1   2
ATOM      2  C   UNL A   1      35.169  33.724  27.974  1.00  0.00     0.188 C 
BRANCH   2   3
ATOM      3  O   UNL A   1      34.452  34.964  27.985  1.00  0.00    -0.376 OA
BRANCH   3   4
ATOM      4  C   UNL A   1      33.180  34.869  28.636  1.00  0.00     0.202 C 
BRANCH   4   5
ATOM      5  C   UNL A   1      32.728  36.152  29.354  1.00  0.00     0.261 C 
BRANCH   5   6
ATOM      6  O   UNL A   1      33.214  36.251  30.704  1.00  0.00    -0.460 OA
BRANCH   6   7
ATOM      7  C   UNL A   1      33.257  35.292  31.664  1.00  0.00     0.338 C 
ATOM      8  O   UNL A   1      32.286  35.160  32.407  1.00  0.00    -0.246 OA
BRANCH   7   9
ATOM      9  C   UNL A   1      34.410  34.361  31.861  1.00  0.00     0.060 A 
ATOM     10  C   UNL A   1      34.348  33.140  32.532  1.00  0.00     0.016 A 
ATOM     11  C   UNL A   1      35.642  34.733  31.293  1.00  0.00     0.016 A 
ATOM     12  C   UNL A   1      35.483  32.381  32.765  1.00  0.00     0.010 A 
ATOM     13  C   UNL A   1      36.786  33.945  31.472  1.00  0.00     0.010 A 
ATOM     14  C   UNL A   1      36.713  32.793  32.261  1.00  0.00    -0.014 A 
BRANCH  14  15
ATOM     15  C   UNL A   1      37.913  32.086  32.745  1.00  0.00     0.031 A 
ATOM     16  C   UNL A   1      38.529  31.055  31.848  1.00  0.00     0.074 A 
ATOM     17  C   UNL A   1      38.527  32.502  33.866  1.00  0.00     0.049 A 
ATOM     18  N   UNL A   1      39.599  30.328  32.029  1.00  0.00    -0.248 NA
ATOM     19  C   UNL A   1      37.859  30.827  30.556  1.00  0.00     0.031 C 
ATOM     20  C   UNL A   1      38.066  33.600  34.715  1.00  0.00     0.029 A 
ATOM     21  N   UNL A   1      39.691  32.089  34.454  1.00  0.00    -0.354 N 
ATOM     22  C   UNL A   1      39.711  29.540  30.892  1.00  0.00     0.074 A 
ATOM     23  C   UNL A   1      38.600  29.865  30.029  1.00  0.00     0.031 C 
ATOM     24  C   UNL A   1      38.960  33.799  35.696  1.00  0.00     0.029 A 
ATOM     25  C   UNL A   1      40.012  32.797  35.586  1.00  0.00     0.049 A 
ATOM     26  H   UNL A   1      40.244  31.355  34.101  1.00  0.00     0.167 HD
ATOM     27  C   UNL A   1      40.662  28.622  30.602  1.00  0.00     0.037 A 
ATOM     28  C   UNL A   1      41.034  32.628  36.447  1.00  0.00     0.037 A 
ATOM     29  C   UNL A   1      41.760  28.326  31.481  1.00  0.00     0.049 A 
ATOM     30  C   UNL A   1      42.017  31.525  36.157  1.00  0.00     0.074 A 
ATOM     31  C   UNL A   1      42.755  27.378  31.339  1.00  0.00     0.029 A 
ATOM     32  N   UNL A   1      42.001  28.989  32.679  1.00  0.00    -0.354 N 
ATOM     33  N   UNL A   1      42.082  30.729  35.115  1.00  0.00    -0.248 NA
ATOM     34  C   UNL A   1      43.055  31.285  37.164  1.00  0.00     0.031 C 
ATOM     35  C   UNL A   1      43.568  27.434  32.476  1.00  0.00     0.029 A 
ATOM     36  C   UNL A   1      43.116  28.456  33.299  1.00  0.00     0.049 A 
ATOM     37  H   UNL A   1      41.457  29.730  33.033  1.00  0.00     0.167 HD
ATOM     38  C   UNL A   1      43.180  29.910  35.327  1.00  0.00     0.074 A 
ATOM     39  C   UNL A   1      43.761  30.320  36.592  1.00  0.00     0.031 C 
ATOM     40  C   UNL A   1      43.665  28.905  34.555  1.00  0.00     0.037 A 
BRANCH  27  41
ATOM     41  C   UNL A   1      40.488  27.838  29.334  1.00  0.00     0.064 A 
ATOM     42  C   UNL A   1      39.628  26.734  29.248  1.00  0.00     0.173 A 
ATOM     43  C   UNL A   1      41.244  28.168  28.199  1.00  0.00     0.173 A 
ATOM     44  F   UNL A   1      38.905  26.355  30.314  1.00  0.00    -0.203 F 
ATOM     45  C   UNL A   1      39.561  25.964  28.088  1.00  0.00     0.198 A 
ATOM     46  C   UNL A   1      41.154  27.415  27.031  1.00  0.00     0.198 A 
ATOM     47  F   UNL A   1      42.089  29.209  28.228  1.00  0.00    -0.203 F 
ATOM     48  F   UNL A   1      38.787  24.870  28.054  1.00  0.00    -0.200 F 
ATOM     49  C   UNL A   1      40.322  26.307  26.980  1.00  0.00     0.200 A 
ATOM     50  F   UNL A   1      41.888  27.751  25.961  1.00  0.00    -0.200 F 
ATOM     51  F   UNL A   1      40.268  25.559  25.870  1.00  0.00    -0.200 F 
ENDBRANCH  27  41
BRANCH  28  52
ATOM     52  C   UNL A   1      41.150  33.482  37.660  1.00  0.00     0.064 A 
ATOM     53  C   UNL A   1      40.315  33.292  38.771  1.00  0.00     0.173 A 
ATOM     54  C   UNL A   1      42.094  34.519  37.732  1.00  0.00     0.173 A 
ATOM     55  F   UNL A   1      39.383  32.327  38.750  1.00  0.00    -0.203 F 
ATOM     56  C   UNL A   1      40.408  34.114  39.893  1.00  0.00     0.198 A 
ATOM     57  C   UNL A   1      42.208  35.319  38.868  1.00  0.00     0.198 A 
ATOM     58  F   UNL A   1      42.924  34.747  36.703  1.00  0.00    -0.203 F 
ATOM     59  F   UNL A   1      39.565  33.938  40.921  1.00  0.00    -0.200 F 
ATOM     60  C   UNL A   1      41.358  35.123  39.944  1.00  0.00     0.200 A 
ATOM     61  F   UNL A   1      43.142  36.278  38.917  1.00  0.00    -0.200 F 
ATOM     62  F   UNL A   1      41.449  35.909  41.025  1.00  0.00    -0.200 F 
ENDBRANCH  28  52
BRANCH  40  63
ATOM     63  C   UNL A   1      44.905  28.218  35.044  1.00  0.00     0.064 A 
ATOM     64  C   UNL A   1      44.843  27.075  35.852  1.00  0.00     0.173 A 
ATOM     65  C   UNL A   1      46.169  28.693  34.662  1.00  0.00     0.173 A 
ATOM     66  F   UNL A   1      43.657  26.596  36.255  1.00  0.00    -0.203 F 
ATOM     67  C   UNL A   1      46.006  26.445  36.284  1.00  0.00     0.198 A 
ATOM     68  C   UNL A   1      47.328  28.040  35.068  1.00  0.00     0.198 A 
ATOM     69  F   UNL A   1      46.277  29.780  33.883  1.00  0.00    -0.203 F 
ATOM     70  F   UNL A   1      45.927  25.384  37.099  1.00  0.00    -0.200 F 
ATOM     71  C   UNL A   1      47.246  26.922  35.885  1.00  0.00     0.200 A 
ATOM     72  F   UNL A   1      48.524  28.494  34.669  1.00  0.00    -0.200 F 
ATOM     73  F   UNL A   1      48.365  26.310  36.296  1.00  0.00    -0.200 F 
ENDBRANCH  40  63
ENDBRANCH  14  15
ENDBRANCH   7   9
ENDBRANCH   6   7
ENDBRANCH   5   6
ENDBRANCH   4   5
ENDBRANCH   3   4
ENDBRANCH   2   3
ENDBRANCH   1   2
BRANCH   1  74
ATOM     74  O   UNL A   1      34.389  31.378  27.543  1.00  0.00    -0.376 OA
BRANCH  74  75
ATOM     75  C   UNL A   1      33.177  30.718  27.203  1.00  0.00     0.202 C 
BRANCH  75  76
ATOM     76  C   UNL A   1      33.225  29.214  26.908  1.00  0.00     0.261 C 
BRANCH  76  77
ATOM     77  O   UNL A   1      32.232  28.680  26.012  1.00  0.00    -0.460 OA
BRANCH  77  78
ATOM     78  C   UNL A   1      32.487  28.907  24.698  1.00  0.00     0.338 C 
ATOM     79  O   UNL A   1      33.576  28.855  24.147  1.00  0.00    -0.246 OA
BRANCH  78  80
ATOM     80  C   UNL A   1      31.274  29.306  23.959  1.00  0.00     0.067 A 
ATOM     81  C   UNL A   1      30.556  30.410  24.429  1.00  0.00     0.016 A 
ATOM     82  C   UNL A   1      30.753  28.493  22.934  1.00  0.00    -0.010 A 
ATOM     83  C   UNL A   1      29.308  30.703  23.883  1.00  0.00     0.001 A 
ATOM     84  C   UNL A   1      29.480  28.774  22.426  1.00  0.00     0.009 A 
ATOM     85  C   UNL A   1      28.761  29.874  22.903  1.00  0.00     0.001 A 
BRANCH  82  86
ATOM     86  C   UNL A   1      31.568  27.448  22.307  1.00  0.00     0.030 C 
ATOM     87  C   UNL A   1      31.605  26.158  22.655  1.00  0.00     0.081 C 
ATOM     88  S   UNL A   1      30.576  25.274  23.698  1.00  0.00    -0.054 SA
ATOM     89  C   UNL A   1      32.795  25.351  22.290  1.00  0.00     0.266 C 
ATOM     90  C   UNL A   1      31.738  23.961  23.867  1.00  0.00     0.148 C 
ATOM     91  N   UNL A   1      32.780  24.153  22.985  1.00  0.00    -0.288 N 
ATOM     92  O   UNL A   1      33.675  25.754  21.555  1.00  0.00    -0.268 OA
ATOM     93  S   UNL A   1      31.531  22.726  24.969  1.00  0.00    -0.052 S 
BRANCH  91  94
ATOM     94  C   UNL A   1      33.813  23.170  22.674  1.00  0.00     0.163 C 
BRANCH  94  95
ATOM     95  C   UNL A   1      34.996  23.400  23.592  1.00  0.00    -0.028 A 
ATOM     96  C   UNL A   1      34.868  24.200  24.733  1.00  0.00     0.005 A 
ATOM     97  C   UNL A   1      36.193  22.697  23.385  1.00  0.00     0.005 A 
ATOM     98  C   UNL A   1      35.902  24.263  25.665  1.00  0.00     0.000 A 
ATOM     99  C   UNL A   1      37.219  22.747  24.325  1.00  0.00     0.000 A 
ATOM    100  C   UNL A   1      37.070  23.526  25.470  1.00  0.00     0.000 A 
ENDBRANCH  94  95
ENDBRANCH  91  94
ENDBRANCH  82  86
ENDBRANCH  78  80
ENDBRANCH  77  78
ENDBRANCH  76  77
ENDBRANCH  75  76
ENDBRANCH  74  75
ENDBRANCH   1  74
TORSDOF 20
ENDMDL
