MODEL 1
REMARK VINA RESULT:     -11.7      0.000      0.000
REMARK SMILES CC(C)(C)c1cc2c(cc1Cl)C=C(C(=O)OCCOCCOCCOC(=O)c1ccc(-c3c4nc(c(-c5c(F)c(F)c(F)c(F)c5F)c5ccc([nH]5)c(-c5c(F)c(F)c(F)c(F)c5F)c5nc(c(-c6c(F)c(F)c(F)c(F)c6F)c6ccc3[nH]6)C=C5)C=C4)cc1)[C@@H](C(F)(F)F)O2
REMARK SMILES IDX 21 1 20 2 19 3 18 4 17 5 16 6 14 7 15 8 13 9 5 10 6 11 10 12
REMARK SMILES IDX 7 13 9 14 11 15 8 16 96 17 12 18 91 19 2 20 1 21 3 22 4 23
REMARK SMILES IDX 92 24 93 25 94 26 95 27 22 28 23 29 24 30 25 31 26 32 27 33
REMARK SMILES IDX 28 34 29 35 90 36 30 37 89 38 31 39 32 40 33 41 83 42 34 43
REMARK SMILES IDX 88 44 82 45 84 46 35 47 87 48 81 49 80 50 36 52 68 53 48 54
REMARK SMILES IDX 67 55 49 56 52 57 66 58 85 59 50 60 51 61 65 63 86 64 53 65
REMARK SMILES IDX 37 66 38 67 46 68 39 69 40 70 44 71 47 72 41 73 42 74 45 75
REMARK SMILES IDX 43 76 69 77 70 78 78 79 71 80 72 81 76 82 79 83 73 84 74 85
REMARK SMILES IDX 77 86 75 87 54 88 55 89 63 90 56 91 57 92 61 93 64 94 58 95
REMARK SMILES IDX 59 96 62 97 60 98
REMARK H PARENT 84 51 52 62
REMARK Flexibility Score: inf
ROOT
ATOM      1  C   UNL A   1      41.461  20.103  26.107  1.00  0.00     0.188 C 
ENDROOT
BRANCH   1   2
ATOM      2  C   UNL A   1      40.812  21.151  27.036  1.00  0.00     0.188 C 
BRANCH   2   3
ATOM      3  O   UNL A   1      40.420  22.426  26.562  1.00  0.00    -0.376 OA
BRANCH   3   4
ATOM      4  C   UNL A   1      39.047  22.770  26.442  1.00  0.00     0.202 C 
BRANCH   4   5
ATOM      5  C   UNL A   1      38.105  21.864  25.653  1.00  0.00     0.261 C 
BRANCH   5   6
ATOM      6  O   UNL A   1      36.727  22.051  26.004  1.00  0.00    -0.460 OA
BRANCH   6   7
ATOM      7  C   UNL A   1      35.844  21.439  25.184  1.00  0.00     0.338 C 
ATOM      8  O   UNL A   1      35.875  20.278  24.803  1.00  0.00    -0.246 OA
BRANCH   7   9
ATOM      9  C   UNL A   1      34.716  22.344  24.907  1.00  0.00     0.087 C 
ATOM     10  C   UNL A   1      31.979  26.428  23.727  1.00  0.00    -0.020 A 
ATOM     11  C   UNL A   1      31.739  25.196  24.393  1.00  0.00     0.053 A 
ATOM     12  C   UNL A   1      33.207  26.524  23.042  1.00  0.00     0.045 A 
ATOM     13  C   UNL A   1      32.704  24.191  24.500  1.00  0.00     0.128 A 
ATOM     14  C   UNL A   1      34.181  25.516  23.158  1.00  0.00     0.032 A 
ATOM     15  Cl  UNL A   1      33.659  27.804  21.973  1.00  0.00    -0.084 Cl
ATOM     16  C   UNL A   1      33.948  24.373  23.919  1.00  0.00     0.019 A 
ATOM     17  O   UNL A   1      32.349  23.078  25.207  1.00  0.00    -0.475 OA
ATOM     18  C   UNL A   1      35.002  23.404  24.142  1.00  0.00     0.027 C 
ATOM     19  C   UNL A   1      33.355  22.062  25.485  1.00  0.00     0.316 C 
BRANCH  10  20
ATOM     20  C   UNL A   1      30.883  27.520  23.827  1.00  0.00    -0.012 C 
ATOM     21  C   UNL A   1      30.378  28.119  22.495  1.00  0.00     0.016 C 
ATOM     22  C   UNL A   1      31.416  28.748  24.624  1.00  0.00     0.016 C 
ATOM     23  C   UNL A   1      29.668  26.936  24.575  1.00  0.00     0.016 C 
ENDBRANCH  10  20
BRANCH  19  24
ATOM     24  C   UNL A   1      33.396  21.829  27.003  1.00  0.00     0.430 C 
ATOM     25  F   UNL A   1      32.237  22.211  27.590  1.00  0.00    -0.167 F 
ATOM     26  F   UNL A   1      33.570  20.521  27.306  1.00  0.00    -0.167 F 
ATOM     27  F   UNL A   1      34.400  22.517  27.592  1.00  0.00    -0.167 F 
ENDBRANCH  19  24
ENDBRANCH   7   9
ENDBRANCH   6   7
ENDBRANCH   5   6
ENDBRANCH   4   5
ENDBRANCH   3   4
ENDBRANCH   2   3
ENDBRANCH   1   2
BRANCH   1  28
ATOM     28  O   UNL A   1      42.722  20.344  25.513  1.00  0.00    -0.376 OA
BRANCH  28  29
ATOM     29  C   UNL A   1      43.422  21.542  25.830  1.00  0.00     0.202 C 
BRANCH  29  30
ATOM     30  C   UNL A   1      43.657  22.568  24.723  1.00  0.00     0.261 C 
BRANCH  30  31
ATOM     31  O   UNL A   1      42.974  23.804  24.981  1.00  0.00    -0.460 OA
BRANCH  31  32
ATOM     32  C   UNL A   1      43.769  24.843  25.330  1.00  0.00     0.338 C 
ATOM     33  O   UNL A   1      44.821  25.179  24.817  1.00  0.00    -0.246 OA
BRANCH  32  34
ATOM     34  C   UNL A   1      43.066  25.668  26.331  1.00  0.00     0.060 A 
ATOM     35  C   UNL A   1      42.146  25.105  27.217  1.00  0.00     0.016 A 
ATOM     36  C   UNL A   1      43.364  27.036  26.383  1.00  0.00     0.016 A 
ATOM     37  C   UNL A   1      41.552  25.913  28.190  1.00  0.00     0.010 A 
ATOM     38  C   UNL A   1      42.759  27.844  27.345  1.00  0.00     0.010 A 
ATOM     39  C   UNL A   1      41.870  27.282  28.270  1.00  0.00    -0.014 A 
BRANCH  39  40
ATOM     40  C   UNL A   1      41.402  28.079  29.427  1.00  0.00     0.031 A 
ATOM     41  C   UNL A   1      40.209  28.976  29.338  1.00  0.00     0.074 A 
ATOM     42  C   UNL A   1      42.090  27.978  30.579  1.00  0.00     0.049 A 
ATOM     43  N   UNL A   1      39.621  29.654  30.290  1.00  0.00    -0.248 NA
ATOM     44  C   UNL A   1      39.600  29.143  28.011  1.00  0.00     0.031 C 
ATOM     45  C   UNL A   1      43.291  27.161  30.767  1.00  0.00     0.029 A 
ATOM     46  N   UNL A   1      41.880  28.554  31.805  1.00  0.00    -0.354 N 
ATOM     47  C   UNL A   1      38.553  30.303  29.690  1.00  0.00     0.074 A 
ATOM     48  C   UNL A   1      38.605  29.980  28.278  1.00  0.00     0.031 C 
ATOM     49  C   UNL A   1      43.697  27.270  32.042  1.00  0.00     0.029 A 
ATOM     50  C   UNL A   1      42.795  28.170  32.753  1.00  0.00     0.049 A 
ATOM     51  H   UNL A   1      41.144  29.182  31.987  1.00  0.00     0.167 HD
ATOM     52  C   UNL A   1      37.606  31.076  30.275  1.00  0.00     0.037 A 
ATOM     53  C   UNL A   1      42.887  28.496  34.056  1.00  0.00     0.037 A 
ATOM     54  C   UNL A   1      37.574  31.406  31.679  1.00  0.00     0.049 A 
ATOM     55  C   UNL A   1      41.849  29.391  34.667  1.00  0.00     0.074 A 
ATOM     56  C   UNL A   1      36.627  32.143  32.370  1.00  0.00     0.029 A 
ATOM     57  N   UNL A   1      38.540  31.036  32.603  1.00  0.00    -0.354 N 
ATOM     58  N   UNL A   1      40.790  29.926  34.111  1.00  0.00    -0.248 NA
ATOM     59  C   UNL A   1      42.014  29.722  36.089  1.00  0.00     0.031 C 
ATOM     60  C   UNL A   1      37.044  32.260  33.699  1.00  0.00     0.029 A 
ATOM     61  C   UNL A   1      38.228  31.557  33.850  1.00  0.00     0.049 A 
ATOM     62  H   UNL A   1      39.332  30.486  32.404  1.00  0.00     0.167 HD
ATOM     63  C   UNL A   1      40.151  30.638  35.116  1.00  0.00     0.074 A 
ATOM     64  C   UNL A   1      40.934  30.456  36.321  1.00  0.00     0.031 C 
ATOM     65  C   UNL A   1      39.018  31.376  35.043  1.00  0.00     0.037 A 
BRANCH  52  66
ATOM     66  C   UNL A   1      36.503  31.609  29.410  1.00  0.00     0.064 A 
ATOM     67  C   UNL A   1      35.500  30.764  28.914  1.00  0.00     0.173 A 
ATOM     68  C   UNL A   1      36.388  32.984  29.159  1.00  0.00     0.173 A 
ATOM     69  F   UNL A   1      35.566  29.440  29.125  1.00  0.00    -0.203 F 
ATOM     70  C   UNL A   1      34.426  31.275  28.189  1.00  0.00     0.198 A 
ATOM     71  C   UNL A   1      35.300  33.495  28.454  1.00  0.00     0.198 A 
ATOM     72  F   UNL A   1      37.315  33.836  29.623  1.00  0.00    -0.203 F 
ATOM     73  F   UNL A   1      33.488  30.446  27.709  1.00  0.00    -0.200 F 
ATOM     74  C   UNL A   1      34.322  32.640  27.970  1.00  0.00     0.200 A 
ATOM     75  F   UNL A   1      35.192  34.815  28.255  1.00  0.00    -0.200 F 
ATOM     76  F   UNL A   1      33.277  33.132  27.290  1.00  0.00    -0.200 F 
ENDBRANCH  52  66
BRANCH  53  77
ATOM     77  C   UNL A   1      43.981  27.916  34.873  1.00  0.00     0.064 A 
ATOM     78  C   UNL A   1      43.842  26.651  35.460  1.00  0.00     0.173 A 
ATOM     79  C   UNL A   1      45.196  28.593  35.051  1.00  0.00     0.173 A 
ATOM     80  F   UNL A   1      42.691  25.975  35.329  1.00  0.00    -0.203 F 
ATOM     81  C   UNL A   1      44.878  26.087  36.201  1.00  0.00     0.198 A 
ATOM     82  C   UNL A   1      46.238  28.017  35.774  1.00  0.00     0.198 A 
ATOM     83  F   UNL A   1      45.377  29.803  34.503  1.00  0.00    -0.203 F 
ATOM     84  F   UNL A   1      44.711  24.887  36.775  1.00  0.00    -0.200 F 
ATOM     85  C   UNL A   1      46.077  26.767  36.351  1.00  0.00     0.200 A 
ATOM     86  F   UNL A   1      47.401  28.670  35.903  1.00  0.00    -0.200 F 
ATOM     87  F   UNL A   1      47.077  26.217  37.053  1.00  0.00    -0.200 F 
ENDBRANCH  53  77
BRANCH  65  88
ATOM     88  C   UNL A   1      38.547  32.045  36.300  1.00  0.00     0.064 A 
ATOM     89  C   UNL A   1      37.789  31.354  37.257  1.00  0.00     0.173 A 
ATOM     90  C   UNL A   1      38.903  33.374  36.580  1.00  0.00     0.173 A 
ATOM     91  F   UNL A   1      37.410  30.087  37.028  1.00  0.00    -0.203 F 
ATOM     92  C   UNL A   1      37.393  31.971  38.440  1.00  0.00     0.198 A 
ATOM     93  C   UNL A   1      38.528  33.980  37.775  1.00  0.00     0.198 A 
ATOM     94  F   UNL A   1      39.631  34.078  35.700  1.00  0.00    -0.203 F 
ATOM     95  F   UNL A   1      36.639  31.302  39.323  1.00  0.00    -0.200 F 
ATOM     96  C   UNL A   1      37.770  33.280  38.703  1.00  0.00     0.200 A 
ATOM     97  F   UNL A   1      38.903  35.241  38.033  1.00  0.00    -0.200 F 
ATOM     98  F   UNL A   1      37.398  33.868  39.847  1.00  0.00    -0.200 F 
ENDBRANCH  65  88
ENDBRANCH  39  40
ENDBRANCH  32  34
ENDBRANCH  31  32
ENDBRANCH  30  31
ENDBRANCH  29  30
ENDBRANCH  28  29
ENDBRANCH   1  28
TORSDOF 19
ENDMDL
MODEL 2
REMARK VINA RESULT:     -11.2      1.095      2.086
REMARK SMILES CC(C)(C)c1cc2c(cc1Cl)C=C(C(=O)OCCOCCOCCOC(=O)c1ccc(-c3c4nc(c(-c5c(F)c(F)c(F)c(F)c5F)c5ccc([nH]5)c(-c5c(F)c(F)c(F)c(F)c5F)c5nc(c(-c6c(F)c(F)c(F)c(F)c6F)c6ccc3[nH]6)C=C5)C=C4)cc1)[C@@H](C(F)(F)F)O2
REMARK SMILES IDX 21 1 20 2 19 3 18 4 17 5 16 6 14 7 15 8 13 9 5 10 6 11 10 12
REMARK SMILES IDX 7 13 9 14 11 15 8 16 96 17 12 18 91 19 2 20 1 21 3 22 4 23
REMARK SMILES IDX 92 24 93 25 94 26 95 27 22 28 23 29 24 30 25 31 26 32 27 33
REMARK SMILES IDX 28 34 29 35 90 36 30 37 89 38 31 39 32 40 33 41 83 42 34 43
REMARK SMILES IDX 88 44 82 45 84 46 35 47 87 48 81 49 80 50 36 52 68 53 48 54
REMARK SMILES IDX 67 55 49 56 52 57 66 58 85 59 50 60 51 61 65 63 86 64 53 65
REMARK SMILES IDX 37 66 38 67 46 68 39 69 40 70 44 71 47 72 41 73 42 74 45 75
REMARK SMILES IDX 43 76 69 77 70 78 78 79 71 80 72 81 76 82 79 83 73 84 74 85
REMARK SMILES IDX 77 86 75 87 54 88 55 89 63 90 56 91 57 92 61 93 64 94 58 95
REMARK SMILES IDX 59 96 62 97 60 98
REMARK H PARENT 84 51 52 62
REMARK Flexibility Score: inf
ROOT
ATOM      1  C   UNL A   1      41.181  20.151  27.012  1.00  0.00     0.188 C 
ENDROOT
BRANCH   1   2
ATOM      2  C   UNL A   1      39.955  20.459  26.127  1.00  0.00     0.188 C 
BRANCH   2   3
ATOM      3  O   UNL A   1      39.266  19.439  25.427  1.00  0.00    -0.376 OA
BRANCH   3   4
ATOM      4  C   UNL A   1      37.954  19.653  24.929  1.00  0.00     0.202 C 
BRANCH   4   5
ATOM      5  C   UNL A   1      37.428  21.078  24.768  1.00  0.00     0.261 C 
BRANCH   5   6
ATOM      6  O   UNL A   1      36.294  21.352  25.604  1.00  0.00    -0.460 OA
BRANCH   6   7
ATOM      7  C   UNL A   1      35.095  21.094  25.036  1.00  0.00     0.338 C 
ATOM      8  O   UNL A   1      34.692  20.016  24.626  1.00  0.00    -0.246 OA
BRANCH   7   9
ATOM      9  C   UNL A   1      34.246  22.295  25.105  1.00  0.00     0.087 C 
ATOM     10  C   UNL A   1      32.538  27.033  24.656  1.00  0.00    -0.020 A 
ATOM     11  C   UNL A   1      32.214  25.902  25.454  1.00  0.00     0.053 A 
ATOM     12  C   UNL A   1      33.417  26.792  23.581  1.00  0.00     0.045 A 
ATOM     13  C   UNL A   1      32.829  24.657  25.291  1.00  0.00     0.128 A 
ATOM     14  C   UNL A   1      34.042  25.541  23.423  1.00  0.00     0.032 A 
ATOM     15  Cl  UNL A   1      33.800  27.920  22.330  1.00  0.00    -0.084 Cl
ATOM     16  C   UNL A   1      33.783  24.491  24.300  1.00  0.00     0.019 A 
ATOM     17  O   UNL A   1      32.451  23.672  26.157  1.00  0.00    -0.475 OA
ATOM     18  C   UNL A   1      34.528  23.252  24.212  1.00  0.00     0.027 C 
ATOM     19  C   UNL A   1      33.160  22.401  26.140  1.00  0.00     0.316 C 
BRANCH  10  20
ATOM     20  C   UNL A   1      31.905  28.392  25.052  1.00  0.00    -0.012 C 
ATOM     21  C   UNL A   1      32.831  29.628  25.002  1.00  0.00     0.016 C 
ATOM     22  C   UNL A   1      31.405  28.345  26.527  1.00  0.00     0.016 C 
ATOM     23  C   UNL A   1      30.700  28.664  24.130  1.00  0.00     0.016 C 
ENDBRANCH  10  20
BRANCH  19  24
ATOM     24  C   UNL A   1      33.671  22.116  27.561  1.00  0.00     0.430 C 
ATOM     25  F   UNL A   1      34.763  22.863  27.849  1.00  0.00    -0.167 F 
ATOM     26  F   UNL A   1      32.741  22.415  28.498  1.00  0.00    -0.167 F 
ATOM     27  F   UNL A   1      34.008  20.817  27.726  1.00  0.00    -0.167 F 
ENDBRANCH  19  24
ENDBRANCH   7   9
ENDBRANCH   6   7
ENDBRANCH   5   6
ENDBRANCH   4   5
ENDBRANCH   3   4
ENDBRANCH   2   3
ENDBRANCH   1   2
BRANCH   1  28
ATOM     28  O   UNL A   1      42.395  20.856  26.840  1.00  0.00    -0.376 OA
BRANCH  28  29
ATOM     29  C   UNL A   1      43.246  20.516  25.752  1.00  0.00     0.202 C 
BRANCH  29  30
ATOM     30  C   UNL A   1      44.089  21.617  25.109  1.00  0.00     0.261 C 
BRANCH  30  31
ATOM     31  O   UNL A   1      44.249  22.748  25.978  1.00  0.00    -0.460 OA
BRANCH  31  32
ATOM     32  C   UNL A   1      43.653  23.889  25.558  1.00  0.00     0.338 C 
ATOM     33  O   UNL A   1      43.232  24.141  24.443  1.00  0.00    -0.246 OA
BRANCH  32  34
ATOM     34  C   UNL A   1      43.393  24.751  26.727  1.00  0.00     0.060 A 
ATOM     35  C   UNL A   1      44.029  25.985  26.874  1.00  0.00     0.016 A 
ATOM     36  C   UNL A   1      42.469  24.305  27.682  1.00  0.00     0.016 A 
ATOM     37  C   UNL A   1      43.705  26.795  27.964  1.00  0.00     0.010 A 
ATOM     38  C   UNL A   1      42.157  25.109  28.778  1.00  0.00     0.010 A 
ATOM     39  C   UNL A   1      42.754  26.369  28.911  1.00  0.00    -0.014 A 
BRANCH  39  40
ATOM     40  C   UNL A   1      42.264  27.316  29.938  1.00  0.00     0.031 A 
ATOM     41  C   UNL A   1      41.059  28.173  29.712  1.00  0.00     0.074 A 
ATOM     42  C   UNL A   1      42.942  27.392  31.098  1.00  0.00     0.049 A 
ATOM     43  N   UNL A   1      40.451  28.970  30.554  1.00  0.00    -0.248 NA
ATOM     44  C   UNL A   1      40.460  28.138  28.371  1.00  0.00     0.031 C 
ATOM     45  C   UNL A   1      44.152  26.630  31.410  1.00  0.00     0.029 A 
ATOM     46  N   UNL A   1      42.712  28.135  32.228  1.00  0.00    -0.354 N 
ATOM     47  C   UNL A   1      39.379  29.509  29.859  1.00  0.00     0.074 A 
ATOM     48  C   UNL A   1      39.450  28.989  28.508  1.00  0.00     0.031 C 
ATOM     49  C   UNL A   1      44.545  26.926  32.659  1.00  0.00     0.029 A 
ATOM     50  C   UNL A   1      43.623  27.904  33.227  1.00  0.00     0.049 A 
ATOM     51  H   UNL A   1      41.964  28.770  32.312  1.00  0.00     0.167 HD
ATOM     52  C   UNL A   1      38.416  30.343  30.320  1.00  0.00     0.037 A 
ATOM     53  C   UNL A   1      43.698  28.414  34.471  1.00  0.00     0.037 A 
ATOM     54  C   UNL A   1      38.365  30.870  31.662  1.00  0.00     0.049 A 
ATOM     55  C   UNL A   1      42.640  29.372  34.940  1.00  0.00     0.074 A 
ATOM     56  C   UNL A   1      37.401  31.683  32.233  1.00  0.00     0.029 A 
ATOM     57  N   UNL A   1      39.328  30.652  32.637  1.00  0.00    -0.354 N 
ATOM     58  N   UNL A   1      41.579  29.804  34.305  1.00  0.00    -0.248 NA
ATOM     59  C   UNL A   1      42.787  29.904  36.301  1.00  0.00     0.031 C 
ATOM     60  C   UNL A   1      37.803  31.995  33.535  1.00  0.00     0.029 A 
ATOM     61  C   UNL A   1      38.996  31.340  33.794  1.00  0.00     0.049 A 
ATOM     62  H   UNL A   1      40.130  30.091  32.524  1.00  0.00     0.167 HD
ATOM     63  C   UNL A   1      40.920  30.642  35.193  1.00  0.00     0.074 A 
ATOM     64  C   UNL A   1      41.694  30.647  36.418  1.00  0.00     0.031 C 
ATOM     65  C   UNL A   1      39.777  31.345  35.006  1.00  0.00     0.037 A 
BRANCH  52  66
ATOM     66  C   UNL A   1      37.313  30.729  29.380  1.00  0.00     0.064 A 
ATOM     67  C   UNL A   1      36.278  29.835  29.072  1.00  0.00     0.173 A 
ATOM     68  C   UNL A   1      37.234  32.031  28.862  1.00  0.00     0.173 A 
ATOM     69  F   UNL A   1      36.309  28.578  29.542  1.00  0.00    -0.203 F 
ATOM     70  C   UNL A   1      35.206  30.226  28.274  1.00  0.00     0.198 A 
ATOM     71  C   UNL A   1      36.149  32.426  28.083  1.00  0.00     0.198 A 
ATOM     72  F   UNL A   1      38.193  32.927  29.137  1.00  0.00    -0.203 F 
ATOM     73  F   UNL A   1      34.237  29.350  27.979  1.00  0.00    -0.200 F 
ATOM     74  C   UNL A   1      35.138  31.524  27.789  1.00  0.00     0.200 A 
ATOM     75  F   UNL A   1      36.076  33.684  27.627  1.00  0.00    -0.200 F 
ATOM     76  F   UNL A   1      34.095  31.905  27.037  1.00  0.00    -0.200 F 
ENDBRANCH  52  66
BRANCH  53  77
ATOM     77  C   UNL A   1      44.792  27.975  35.371  1.00  0.00     0.064 A 
ATOM     78  C   UNL A   1      45.974  28.718  35.476  1.00  0.00     0.173 A 
ATOM     79  C   UNL A   1      44.663  26.829  36.170  1.00  0.00     0.173 A 
ATOM     80  F   UNL A   1      46.146  29.813  34.719  1.00  0.00    -0.203 F 
ATOM     81  C   UNL A   1      46.992  28.329  36.343  1.00  0.00     0.198 A 
ATOM     82  C   UNL A   1      45.672  26.455  37.053  1.00  0.00     0.198 A 
ATOM     83  F   UNL A   1      43.547  26.089  36.108  1.00  0.00    -0.203 F 
ATOM     84  F   UNL A   1      48.124  29.043  36.406  1.00  0.00    -0.200 F 
ATOM     85  C   UNL A   1      46.837  27.202  37.137  1.00  0.00     0.200 A 
ATOM     86  F   UNL A   1      45.513  25.374  37.829  1.00  0.00    -0.200 F 
ATOM     87  F   UNL A   1      47.811  26.836  37.980  1.00  0.00    -0.200 F 
ENDBRANCH  53  77
BRANCH  65  88
ATOM     88  C   UNL A   1      39.284  32.179  36.151  1.00  0.00     0.064 A 
ATOM     89  C   UNL A   1      39.758  33.482  36.364  1.00  0.00     0.173 A 
ATOM     90  C   UNL A   1      38.287  31.694  37.013  1.00  0.00     0.173 A 
ATOM     91  F   UNL A   1      40.722  33.985  35.578  1.00  0.00    -0.203 F 
ATOM     92  C   UNL A   1      39.263  34.263  37.405  1.00  0.00     0.198 A 
ATOM     93  C   UNL A   1      37.776  32.487  38.035  1.00  0.00     0.198 A 
ATOM     94  F   UNL A   1      37.797  30.456  36.849  1.00  0.00    -0.203 F 
ATOM     95  F   UNL A   1      39.757  35.492  37.610  1.00  0.00    -0.200 F 
ATOM     96  C   UNL A   1      38.267  33.770  38.233  1.00  0.00     0.200 A 
ATOM     97  F   UNL A   1      36.805  32.013  38.828  1.00  0.00    -0.200 F 
ATOM     98  F   UNL A   1      37.783  34.527  39.226  1.00  0.00    -0.200 F 
ENDBRANCH  65  88
ENDBRANCH  39  40
ENDBRANCH  32  34
ENDBRANCH  31  32
ENDBRANCH  30  31
ENDBRANCH  29  30
ENDBRANCH  28  29
ENDBRANCH   1  28
TORSDOF 19
ENDMDL
MODEL 3
REMARK VINA RESULT:     -10.8      5.149      9.470
REMARK SMILES CC(C)(C)c1cc2c(cc1Cl)C=C(C(=O)OCCOCCOCCOC(=O)c1ccc(-c3c4nc(c(-c5c(F)c(F)c(F)c(F)c5F)c5ccc([nH]5)c(-c5c(F)c(F)c(F)c(F)c5F)c5nc(c(-c6c(F)c(F)c(F)c(F)c6F)c6ccc3[nH]6)C=C5)C=C4)cc1)[C@@H](C(F)(F)F)O2
REMARK SMILES IDX 21 1 20 2 19 3 18 4 17 5 16 6 14 7 15 8 13 9 5 10 6 11 10 12
REMARK SMILES IDX 7 13 9 14 11 15 8 16 96 17 12 18 91 19 2 20 1 21 3 22 4 23
REMARK SMILES IDX 92 24 93 25 94 26 95 27 22 28 23 29 24 30 25 31 26 32 27 33
REMARK SMILES IDX 28 34 29 35 90 36 30 37 89 38 31 39 32 40 33 41 83 42 34 43
REMARK SMILES IDX 88 44 82 45 84 46 35 47 87 48 81 49 80 50 36 52 68 53 48 54
REMARK SMILES IDX 67 55 49 56 52 57 66 58 85 59 50 60 51 61 65 63 86 64 53 65
REMARK SMILES IDX 37 66 38 67 46 68 39 69 40 70 44 71 47 72 41 73 42 74 45 75
REMARK SMILES IDX 43 76 69 77 70 78 78 79 71 80 72 81 76 82 79 83 73 84 74 85
REMARK SMILES IDX 77 86 75 87 54 88 55 89 63 90 56 91 57 92 61 93 64 94 58 95
REMARK SMILES IDX 59 96 62 97 60 98
REMARK H PARENT 84 51 52 62
REMARK Flexibility Score: inf
ROOT
ATOM      1  C   UNL A   1      41.557  20.949  26.541  1.00  0.00     0.188 C 
ENDROOT
BRANCH   1   2
ATOM      2  C   UNL A   1      40.838  22.210  27.064  1.00  0.00     0.188 C 
BRANCH   2   3
ATOM      3  O   UNL A   1      39.495  22.499  26.718  1.00  0.00    -0.376 OA
BRANCH   3   4
ATOM      4  C   UNL A   1      38.747  21.616  25.896  1.00  0.00     0.202 C 
BRANCH   4   5
ATOM      5  C   UNL A   1      37.534  22.140  25.129  1.00  0.00     0.261 C 
BRANCH   5   6
ATOM      6  O   UNL A   1      36.836  23.179  25.830  1.00  0.00    -0.460 OA
BRANCH   6   7
ATOM      7  C   UNL A   1      35.507  22.976  25.969  1.00  0.00     0.338 C 
ATOM      8  O   UNL A   1      34.960  22.130  26.659  1.00  0.00    -0.246 OA
BRANCH   7   9
ATOM      9  C   UNL A   1      34.769  24.037  25.263  1.00  0.00     0.087 C 
ATOM     10  C   UNL A   1      31.732  27.950  24.246  1.00  0.00    -0.020 A 
ATOM     11  C   UNL A   1      32.321  26.894  23.499  1.00  0.00     0.053 A 
ATOM     12  C   UNL A   1      32.216  28.114  25.560  1.00  0.00     0.045 A 
ATOM     13  C   UNL A   1      33.214  25.975  24.059  1.00  0.00     0.128 A 
ATOM     14  C   UNL A   1      33.108  27.184  26.125  1.00  0.00     0.032 A 
ATOM     15  Cl  UNL A   1      31.846  29.441  26.603  1.00  0.00    -0.084 Cl
ATOM     16  C   UNL A   1      33.572  26.094  25.392  1.00  0.00     0.019 A 
ATOM     17  O   UNL A   1      33.667  24.986  23.235  1.00  0.00    -0.475 OA
ATOM     18  C   UNL A   1      34.381  25.071  26.020  1.00  0.00     0.027 C 
ATOM     19  C   UNL A   1      34.477  23.912  23.792  1.00  0.00     0.316 C 
BRANCH  10  20
ATOM     20  C   UNL A   1      30.633  28.792  23.548  1.00  0.00    -0.012 C 
ATOM     21  C   UNL A   1      30.259  30.134  24.218  1.00  0.00     0.016 C 
ATOM     22  C   UNL A   1      29.293  27.999  23.502  1.00  0.00     0.016 C 
ATOM     23  C   UNL A   1      31.080  29.091  22.104  1.00  0.00     0.016 C 
ENDBRANCH  10  20
BRANCH  19  24
ATOM     24  C   UNL A   1      33.813  22.573  23.435  1.00  0.00     0.430 C 
ATOM     25  F   UNL A   1      33.337  22.585  22.167  1.00  0.00    -0.167 F 
ATOM     26  F   UNL A   1      34.687  21.543  23.511  1.00  0.00    -0.167 F 
ATOM     27  F   UNL A   1      32.778  22.288  24.257  1.00  0.00    -0.167 F 
ENDBRANCH  19  24
ENDBRANCH   7   9
ENDBRANCH   6   7
ENDBRANCH   5   6
ENDBRANCH   4   5
ENDBRANCH   3   4
ENDBRANCH   2   3
ENDBRANCH   1   2
BRANCH   1  28
ATOM     28  O   UNL A   1      41.832  19.860  27.401  1.00  0.00    -0.376 OA
BRANCH  28  29
ATOM     29  C   UNL A   1      42.627  18.781  26.923  1.00  0.00     0.202 C 
BRANCH  29  30
ATOM     30  C   UNL A   1      42.943  18.709  25.430  1.00  0.00     0.261 C 
BRANCH  30  31
ATOM     31  O   UNL A   1      44.349  18.835  25.171  1.00  0.00    -0.460 OA
BRANCH  31  32
ATOM     32  C   UNL A   1      44.686  19.753  24.234  1.00  0.00     0.338 C 
ATOM     33  O   UNL A   1      44.806  19.580  23.035  1.00  0.00    -0.246 OA
BRANCH  32  34
ATOM     34  C   UNL A   1      44.698  21.090  24.857  1.00  0.00     0.060 A 
ATOM     35  C   UNL A   1      45.189  21.283  26.149  1.00  0.00     0.016 A 
ATOM     36  C   UNL A   1      44.221  22.171  24.105  1.00  0.00     0.016 A 
ATOM     37  C   UNL A   1      45.240  22.576  26.675  1.00  0.00     0.010 A 
ATOM     38  C   UNL A   1      44.259  23.460  24.636  1.00  0.00     0.010 A 
ATOM     39  C   UNL A   1      44.793  23.672  25.914  1.00  0.00    -0.014 A 
BRANCH  39  40
ATOM     40  C   UNL A   1      45.045  25.051  26.391  1.00  0.00     0.031 A 
ATOM     41  C   UNL A   1      46.398  25.682  26.304  1.00  0.00     0.074 A 
ATOM     42  C   UNL A   1      44.012  25.733  26.919  1.00  0.00     0.049 A 
ATOM     43  N   UNL A   1      46.748  26.912  26.584  1.00  0.00    -0.248 NA
ATOM     44  C   UNL A   1      47.503  24.826  25.851  1.00  0.00     0.031 C 
ATOM     45  C   UNL A   1      42.658  25.201  27.087  1.00  0.00     0.029 A 
ATOM     46  N   UNL A   1      43.932  27.013  27.402  1.00  0.00    -0.354 N 
ATOM     47  C   UNL A   1      48.105  26.992  26.312  1.00  0.00     0.074 A 
ATOM     48  C   UNL A   1      48.528  25.669  25.895  1.00  0.00     0.031 C 
ATOM     49  C   UNL A   1      41.876  26.156  27.613  1.00  0.00     0.029 A 
ATOM     50  C   UNL A   1      42.674  27.359  27.828  1.00  0.00     0.049 A 
ATOM     51  H   UNL A   1      44.703  27.625  27.439  1.00  0.00     0.167 HD
ATOM     52  C   UNL A   1      48.912  28.078  26.385  1.00  0.00     0.037 A 
ATOM     53  C   UNL A   1      42.212  28.522  28.324  1.00  0.00     0.037 A 
ATOM     54  C   UNL A   1      48.485  29.385  26.819  1.00  0.00     0.049 A 
ATOM     55  C   UNL A   1      43.141  29.697  28.435  1.00  0.00     0.074 A 
ATOM     56  C   UNL A   1      49.221  30.557  26.879  1.00  0.00     0.029 A 
ATOM     57  N   UNL A   1      47.214  29.690  27.286  1.00  0.00    -0.354 N 
ATOM     58  N   UNL A   1      44.401  29.788  28.088  1.00  0.00    -0.248 NA
ATOM     59  C   UNL A   1      42.580  30.933  28.997  1.00  0.00     0.031 C 
ATOM     60  C   UNL A   1      48.411  31.557  27.426  1.00  0.00     0.029 A 
ATOM     61  C   UNL A   1      47.155  31.023  27.664  1.00  0.00     0.049 A 
ATOM     62  H   UNL A   1      46.464  29.054  27.340  1.00  0.00     0.167 HD
ATOM     63  C   UNL A   1      44.780  31.092  28.371  1.00  0.00     0.074 A 
ATOM     64  C   UNL A   1      43.611  31.762  28.904  1.00  0.00     0.031 C 
ATOM     65  C   UNL A   1      45.989  31.679  28.202  1.00  0.00     0.037 A 
BRANCH  52  66
ATOM     66  C   UNL A   1      50.343  27.918  25.963  1.00  0.00     0.064 A 
ATOM     67  C   UNL A   1      51.359  27.733  26.911  1.00  0.00     0.173 A 
ATOM     68  C   UNL A   1      50.688  27.850  24.605  1.00  0.00     0.173 A 
ATOM     69  F   UNL A   1      51.080  27.792  28.222  1.00  0.00    -0.203 F 
ATOM     70  C   UNL A   1      52.673  27.492  26.515  1.00  0.00     0.198 A 
ATOM     71  C   UNL A   1      51.998  27.586  24.212  1.00  0.00     0.198 A 
ATOM     72  F   UNL A   1      49.750  28.009  23.660  1.00  0.00    -0.203 F 
ATOM     73  F   UNL A   1      53.632  27.335  27.438  1.00  0.00    -0.200 F 
ATOM     74  C   UNL A   1      52.988  27.408  25.167  1.00  0.00     0.200 A 
ATOM     75  F   UNL A   1      52.300  27.490  22.911  1.00  0.00    -0.200 F 
ATOM     76  F   UNL A   1      54.249  27.156  24.788  1.00  0.00    -0.200 F 
ENDBRANCH  52  66
BRANCH  53  77
ATOM     77  C   UNL A   1      40.781  28.635  28.696  1.00  0.00     0.064 A 
ATOM     78  C   UNL A   1      40.354  28.336  29.996  1.00  0.00     0.173 A 
ATOM     79  C   UNL A   1      39.820  29.079  27.775  1.00  0.00     0.173 A 
ATOM     80  F   UNL A   1      41.236  27.893  30.905  1.00  0.00    -0.203 F 
ATOM     81  C   UNL A   1      39.017  28.472  30.361  1.00  0.00     0.198 A 
ATOM     82  C   UNL A   1      38.488  29.235  28.148  1.00  0.00     0.198 A 
ATOM     83  F   UNL A   1      40.184  29.383  26.521  1.00  0.00    -0.203 F 
ATOM     84  F   UNL A   1      38.629  28.154  31.604  1.00  0.00    -0.200 F 
ATOM     85  C   UNL A   1      38.086  28.928  29.439  1.00  0.00     0.200 A 
ATOM     86  F   UNL A   1      37.595  29.691  27.260  1.00  0.00    -0.200 F 
ATOM     87  F   UNL A   1      36.803  29.070  29.795  1.00  0.00    -0.200 F 
ENDBRANCH  53  77
BRANCH  65  88
ATOM     88  C   UNL A   1      46.118  33.121  28.594  1.00  0.00     0.064 A 
ATOM     89  C   UNL A   1      46.521  33.494  29.885  1.00  0.00     0.173 A 
ATOM     90  C   UNL A   1      45.891  34.141  27.657  1.00  0.00     0.173 A 
ATOM     91  F   UNL A   1      46.734  32.558  30.822  1.00  0.00    -0.203 F 
ATOM     92  C   UNL A   1      46.678  34.835  30.227  1.00  0.00     0.198 A 
ATOM     93  C   UNL A   1      46.075  35.478  27.994  1.00  0.00     0.198 A 
ATOM     94  F   UNL A   1      45.508  33.836  26.407  1.00  0.00    -0.203 F 
ATOM     95  F   UNL A   1      47.029  35.169  31.476  1.00  0.00    -0.200 F 
ATOM     96  C   UNL A   1      46.464  35.825  29.280  1.00  0.00     0.200 A 
ATOM     97  F   UNL A   1      45.879  36.433  27.074  1.00  0.00    -0.200 F 
ATOM     98  F   UNL A   1      46.628  37.113  29.607  1.00  0.00    -0.200 F 
ENDBRANCH  65  88
ENDBRANCH  39  40
ENDBRANCH  32  34
ENDBRANCH  31  32
ENDBRANCH  30  31
ENDBRANCH  29  30
ENDBRANCH  28  29
ENDBRANCH   1  28
TORSDOF 19
ENDMDL
