MODEL 1
REMARK VINA RESULT:     -10.0      0.000      0.000
REMARK SMILES O=C(CCC(=O)OCCOCCOCCOC(=O)c1ccc(-c2c3nc(c(-c4c(F)c(F)c(F)c(F)c4F)c4ccc([nH]4)c(-c4c(F)c(F)c(F)c(F)c4F)c4nc(c(-c5c(F)c(F)c(F)c(F)c5F)c5ccc2[nH]5)C=C4)C=C3)cc1)/[NH+]=C1\S[C@H]2CS(=O)(=O)C[C@@H]2N1c1ccc(Oc2ccccc2)cc1
REMARK SMILES IDX 10 1 9 2 8 3 7 4 5 5 6 6 4 7 3 8 2 9 1 10 82 11 83 12 84 14
REMARK SMILES IDX 92 15 85 16 91 17 86 18 90 19 87 20 88 21 89 22 93 23 94 24
REMARK SMILES IDX 105 25 95 26 104 27 96 28 97 29 98 30 99 31 103 32 100 33
REMARK SMILES IDX 102 34 101 35 11 36 12 37 13 38 14 39 15 40 16 41 17 42
REMARK SMILES IDX 18 43 19 44 20 45 81 46 21 47 80 48 22 49 23 50 24 51 74 52
REMARK SMILES IDX 25 53 79 54 73 55 75 56 26 57 78 58 72 59 71 60 27 62 59 63
REMARK SMILES IDX 39 64 58 65 40 66 43 67 57 68 76 69 41 70 42 71 56 73 77 74
REMARK SMILES IDX 44 75 28 76 29 77 37 78 30 79 31 80 35 81 38 82 32 83 33 84
REMARK SMILES IDX 36 85 34 86 60 87 61 88 69 89 62 90 63 91 67 92 70 93 64 94
REMARK SMILES IDX 65 95 68 96 66 97 45 98 46 99 54 100 47 101 48 102 52 103
REMARK SMILES IDX 55 104 49 105 50 106 53 107 51 108
REMARK H PARENT 82 13 75 61 43 72
REMARK Flexibility Score: inf
ROOT
ATOM      1  O   UNL A   1      37.271  22.369  25.451  1.00  0.00    -0.376 OA
ENDROOT
BRANCH   1   2
ATOM      2  C   UNL A   1      36.450  23.561  25.519  1.00  0.00     0.202 C 
BRANCH   2   3
ATOM      3  C   UNL A   1      35.045  23.734  24.826  1.00  0.00     0.261 C 
BRANCH   3   4
ATOM      4  O   UNL A   1      34.249  22.572  24.563  1.00  0.00    -0.463 OA
BRANCH   4   5
ATOM      5  C   UNL A   1      33.042  22.750  24.004  1.00  0.00     0.306 C 
ATOM      6  O   UNL A   1      32.848  23.412  22.994  1.00  0.00    -0.252 OA
BRANCH   5   7
ATOM      7  C   UNL A   1      31.966  21.996  24.762  1.00  0.00     0.135 C 
BRANCH   7   8
ATOM      8  C   UNL A   1      31.026  22.837  25.661  1.00  0.00     0.139 C 
BRANCH   8   9
ATOM      9  C   UNL A   1      31.725  23.768  26.670  1.00  0.00     0.308 C 
ATOM     10  O   UNL A   1      32.038  23.233  27.740  1.00  0.00    -0.247 OA
ATOM     11  N   UNL A   1      32.138  25.088  26.437  1.00  0.00    -0.204 N 
ATOM     12  C   UNL A   1      31.535  26.012  25.773  1.00  0.00     0.319 C 
ATOM     13  H   UNL A   1      33.003  25.341  26.832  1.00  0.00     0.316 HD
ATOM     14  S   UNL A   1      30.181  25.724  24.794  1.00  0.00    -0.029 SA
ATOM     15  N   UNL A   1      31.731  27.385  25.636  1.00  0.00    -0.217 N 
ATOM     16  C   UNL A   1      30.265  27.180  23.814  1.00  0.00     0.120 C 
ATOM     17  C   UNL A   1      30.674  28.135  24.903  1.00  0.00     0.212 C 
ATOM     18  C   UNL A   1      29.109  27.783  23.061  1.00  0.00     0.156 C 
ATOM     19  C   UNL A   1      31.016  29.378  24.095  1.00  0.00     0.188 C 
ATOM     20  S   UNL A   1      29.654  29.472  22.906  1.00  0.00     0.155 S 
ATOM     21  O   UNL A   1      30.204  29.652  21.580  1.00  0.00    -0.229 OA
ATOM     22  O   UNL A   1      28.615  30.321  23.445  1.00  0.00    -0.229 OA
BRANCH  15  23
ATOM     23  C   UNL A   1      32.665  28.124  26.332  1.00  0.00     0.128 A 
ATOM     24  C   UNL A   1      32.255  29.159  27.182  1.00  0.00     0.056 A 
ATOM     25  C   UNL A   1      34.017  27.917  26.084  1.00  0.00     0.056 A 
ATOM     26  C   UNL A   1      33.172  30.075  27.657  1.00  0.00     0.051 A 
ATOM     27  C   UNL A   1      34.940  28.826  26.569  1.00  0.00     0.051 A 
ATOM     28  C   UNL A   1      34.509  29.939  27.303  1.00  0.00     0.127 A 
BRANCH  28  29
ATOM     29  O   UNL A   1      35.322  30.972  27.714  1.00  0.00    -0.457 OA
BRANCH  29  30
ATOM     30  C   UNL A   1      35.515  31.077  29.065  1.00  0.00     0.127 A 
ATOM     31  C   UNL A   1      36.234  30.061  29.687  1.00  0.00     0.047 A 
ATOM     32  C   UNL A   1      35.061  32.191  29.774  1.00  0.00     0.047 A 
ATOM     33  C   UNL A   1      36.551  30.186  31.034  1.00  0.00     0.004 A 
ATOM     34  C   UNL A   1      35.389  32.316  31.120  1.00  0.00     0.004 A 
ATOM     35  C   UNL A   1      36.137  31.315  31.746  1.00  0.00     0.000 A 
ENDBRANCH  29  30
ENDBRANCH  28  29
ENDBRANCH  15  23
ENDBRANCH   8   9
ENDBRANCH   7   8
ENDBRANCH   5   7
ENDBRANCH   4   5
ENDBRANCH   3   4
ENDBRANCH   2   3
ENDBRANCH   1   2
BRANCH   1  36
ATOM     36  C   UNL A   1      38.593  22.307  26.034  1.00  0.00     0.188 C 
BRANCH  36  37
ATOM     37  C   UNL A   1      39.041  23.691  26.734  1.00  0.00     0.188 C 
BRANCH  37  38
ATOM     38  O   UNL A   1      40.099  23.645  27.715  1.00  0.00    -0.376 OA
BRANCH  38  39
ATOM     39  C   UNL A   1      41.528  23.579  27.484  1.00  0.00     0.202 C 
BRANCH  39  40
ATOM     40  C   UNL A   1      42.331  24.201  26.314  1.00  0.00     0.261 C 
BRANCH  40  41
ATOM     41  O   UNL A   1      42.830  25.483  26.600  1.00  0.00    -0.460 OA
BRANCH  41  42
ATOM     42  C   UNL A   1      41.989  26.450  26.170  1.00  0.00     0.338 C 
ATOM     43  O   UNL A   1      41.093  26.362  25.362  1.00  0.00    -0.246 OA
BRANCH  42  44
ATOM     44  C   UNL A   1      42.137  27.498  27.176  1.00  0.00     0.060 A 
ATOM     45  C   UNL A   1      41.585  28.738  26.848  1.00  0.00     0.016 A 
ATOM     46  C   UNL A   1      42.624  27.209  28.457  1.00  0.00     0.016 A 
ATOM     47  C   UNL A   1      41.534  29.721  27.816  1.00  0.00     0.010 A 
ATOM     48  C   UNL A   1      42.611  28.209  29.418  1.00  0.00     0.010 A 
ATOM     49  C   UNL A   1      42.105  29.471  29.071  1.00  0.00    -0.014 A 
BRANCH  49  50
ATOM     50  C   UNL A   1      42.495  30.653  29.844  1.00  0.00     0.031 A 
ATOM     51  C   UNL A   1      43.741  31.349  29.386  1.00  0.00     0.074 A 
ATOM     52  C   UNL A   1      41.702  31.138  30.806  1.00  0.00     0.049 A 
ATOM     53  N   UNL A   1      44.247  32.488  29.769  1.00  0.00    -0.248 NA
ATOM     54  C   UNL A   1      44.514  30.674  28.324  1.00  0.00     0.031 C 
ATOM     55  C   UNL A   1      40.445  30.543  31.256  1.00  0.00     0.029 A 
ATOM     56  N   UNL A   1      41.835  32.271  31.557  1.00  0.00    -0.354 N 
ATOM     57  C   UNL A   1      45.381  32.666  28.990  1.00  0.00     0.074 A 
ATOM     58  C   UNL A   1      45.515  31.513  28.136  1.00  0.00     0.031 C 
ATOM     59  C   UNL A   1      39.911  31.330  32.205  1.00  0.00     0.029 A 
ATOM     60  C   UNL A   1      40.801  32.466  32.435  1.00  0.00     0.049 A 
ATOM     61  H   UNL A   1      42.598  32.887  31.476  1.00  0.00     0.167 HD
ATOM     62  C   UNL A   1      46.232  33.714  28.989  1.00  0.00     0.037 A 
ATOM     63  C   UNL A   1      40.617  33.464  33.318  1.00  0.00     0.037 A 
ATOM     64  C   UNL A   1      46.091  34.836  29.872  1.00  0.00     0.049 A 
ATOM     65  C   UNL A   1      41.635  34.576  33.358  1.00  0.00     0.074 A 
ATOM     66  C   UNL A   1      46.893  35.954  29.986  1.00  0.00     0.029 A 
ATOM     67  N   UNL A   1      45.078  34.964  30.815  1.00  0.00    -0.354 N 
ATOM     68  N   UNL A   1      42.697  34.761  32.610  1.00  0.00    -0.248 NA
ATOM     69  C   UNL A   1      41.417  35.624  34.362  1.00  0.00     0.031 C 
ATOM     70  C   UNL A   1      46.402  36.727  31.044  1.00  0.00     0.029 A 
ATOM     71  C   UNL A   1      45.253  36.129  31.540  1.00  0.00     0.049 A 
ATOM     72  H   UNL A   1      44.344  34.322  30.947  1.00  0.00     0.167 HD
ATOM     73  C   UNL A   1      43.259  35.959  33.029  1.00  0.00     0.074 A 
ATOM     74  C   UNL A   1      42.401  36.466  34.084  1.00  0.00     0.031 C 
ATOM     75  C   UNL A   1      44.377  36.592  32.588  1.00  0.00     0.037 A 
BRANCH  62  76
ATOM     76  C   UNL A   1      47.408  33.637  28.062  1.00  0.00     0.064 A 
ATOM     77  C   UNL A   1      47.433  34.309  26.829  1.00  0.00     0.173 A 
ATOM     78  C   UNL A   1      48.516  32.845  28.399  1.00  0.00     0.173 A 
ATOM     79  F   UNL A   1      46.385  35.050  26.441  1.00  0.00    -0.203 F 
ATOM     80  C   UNL A   1      48.511  34.166  25.958  1.00  0.00     0.198 A 
ATOM     81  C   UNL A   1      49.605  32.732  27.540  1.00  0.00     0.198 A 
ATOM     82  F   UNL A   1      48.534  32.167  29.557  1.00  0.00    -0.203 F 
ATOM     83  F   UNL A   1      48.485  34.762  24.757  1.00  0.00    -0.200 F 
ATOM     84  C   UNL A   1      49.599  33.384  26.317  1.00  0.00     0.200 A 
ATOM     85  F   UNL A   1      50.655  31.977  27.892  1.00  0.00    -0.200 F 
ATOM     86  F   UNL A   1      50.634  33.246  25.478  1.00  0.00    -0.200 F 
ENDBRANCH  62  76
BRANCH  63  87
ATOM     87  C   UNL A   1      39.431  33.462  34.213  1.00  0.00     0.064 A 
ATOM     88  C   UNL A   1      38.219  34.039  33.814  1.00  0.00     0.173 A 
ATOM     89  C   UNL A   1      39.492  32.894  35.494  1.00  0.00     0.173 A 
ATOM     90  F   UNL A   1      38.115  34.613  32.606  1.00  0.00    -0.203 F 
ATOM     91  C   UNL A   1      37.119  34.069  34.670  1.00  0.00     0.198 A 
ATOM     92  C   UNL A   1      38.383  32.897  36.338  1.00  0.00     0.198 A 
ATOM     93  F   UNL A   1      40.628  32.327  35.926  1.00  0.00    -0.203 F 
ATOM     94  F   UNL A   1      35.987  34.672  34.281  1.00  0.00    -0.200 F 
ATOM     95  C   UNL A   1      37.200  33.494  35.929  1.00  0.00     0.200 A 
ATOM     96  F   UNL A   1      38.463  32.327  37.548  1.00  0.00    -0.200 F 
ATOM     97  F   UNL A   1      36.142  33.521  36.751  1.00  0.00    -0.200 F 
ENDBRANCH  63  87
BRANCH  75  98
ATOM     98  C   UNL A   1      44.703  37.912  33.229  1.00  0.00     0.064 A 
ATOM     99  C   UNL A   1      44.205  39.122  32.725  1.00  0.00     0.173 A 
ATOM    100  C   UNL A   1      45.523  37.960  34.367  1.00  0.00     0.173 A 
ATOM    101  F   UNL A   1      43.424  39.130  31.634  1.00  0.00    -0.203 F 
ATOM    102  C   UNL A   1      44.561  40.337  33.304  1.00  0.00     0.198 A 
ATOM    103  C   UNL A   1      45.841  39.173  34.969  1.00  0.00     0.198 A 
ATOM    104  F   UNL A   1      46.012  36.830  34.899  1.00  0.00    -0.203 F 
ATOM    105  F   UNL A   1      44.139  41.485  32.758  1.00  0.00    -0.200 F 
ATOM    106  C   UNL A   1      45.374  40.361  34.428  1.00  0.00     0.200 A 
ATOM    107  F   UNL A   1      46.608  39.192  36.068  1.00  0.00    -0.200 F 
ATOM    108  F   UNL A   1      45.718  41.531  34.981  1.00  0.00    -0.200 F 
ENDBRANCH  75  98
ENDBRANCH  49  50
ENDBRANCH  42  44
ENDBRANCH  41  42
ENDBRANCH  40  41
ENDBRANCH  39  40
ENDBRANCH  38  39
ENDBRANCH  37  38
ENDBRANCH  36  37
ENDBRANCH   1  36
TORSDOF 22
ENDMDL
MODEL 2
REMARK VINA RESULT:     -10.0      7.289     13.681
REMARK SMILES O=C(CCC(=O)OCCOCCOCCOC(=O)c1ccc(-c2c3nc(c(-c4c(F)c(F)c(F)c(F)c4F)c4ccc([nH]4)c(-c4c(F)c(F)c(F)c(F)c4F)c4nc(c(-c5c(F)c(F)c(F)c(F)c5F)c5ccc2[nH]5)C=C4)C=C3)cc1)/[NH+]=C1\S[C@H]2CS(=O)(=O)C[C@@H]2N1c1ccc(Oc2ccccc2)cc1
REMARK SMILES IDX 10 1 9 2 8 3 7 4 5 5 6 6 4 7 3 8 2 9 1 10 82 11 83 12 84 14
REMARK SMILES IDX 92 15 85 16 91 17 86 18 90 19 87 20 88 21 89 22 93 23 94 24
REMARK SMILES IDX 105 25 95 26 104 27 96 28 97 29 98 30 99 31 103 32 100 33
REMARK SMILES IDX 102 34 101 35 11 36 12 37 13 38 14 39 15 40 16 41 17 42
REMARK SMILES IDX 18 43 19 44 20 45 81 46 21 47 80 48 22 49 23 50 24 51 74 52
REMARK SMILES IDX 25 53 79 54 73 55 75 56 26 57 78 58 72 59 71 60 27 62 59 63
REMARK SMILES IDX 39 64 58 65 40 66 43 67 57 68 76 69 41 70 42 71 56 73 77 74
REMARK SMILES IDX 44 75 28 76 29 77 37 78 30 79 31 80 35 81 38 82 32 83 33 84
REMARK SMILES IDX 36 85 34 86 60 87 61 88 69 89 62 90 63 91 67 92 70 93 64 94
REMARK SMILES IDX 65 95 68 96 66 97 45 98 46 99 54 100 47 101 48 102 52 103
REMARK SMILES IDX 55 104 49 105 50 106 53 107 51 108
REMARK H PARENT 82 13 75 61 43 72
REMARK Flexibility Score: inf
ROOT
ATOM      1  O   UNL A   1      38.786  31.613  34.412  1.00  0.00    -0.376 OA
ENDROOT
BRANCH   1   2
ATOM      2  C   UNL A   1      39.379  31.033  33.225  1.00  0.00     0.202 C 
BRANCH   2   3
ATOM      3  C   UNL A   1      40.504  29.928  33.222  1.00  0.00     0.261 C 
BRANCH   3   4
ATOM      4  O   UNL A   1      40.256  28.677  33.876  1.00  0.00    -0.463 OA
BRANCH   4   5
ATOM      5  C   UNL A   1      41.311  27.905  34.176  1.00  0.00     0.306 C 
ATOM      6  O   UNL A   1      41.405  27.245  35.202  1.00  0.00    -0.252 OA
BRANCH   5   7
ATOM      7  C   UNL A   1      42.344  27.927  33.067  1.00  0.00     0.135 C 
BRANCH   7   8
ATOM      8  C   UNL A   1      43.796  27.552  33.456  1.00  0.00     0.139 C 
BRANCH   8   9
ATOM      9  C   UNL A   1      44.306  26.204  32.911  1.00  0.00     0.308 C 
ATOM     10  O   UNL A   1      43.937  25.936  31.761  1.00  0.00    -0.247 OA
ATOM     11  N   UNL A   1      45.225  25.348  33.535  1.00  0.00    -0.204 N 
ATOM     12  C   UNL A   1      45.326  25.052  34.784  1.00  0.00     0.319 C 
ATOM     13  H   UNL A   1      45.879  24.917  32.939  1.00  0.00     0.316 HD
ATOM     14  S   UNL A   1      44.487  25.875  36.008  1.00  0.00    -0.029 SA
ATOM     15  N   UNL A   1      46.042  24.089  35.492  1.00  0.00    -0.217 N 
ATOM     16  C   UNL A   1      45.485  25.385  37.368  1.00  0.00     0.120 C 
ATOM     17  C   UNL A   1      45.728  23.962  36.942  1.00  0.00     0.212 C 
ATOM     18  C   UNL A   1      45.042  25.383  38.807  1.00  0.00     0.156 C 
ATOM     19  C   UNL A   1      46.794  23.532  37.938  1.00  0.00     0.188 C 
ATOM     20  S   UNL A   1      46.174  24.195  39.503  1.00  0.00     0.155 S 
ATOM     21  O   UNL A   1      47.242  24.917  40.161  1.00  0.00    -0.229 OA
ATOM     22  O   UNL A   1      45.390  23.178  40.169  1.00  0.00    -0.229 OA
BRANCH  15  23
ATOM     23  C   UNL A   1      46.808  23.094  34.920  1.00  0.00     0.128 A 
ATOM     24  C   UNL A   1      46.248  21.837  34.657  1.00  0.00     0.056 A 
ATOM     25  C   UNL A   1      48.167  23.308  34.728  1.00  0.00     0.056 A 
ATOM     26  C   UNL A   1      47.060  20.763  34.354  1.00  0.00     0.051 A 
ATOM     27  C   UNL A   1      48.982  22.237  34.411  1.00  0.00     0.051 A 
ATOM     28  C   UNL A   1      48.435  20.952  34.286  1.00  0.00     0.127 A 
BRANCH  28  29
ATOM     29  O   UNL A   1      49.168  19.800  34.110  1.00  0.00    -0.457 OA
BRANCH  29  30
ATOM     30  C   UNL A   1      50.478  19.862  34.502  1.00  0.00     0.127 A 
ATOM     31  C   UNL A   1      50.778  19.447  35.795  1.00  0.00     0.047 A 
ATOM     32  C   UNL A   1      51.478  20.266  33.614  1.00  0.00     0.047 A 
ATOM     33  C   UNL A   1      52.106  19.386  36.194  1.00  0.00     0.004 A 
ATOM     34  C   UNL A   1      52.808  20.194  34.015  1.00  0.00     0.004 A 
ATOM     35  C   UNL A   1      53.120  19.750  35.302  1.00  0.00     0.000 A 
ENDBRANCH  29  30
ENDBRANCH  28  29
ENDBRANCH  15  23
ENDBRANCH   8   9
ENDBRANCH   7   8
ENDBRANCH   5   7
ENDBRANCH   4   5
ENDBRANCH   3   4
ENDBRANCH   2   3
ENDBRANCH   1   2
BRANCH   1  36
ATOM     36  C   UNL A   1      37.393  31.995  34.472  1.00  0.00     0.188 C 
BRANCH  36  37
ATOM     37  C   UNL A   1      36.609  31.746  33.083  1.00  0.00     0.188 C 
BRANCH  37  38
ATOM     38  O   UNL A   1      35.314  32.361  32.913  1.00  0.00    -0.376 OA
BRANCH  38  39
ATOM     39  C   UNL A   1      34.747  32.930  31.707  1.00  0.00     0.202 C 
BRANCH  39  40
ATOM     40  C   UNL A   1      34.864  32.393  30.257  1.00  0.00     0.261 C 
BRANCH  40  41
ATOM     41  O   UNL A   1      35.564  31.179  30.169  1.00  0.00    -0.460 OA
BRANCH  41  42
ATOM     42  C   UNL A   1      35.547  30.686  28.910  1.00  0.00     0.338 C 
ATOM     43  O   UNL A   1      34.775  30.941  28.013  1.00  0.00    -0.246 OA
BRANCH  42  44
ATOM     44  C   UNL A   1      36.877  30.105  28.757  1.00  0.00     0.060 A 
ATOM     45  C   UNL A   1      37.323  29.317  29.820  1.00  0.00     0.016 A 
ATOM     46  C   UNL A   1      37.565  30.178  27.538  1.00  0.00     0.016 A 
ATOM     47  C   UNL A   1      38.492  28.599  29.672  1.00  0.00     0.010 A 
ATOM     48  C   UNL A   1      38.760  29.489  27.403  1.00  0.00     0.010 A 
ATOM     49  C   UNL A   1      39.234  28.741  28.492  1.00  0.00    -0.014 A 
BRANCH  49  50
ATOM     50  C   UNL A   1      40.657  28.408  28.586  1.00  0.00     0.031 A 
ATOM     51  C   UNL A   1      41.512  29.399  29.317  1.00  0.00     0.074 A 
ATOM     52  C   UNL A   1      41.118  27.226  28.158  1.00  0.00     0.049 A 
ATOM     53  N   UNL A   1      42.758  29.309  29.688  1.00  0.00    -0.248 NA
ATOM     54  C   UNL A   1      40.856  30.662  29.708  1.00  0.00     0.031 C 
ATOM     55  C   UNL A   1      40.324  26.192  27.496  1.00  0.00     0.029 A 
ATOM     56  N   UNL A   1      42.371  26.692  28.251  1.00  0.00    -0.354 N 
ATOM     57  C   UNL A   1      43.026  30.493  30.360  1.00  0.00     0.074 A 
ATOM     58  C   UNL A   1      41.833  31.301  30.324  1.00  0.00     0.031 C 
ATOM     59  C   UNL A   1      41.116  25.134  27.251  1.00  0.00     0.029 A 
ATOM     60  C   UNL A   1      42.466  25.431  27.724  1.00  0.00     0.049 A 
ATOM     61  H   UNL A   1      43.132  27.166  28.658  1.00  0.00     0.167 HD
ATOM     62  C   UNL A   1      44.176  30.864  30.964  1.00  0.00     0.037 A 
ATOM     63  C   UNL A   1      43.540  24.625  27.644  1.00  0.00     0.037 A 
ATOM     64  C   UNL A   1      45.358  30.050  30.958  1.00  0.00     0.049 A 
ATOM     65  C   UNL A   1      44.836  25.106  28.246  1.00  0.00     0.074 A 
ATOM     66  C   UNL A   1      46.593  30.316  31.516  1.00  0.00     0.029 A 
ATOM     67  N   UNL A   1      45.450  28.811  30.338  1.00  0.00    -0.354 N 
ATOM     68  N   UNL A   1      45.091  26.214  28.903  1.00  0.00    -0.248 NA
ATOM     69  C   UNL A   1      45.992  24.213  28.104  1.00  0.00     0.031 C 
ATOM     70  C   UNL A   1      47.452  29.265  31.175  1.00  0.00     0.029 A 
ATOM     71  C   UNL A   1      46.732  28.311  30.469  1.00  0.00     0.049 A 
ATOM     72  H   UNL A   1      44.711  28.354  29.874  1.00  0.00     0.167 HD
ATOM     73  C   UNL A   1      46.425  26.140  29.279  1.00  0.00     0.074 A 
ATOM     74  C   UNL A   1      46.917  24.865  28.794  1.00  0.00     0.031 C 
ATOM     75  C   UNL A   1      47.182  27.037  29.964  1.00  0.00     0.037 A 
BRANCH  62  76
ATOM     76  C   UNL A   1      44.207  32.223  31.596  1.00  0.00     0.064 A 
ATOM     77  C   UNL A   1      43.863  32.429  32.942  1.00  0.00     0.173 A 
ATOM     78  C   UNL A   1      44.553  33.345  30.828  1.00  0.00     0.173 A 
ATOM     79  F   UNL A   1      43.488  31.396  33.711  1.00  0.00    -0.203 F 
ATOM     80  C   UNL A   1      43.836  33.712  33.485  1.00  0.00     0.198 A 
ATOM     81  C   UNL A   1      44.558  34.620  31.384  1.00  0.00     0.198 A 
ATOM     82  F   UNL A   1      44.873  33.205  29.533  1.00  0.00    -0.203 F 
ATOM     83  F   UNL A   1      43.439  33.894  34.752  1.00  0.00    -0.200 F 
ATOM     84  C   UNL A   1      44.191  34.805  32.709  1.00  0.00     0.200 A 
ATOM     85  F   UNL A   1      44.903  35.674  30.632  1.00  0.00    -0.200 F 
ATOM     86  F   UNL A   1      44.164  36.038  33.231  1.00  0.00    -0.200 F 
ENDBRANCH  62  76
BRANCH  63  87
ATOM     87  C   UNL A   1      43.431  23.297  26.990  1.00  0.00     0.064 A 
ATOM     88  C   UNL A   1      43.981  23.064  25.723  1.00  0.00     0.173 A 
ATOM     89  C   UNL A   1      42.761  22.234  27.614  1.00  0.00     0.173 A 
ATOM     90  F   UNL A   1      44.616  24.053  25.076  1.00  0.00    -0.203 F 
ATOM     91  C   UNL A   1      43.846  21.826  25.094  1.00  0.00     0.198 A 
ATOM     92  C   UNL A   1      42.653  20.989  26.999  1.00  0.00     0.198 A 
ATOM     93  F   UNL A   1      42.216  22.403  28.828  1.00  0.00    -0.203 F 
ATOM     94  F   UNL A   1      44.339  21.647  23.861  1.00  0.00    -0.200 F 
ATOM     95  C   UNL A   1      43.186  20.789  25.735  1.00  0.00     0.200 A 
ATOM     96  F   UNL A   1      42.026  19.985  27.628  1.00  0.00    -0.200 F 
ATOM     97  F   UNL A   1      43.058  19.599  25.132  1.00  0.00    -0.200 F 
ENDBRANCH  63  87
BRANCH  75  98
ATOM     98  C   UNL A   1      48.603  26.642  30.250  1.00  0.00     0.064 A 
ATOM     99  C   UNL A   1      49.663  27.034  29.419  1.00  0.00     0.173 A 
ATOM    100  C   UNL A   1      48.905  25.862  31.378  1.00  0.00     0.173 A 
ATOM    101  F   UNL A   1      49.425  27.773  28.324  1.00  0.00    -0.203 F 
ATOM    102  C   UNL A   1      50.965  26.613  29.676  1.00  0.00     0.198 A 
ATOM    103  C   UNL A   1      50.213  25.481  31.655  1.00  0.00     0.198 A 
ATOM    104  F   UNL A   1      47.930  25.474  32.214  1.00  0.00    -0.203 F 
ATOM    105  F   UNL A   1      51.948  26.933  28.825  1.00  0.00    -0.200 F 
ATOM    106  C   UNL A   1      51.239  25.842  30.795  1.00  0.00     0.200 A 
ATOM    107  F   UNL A   1      50.479  24.754  32.749  1.00  0.00    -0.200 F 
ATOM    108  F   UNL A   1      52.492  25.436  31.038  1.00  0.00    -0.200 F 
ENDBRANCH  75  98
ENDBRANCH  49  50
ENDBRANCH  42  44
ENDBRANCH  41  42
ENDBRANCH  40  41
ENDBRANCH  39  40
ENDBRANCH  38  39
ENDBRANCH  37  38
ENDBRANCH  36  37
ENDBRANCH   1  36
TORSDOF 22
ENDMDL
MODEL 3
REMARK VINA RESULT:      -9.9      4.530      6.752
REMARK SMILES O=C(CCC(=O)OCCOCCOCCOC(=O)c1ccc(-c2c3nc(c(-c4c(F)c(F)c(F)c(F)c4F)c4ccc([nH]4)c(-c4c(F)c(F)c(F)c(F)c4F)c4nc(c(-c5c(F)c(F)c(F)c(F)c5F)c5ccc2[nH]5)C=C4)C=C3)cc1)/[NH+]=C1\S[C@H]2CS(=O)(=O)C[C@@H]2N1c1ccc(Oc2ccccc2)cc1
REMARK SMILES IDX 10 1 9 2 8 3 7 4 5 5 6 6 4 7 3 8 2 9 1 10 82 11 83 12 84 14
REMARK SMILES IDX 92 15 85 16 91 17 86 18 90 19 87 20 88 21 89 22 93 23 94 24
REMARK SMILES IDX 105 25 95 26 104 27 96 28 97 29 98 30 99 31 103 32 100 33
REMARK SMILES IDX 102 34 101 35 11 36 12 37 13 38 14 39 15 40 16 41 17 42
REMARK SMILES IDX 18 43 19 44 20 45 81 46 21 47 80 48 22 49 23 50 24 51 74 52
REMARK SMILES IDX 25 53 79 54 73 55 75 56 26 57 78 58 72 59 71 60 27 62 59 63
REMARK SMILES IDX 39 64 58 65 40 66 43 67 57 68 76 69 41 70 42 71 56 73 77 74
REMARK SMILES IDX 44 75 28 76 29 77 37 78 30 79 31 80 35 81 38 82 32 83 33 84
REMARK SMILES IDX 36 85 34 86 60 87 61 88 69 89 62 90 63 91 67 92 70 93 64 94
REMARK SMILES IDX 65 95 68 96 66 97 45 98 46 99 54 100 47 101 48 102 52 103
REMARK SMILES IDX 55 104 49 105 50 106 53 107 51 108
REMARK H PARENT 82 13 75 61 43 72
REMARK Flexibility Score: inf
ROOT
ATOM      1  O   UNL A   1      37.096  20.913  24.865  1.00  0.00    -0.376 OA
ENDROOT
BRANCH   1   2
ATOM      2  C   UNL A   1      36.618  22.276  24.967  1.00  0.00     0.202 C 
BRANCH   2   3
ATOM      3  C   UNL A   1      35.165  22.757  24.587  1.00  0.00     0.261 C 
BRANCH   3   4
ATOM      4  O   UNL A   1      34.090  21.809  24.599  1.00  0.00    -0.463 OA
BRANCH   4   5
ATOM      5  C   UNL A   1      32.920  22.179  24.057  1.00  0.00     0.306 C 
ATOM      6  O   UNL A   1      32.819  22.810  23.014  1.00  0.00    -0.252 OA
BRANCH   5   7
ATOM      7  C   UNL A   1      31.749  21.681  24.882  1.00  0.00     0.135 C 
BRANCH   7   8
ATOM      8  C   UNL A   1      30.880  22.756  25.583  1.00  0.00     0.139 C 
BRANCH   8   9
ATOM      9  C   UNL A   1      31.616  23.645  26.604  1.00  0.00     0.308 C 
ATOM     10  O   UNL A   1      31.914  23.082  27.664  1.00  0.00    -0.247 OA
ATOM     11  N   UNL A   1      32.075  24.953  26.390  1.00  0.00    -0.204 N 
ATOM     12  C   UNL A   1      31.503  25.908  25.743  1.00  0.00     0.319 C 
ATOM     13  H   UNL A   1      32.950  25.168  26.785  1.00  0.00     0.316 HD
ATOM     14  S   UNL A   1      30.136  25.684  24.764  1.00  0.00    -0.029 SA
ATOM     15  N   UNL A   1      31.747  27.275  25.627  1.00  0.00    -0.217 N 
ATOM     16  C   UNL A   1      30.268  27.152  23.808  1.00  0.00     0.120 C 
ATOM     17  C   UNL A   1      30.715  28.074  24.910  1.00  0.00     0.212 C 
ATOM     18  C   UNL A   1      29.132  27.807  23.069  1.00  0.00     0.156 C 
ATOM     19  C   UNL A   1      31.098  29.317  24.120  1.00  0.00     0.188 C 
ATOM     20  S   UNL A   1      29.737  29.478  22.938  1.00  0.00     0.155 S 
ATOM     21  O   UNL A   1      30.287  29.659  21.613  1.00  0.00    -0.229 OA
ATOM     22  O   UNL A   1      28.731  30.355  23.495  1.00  0.00    -0.229 OA
BRANCH  15  23
ATOM     23  C   UNL A   1      32.710  27.970  26.330  1.00  0.00     0.128 A 
ATOM     24  C   UNL A   1      32.338  28.847  27.357  1.00  0.00     0.056 A 
ATOM     25  C   UNL A   1      34.037  27.888  25.927  1.00  0.00     0.056 A 
ATOM     26  C   UNL A   1      33.252  29.745  27.870  1.00  0.00     0.051 A 
ATOM     27  C   UNL A   1      34.958  28.779  26.449  1.00  0.00     0.051 A 
ATOM     28  C   UNL A   1      34.550  29.748  27.375  1.00  0.00     0.127 A 
BRANCH  28  29
ATOM     29  O   UNL A   1      35.347  30.764  27.852  1.00  0.00    -0.457 OA
BRANCH  29  30
ATOM     30  C   UNL A   1      36.401  30.376  28.634  1.00  0.00     0.127 A 
ATOM     31  C   UNL A   1      37.672  30.781  28.239  1.00  0.00     0.047 A 
ATOM     32  C   UNL A   1      36.196  29.657  29.815  1.00  0.00     0.047 A 
ATOM     33  C   UNL A   1      38.755  30.507  29.065  1.00  0.00     0.004 A 
ATOM     34  C   UNL A   1      37.283  29.394  30.642  1.00  0.00     0.004 A 
ATOM     35  C   UNL A   1      38.559  29.823  30.268  1.00  0.00     0.000 A 
ENDBRANCH  29  30
ENDBRANCH  28  29
ENDBRANCH  15  23
ENDBRANCH   8   9
ENDBRANCH   7   8
ENDBRANCH   5   7
ENDBRANCH   4   5
ENDBRANCH   3   4
ENDBRANCH   2   3
ENDBRANCH   1   2
BRANCH   1  36
ATOM     36  C   UNL A   1      38.405  20.516  25.334  1.00  0.00     0.188 C 
BRANCH  36  37
ATOM     37  C   UNL A   1      39.180  21.696  26.116  1.00  0.00     0.188 C 
BRANCH  37  38
ATOM     38  O   UNL A   1      40.077  21.327  27.186  1.00  0.00    -0.376 OA
BRANCH  38  39
ATOM     39  C   UNL A   1      41.245  20.471  27.118  1.00  0.00     0.202 C 
BRANCH  39  40
ATOM     40  C   UNL A   1      42.436  20.567  26.130  1.00  0.00     0.261 C 
BRANCH  40  41
ATOM     41  O   UNL A   1      43.402  21.511  26.514  1.00  0.00    -0.460 OA
BRANCH  41  42
ATOM     42  C   UNL A   1      43.300  22.649  25.792  1.00  0.00     0.338 C 
ATOM     43  O   UNL A   1      42.985  22.776  24.630  1.00  0.00    -0.246 OA
BRANCH  42  44
ATOM     44  C   UNL A   1      43.256  23.693  26.811  1.00  0.00     0.060 A 
ATOM     45  C   UNL A   1      44.410  24.469  26.937  1.00  0.00     0.016 A 
ATOM     46  C   UNL A   1      42.062  24.013  27.471  1.00  0.00     0.016 A 
ATOM     47  C   UNL A   1      44.379  25.580  27.755  1.00  0.00     0.010 A 
ATOM     48  C   UNL A   1      42.042  25.105  28.325  1.00  0.00     0.010 A 
ATOM     49  C   UNL A   1      43.219  25.852  28.491  1.00  0.00    -0.014 A 
BRANCH  49  50
ATOM     50  C   UNL A   1      43.398  26.675  29.690  1.00  0.00     0.031 A 
ATOM     51  C   UNL A   1      44.067  26.000  30.850  1.00  0.00     0.074 A 
ATOM     52  C   UNL A   1      43.101  27.980  29.680  1.00  0.00     0.049 A 
ATOM     53  N   UNL A   1      44.491  26.505  31.974  1.00  0.00    -0.248 NA
ATOM     54  C   UNL A   1      44.312  24.551  30.709  1.00  0.00     0.031 C 
ATOM     55  C   UNL A   1      42.507  28.710  28.562  1.00  0.00     0.029 A 
ATOM     56  N   UNL A   1      43.292  28.926  30.646  1.00  0.00    -0.354 N 
ATOM     57  C   UNL A   1      45.061  25.442  32.661  1.00  0.00     0.074 A 
ATOM     58  C   UNL A   1      44.904  24.259  31.852  1.00  0.00     0.031 C 
ATOM     59  C   UNL A   1      42.393  30.004  28.904  1.00  0.00     0.029 A 
ATOM     60  C   UNL A   1      42.888  30.179  30.268  1.00  0.00     0.049 A 
ATOM     61  H   UNL A   1      43.681  28.727  31.529  1.00  0.00     0.167 HD
ATOM     62  C   UNL A   1      45.671  25.462  33.865  1.00  0.00     0.037 A 
ATOM     63  C   UNL A   1      42.926  31.327  30.967  1.00  0.00     0.037 A 
ATOM     64  C   UNL A   1      45.787  26.650  34.662  1.00  0.00     0.049 A 
ATOM     65  C   UNL A   1      43.530  31.301  32.348  1.00  0.00     0.074 A 
ATOM     66  C   UNL A   1      46.364  26.803  35.906  1.00  0.00     0.029 A 
ATOM     67  N   UNL A   1      45.289  27.892  34.289  1.00  0.00    -0.354 N 
ATOM     68  N   UNL A   1      44.089  30.304  32.995  1.00  0.00    -0.248 NA
ATOM     69  C   UNL A   1      43.516  32.566  33.092  1.00  0.00     0.031 C 
ATOM     70  C   UNL A   1      46.156  28.125  36.315  1.00  0.00     0.029 A 
ATOM     71  C   UNL A   1      45.515  28.813  35.294  1.00  0.00     0.049 A 
ATOM     72  H   UNL A   1      44.841  28.088  33.434  1.00  0.00     0.167 HD
ATOM     73  C   UNL A   1      44.522  30.826  34.206  1.00  0.00     0.074 A 
ATOM     74  C   UNL A   1      44.178  32.235  34.191  1.00  0.00     0.031 C 
ATOM     75  C   UNL A   1      45.149  30.207  35.241  1.00  0.00     0.037 A 
BRANCH  62  76
ATOM     76  C   UNL A   1      46.174  24.154  34.397  1.00  0.00     0.064 A 
ATOM     77  C   UNL A   1      47.523  23.777  34.300  1.00  0.00     0.173 A 
ATOM     78  C   UNL A   1      45.280  23.245  34.983  1.00  0.00     0.173 A 
ATOM     79  F   UNL A   1      48.414  24.593  33.715  1.00  0.00    -0.203 F 
ATOM     80  C   UNL A   1      47.951  22.527  34.742  1.00  0.00     0.198 A 
ATOM     81  C   UNL A   1      45.718  22.011  35.453  1.00  0.00     0.198 A 
ATOM     82  F   UNL A   1      43.977  23.548  35.083  1.00  0.00    -0.203 F 
ATOM     83  F   UNL A   1      49.230  22.161  34.578  1.00  0.00    -0.200 F 
ATOM     84  C   UNL A   1      47.050  21.648  35.325  1.00  0.00     0.200 A 
ATOM     85  F   UNL A   1      44.846  21.166  36.019  1.00  0.00    -0.200 F 
ATOM     86  F   UNL A   1      47.462  20.446  35.750  1.00  0.00    -0.200 F 
ENDBRANCH  62  76
BRANCH  63  87
ATOM     87  C   UNL A   1      42.394  32.582  30.375  1.00  0.00     0.064 A 
ATOM     88  C   UNL A   1      41.077  32.995  30.610  1.00  0.00     0.173 A 
ATOM     89  C   UNL A   1      43.191  33.386  29.547  1.00  0.00     0.173 A 
ATOM     90  F   UNL A   1      40.268  32.251  31.379  1.00  0.00    -0.203 F 
ATOM     91  C   UNL A   1      40.569  34.153  30.024  1.00  0.00     0.198 A 
ATOM     92  C   UNL A   1      42.693  34.560  28.985  1.00  0.00     0.198 A 
ATOM     93  F   UNL A   1      44.460  33.037  29.289  1.00  0.00    -0.203 F 
ATOM     94  F   UNL A   1      39.290  34.498  30.226  1.00  0.00    -0.200 F 
ATOM     95  C   UNL A   1      41.378  34.937  29.216  1.00  0.00     0.200 A 
ATOM     96  F   UNL A   1      43.483  35.321  28.217  1.00  0.00    -0.200 F 
ATOM     97  F   UNL A   1      40.891  36.051  28.653  1.00  0.00    -0.200 F 
ENDBRANCH  63  87
BRANCH  75  98
ATOM     98  C   UNL A   1      45.525  31.067  36.414  1.00  0.00     0.064 A 
ATOM     99  C   UNL A   1      44.633  31.315  37.467  1.00  0.00     0.173 A 
ATOM    100  C   UNL A   1      46.802  31.646  36.483  1.00  0.00     0.173 A 
ATOM    101  F   UNL A   1      43.397  30.792  37.443  1.00  0.00    -0.203 F 
ATOM    102  C   UNL A   1      44.986  32.157  38.518  1.00  0.00     0.198 A 
ATOM    103  C   UNL A   1      47.166  32.450  37.558  1.00  0.00     0.198 A 
ATOM    104  F   UNL A   1      47.700  31.427  35.510  1.00  0.00    -0.203 F 
ATOM    105  F   UNL A   1      44.090  32.444  39.471  1.00  0.00    -0.200 F 
ATOM    106  C   UNL A   1      46.253  32.719  38.565  1.00  0.00     0.200 A 
ATOM    107  F   UNL A   1      48.399  32.975  37.612  1.00  0.00    -0.200 F 
ATOM    108  F   UNL A   1      46.589  33.531  39.576  1.00  0.00    -0.200 F 
ENDBRANCH  75  98
ENDBRANCH  49  50
ENDBRANCH  42  44
ENDBRANCH  41  42
ENDBRANCH  40  41
ENDBRANCH  39  40
ENDBRANCH  38  39
ENDBRANCH  37  38
ENDBRANCH  36  37
ENDBRANCH   1  36
TORSDOF 22
ENDMDL
