MODEL 1
REMARK VINA RESULT:     -10.5      0.000      0.000
REMARK SMILES Cc1cccc(Cl)c1Nc1ccccc1CC(=O)OCCOCCOCCOC(=O)c1ccc(-c2c3nc(c(-c4c(F)c(F)c(F)c(F)c4F)c4ccc([nH]4)c(-c4c(F)c(F)c(F)c(F)c4F)c4nc(c(-c5c(F)c(F)c(F)c(F)c5F)c5ccc2[nH]5)C=C4)C=C3)cc1
REMARK SMILES IDX 23 1 22 2 21 3 20 4 19 5 17 6 18 7 16 8 15 9 10 10 11 11
REMARK SMILES IDX 12 12 14 13 13 14 9 15 8 17 1 18 2 19 3 20 4 21 6 22 5 23
REMARK SMILES IDX 7 24 24 25 25 26 26 27 27 28 28 29 29 30 30 31 31 32 32 33
REMARK SMILES IDX 93 34 33 35 92 36 34 37 35 38 36 39 86 40 37 41 91 42 85 43
REMARK SMILES IDX 87 44 38 45 90 46 84 47 83 48 39 50 71 51 51 52 70 53 52 54
REMARK SMILES IDX 55 55 69 56 88 57 53 58 54 59 68 61 89 62 56 63 40 64 41 65
REMARK SMILES IDX 49 66 42 67 43 68 47 69 50 70 44 71 45 72 48 73 46 74 72 75
REMARK SMILES IDX 73 76 81 77 74 78 75 79 79 80 82 81 76 82 77 83 80 84 78 85
REMARK SMILES IDX 57 86 58 87 66 88 59 89 60 90 64 91 67 92 61 93 62 94 65 95
REMARK SMILES IDX 63 96
REMARK H PARENT 9 16 87 49 55 60
REMARK Flexibility Score: inf
ROOT
ATOM      1  C   UNL A   1      34.727  32.372  28.041  1.00  0.00     0.188 C 
ENDROOT
BRANCH   1   2
ATOM      2  O   UNL A   1      33.748  31.334  28.027  1.00  0.00    -0.376 OA
BRANCH   2   3
ATOM      3  C   UNL A   1      32.837  31.282  26.936  1.00  0.00     0.202 C 
BRANCH   3   4
ATOM      4  C   UNL A   1      31.860  30.103  26.967  1.00  0.00     0.261 C 
BRANCH   4   5
ATOM      5  O   UNL A   1      32.466  28.905  27.498  1.00  0.00    -0.463 OA
BRANCH   5   6
ATOM      6  C   UNL A   1      33.059  28.077  26.602  1.00  0.00     0.310 C 
ATOM      7  O   UNL A   1      34.271  28.039  26.408  1.00  0.00    -0.252 OA
BRANCH   6   8
ATOM      8  C   UNL A   1      32.128  27.037  26.016  1.00  0.00     0.160 C 
BRANCH   8   9
ATOM      9  C   UNL A   1      32.347  26.515  24.605  1.00  0.00    -0.013 A 
ATOM     10  C   UNL A   1      33.366  25.616  24.229  1.00  0.00     0.042 A 
ATOM     11  C   UNL A   1      33.509  25.263  22.870  1.00  0.00     0.026 A 
ATOM     12  C   UNL A   1      32.601  25.697  21.907  1.00  0.00     0.002 A 
ATOM     13  C   UNL A   1      31.410  26.887  23.622  1.00  0.00     0.006 A 
ATOM     14  C   UNL A   1      31.528  26.485  22.291  1.00  0.00     0.000 A 
BRANCH  10  15
ATOM     15  N   UNL A   1      34.133  24.881  25.152  1.00  0.00    -0.354 N 
ATOM     16  H   UNL A   1      34.656  25.423  25.787  1.00  0.00     0.167 HD
BRANCH  15  17
ATOM     17  C   UNL A   1      34.271  23.479  25.306  1.00  0.00     0.060 A 
ATOM     18  C   UNL A   1      32.411  23.586  27.040  1.00  0.00     0.046 C 
ATOM     19  C   UNL A   1      33.347  22.817  26.147  1.00  0.00    -0.026 A 
ATOM     20  C   UNL A   1      33.261  21.415  26.119  1.00  0.00     0.005 A 
ATOM     21  C   UNL A   1      34.100  20.660  25.303  1.00  0.00     0.002 A 
ATOM     22  C   UNL A   1      35.189  22.687  24.571  1.00  0.00     0.064 A 
ATOM     23  C   UNL A   1      35.081  21.294  24.552  1.00  0.00     0.023 A 
ATOM     24  Cl  UNL A   1      36.529  23.350  23.691  1.00  0.00    -0.082 Cl
ENDBRANCH  15  17
ENDBRANCH  10  15
ENDBRANCH   8   9
ENDBRANCH   6   8
ENDBRANCH   5   6
ENDBRANCH   4   5
ENDBRANCH   3   4
ENDBRANCH   2   3
ENDBRANCH   1   2
BRANCH   1  25
ATOM     25  C   UNL A   1      34.290  33.829  28.247  1.00  0.00     0.188 C 
BRANCH  25  26
ATOM     26  O   UNL A   1      33.365  33.950  29.318  1.00  0.00    -0.376 OA
BRANCH  26  27
ATOM     27  C   UNL A   1      33.869  34.712  30.408  1.00  0.00     0.202 C 
BRANCH  27  28
ATOM     28  C   UNL A   1      34.305  33.746  31.510  1.00  0.00     0.261 C 
BRANCH  28  29
ATOM     29  O   UNL A   1      35.737  33.642  31.665  1.00  0.00    -0.460 OA
BRANCH  29  30
ATOM     30  C   UNL A   1      36.189  32.683  32.494  1.00  0.00     0.338 C 
ATOM     31  O   UNL A   1      35.742  32.403  33.606  1.00  0.00    -0.246 OA
BRANCH  30  32
ATOM     32  C   UNL A   1      37.219  31.882  31.805  1.00  0.00     0.060 A 
ATOM     33  C   UNL A   1      38.166  31.198  32.576  1.00  0.00     0.016 A 
ATOM     34  C   UNL A   1      37.290  31.838  30.411  1.00  0.00     0.016 A 
ATOM     35  C   UNL A   1      39.198  30.483  31.963  1.00  0.00     0.010 A 
ATOM     36  C   UNL A   1      38.340  31.145  29.797  1.00  0.00     0.010 A 
ATOM     37  C   UNL A   1      39.315  30.486  30.568  1.00  0.00    -0.014 A 
BRANCH  37  38
ATOM     38  C   UNL A   1      40.544  29.963  29.918  1.00  0.00     0.031 A 
ATOM     39  C   UNL A   1      41.692  30.907  29.685  1.00  0.00     0.074 A 
ATOM     40  C   UNL A   1      40.648  28.679  29.535  1.00  0.00     0.049 A 
ATOM     41  N   UNL A   1      42.808  30.720  29.028  1.00  0.00    -0.248 NA
ATOM     42  C   UNL A   1      41.557  32.249  30.273  1.00  0.00     0.031 C 
ATOM     43  C   UNL A   1      39.637  27.647  29.751  1.00  0.00     0.029 A 
ATOM     44  N   UNL A   1      41.656  28.030  28.865  1.00  0.00    -0.354 N 
ATOM     45  C   UNL A   1      43.495  31.925  29.101  1.00  0.00     0.074 A 
ATOM     46  C   UNL A   1      42.665  32.841  29.853  1.00  0.00     0.031 C 
ATOM     47  C   UNL A   1      40.067  26.497  29.203  1.00  0.00     0.029 A 
ATOM     48  C   UNL A   1      41.360  26.724  28.561  1.00  0.00     0.049 A 
ATOM     49  H   UNL A   1      42.509  28.460  28.625  1.00  0.00     0.167 HD
ATOM     50  C   UNL A   1      44.708  32.240  28.587  1.00  0.00     0.037 A 
ATOM     51  C   UNL A   1      42.040  25.827  27.817  1.00  0.00     0.037 A 
ATOM     52  C   UNL A   1      45.539  31.325  27.849  1.00  0.00     0.049 A 
ATOM     53  C   UNL A   1      43.357  26.219  27.196  1.00  0.00     0.074 A 
ATOM     54  C   UNL A   1      46.794  31.543  27.309  1.00  0.00     0.029 A 
ATOM     55  N   UNL A   1      45.194  30.016  27.543  1.00  0.00    -0.354 N 
ATOM     56  N   UNL A   1      44.004  27.358  27.270  1.00  0.00    -0.248 NA
ATOM     57  C   UNL A   1      44.039  25.199  26.384  1.00  0.00     0.031 C 
ATOM     58  C   UNL A   1      47.186  30.385  26.629  1.00  0.00     0.029 A 
ATOM     59  C   UNL A   1      46.201  29.425  26.796  1.00  0.00     0.049 A 
ATOM     60  H   UNL A   1      44.358  29.574  27.816  1.00  0.00     0.167 HD
ATOM     61  C   UNL A   1      45.174  27.183  26.541  1.00  0.00     0.074 A 
ATOM     62  C   UNL A   1      45.156  25.824  26.041  1.00  0.00     0.031 C 
ATOM     63  C   UNL A   1      46.175  28.069  26.309  1.00  0.00     0.037 A 
BRANCH  50  64
ATOM     64  C   UNL A   1      45.190  33.650  28.768  1.00  0.00     0.064 A 
ATOM     65  C   UNL A   1      44.879  34.664  27.852  1.00  0.00     0.173 A 
ATOM     66  C   UNL A   1      45.963  33.991  29.890  1.00  0.00     0.173 A 
ATOM     67  F   UNL A   1      44.157  34.388  26.756  1.00  0.00    -0.203 F 
ATOM     68  C   UNL A   1      45.349  35.963  28.036  1.00  0.00     0.198 A 
ATOM     69  C   UNL A   1      46.404  35.296  30.086  1.00  0.00     0.198 A 
ATOM     70  F   UNL A   1      46.285  33.058  30.798  1.00  0.00    -0.203 F 
ATOM     71  F   UNL A   1      45.085  36.906  27.120  1.00  0.00    -0.200 F 
ATOM     72  C   UNL A   1      46.105  36.279  29.155  1.00  0.00     0.200 A 
ATOM     73  F   UNL A   1      47.124  35.602  31.174  1.00  0.00    -0.200 F 
ATOM     74  F   UNL A   1      46.554  37.529  29.332  1.00  0.00    -0.200 F 
ENDBRANCH  50  64
BRANCH  51  75
ATOM     75  C   UNL A   1      41.471  24.472  27.591  1.00  0.00     0.064 A 
ATOM     76  C   UNL A   1      42.047  23.336  28.175  1.00  0.00     0.173 A 
ATOM     77  C   UNL A   1      40.347  24.284  26.772  1.00  0.00     0.173 A 
ATOM     78  F   UNL A   1      43.143  23.459  28.940  1.00  0.00    -0.203 F 
ATOM     79  C   UNL A   1      41.530  22.064  27.939  1.00  0.00     0.198 A 
ATOM     80  C   UNL A   1      39.812  23.015  26.561  1.00  0.00     0.198 A 
ATOM     81  F   UNL A   1      39.763  25.337  26.181  1.00  0.00    -0.203 F 
ATOM     82  F   UNL A   1      42.128  20.990  28.474  1.00  0.00    -0.200 F 
ATOM     83  C   UNL A   1      40.408  21.906  27.139  1.00  0.00     0.200 A 
ATOM     84  F   UNL A   1      38.724  22.868  25.793  1.00  0.00    -0.200 F 
ATOM     85  F   UNL A   1      39.908  20.682  26.917  1.00  0.00    -0.200 F 
ENDBRANCH  51  75
BRANCH  63  86
ATOM     86  C   UNL A   1      47.357  27.590  25.514  1.00  0.00     0.064 A 
ATOM     87  C   UNL A   1      47.413  27.727  24.118  1.00  0.00     0.173 A 
ATOM     88  C   UNL A   1      48.470  27.035  26.162  1.00  0.00     0.173 A 
ATOM     89  F   UNL A   1      46.370  28.240  23.448  1.00  0.00    -0.203 F 
ATOM     90  C   UNL A   1      48.529  27.303  23.401  1.00  0.00     0.198 A 
ATOM     91  C   UNL A   1      49.597  26.640  25.446  1.00  0.00     0.198 A 
ATOM     92  F   UNL A   1      48.472  26.889  27.496  1.00  0.00    -0.203 F 
ATOM     93  F   UNL A   1      48.543  27.402  22.064  1.00  0.00    -0.200 F 
ATOM     94  C   UNL A   1      49.622  26.767  24.066  1.00  0.00     0.200 A 
ATOM     95  F   UNL A   1      50.658  26.136  26.092  1.00  0.00    -0.200 F 
ATOM     96  F   UNL A   1      50.700  26.369  23.376  1.00  0.00    -0.200 F 
ENDBRANCH  63  86
ENDBRANCH  37  38
ENDBRANCH  30  32
ENDBRANCH  29  30
ENDBRANCH  28  29
ENDBRANCH  27  28
ENDBRANCH  26  27
ENDBRANCH  25  26
ENDBRANCH   1  25
TORSDOF 20
ENDMDL
MODEL 2
REMARK VINA RESULT:     -10.0      5.350     10.487
REMARK SMILES Cc1cccc(Cl)c1Nc1ccccc1CC(=O)OCCOCCOCCOC(=O)c1ccc(-c2c3nc(c(-c4c(F)c(F)c(F)c(F)c4F)c4ccc([nH]4)c(-c4c(F)c(F)c(F)c(F)c4F)c4nc(c(-c5c(F)c(F)c(F)c(F)c5F)c5ccc2[nH]5)C=C4)C=C3)cc1
REMARK SMILES IDX 23 1 22 2 21 3 20 4 19 5 17 6 18 7 16 8 15 9 10 10 11 11
REMARK SMILES IDX 12 12 14 13 13 14 9 15 8 17 1 18 2 19 3 20 4 21 6 22 5 23
REMARK SMILES IDX 7 24 24 25 25 26 26 27 27 28 28 29 29 30 30 31 31 32 32 33
REMARK SMILES IDX 93 34 33 35 92 36 34 37 35 38 36 39 86 40 37 41 91 42 85 43
REMARK SMILES IDX 87 44 38 45 90 46 84 47 83 48 39 50 71 51 51 52 70 53 52 54
REMARK SMILES IDX 55 55 69 56 88 57 53 58 54 59 68 61 89 62 56 63 40 64 41 65
REMARK SMILES IDX 49 66 42 67 43 68 47 69 50 70 44 71 45 72 48 73 46 74 72 75
REMARK SMILES IDX 73 76 81 77 74 78 75 79 79 80 82 81 76 82 77 83 80 84 78 85
REMARK SMILES IDX 57 86 58 87 66 88 59 89 60 90 64 91 67 92 61 93 62 94 65 95
REMARK SMILES IDX 63 96
REMARK H PARENT 9 16 87 49 55 60
REMARK Flexibility Score: inf
ROOT
ATOM      1  C   UNL A   1      40.771  20.911  26.676  1.00  0.00     0.188 C 
ENDROOT
BRANCH   1   2
ATOM      2  O   UNL A   1      39.509  21.577  26.685  1.00  0.00    -0.376 OA
BRANCH   2   3
ATOM      3  C   UNL A   1      39.483  22.973  26.414  1.00  0.00     0.202 C 
BRANCH   3   4
ATOM      4  C   UNL A   1      38.085  23.562  26.195  1.00  0.00     0.261 C 
BRANCH   4   5
ATOM      5  O   UNL A   1      37.482  23.096  24.969  1.00  0.00    -0.463 OA
BRANCH   5   6
ATOM      6  C   UNL A   1      36.176  23.408  24.779  1.00  0.00     0.310 C 
ATOM      7  O   UNL A   1      35.491  22.953  23.867  1.00  0.00    -0.252 OA
BRANCH   6   8
ATOM      8  C   UNL A   1      35.560  24.194  25.918  1.00  0.00     0.160 C 
BRANCH   8   9
ATOM      9  C   UNL A   1      34.056  24.174  26.142  1.00  0.00    -0.013 A 
ATOM     10  C   UNL A   1      33.159  25.148  25.659  1.00  0.00     0.042 A 
ATOM     11  C   UNL A   1      31.792  25.055  25.997  1.00  0.00     0.026 A 
ATOM     12  C   UNL A   1      31.291  23.967  26.709  1.00  0.00     0.002 A 
ATOM     13  C   UNL A   1      33.513  23.058  26.805  1.00  0.00     0.006 A 
ATOM     14  C   UNL A   1      32.151  22.947  27.084  1.00  0.00     0.000 A 
BRANCH  10  15
ATOM     15  N   UNL A   1      33.500  26.105  24.685  1.00  0.00    -0.354 N 
ATOM     16  H   UNL A   1      34.466  26.218  24.530  1.00  0.00     0.167 HD
BRANCH  15  17
ATOM     17  C   UNL A   1      32.665  26.933  23.895  1.00  0.00     0.060 A 
ATOM     18  C   UNL A   1      32.650  25.084  22.146  1.00  0.00     0.046 C 
ATOM     19  C   UNL A   1      32.147  26.392  22.696  1.00  0.00    -0.026 A 
ATOM     20  C   UNL A   1      31.107  27.056  22.024  1.00  0.00     0.005 A 
ATOM     21  C   UNL A   1      30.601  28.263  22.499  1.00  0.00     0.002 A 
ATOM     22  C   UNL A   1      32.215  28.217  24.295  1.00  0.00     0.064 A 
ATOM     23  C   UNL A   1      31.174  28.857  23.616  1.00  0.00     0.023 A 
ATOM     24  Cl  UNL A   1      32.927  29.115  25.598  1.00  0.00    -0.082 Cl
ENDBRANCH  15  17
ENDBRANCH  10  15
ENDBRANCH   8   9
ENDBRANCH   6   8
ENDBRANCH   5   6
ENDBRANCH   4   5
ENDBRANCH   3   4
ENDBRANCH   2   3
ENDBRANCH   1   2
BRANCH   1  25
ATOM     25  C   UNL A   1      42.057  21.716  26.441  1.00  0.00     0.188 C 
BRANCH  25  26
ATOM     26  O   UNL A   1      42.974  21.005  25.619  1.00  0.00    -0.376 OA
BRANCH  26  27
ATOM     27  C   UNL A   1      44.156  21.742  25.336  1.00  0.00     0.202 C 
BRANCH  27  28
ATOM     28  C   UNL A   1      43.833  22.772  24.252  1.00  0.00     0.261 C 
BRANCH  28  29
ATOM     29  O   UNL A   1      43.641  24.112  24.756  1.00  0.00    -0.460 OA
BRANCH  29  30
ATOM     30  C   UNL A   1      44.741  24.766  25.172  1.00  0.00     0.338 C 
ATOM     31  O   UNL A   1      45.822  24.835  24.586  1.00  0.00    -0.246 OA
BRANCH  30  32
ATOM     32  C   UNL A   1      44.421  25.547  26.383  1.00  0.00     0.060 A 
ATOM     33  C   UNL A   1      43.570  24.983  27.341  1.00  0.00     0.016 A 
ATOM     34  C   UNL A   1      44.909  26.843  26.559  1.00  0.00     0.016 A 
ATOM     35  C   UNL A   1      43.187  25.714  28.468  1.00  0.00     0.010 A 
ATOM     36  C   UNL A   1      44.504  27.586  27.674  1.00  0.00     0.010 A 
ATOM     37  C   UNL A   1      43.620  27.037  28.621  1.00  0.00    -0.014 A 
BRANCH  37  38
ATOM     38  C   UNL A   1      43.015  27.908  29.661  1.00  0.00     0.031 A 
ATOM     39  C   UNL A   1      43.706  28.027  30.992  1.00  0.00     0.074 A 
ATOM     40  C   UNL A   1      41.874  28.583  29.439  1.00  0.00     0.049 A 
ATOM     41  N   UNL A   1      43.309  28.618  32.090  1.00  0.00    -0.248 NA
ATOM     42  C   UNL A   1      45.025  27.383  31.097  1.00  0.00     0.031 C 
ATOM     43  C   UNL A   1      41.134  28.604  28.180  1.00  0.00     0.029 A 
ATOM     44  N   UNL A   1      41.129  29.372  30.283  1.00  0.00    -0.354 N 
ATOM     45  C   UNL A   1      44.316  28.397  33.022  1.00  0.00     0.074 A 
ATOM     46  C   UNL A   1      45.334  27.604  32.365  1.00  0.00     0.031 C 
ATOM     47  C   UNL A   1      40.027  29.350  28.340  1.00  0.00     0.029 A 
ATOM     48  C   UNL A   1      39.959  29.821  29.722  1.00  0.00     0.049 A 
ATOM     49  H   UNL A   1      41.408  29.593  31.201  1.00  0.00     0.167 HD
ATOM     50  C   UNL A   1      44.385  28.815  34.308  1.00  0.00     0.037 A 
ATOM     51  C   UNL A   1      38.935  30.503  30.274  1.00  0.00     0.037 A 
ATOM     52  C   UNL A   1      43.378  29.613  34.957  1.00  0.00     0.049 A 
ATOM     53  C   UNL A   1      39.000  30.900  31.728  1.00  0.00     0.074 A 
ATOM     54  C   UNL A   1      43.369  30.106  36.250  1.00  0.00     0.029 A 
ATOM     55  N   UNL A   1      42.196  30.029  34.362  1.00  0.00    -0.354 N 
ATOM     56  N   UNL A   1      39.954  30.692  32.603  1.00  0.00    -0.248 NA
ATOM     57  C   UNL A   1      37.842  31.628  32.270  1.00  0.00     0.031 C 
ATOM     58  C   UNL A   1      42.157  30.775  36.455  1.00  0.00     0.029 A 
ATOM     59  C   UNL A   1      41.437  30.749  35.272  1.00  0.00     0.049 A 
ATOM     60  H   UNL A   1      41.935  29.841  33.432  1.00  0.00     0.167 HD
ATOM     61  C   UNL A   1      39.525  31.281  33.786  1.00  0.00     0.074 A 
ATOM     62  C   UNL A   1      38.229  31.868  33.515  1.00  0.00     0.031 C 
ATOM     63  C   UNL A   1      40.151  31.335  34.989  1.00  0.00     0.037 A 
BRANCH  50  64
ATOM     64  C   UNL A   1      45.574  28.378  35.114  1.00  0.00     0.064 A 
ATOM     65  C   UNL A   1      46.752  29.135  35.170  1.00  0.00     0.173 A 
ATOM     66  C   UNL A   1      45.522  27.187  35.856  1.00  0.00     0.173 A 
ATOM     67  F   UNL A   1      46.859  30.273  34.467  1.00  0.00    -0.203 F 
ATOM     68  C   UNL A   1      47.847  28.702  35.915  1.00  0.00     0.198 A 
ATOM     69  C   UNL A   1      46.606  26.773  36.624  1.00  0.00     0.198 A 
ATOM     70  F   UNL A   1      44.416  26.427  35.839  1.00  0.00    -0.203 F 
ATOM     71  F   UNL A   1      48.982  29.414  35.911  1.00  0.00    -0.200 F 
ATOM     72  C   UNL A   1      47.770  27.525  36.646  1.00  0.00     0.200 A 
ATOM     73  F   UNL A   1      46.526  25.642  37.339  1.00  0.00    -0.200 F 
ATOM     74  F   UNL A   1      48.823  27.111  37.364  1.00  0.00    -0.200 F 
ENDBRANCH  50  64
BRANCH  51  75
ATOM     75  C   UNL A   1      37.737  30.829  29.454  1.00  0.00     0.064 A 
ATOM     76  C   UNL A   1      37.536  32.119  28.945  1.00  0.00     0.173 A 
ATOM     77  C   UNL A   1      36.762  29.860  29.177  1.00  0.00     0.173 A 
ATOM     78  F   UNL A   1      38.423  33.089  29.210  1.00  0.00    -0.203 F 
ATOM     79  C   UNL A   1      36.399  32.430  28.201  1.00  0.00     0.198 A 
ATOM     80  C   UNL A   1      35.641  30.164  28.407  1.00  0.00     0.198 A 
ATOM     81  F   UNL A   1      36.902  28.612  29.648  1.00  0.00    -0.203 F 
ATOM     82  F   UNL A   1      36.209  33.683  27.764  1.00  0.00    -0.200 F 
ATOM     83  C   UNL A   1      35.458  31.451  27.926  1.00  0.00     0.200 A 
ATOM     84  F   UNL A   1      34.737  29.212  28.138  1.00  0.00    -0.200 F 
ATOM     85  F   UNL A   1      34.367  31.749  27.206  1.00  0.00    -0.200 F 
ENDBRANCH  51  75
BRANCH  63  86
ATOM     86  C   UNL A   1      39.468  32.086  36.096  1.00  0.00     0.064 A 
ATOM     87  C   UNL A   1      39.754  33.433  36.363  1.00  0.00     0.173 A 
ATOM     88  C   UNL A   1      38.474  31.463  36.866  1.00  0.00     0.173 A 
ATOM     89  F   UNL A   1      40.704  34.072  35.664  1.00  0.00    -0.203 F 
ATOM     90  C   UNL A   1      39.089  34.120  37.375  1.00  0.00     0.198 A 
ATOM     91  C   UNL A   1      37.789  32.161  37.858  1.00  0.00     0.198 A 
ATOM     92  F   UNL A   1      38.155  30.178  36.648  1.00  0.00    -0.203 F 
ATOM     93  F   UNL A   1      39.411  35.394  37.643  1.00  0.00    -0.200 F 
ATOM     94  C   UNL A   1      38.103  33.486  38.116  1.00  0.00     0.200 A 
ATOM     95  F   UNL A   1      36.825  31.551  38.562  1.00  0.00    -0.200 F 
ATOM     96  F   UNL A   1      37.456  34.151  39.084  1.00  0.00    -0.200 F 
ENDBRANCH  63  86
ENDBRANCH  37  38
ENDBRANCH  30  32
ENDBRANCH  29  30
ENDBRANCH  28  29
ENDBRANCH  27  28
ENDBRANCH  26  27
ENDBRANCH  25  26
ENDBRANCH   1  25
TORSDOF 20
ENDMDL
MODEL 3
REMARK VINA RESULT:      -9.9      7.226     11.616
REMARK SMILES Cc1cccc(Cl)c1Nc1ccccc1CC(=O)OCCOCCOCCOC(=O)c1ccc(-c2c3nc(c(-c4c(F)c(F)c(F)c(F)c4F)c4ccc([nH]4)c(-c4c(F)c(F)c(F)c(F)c4F)c4nc(c(-c5c(F)c(F)c(F)c(F)c5F)c5ccc2[nH]5)C=C4)C=C3)cc1
REMARK SMILES IDX 23 1 22 2 21 3 20 4 19 5 17 6 18 7 16 8 15 9 10 10 11 11
REMARK SMILES IDX 12 12 14 13 13 14 9 15 8 17 1 18 2 19 3 20 4 21 6 22 5 23
REMARK SMILES IDX 7 24 24 25 25 26 26 27 27 28 28 29 29 30 30 31 31 32 32 33
REMARK SMILES IDX 93 34 33 35 92 36 34 37 35 38 36 39 86 40 37 41 91 42 85 43
REMARK SMILES IDX 87 44 38 45 90 46 84 47 83 48 39 50 71 51 51 52 70 53 52 54
REMARK SMILES IDX 55 55 69 56 88 57 53 58 54 59 68 61 89 62 56 63 40 64 41 65
REMARK SMILES IDX 49 66 42 67 43 68 47 69 50 70 44 71 45 72 48 73 46 74 72 75
REMARK SMILES IDX 73 76 81 77 74 78 75 79 79 80 82 81 76 82 77 83 80 84 78 85
REMARK SMILES IDX 57 86 58 87 66 88 59 89 60 90 64 91 67 92 61 93 62 94 65 95
REMARK SMILES IDX 63 96
REMARK H PARENT 9 16 87 49 55 60
REMARK Flexibility Score: inf
ROOT
ATOM      1  C   UNL A   1      43.689  18.502  25.440  1.00  0.00     0.188 C 
ENDROOT
BRANCH   1   2
ATOM      2  O   UNL A   1      43.930  19.388  24.348  1.00  0.00    -0.376 OA
BRANCH   2   3
ATOM      3  C   UNL A   1      45.278  19.700  24.019  1.00  0.00     0.202 C 
BRANCH   3   4
ATOM      4  C   UNL A   1      46.018  20.547  25.059  1.00  0.00     0.261 C 
BRANCH   4   5
ATOM      5  O   UNL A   1      46.645  21.707  24.473  1.00  0.00    -0.463 OA
BRANCH   5   6
ATOM      6  C   UNL A   1      45.876  22.819  24.359  1.00  0.00     0.310 C 
ATOM      7  O   UNL A   1      44.917  22.910  23.598  1.00  0.00    -0.252 OA
BRANCH   6   8
ATOM      8  C   UNL A   1      46.157  23.870  25.413  1.00  0.00     0.160 C 
BRANCH   8   9
ATOM      9  C   UNL A   1      46.548  25.282  25.008  1.00  0.00    -0.013 A 
ATOM     10  C   UNL A   1      45.779  26.435  25.264  1.00  0.00     0.042 A 
ATOM     11  C   UNL A   1      46.218  27.682  24.770  1.00  0.00     0.026 A 
ATOM     12  C   UNL A   1      47.448  27.818  24.129  1.00  0.00     0.002 A 
ATOM     13  C   UNL A   1      47.811  25.459  24.412  1.00  0.00     0.006 A 
ATOM     14  C   UNL A   1      48.262  26.708  23.980  1.00  0.00     0.000 A 
BRANCH  10  15
ATOM     15  N   UNL A   1      44.693  26.462  26.159  1.00  0.00    -0.354 N 
ATOM     16  H   UNL A   1      44.604  25.667  26.732  1.00  0.00     0.167 HD
BRANCH  15  17
ATOM     17  C   UNL A   1      43.706  27.459  26.358  1.00  0.00     0.060 A 
ATOM     18  C   UNL A   1      42.112  26.016  24.998  1.00  0.00     0.046 C 
ATOM     19  C   UNL A   1      42.399  27.194  25.890  1.00  0.00    -0.026 A 
ATOM     20  C   UNL A   1      41.333  28.011  26.300  1.00  0.00     0.005 A 
ATOM     21  C   UNL A   1      41.547  29.107  27.133  1.00  0.00     0.002 A 
ATOM     22  C   UNL A   1      43.917  28.643  27.110  1.00  0.00     0.064 A 
ATOM     23  C   UNL A   1      42.841  29.439  27.513  1.00  0.00     0.023 A 
ATOM     24  Cl  UNL A   1      45.491  29.231  27.545  1.00  0.00    -0.082 Cl
ENDBRANCH  15  17
ENDBRANCH  10  15
ENDBRANCH   8   9
ENDBRANCH   6   8
ENDBRANCH   5   6
ENDBRANCH   4   5
ENDBRANCH   3   4
ENDBRANCH   2   3
ENDBRANCH   1   2
BRANCH   1  25
ATOM     25  C   UNL A   1      42.582  18.824  26.454  1.00  0.00     0.188 C 
BRANCH  25  26
ATOM     26  O   UNL A   1      41.536  19.580  25.859  1.00  0.00    -0.376 OA
BRANCH  26  27
ATOM     27  C   UNL A   1      40.799  20.349  26.801  1.00  0.00     0.202 C 
BRANCH  27  28
ATOM     28  C   UNL A   1      40.555  21.736  26.205  1.00  0.00     0.261 C 
BRANCH  28  29
ATOM     29  O   UNL A   1      41.509  22.734  26.633  1.00  0.00    -0.460 OA
BRANCH  29  30
ATOM     30  C   UNL A   1      41.053  23.690  27.463  1.00  0.00     0.338 C 
ATOM     31  O   UNL A   1      39.921  24.172  27.478  1.00  0.00    -0.246 OA
BRANCH  30  32
ATOM     32  C   UNL A   1      42.074  23.977  28.489  1.00  0.00     0.060 A 
ATOM     33  C   UNL A   1      42.289  25.307  28.870  1.00  0.00     0.016 A 
ATOM     34  C   UNL A   1      42.853  22.959  29.042  1.00  0.00     0.016 A 
ATOM     35  C   UNL A   1      43.291  25.630  29.788  1.00  0.00     0.010 A 
ATOM     36  C   UNL A   1      43.876  23.284  29.941  1.00  0.00     0.010 A 
ATOM     37  C   UNL A   1      44.119  24.623  30.299  1.00  0.00    -0.014 A 
BRANCH  37  38
ATOM     38  C   UNL A   1      45.347  24.974  31.057  1.00  0.00     0.031 A 
ATOM     39  C   UNL A   1      46.526  25.525  30.303  1.00  0.00     0.074 A 
ATOM     40  C   UNL A   1      45.424  24.811  32.389  1.00  0.00     0.049 A 
ATOM     41  N   UNL A   1      47.740  25.782  30.720  1.00  0.00    -0.248 NA
ATOM     42  C   UNL A   1      46.304  25.819  28.878  1.00  0.00     0.031 C 
ATOM     43  C   UNL A   1      44.340  24.344  33.249  1.00  0.00     0.029 A 
ATOM     44  N   UNL A   1      46.478  25.007  33.249  1.00  0.00    -0.354 N 
ATOM     45  C   UNL A   1      48.431  26.243  29.607  1.00  0.00     0.074 A 
ATOM     46  C   UNL A   1      47.507  26.216  28.493  1.00  0.00     0.031 C 
ATOM     47  C   UNL A   1      44.791  24.268  34.513  1.00  0.00     0.029 A 
ATOM     48  C   UNL A   1      46.206  24.637  34.543  1.00  0.00     0.049 A 
ATOM     49  H   UNL A   1      47.346  25.376  32.964  1.00  0.00     0.167 HD
ATOM     50  C   UNL A   1      49.719  26.652  29.520  1.00  0.00     0.037 A 
ATOM     51  C   UNL A   1      47.016  24.570  35.618  1.00  0.00     0.037 A 
ATOM     52  C   UNL A   1      50.634  26.691  30.631  1.00  0.00     0.049 A 
ATOM     53  C   UNL A   1      48.466  24.964  35.486  1.00  0.00     0.074 A 
ATOM     54  C   UNL A   1      51.953  27.111  30.648  1.00  0.00     0.029 A 
ATOM     55  N   UNL A   1      50.327  26.287  31.922  1.00  0.00    -0.354 N 
ATOM     56  N   UNL A   1      49.114  25.402  34.433  1.00  0.00    -0.248 NA
ATOM     57  C   UNL A   1      49.298  24.853  36.694  1.00  0.00     0.031 C 
ATOM     58  C   UNL A   1      52.459  26.911  31.937  1.00  0.00     0.029 A 
ATOM     59  C   UNL A   1      51.440  26.422  32.737  1.00  0.00     0.049 A 
ATOM     60  H   UNL A   1      49.448  25.954  32.215  1.00  0.00     0.167 HD
ATOM     61  C   UNL A   1      50.416  25.642  34.856  1.00  0.00     0.074 A 
ATOM     62  C   UNL A   1      50.465  25.312  36.265  1.00  0.00     0.031 C 
ATOM     63  C   UNL A   1      51.475  26.097  34.141  1.00  0.00     0.037 A 
BRANCH  50  64
ATOM     64  C   UNL A   1      50.229  27.049  28.165  1.00  0.00     0.064 A 
ATOM     65  C   UNL A   1      50.236  28.384  27.736  1.00  0.00     0.173 A 
ATOM     66  C   UNL A   1      50.734  26.075  27.289  1.00  0.00     0.173 A 
ATOM     67  F   UNL A   1      49.750  29.351  28.529  1.00  0.00    -0.203 F 
ATOM     68  C   UNL A   1      50.703  28.726  26.469  1.00  0.00     0.198 A 
ATOM     69  C   UNL A   1      51.229  26.424  26.037  1.00  0.00     0.198 A 
ATOM     70  F   UNL A   1      50.753  24.784  27.653  1.00  0.00    -0.203 F 
ATOM     71  F   UNL A   1      50.651  30.001  26.059  1.00  0.00    -0.200 F 
ATOM     72  C   UNL A   1      51.204  27.747  25.623  1.00  0.00     0.200 A 
ATOM     73  F   UNL A   1      51.723  25.479  25.225  1.00  0.00    -0.200 F 
ATOM     74  F   UNL A   1      51.654  28.078  24.406  1.00  0.00    -0.200 F 
ENDBRANCH  50  64
BRANCH  51  75
ATOM     75  C   UNL A   1      46.482  24.079  36.917  1.00  0.00     0.064 A 
ATOM     76  C   UNL A   1      45.933  24.962  37.856  1.00  0.00     0.173 A 
ATOM     77  C   UNL A   1      46.525  22.717  37.251  1.00  0.00     0.173 A 
ATOM     78  F   UNL A   1      45.899  26.278  37.598  1.00  0.00    -0.203 F 
ATOM     79  C   UNL A   1      45.458  24.504  39.084  1.00  0.00     0.198 A 
ATOM     80  C   UNL A   1      46.023  22.256  38.466  1.00  0.00     0.198 A 
ATOM     81  F   UNL A   1      47.049  21.831  36.391  1.00  0.00    -0.203 F 
ATOM     82  F   UNL A   1      44.980  25.376  39.982  1.00  0.00    -0.200 F 
ATOM     83  C   UNL A   1      45.496  23.151  39.384  1.00  0.00     0.200 A 
ATOM     84  F   UNL A   1      46.056  20.947  38.749  1.00  0.00    -0.200 F 
ATOM     85  F   UNL A   1      45.035  22.711  40.563  1.00  0.00    -0.200 F 
ENDBRANCH  51  75
BRANCH  63  86
ATOM     86  C   UNL A   1      52.770  26.307  34.873  1.00  0.00     0.064 A 
ATOM     87  C   UNL A   1      53.744  25.300  34.957  1.00  0.00     0.173 A 
ATOM     88  C   UNL A   1      53.062  27.550  35.454  1.00  0.00     0.173 A 
ATOM     89  F   UNL A   1      53.510  24.090  34.428  1.00  0.00    -0.203 F 
ATOM     90  C   UNL A   1      54.950  25.524  35.616  1.00  0.00     0.198 A 
ATOM     91  C   UNL A   1      54.281  27.780  36.087  1.00  0.00     0.198 A 
ATOM     92  F   UNL A   1      52.169  28.550  35.397  1.00  0.00    -0.203 F 
ATOM     93  F   UNL A   1      55.848  24.534  35.722  1.00  0.00    -0.200 F 
ATOM     94  C   UNL A   1      55.221  26.765  36.173  1.00  0.00     0.200 A 
ATOM     95  F   UNL A   1      54.547  28.985  36.611  1.00  0.00    -0.200 F 
ATOM     96  F   UNL A   1      56.386  26.981  36.799  1.00  0.00    -0.200 F 
ENDBRANCH  63  86
ENDBRANCH  37  38
ENDBRANCH  30  32
ENDBRANCH  29  30
ENDBRANCH  28  29
ENDBRANCH  27  28
ENDBRANCH  26  27
ENDBRANCH  25  26
ENDBRANCH   1  25
TORSDOF 20
ENDMDL
