MODEL 1
REMARK VINA RESULT:     -10.3      0.000      0.000
REMARK SMILES CC(C)[C@H](NC(=O)[C@H](C)NC(=O)C[NH3+])C(=O)OCCOCCOCCOC(=O)c1ccc(-c2c3nc(c(-c4c(F)c(F)c(F)c(F)c4F)c4ccc([nH]4)c(-c4c(F)c(F)c(F)c(F)c4F)c4nc(c(-c5c(F)c(F)c(F)c(F)c5F)c5ccc2[nH]5)C=C4)C=C3)cc1
REMARK SMILES IDX 20 1 19 2 18 3 17 4 15 5 16 6 4 7 2 8 1 9 3 10 5 11 6 12
REMARK SMILES IDX 7 14 8 15 9 16 10 17 11 18 12 20 13 21 14 22 21 26 22 27
REMARK SMILES IDX 23 28 24 29 25 30 26 31 27 32 28 33 29 34 30 35 91 36 31 37
REMARK SMILES IDX 90 38 32 39 33 40 34 41 84 42 35 43 89 44 83 45 85 46 36 47
REMARK SMILES IDX 88 48 82 49 81 50 37 52 69 53 49 54 68 55 50 56 53 57 67 58
REMARK SMILES IDX 86 59 51 60 52 61 66 63 87 64 54 65 38 66 39 67 47 68 40 69
REMARK SMILES IDX 41 70 45 71 48 72 42 73 43 74 46 75 44 76 70 77 71 78 79 79
REMARK SMILES IDX 72 80 73 81 77 82 80 83 74 84 75 85 78 86 76 87 55 88 56 89
REMARK SMILES IDX 64 90 57 91 58 92 62 93 65 94 59 95 60 96 63 97 61 98
REMARK H PARENT 5 13 10 19 14 23 14 24 14 25 85 51 53 62
REMARK Flexibility Score: inf
ROOT
ATOM      1  O   UNL A   1      28.831  27.081  23.576  1.00  0.00    -0.376 OA
ENDROOT
BRANCH   1   2
ATOM      2  C   UNL A   1      29.789  26.123  24.009  1.00  0.00     0.202 C 
BRANCH   2   3
ATOM      3  C   UNL A   1      29.882  25.892  25.520  1.00  0.00     0.261 C 
BRANCH   3   4
ATOM      4  O   UNL A   1      31.227  25.599  25.971  1.00  0.00    -0.462 OA
BRANCH   4   5
ATOM      5  C   UNL A   1      31.518  24.337  26.399  1.00  0.00     0.328 C 
ATOM      6  O   UNL A   1      30.868  23.742  27.252  1.00  0.00    -0.250 OA
BRANCH   5   7
ATOM      7  C   UNL A   1      32.706  23.689  25.618  1.00  0.00     0.194 C 
BRANCH   7   8
ATOM      8  C   UNL A   1      33.802  24.700  25.181  1.00  0.00     0.017 C 
ATOM      9  C   UNL A   1      35.198  24.138  25.509  1.00  0.00     0.010 C 
ATOM     10  C   UNL A   1      33.818  25.066  23.690  1.00  0.00     0.010 C 
ENDBRANCH   7   8
BRANCH   7  11
ATOM     11  N   UNL A   1      32.403  22.657  24.625  1.00  0.00    -0.341 N 
ATOM     12  C   UNL A   1      32.628  21.320  24.556  1.00  0.00     0.243 C 
ATOM     13  H   UNL A   1      31.934  23.010  23.834  1.00  0.00     0.164 HD
ATOM     14  O   UNL A   1      32.197  20.777  23.531  1.00  0.00    -0.273 OA
BRANCH  12  15
ATOM     15  C   UNL A   1      33.490  20.550  25.592  1.00  0.00     0.168 C 
ATOM     16  C   UNL A   1      34.866  20.307  24.965  1.00  0.00     0.041 C 
BRANCH  15  17
ATOM     17  N   UNL A   1      32.907  19.253  25.946  1.00  0.00    -0.340 N 
ATOM     18  C   UNL A   1      32.768  18.080  25.276  1.00  0.00     0.275 C 
ATOM     19  H   UNL A   1      32.538  19.227  26.859  1.00  0.00     0.164 HD
ATOM     20  O   UNL A   1      32.153  17.179  25.854  1.00  0.00    -0.268 OA
BRANCH  18  21
ATOM     21  C   UNL A   1      33.408  17.817  23.920  1.00  0.00     0.360 C 
BRANCH  21  22
ATOM     22  N   UNL A   1      32.433  17.776  22.824  1.00  0.00    -0.350 N 
ATOM     23  H   UNL A   1      32.402  16.835  22.433  1.00  0.00     0.344 HD
ATOM     24  H   UNL A   1      32.708  18.438  22.099  1.00  0.00     0.344 HD
ATOM     25  H   UNL A   1      31.511  18.026  23.182  1.00  0.00     0.344 HD
ENDBRANCH  21  22
ENDBRANCH  18  21
ENDBRANCH  15  17
ENDBRANCH  12  15
ENDBRANCH   7  11
ENDBRANCH   5   7
ENDBRANCH   4   5
ENDBRANCH   3   4
ENDBRANCH   2   3
ENDBRANCH   1   2
BRANCH   1  26
ATOM     26  C   UNL A   1      29.319  28.220  22.879  1.00  0.00     0.188 C 
BRANCH  26  27
ATOM     27  C   UNL A   1      30.787  28.629  23.090  1.00  0.00     0.188 C 
BRANCH  27  28
ATOM     28  O   UNL A   1      31.022  29.439  24.227  1.00  0.00    -0.376 OA
BRANCH  28  29
ATOM     29  C   UNL A   1      31.977  28.921  25.146  1.00  0.00     0.202 C 
BRANCH  29  30
ATOM     30  C   UNL A   1      33.010  29.953  25.626  1.00  0.00     0.261 C 
BRANCH  30  31
ATOM     31  O   UNL A   1      32.802  30.459  26.958  1.00  0.00    -0.460 OA
BRANCH  31  32
ATOM     32  C   UNL A   1      33.353  31.664  27.276  1.00  0.00     0.338 C 
ATOM     33  O   UNL A   1      32.832  32.747  27.205  1.00  0.00    -0.246 OA
BRANCH  32  34
ATOM     34  C   UNL A   1      34.619  31.365  28.005  1.00  0.00     0.060 A 
ATOM     35  C   UNL A   1      34.817  30.072  28.517  1.00  0.00     0.016 A 
ATOM     36  C   UNL A   1      35.646  32.306  28.065  1.00  0.00     0.016 A 
ATOM     37  C   UNL A   1      36.055  29.711  29.062  1.00  0.00     0.010 A 
ATOM     38  C   UNL A   1      36.869  31.957  28.646  1.00  0.00     0.010 A 
ATOM     39  C   UNL A   1      37.080  30.662  29.150  1.00  0.00    -0.014 A 
BRANCH  39  40
ATOM     40  C   UNL A   1      38.311  30.388  29.933  1.00  0.00     0.031 A 
ATOM     41  C   UNL A   1      39.302  29.414  29.364  1.00  0.00     0.074 A 
ATOM     42  C   UNL A   1      38.525  30.936  31.143  1.00  0.00     0.049 A 
ATOM     43  N   UNL A   1      40.362  28.883  29.914  1.00  0.00    -0.248 NA
ATOM     44  C   UNL A   1      39.053  28.975  27.980  1.00  0.00     0.031 C 
ATOM     45  C   UNL A   1      37.670  31.928  31.789  1.00  0.00     0.029 A 
ATOM     46  N   UNL A   1      39.524  30.705  32.059  1.00  0.00    -0.354 N 
ATOM     47  C   UNL A   1      40.898  28.037  28.954  1.00  0.00     0.074 A 
ATOM     48  C   UNL A   1      40.041  28.114  27.790  1.00  0.00     0.031 C 
ATOM     49  C   UNL A   1      38.164  32.198  33.011  1.00  0.00     0.029 A 
ATOM     50  C   UNL A   1      39.343  31.365  33.250  1.00  0.00     0.049 A 
ATOM     51  H   UNL A   1      40.297  30.122  31.877  1.00  0.00     0.167 HD
ATOM     52  C   UNL A   1      42.004  27.263  29.035  1.00  0.00     0.037 A 
ATOM     53  C   UNL A   1      40.024  31.270  34.411  1.00  0.00     0.037 A 
ATOM     54  C   UNL A   1      42.849  27.176  30.195  1.00  0.00     0.049 A 
ATOM     55  C   UNL A   1      41.196  30.321  34.511  1.00  0.00     0.074 A 
ATOM     56  C   UNL A   1      44.009  26.441  30.363  1.00  0.00     0.029 A 
ATOM     57  N   UNL A   1      42.611  27.833  31.393  1.00  0.00    -0.354 N 
ATOM     58  N   UNL A   1      41.719  29.547  33.591  1.00  0.00    -0.248 NA
ATOM     59  C   UNL A   1      41.864  30.224  35.819  1.00  0.00     0.031 C 
ATOM     60  C   UNL A   1      44.441  26.606  31.682  1.00  0.00     0.029 A 
ATOM     61  C   UNL A   1      43.583  27.489  32.319  1.00  0.00     0.049 A 
ATOM     62  H   UNL A   1      41.865  28.452  31.561  1.00  0.00     0.167 HD
ATOM     63  C   UNL A   1      42.784  28.891  34.198  1.00  0.00     0.074 A 
ATOM     64  C   UNL A   1      42.845  29.369  35.563  1.00  0.00     0.031 C 
ATOM     65  C   UNL A   1      43.633  27.973  33.675  1.00  0.00     0.037 A 
BRANCH  52  66
ATOM     66  C   UNL A   1      42.342  26.417  27.845  1.00  0.00     0.064 A 
ATOM     67  C   UNL A   1      41.731  25.173  27.626  1.00  0.00     0.173 A 
ATOM     68  C   UNL A   1      43.270  26.871  26.895  1.00  0.00     0.173 A 
ATOM     69  F   UNL A   1      40.851  24.688  28.515  1.00  0.00    -0.203 F 
ATOM     70  C   UNL A   1      42.052  24.406  26.510  1.00  0.00     0.198 A 
ATOM     71  C   UNL A   1      43.568  26.113  25.766  1.00  0.00     0.198 A 
ATOM     72  F   UNL A   1      43.884  28.053  27.059  1.00  0.00    -0.203 F 
ATOM     73  F   UNL A   1      41.491  23.200  26.344  1.00  0.00    -0.200 F 
ATOM     74  C   UNL A   1      42.964  24.879  25.577  1.00  0.00     0.200 A 
ATOM     75  F   UNL A   1      44.440  26.577  24.861  1.00  0.00    -0.200 F 
ATOM     76  F   UNL A   1      43.267  24.143  24.500  1.00  0.00    -0.200 F 
ENDBRANCH  52  66
BRANCH  53  77
ATOM     77  C   UNL A   1      39.596  32.058  35.599  1.00  0.00     0.064 A 
ATOM     78  C   UNL A   1      38.599  31.582  36.463  1.00  0.00     0.173 A 
ATOM     79  C   UNL A   1      40.142  33.322  35.870  1.00  0.00     0.173 A 
ATOM     80  F   UNL A   1      38.019  30.396  36.226  1.00  0.00    -0.203 F 
ATOM     81  C   UNL A   1      38.154  32.346  37.541  1.00  0.00     0.198 A 
ATOM     82  C   UNL A   1      39.717  34.071  36.966  1.00  0.00     0.198 A 
ATOM     83  F   UNL A   1      41.089  33.831  35.068  1.00  0.00    -0.203 F 
ATOM     84  F   UNL A   1      37.162  31.890  38.318  1.00  0.00    -0.200 F 
ATOM     85  C   UNL A   1      38.719  33.587  37.795  1.00  0.00     0.200 A 
ATOM     86  F   UNL A   1      40.270  35.268  37.211  1.00  0.00    -0.200 F 
ATOM     87  F   UNL A   1      38.289  34.321  38.831  1.00  0.00    -0.200 F 
ENDBRANCH  53  77
BRANCH  65  88
ATOM     88  C   UNL A   1      44.716  27.434  34.564  1.00  0.00     0.064 A 
ATOM     89  C   UNL A   1      45.945  28.097  34.710  1.00  0.00     0.173 A 
ATOM     90  C   UNL A   1      44.500  26.280  35.332  1.00  0.00     0.173 A 
ATOM     91  F   UNL A   1      46.207  29.197  33.989  1.00  0.00    -0.203 F 
ATOM     92  C   UNL A   1      46.920  27.613  35.579  1.00  0.00     0.198 A 
ATOM     93  C   UNL A   1      45.465  25.817  36.223  1.00  0.00     0.198 A 
ATOM     94  F   UNL A   1      43.339  25.613  35.237  1.00  0.00    -0.203 F 
ATOM     95  F   UNL A   1      48.100  28.242  35.674  1.00  0.00    -0.200 F 
ATOM     96  C   UNL A   1      46.676  26.481  36.341  1.00  0.00     0.200 A 
ATOM     97  F   UNL A   1      45.220  24.732  36.970  1.00  0.00    -0.200 F 
ATOM     98  F   UNL A   1      47.609  26.027  37.189  1.00  0.00    -0.200 F 
ENDBRANCH  65  88
ENDBRANCH  39  40
ENDBRANCH  32  34
ENDBRANCH  31  32
ENDBRANCH  30  31
ENDBRANCH  29  30
ENDBRANCH  28  29
ENDBRANCH  27  28
ENDBRANCH  26  27
ENDBRANCH   1  26
TORSDOF 23
ENDMDL
MODEL 2
REMARK VINA RESULT:     -10.2      3.013      8.039
REMARK SMILES CC(C)[C@H](NC(=O)[C@H](C)NC(=O)C[NH3+])C(=O)OCCOCCOCCOC(=O)c1ccc(-c2c3nc(c(-c4c(F)c(F)c(F)c(F)c4F)c4ccc([nH]4)c(-c4c(F)c(F)c(F)c(F)c4F)c4nc(c(-c5c(F)c(F)c(F)c(F)c5F)c5ccc2[nH]5)C=C4)C=C3)cc1
REMARK SMILES IDX 20 1 19 2 18 3 17 4 15 5 16 6 4 7 2 8 1 9 3 10 5 11 6 12
REMARK SMILES IDX 7 14 8 15 9 16 10 17 11 18 12 20 13 21 14 22 21 26 22 27
REMARK SMILES IDX 23 28 24 29 25 30 26 31 27 32 28 33 29 34 30 35 91 36 31 37
REMARK SMILES IDX 90 38 32 39 33 40 34 41 84 42 35 43 89 44 83 45 85 46 36 47
REMARK SMILES IDX 88 48 82 49 81 50 37 52 69 53 49 54 68 55 50 56 53 57 67 58
REMARK SMILES IDX 86 59 51 60 52 61 66 63 87 64 54 65 38 66 39 67 47 68 40 69
REMARK SMILES IDX 41 70 45 71 48 72 42 73 43 74 46 75 44 76 70 77 71 78 79 79
REMARK SMILES IDX 72 80 73 81 77 82 80 83 74 84 75 85 78 86 76 87 55 88 56 89
REMARK SMILES IDX 64 90 57 91 58 92 62 93 65 94 59 95 60 96 63 97 61 98
REMARK H PARENT 5 13 10 19 14 23 14 24 14 25 85 51 53 62
REMARK Flexibility Score: inf
ROOT
ATOM      1  O   UNL A   1      30.829  26.663  23.626  1.00  0.00    -0.376 OA
ENDROOT
BRANCH   1   2
ATOM      2  C   UNL A   1      31.437  25.836  22.640  1.00  0.00     0.202 C 
BRANCH   2   3
ATOM      3  C   UNL A   1      32.746  26.352  22.035  1.00  0.00     0.261 C 
BRANCH   3   4
ATOM      4  O   UNL A   1      33.873  25.476  22.284  1.00  0.00    -0.462 OA
BRANCH   4   5
ATOM      5  C   UNL A   1      33.675  24.126  22.258  1.00  0.00     0.328 C 
ATOM      6  O   UNL A   1      33.320  23.510  21.260  1.00  0.00    -0.250 OA
BRANCH   5   7
ATOM      7  C   UNL A   1      34.041  23.433  23.609  1.00  0.00     0.194 C 
BRANCH   7   8
ATOM      8  C   UNL A   1      35.538  23.571  24.006  1.00  0.00     0.017 C 
ATOM      9  C   UNL A   1      35.655  24.196  25.409  1.00  0.00     0.010 C 
ATOM     10  C   UNL A   1      36.344  22.265  24.041  1.00  0.00     0.010 C 
ENDBRANCH   7   8
BRANCH   7  11
ATOM     11  N   UNL A   1      33.457  22.122  23.897  1.00  0.00    -0.341 N 
ATOM     12  C   UNL A   1      32.911  21.554  25.003  1.00  0.00     0.243 C 
ATOM     13  H   UNL A   1      33.460  21.519  23.118  1.00  0.00     0.164 HD
ATOM     14  O   UNL A   1      32.503  20.398  24.841  1.00  0.00    -0.273 OA
BRANCH  12  15
ATOM     15  C   UNL A   1      32.933  22.229  26.401  1.00  0.00     0.168 C 
ATOM     16  C   UNL A   1      33.847  21.397  27.306  1.00  0.00     0.041 C 
BRANCH  15  17
ATOM     17  N   UNL A   1      31.602  22.286  27.012  1.00  0.00    -0.340 N 
ATOM     18  C   UNL A   1      30.589  23.187  26.954  1.00  0.00     0.275 C 
ATOM     19  H   UNL A   1      31.402  21.509  27.583  1.00  0.00     0.164 HD
ATOM     20  O   UNL A   1      29.602  22.960  27.660  1.00  0.00    -0.268 OA
BRANCH  18  21
ATOM     21  C   UNL A   1      30.589  24.380  26.007  1.00  0.00     0.360 C 
BRANCH  21  22
ATOM     22  N   UNL A   1      29.439  25.269  26.204  1.00  0.00    -0.350 N 
ATOM     23  H   UNL A   1      28.663  24.737  26.597  1.00  0.00     0.344 HD
ATOM     24  H   UNL A   1      29.160  25.667  25.308  1.00  0.00     0.344 HD
ATOM     25  H   UNL A   1      29.696  26.019  26.845  1.00  0.00     0.344 HD
ENDBRANCH  21  22
ENDBRANCH  18  21
ENDBRANCH  15  17
ENDBRANCH  12  15
ENDBRANCH   7  11
ENDBRANCH   5   7
ENDBRANCH   4   5
ENDBRANCH   3   4
ENDBRANCH   2   3
ENDBRANCH   1   2
BRANCH   1  26
ATOM     26  C   UNL A   1      30.195  27.853  23.175  1.00  0.00     0.188 C 
BRANCH  26  27
ATOM     27  C   UNL A   1      30.764  29.204  23.641  1.00  0.00     0.188 C 
BRANCH  27  28
ATOM     28  O   UNL A   1      32.088  29.152  24.141  1.00  0.00    -0.376 OA
BRANCH  28  29
ATOM     29  C   UNL A   1      32.240  29.598  25.484  1.00  0.00     0.202 C 
BRANCH  29  30
ATOM     30  C   UNL A   1      33.590  29.229  26.119  1.00  0.00     0.261 C 
BRANCH  30  31
ATOM     31  O   UNL A   1      33.719  29.545  27.518  1.00  0.00    -0.460 OA
BRANCH  31  32
ATOM     32  C   UNL A   1      34.401  30.675  27.857  1.00  0.00     0.338 C 
ATOM     33  O   UNL A   1      33.946  31.772  28.053  1.00  0.00    -0.246 OA
BRANCH  32  34
ATOM     34  C   UNL A   1      35.777  30.237  28.226  1.00  0.00     0.060 A 
ATOM     35  C   UNL A   1      35.996  29.692  29.502  1.00  0.00     0.016 A 
ATOM     36  C   UNL A   1      36.804  30.240  27.282  1.00  0.00     0.016 A 
ATOM     37  C   UNL A   1      37.234  29.123  29.824  1.00  0.00     0.010 A 
ATOM     38  C   UNL A   1      38.052  29.709  27.617  1.00  0.00     0.010 A 
ATOM     39  C   UNL A   1      38.277  29.150  28.888  1.00  0.00    -0.014 A 
BRANCH  39  40
ATOM     40  C   UNL A   1      39.660  28.779  29.274  1.00  0.00     0.031 A 
ATOM     41  C   UNL A   1      40.469  29.785  30.041  1.00  0.00     0.074 A 
ATOM     42  C   UNL A   1      40.214  27.607  28.910  1.00  0.00     0.049 A 
ATOM     43  N   UNL A   1      41.739  29.775  30.351  1.00  0.00    -0.248 NA
ATOM     44  C   UNL A   1      39.739  30.974  30.513  1.00  0.00     0.031 C 
ATOM     45  C   UNL A   1      39.528  26.526  28.208  1.00  0.00     0.029 A 
ATOM     46  N   UNL A   1      41.501  27.149  29.059  1.00  0.00    -0.354 N 
ATOM     47  C   UNL A   1      41.964  30.957  31.041  1.00  0.00     0.074 A 
ATOM     48  C   UNL A   1      40.705  31.669  31.093  1.00  0.00     0.031 C 
ATOM     49  C   UNL A   1      40.410  25.541  27.959  1.00  0.00     0.029 A 
ATOM     50  C   UNL A   1      41.731  25.942  28.444  1.00  0.00     0.049 A 
ATOM     51  H   UNL A   1      42.193  27.639  29.561  1.00  0.00     0.167 HD
ATOM     52  C   UNL A   1      43.118  31.411  31.581  1.00  0.00     0.037 A 
ATOM     53  C   UNL A   1      42.883  25.267  28.255  1.00  0.00     0.037 A 
ATOM     54  C   UNL A   1      44.373  30.712  31.518  1.00  0.00     0.049 A 
ATOM     55  C   UNL A   1      44.179  25.843  28.778  1.00  0.00     0.074 A 
ATOM     56  C   UNL A   1      45.592  31.077  32.061  1.00  0.00     0.029 A 
ATOM     57  N   UNL A   1      44.571  29.510  30.856  1.00  0.00    -0.354 N 
ATOM     58  N   UNL A   1      44.383  26.945  29.458  1.00  0.00    -0.248 NA
ATOM     59  C   UNL A   1      45.408  25.084  28.494  1.00  0.00     0.031 C 
ATOM     60  C   UNL A   1      46.542  30.126  31.676  1.00  0.00     0.029 A 
ATOM     61  C   UNL A   1      45.904  29.139  30.943  1.00  0.00     0.049 A 
ATOM     62  H   UNL A   1      43.871  28.995  30.394  1.00  0.00     0.167 HD
ATOM     63  C   UNL A   1      45.751  27.001  29.700  1.00  0.00     0.074 A 
ATOM     64  C   UNL A   1      46.329  25.813  29.109  1.00  0.00     0.031 C 
ATOM     65  C   UNL A   1      46.466  27.952  30.350  1.00  0.00     0.037 A 
BRANCH  52  66
ATOM     66  C   UNL A   1      43.085  32.750  32.255  1.00  0.00     0.064 A 
ATOM     67  C   UNL A   1      43.278  33.941  31.540  1.00  0.00     0.173 A 
ATOM     68  C   UNL A   1      42.826  32.843  33.631  1.00  0.00     0.173 A 
ATOM     69  F   UNL A   1      43.547  33.903  30.226  1.00  0.00    -0.203 F 
ATOM     70  C   UNL A   1      43.235  35.175  32.182  1.00  0.00     0.198 A 
ATOM     71  C   UNL A   1      42.756  34.079  34.264  1.00  0.00     0.198 A 
ATOM     72  F   UNL A   1      42.636  31.732  34.360  1.00  0.00    -0.203 F 
ATOM     73  F   UNL A   1      43.468  36.298  31.489  1.00  0.00    -0.200 F 
ATOM     74  C   UNL A   1      42.967  35.244  33.542  1.00  0.00     0.200 A 
ATOM     75  F   UNL A   1      42.486  34.145  35.575  1.00  0.00    -0.200 F 
ATOM     76  F   UNL A   1      42.918  36.433  34.157  1.00  0.00    -0.200 F 
ENDBRANCH  52  66
BRANCH  53  77
ATOM     77  C   UNL A   1      42.887  23.986  27.496  1.00  0.00     0.064 A 
ATOM     78  C   UNL A   1      43.224  23.951  26.135  1.00  0.00     0.173 A 
ATOM     79  C   UNL A   1      42.510  22.778  28.104  1.00  0.00     0.173 A 
ATOM     80  F   UNL A   1      43.554  25.084  25.499  1.00  0.00    -0.203 F 
ATOM     81  C   UNL A   1      43.168  22.762  25.409  1.00  0.00     0.198 A 
ATOM     82  C   UNL A   1      42.484  21.585  27.383  1.00  0.00     0.198 A 
ATOM     83  F   UNL A   1      42.164  22.756  29.399  1.00  0.00    -0.203 F 
ATOM     84  F   UNL A   1      43.442  22.769  24.097  1.00  0.00    -0.200 F 
ATOM     85  C   UNL A   1      42.805  21.580  26.035  1.00  0.00     0.200 A 
ATOM     86  F   UNL A   1      42.138  20.444  27.994  1.00  0.00    -0.200 F 
ATOM     87  F   UNL A   1      42.750  20.438  25.335  1.00  0.00    -0.200 F 
ENDBRANCH  53  77
BRANCH  65  88
ATOM     88  C   UNL A   1      47.948  27.747  30.480  1.00  0.00     0.064 A 
ATOM     89  C   UNL A   1      48.500  27.036  31.557  1.00  0.00     0.173 A 
ATOM     90  C   UNL A   1      48.821  28.207  29.483  1.00  0.00     0.173 A 
ATOM     91  F   UNL A   1      47.710  26.587  32.544  1.00  0.00    -0.203 F 
ATOM     92  C   UNL A   1      49.871  26.809  31.636  1.00  0.00     0.198 A 
ATOM     93  C   UNL A   1      50.188  27.952  29.550  1.00  0.00     0.198 A 
ATOM     94  F   UNL A   1      48.344  28.885  28.427  1.00  0.00    -0.203 F 
ATOM     95  F   UNL A   1      50.380  26.160  32.693  1.00  0.00    -0.200 F 
ATOM     96  C   UNL A   1      50.712  27.257  30.629  1.00  0.00     0.200 A 
ATOM     97  F   UNL A   1      50.996  28.372  28.567  1.00  0.00    -0.200 F 
ATOM     98  F   UNL A   1      52.030  27.023  30.700  1.00  0.00    -0.200 F 
ENDBRANCH  65  88
ENDBRANCH  39  40
ENDBRANCH  32  34
ENDBRANCH  31  32
ENDBRANCH  30  31
ENDBRANCH  29  30
ENDBRANCH  28  29
ENDBRANCH  27  28
ENDBRANCH  26  27
ENDBRANCH   1  26
TORSDOF 23
ENDMDL
MODEL 3
REMARK VINA RESULT:     -10.2      3.147      8.966
REMARK SMILES CC(C)[C@H](NC(=O)[C@H](C)NC(=O)C[NH3+])C(=O)OCCOCCOCCOC(=O)c1ccc(-c2c3nc(c(-c4c(F)c(F)c(F)c(F)c4F)c4ccc([nH]4)c(-c4c(F)c(F)c(F)c(F)c4F)c4nc(c(-c5c(F)c(F)c(F)c(F)c5F)c5ccc2[nH]5)C=C4)C=C3)cc1
REMARK SMILES IDX 20 1 19 2 18 3 17 4 15 5 16 6 4 7 2 8 1 9 3 10 5 11 6 12
REMARK SMILES IDX 7 14 8 15 9 16 10 17 11 18 12 20 13 21 14 22 21 26 22 27
REMARK SMILES IDX 23 28 24 29 25 30 26 31 27 32 28 33 29 34 30 35 91 36 31 37
REMARK SMILES IDX 90 38 32 39 33 40 34 41 84 42 35 43 89 44 83 45 85 46 36 47
REMARK SMILES IDX 88 48 82 49 81 50 37 52 69 53 49 54 68 55 50 56 53 57 67 58
REMARK SMILES IDX 86 59 51 60 52 61 66 63 87 64 54 65 38 66 39 67 47 68 40 69
REMARK SMILES IDX 41 70 45 71 48 72 42 73 43 74 46 75 44 76 70 77 71 78 79 79
REMARK SMILES IDX 72 80 73 81 77 82 80 83 74 84 75 85 78 86 76 87 55 88 56 89
REMARK SMILES IDX 64 90 57 91 58 92 62 93 65 94 59 95 60 96 63 97 61 98
REMARK H PARENT 5 13 10 19 14 23 14 24 14 25 85 51 53 62
REMARK Flexibility Score: inf
ROOT
ATOM      1  O   UNL A   1      34.910  31.113  28.219  1.00  0.00    -0.376 OA
ENDROOT
BRANCH   1   2
ATOM      2  C   UNL A   1      34.232  30.264  27.300  1.00  0.00     0.202 C 
BRANCH   2   3
ATOM      3  C   UNL A   1      34.922  28.939  26.965  1.00  0.00     0.261 C 
BRANCH   3   4
ATOM      4  O   UNL A   1      34.012  27.937  26.448  1.00  0.00    -0.462 OA
BRANCH   4   5
ATOM      5  C   UNL A   1      33.565  28.053  25.165  1.00  0.00     0.328 C 
ATOM      6  O   UNL A   1      34.200  28.601  24.271  1.00  0.00    -0.250 OA
BRANCH   5   7
ATOM      7  C   UNL A   1      32.200  27.329  24.928  1.00  0.00     0.194 C 
BRANCH   7   8
ATOM      8  C   UNL A   1      31.888  26.213  25.964  1.00  0.00     0.017 C 
ATOM      9  C   UNL A   1      30.367  25.988  26.053  1.00  0.00     0.010 C 
ATOM     10  C   UNL A   1      32.518  24.842  25.679  1.00  0.00     0.010 C 
ENDBRANCH   7   8
BRANCH   7  11
ATOM     11  N   UNL A   1      31.817  27.004  23.553  1.00  0.00    -0.341 N 
ATOM     12  C   UNL A   1      30.858  27.462  22.708  1.00  0.00     0.243 C 
ATOM     13  H   UNL A   1      32.376  26.299  23.154  1.00  0.00     0.164 HD
ATOM     14  O   UNL A   1      30.861  26.934  21.590  1.00  0.00    -0.273 OA
BRANCH  12  15
ATOM     15  C   UNL A   1      29.745  28.454  23.145  1.00  0.00     0.168 C 
ATOM     16  C   UNL A   1      28.478  27.638  23.420  1.00  0.00     0.041 C 
BRANCH  15  17
ATOM     17  N   UNL A   1      29.444  29.443  22.107  1.00  0.00    -0.340 N 
ATOM     18  C   UNL A   1      29.001  30.726  22.145  1.00  0.00     0.275 C 
ATOM     19  H   UNL A   1      29.592  29.108  21.194  1.00  0.00     0.164 HD
ATOM     20  O   UNL A   1      28.780  31.270  21.059  1.00  0.00    -0.268 OA
BRANCH  18  21
ATOM     21  C   UNL A   1      28.864  31.521  23.437  1.00  0.00     0.360 C 
BRANCH  21  22
ATOM     22  N   UNL A   1      29.316  32.911  23.305  1.00  0.00    -0.350 N 
ATOM     23  H   UNL A   1      30.296  32.923  23.022  1.00  0.00     0.344 HD
ATOM     24  H   UNL A   1      29.214  33.388  24.201  1.00  0.00     0.344 HD
ATOM     25  H   UNL A   1      28.753  33.386  22.600  1.00  0.00     0.344 HD
ENDBRANCH  21  22
ENDBRANCH  18  21
ENDBRANCH  15  17
ENDBRANCH  12  15
ENDBRANCH   7  11
ENDBRANCH   5   7
ENDBRANCH   4   5
ENDBRANCH   3   4
ENDBRANCH   2   3
ENDBRANCH   1   2
BRANCH   1  26
ATOM     26  C   UNL A   1      34.699  32.513  28.088  1.00  0.00     0.188 C 
BRANCH  26  27
ATOM     27  C   UNL A   1      34.512  33.344  29.368  1.00  0.00     0.188 C 
BRANCH  27  28
ATOM     28  O   UNL A   1      33.334  34.128  29.403  1.00  0.00    -0.376 OA
BRANCH  28  29
ATOM     29  C   UNL A   1      33.512  35.494  29.044  1.00  0.00     0.202 C 
BRANCH  29  30
ATOM     30  C   UNL A   1      32.886  36.490  30.033  1.00  0.00     0.261 C 
BRANCH  30  31
ATOM     31  O   UNL A   1      32.222  35.898  31.165  1.00  0.00    -0.460 OA
BRANCH  31  32
ATOM     32  C   UNL A   1      32.655  36.242  32.411  1.00  0.00     0.338 C 
ATOM     33  O   UNL A   1      32.093  36.945  33.210  1.00  0.00    -0.246 OA
BRANCH  32  34
ATOM     34  C   UNL A   1      33.811  35.351  32.712  1.00  0.00     0.060 A 
ATOM     35  C   UNL A   1      33.562  34.024  33.099  1.00  0.00     0.016 A 
ATOM     36  C   UNL A   1      35.119  35.780  32.485  1.00  0.00     0.016 A 
ATOM     37  C   UNL A   1      34.620  33.117  33.230  1.00  0.00     0.010 A 
ATOM     38  C   UNL A   1      36.179  34.884  32.657  1.00  0.00     0.010 A 
ATOM     39  C   UNL A   1      35.938  33.551  33.033  1.00  0.00    -0.014 A 
BRANCH  39  40
ATOM     40  C   UNL A   1      37.089  32.689  33.396  1.00  0.00     0.031 A 
ATOM     41  C   UNL A   1      37.804  32.979  34.684  1.00  0.00     0.074 A 
ATOM     42  C   UNL A   1      37.535  31.711  32.584  1.00  0.00     0.049 A 
ATOM     43  N   UNL A   1      38.924  32.488  35.147  1.00  0.00    -0.248 NA
ATOM     44  C   UNL A   1      37.165  33.969  35.567  1.00  0.00     0.031 C 
ATOM     45  C   UNL A   1      36.907  31.296  31.333  1.00  0.00     0.029 A 
ATOM     46  N   UNL A   1      38.646  30.909  32.688  1.00  0.00    -0.354 N 
ATOM     47  C   UNL A   1      39.132  33.119  36.366  1.00  0.00     0.074 A 
ATOM     48  C   UNL A   1      38.032  34.037  36.566  1.00  0.00     0.031 C 
ATOM     49  C   UNL A   1      37.662  30.336  30.767  1.00  0.00     0.029 A 
ATOM     50  C   UNL A   1      38.846  30.102  31.594  1.00  0.00     0.049 A 
ATOM     51  H   UNL A   1      39.242  30.912  33.472  1.00  0.00     0.167 HD
ATOM     52  C   UNL A   1      40.151  32.949  37.239  1.00  0.00     0.037 A 
ATOM     53  C   UNL A   1      39.888  29.305  31.279  1.00  0.00     0.037 A 
ATOM     54  C   UNL A   1      41.252  32.047  37.035  1.00  0.00     0.049 A 
ATOM     55  C   UNL A   1      41.065  29.210  32.222  1.00  0.00     0.074 A 
ATOM     56  C   UNL A   1      42.318  31.784  37.876  1.00  0.00     0.029 A 
ATOM     57  N   UNL A   1      41.436  31.274  35.898  1.00  0.00    -0.354 N 
ATOM     58  N   UNL A   1      41.244  29.782  33.388  1.00  0.00    -0.248 NA
ATOM     59  C   UNL A   1      42.193  28.365  31.796  1.00  0.00     0.031 C 
ATOM     60  C   UNL A   1      43.179  30.897  37.223  1.00  0.00     0.029 A 
ATOM     61  C   UNL A   1      42.621  30.563  36.000  1.00  0.00     0.049 A 
ATOM     62  H   UNL A   1      40.817  31.235  35.134  1.00  0.00     0.167 HD
ATOM     63  C   UNL A   1      42.485  29.353  33.842  1.00  0.00     0.074 A 
ATOM     64  C   UNL A   1      43.012  28.457  32.835  1.00  0.00     0.031 C 
ATOM     65  C   UNL A   1      43.133  29.673  34.989  1.00  0.00     0.037 A 
BRANCH  52  66
ATOM     66  C   UNL A   1      40.142  33.789  38.480  1.00  0.00     0.064 A 
ATOM     67  C   UNL A   1      39.423  33.409  39.624  1.00  0.00     0.173 A 
ATOM     68  C   UNL A   1      40.888  34.976  38.536  1.00  0.00     0.173 A 
ATOM     69  F   UNL A   1      38.680  32.292  39.613  1.00  0.00    -0.203 F 
ATOM     70  C   UNL A   1      39.435  34.198  40.770  1.00  0.00     0.198 A 
ATOM     71  C   UNL A   1      40.920  35.748  39.693  1.00  0.00     0.198 A 
ATOM     72  F   UNL A   1      41.592  35.384  37.469  1.00  0.00    -0.203 F 
ATOM     73  F   UNL A   1      38.704  33.841  41.835  1.00  0.00    -0.200 F 
ATOM     74  C   UNL A   1      40.188  35.363  40.807  1.00  0.00     0.200 A 
ATOM     75  F   UNL A   1      41.656  36.867  39.731  1.00  0.00    -0.200 F 
ATOM     76  F   UNL A   1      40.204  36.118  41.913  1.00  0.00    -0.200 F 
ENDBRANCH  52  66
BRANCH  53  77
ATOM     77  C   UNL A   1      39.901  28.561  29.989  1.00  0.00     0.064 A 
ATOM     78  C   UNL A   1      39.332  27.284  29.884  1.00  0.00     0.173 A 
ATOM     79  C   UNL A   1      40.521  29.092  28.848  1.00  0.00     0.173 A 
ATOM     80  F   UNL A   1      38.760  26.716  30.956  1.00  0.00    -0.203 F 
ATOM     81  C   UNL A   1      39.398  26.561  28.694  1.00  0.00     0.198 A 
ATOM     82  C   UNL A   1      40.559  28.380  27.650  1.00  0.00     0.198 A 
ATOM     83  F   UNL A   1      41.094  30.304  28.896  1.00  0.00    -0.203 F 
ATOM     84  F   UNL A   1      38.894  25.320  28.638  1.00  0.00    -0.200 F 
ATOM     85  C   UNL A   1      40.005  27.113  27.576  1.00  0.00     0.200 A 
ATOM     86  F   UNL A   1      41.142  28.921  26.571  1.00  0.00    -0.200 F 
ATOM     87  F   UNL A   1      40.068  26.416  26.433  1.00  0.00    -0.200 F 
ENDBRANCH  53  77
BRANCH  65  88
ATOM     88  C   UNL A   1      44.474  29.043  35.235  1.00  0.00     0.064 A 
ATOM     89  C   UNL A   1      45.666  29.678  34.855  1.00  0.00     0.173 A 
ATOM     90  C   UNL A   1      44.572  27.822  35.920  1.00  0.00     0.173 A 
ATOM     91  F   UNL A   1      45.626  30.841  34.186  1.00  0.00    -0.203 F 
ATOM     92  C   UNL A   1      46.903  29.106  35.138  1.00  0.00     0.198 A 
ATOM     93  C   UNL A   1      45.812  27.268  36.228  1.00  0.00     0.198 A 
ATOM     94  F   UNL A   1      43.463  27.176  36.314  1.00  0.00    -0.203 F 
ATOM     95  F   UNL A   1      48.028  29.713  34.732  1.00  0.00    -0.200 F 
ATOM     96  C   UNL A   1      46.976  27.908  35.832  1.00  0.00     0.200 A 
ATOM     97  F   UNL A   1      45.880  26.119  36.913  1.00  0.00    -0.200 F 
ATOM     98  F   UNL A   1      48.169  27.368  36.117  1.00  0.00    -0.200 F 
ENDBRANCH  65  88
ENDBRANCH  39  40
ENDBRANCH  32  34
ENDBRANCH  31  32
ENDBRANCH  30  31
ENDBRANCH  29  30
ENDBRANCH  28  29
ENDBRANCH  27  28
ENDBRANCH  26  27
ENDBRANCH   1  26
TORSDOF 23
ENDMDL
