MODEL 1
REMARK VINA RESULT:     -12.2      0.000      0.000
REMARK SMILES Cc1ccc2c(=O)c3cccc(CC(=O)OCCOCCOCCOC(=O)c4ccc(-c5c6nc(c(-c7c(F)c(F)c(F)c(F)c7F)c7ccc([nH]7)c(-c7c(F)c(F)c(F)c(F)c7F)c7nc(c(-c8c(F)c(F)c(F)c(F)c8F)c8ccc5[nH]8)C=C7)C=C6)cc4)c3oc2c1C
REMARK SMILES IDX 21 1 20 2 19 3 18 4 17 5 16 6 14 7 15 8 13 9 12 10 1 11 2 12
REMARK SMILES IDX 3 13 94 14 4 15 93 16 95 17 5 18 92 19 6 20 91 21 7 22 8 23
REMARK SMILES IDX 9 24 11 25 10 26 22 27 23 28 24 29 25 30 26 31 27 32 28 33
REMARK SMILES IDX 29 34 90 35 30 36 89 37 31 38 32 39 33 40 83 41 34 42 88 43
REMARK SMILES IDX 82 44 84 45 35 46 87 47 81 48 80 49 36 51 68 52 48 53 67 54
REMARK SMILES IDX 49 55 52 56 66 57 85 58 50 59 51 60 65 62 86 63 53 64 37 65
REMARK SMILES IDX 38 66 46 67 39 68 40 69 44 70 47 71 41 72 42 73 45 74 43 75
REMARK SMILES IDX 69 76 70 77 78 78 71 79 72 80 76 81 79 82 73 83 74 84 77 85
REMARK SMILES IDX 75 86 54 87 55 88 63 89 56 90 57 91 61 92 64 93 58 94 59 95
REMARK SMILES IDX 62 96 60 97
REMARK H PARENT 84 50 52 61
REMARK Flexibility Score: inf
ROOT
ATOM      1  C   UNL A   1      41.876  19.614  26.331  1.00  0.00     0.188 C 
ENDROOT
BRANCH   1   2
ATOM      2  C   UNL A   1      40.421  20.097  26.084  1.00  0.00     0.188 C 
BRANCH   2   3
ATOM      3  O   UNL A   1      40.196  21.478  25.871  1.00  0.00    -0.376 OA
BRANCH   3   4
ATOM      4  C   UNL A   1      38.876  21.925  26.118  1.00  0.00     0.202 C 
BRANCH   4   5
ATOM      5  C   UNL A   1      37.755  21.189  25.349  1.00  0.00     0.261 C 
BRANCH   5   6
ATOM      6  O   UNL A   1      37.411  21.750  24.038  1.00  0.00    -0.463 OA
BRANCH   6   7
ATOM      7  C   UNL A   1      36.626  22.857  23.989  1.00  0.00     0.310 C 
ATOM      8  O   UNL A   1      37.021  23.954  24.383  1.00  0.00    -0.252 OA
BRANCH   7   9
ATOM      9  C   UNL A   1      35.240  22.743  23.307  1.00  0.00     0.162 C 
BRANCH   9  10
ATOM     10  C   UNL A   1      33.907  22.622  24.053  1.00  0.00     0.007 A 
ATOM     11  C   UNL A   1      31.703  30.070  25.332  1.00  0.00     0.045 C 
ATOM     12  C   UNL A   1      32.070  28.542  25.352  1.00  0.00    -0.044 A 
ATOM     13  C   UNL A   1      31.027  27.969  26.170  1.00  0.00     0.005 A 
ATOM     14  C   UNL A   1      33.192  27.659  24.624  1.00  0.00    -0.005 A 
ATOM     15  C   UNL A   1      30.887  26.639  26.499  1.00  0.00     0.016 A 
ATOM     16  C   UNL A   1      32.924  26.105  25.267  1.00  0.00     0.141 A 
ATOM     17  C   UNL A   1      34.411  28.144  22.924  1.00  0.00     0.049 C 
ATOM     18  C   UNL A   1      31.827  25.724  26.088  1.00  0.00     0.066 A 
ATOM     19  O   UNL A   1      33.823  24.932  25.055  1.00  0.00    -0.455 OA
ATOM     20  C   UNL A   1      31.513  24.323  26.409  1.00  0.00     0.200 A 
ATOM     21  C   UNL A   1      33.289  23.638  24.875  1.00  0.00     0.142 A 
ATOM     22  O   UNL A   1      30.678  24.019  27.255  1.00  0.00    -0.288 OA
ATOM     23  C   UNL A   1      32.154  23.294  25.604  1.00  0.00     0.066 A 
ATOM     24  C   UNL A   1      31.611  22.002  25.584  1.00  0.00     0.016 A 
ATOM     25  C   UNL A   1      33.338  21.321  24.059  1.00  0.00     0.008 A 
ATOM     26  C   UNL A   1      32.208  21.014  24.816  1.00  0.00     0.001 A 
ENDBRANCH   9  10
ENDBRANCH   7   9
ENDBRANCH   6   7
ENDBRANCH   5   6
ENDBRANCH   4   5
ENDBRANCH   3   4
ENDBRANCH   2   3
ENDBRANCH   1   2
BRANCH   1  27
ATOM     27  O   UNL A   1      42.584  19.492  25.113  1.00  0.00    -0.376 OA
BRANCH  27  28
ATOM     28  C   UNL A   1      43.987  19.414  25.249  1.00  0.00     0.202 C 
BRANCH  28  29
ATOM     29  C   UNL A   1      44.721  20.686  24.801  1.00  0.00     0.261 C 
BRANCH  29  30
ATOM     30  O   UNL A   1      44.668  21.790  25.726  1.00  0.00    -0.460 OA
BRANCH  30  31
ATOM     31  C   UNL A   1      43.835  22.787  25.381  1.00  0.00     0.338 C 
ATOM     32  O   UNL A   1      43.279  22.931  24.306  1.00  0.00    -0.246 OA
BRANCH  31  33
ATOM     33  C   UNL A   1      43.559  23.640  26.551  1.00  0.00     0.060 A 
ATOM     34  C   UNL A   1      44.305  25.273  26.535  1.00  0.00     0.016 A 
ATOM     35  C   UNL A   1      42.156  23.339  27.670  1.00  0.00     0.016 A 
ATOM     36  C   UNL A   1      43.557  26.641  27.483  1.00  0.00     0.010 A 
ATOM     37  C   UNL A   1      41.340  24.753  28.568  1.00  0.00     0.010 A 
ATOM     38  C   UNL A   1      42.046  26.411  28.462  1.00  0.00    -0.014 A 
BRANCH  38  39
ATOM     39  C   UNL A   1      41.781  27.504  29.481  1.00  0.00     0.031 A 
ATOM     40  C   UNL A   1      40.587  28.437  29.363  1.00  0.00     0.074 A 
ATOM     41  C   UNL A   1      42.455  27.496  30.652  1.00  0.00     0.049 A 
ATOM     42  N   UNL A   1      40.066  29.245  30.261  1.00  0.00    -0.248 NA
ATOM     43  C   UNL A   1      39.858  28.449  28.091  1.00  0.00     0.031 C 
ATOM     44  C   UNL A   1      43.586  26.628  30.957  1.00  0.00     0.029 A 
ATOM     45  N   UNL A   1      42.266  28.205  31.820  1.00  0.00    -0.354 N 
ATOM     46  C   UNL A   1      38.942  29.817  29.670  1.00  0.00     0.074 A 
ATOM     47  C   UNL A   1      38.870  29.297  28.327  1.00  0.00     0.031 C 
ATOM     48  C   UNL A   1      43.936  26.784  32.242  1.00  0.00     0.029 A 
ATOM     49  C   UNL A   1      43.121  27.840  32.836  1.00  0.00     0.049 A 
ATOM     50  H   UNL A   1      41.583  28.908  31.918  1.00  0.00     0.167 HD
ATOM     51  C   UNL A   1      38.042  30.695  30.177  1.00  0.00     0.037 A 
ATOM     52  C   UNL A   1      43.261  28.311  34.094  1.00  0.00     0.037 A 
ATOM     53  C   UNL A   1      38.129  31.292  31.484  1.00  0.00     0.049 A 
ATOM     54  C   UNL A   1      42.359  29.415  34.578  1.00  0.00     0.074 A 
ATOM     55  C   UNL A   1      37.308  32.251  32.051  1.00  0.00     0.029 A 
ATOM     56  N   UNL A   1      39.110  31.002  32.417  1.00  0.00    -0.354 N 
ATOM     57  N   UNL A   1      41.317  29.950  33.991  1.00  0.00    -0.248 NA
ATOM     58  C   UNL A   1      42.662  29.993  35.897  1.00  0.00     0.031 C 
ATOM     59  C   UNL A   1      37.831  32.590  33.303  1.00  0.00     0.029 A 
ATOM     60  C   UNL A   1      38.937  31.791  33.544  1.00  0.00     0.049 A 
ATOM     61  H   UNL A   1      39.824  30.334  32.299  1.00  0.00     0.167 HD
ATOM     62  C   UNL A   1      40.833  30.911  34.869  1.00  0.00     0.074 A 
ATOM     63  C   UNL A   1      41.679  30.872  36.042  1.00  0.00     0.031 C 
ATOM     64  C   UNL A   1      39.781  31.751  34.711  1.00  0.00     0.037 A 
BRANCH  51  65
ATOM     65  C   UNL A   1      36.896  31.107  29.292  1.00  0.00     0.064 A 
ATOM     66  C   UNL A   1      35.859  30.217  28.969  1.00  0.00     0.173 A 
ATOM     67  C   UNL A   1      36.814  32.414  28.787  1.00  0.00     0.173 A 
ATOM     68  F   UNL A   1      35.895  28.951  29.413  1.00  0.00    -0.203 F 
ATOM     69  C   UNL A   1      34.797  30.614  28.159  1.00  0.00     0.198 A 
ATOM     70  C   UNL A   1      35.737  32.817  28.001  1.00  0.00     0.198 A 
ATOM     71  F   UNL A   1      37.774  33.308  29.067  1.00  0.00    -0.203 F 
ATOM     72  F   UNL A   1      33.841  29.734  27.831  1.00  0.00    -0.200 F 
ATOM     73  C   UNL A   1      34.733  31.915  27.682  1.00  0.00     0.200 A 
ATOM     74  F   UNL A   1      35.671  34.077  27.552  1.00  0.00    -0.200 F 
ATOM     75  F   UNL A   1      33.707  32.298  26.909  1.00  0.00    -0.200 F 
ENDBRANCH  51  65
BRANCH  52  76
ATOM     76  C   UNL A   1      44.323  27.757  34.981  1.00  0.00     0.064 A 
ATOM     77  C   UNL A   1      44.053  26.721  35.886  1.00  0.00     0.173 A 
ATOM     78  C   UNL A   1      45.638  28.249  34.935  1.00  0.00     0.173 A 
ATOM     79  F   UNL A   1      42.806  26.239  35.998  1.00  0.00    -0.203 F 
ATOM     80  C   UNL A   1      45.054  26.193  36.701  1.00  0.00     0.198 A 
ATOM     81  C   UNL A   1      46.645  27.699  35.726  1.00  0.00     0.198 A 
ATOM     82  F   UNL A   1      45.951  29.252  34.102  1.00  0.00    -0.203 F 
ATOM     83  F   UNL A   1      44.760  25.223  37.578  1.00  0.00    -0.200 F 
ATOM     84  C   UNL A   1      46.353  26.673  36.611  1.00  0.00     0.200 A 
ATOM     85  F   UNL A   1      47.900  28.159  35.624  1.00  0.00    -0.200 F 
ATOM     86  F   UNL A   1      47.319  26.151  37.378  1.00  0.00    -0.200 F 
ENDBRANCH  52  76
BRANCH  64  87
ATOM     87  C   UNL A   1      39.461  32.697  35.833  1.00  0.00     0.064 A 
ATOM     88  C   UNL A   1      38.543  32.360  36.838  1.00  0.00     0.173 A 
ATOM     89  C   UNL A   1      40.132  33.924  35.942  1.00  0.00     0.173 A 
ATOM     90  F   UNL A   1      37.867  31.203  36.777  1.00  0.00    -0.203 F 
ATOM     91  C   UNL A   1      38.294  33.226  37.901  1.00  0.00     0.198 A 
ATOM     92  C   UNL A   1      39.906  34.772  37.024  1.00  0.00     0.198 A 
ATOM     93  F   UNL A   1      41.027  34.292  35.014  1.00  0.00    -0.203 F 
ATOM     94  F   UNL A   1      37.384  32.900  38.828  1.00  0.00    -0.200 F 
ATOM     95  C   UNL A   1      38.983  34.425  37.998  1.00  0.00     0.200 A 
ATOM     96  F   UNL A   1      40.586  35.922  37.126  1.00  0.00    -0.200 F 
ATOM     97  F   UNL A   1      38.755  35.249  39.031  1.00  0.00    -0.200 F 
ENDBRANCH  64  87
ENDBRANCH  38  39
ENDBRANCH  31  33
ENDBRANCH  30  31
ENDBRANCH  29  30
ENDBRANCH  28  29
ENDBRANCH  27  28
ENDBRANCH   1  27
TORSDOF 18
ENDMDL
MODEL 2
REMARK VINA RESULT:     -12.0      1.226      2.118
REMARK SMILES Cc1ccc2c(=O)c3cccc(CC(=O)OCCOCCOCCOC(=O)c4ccc(-c5c6nc(c(-c7c(F)c(F)c(F)c(F)c7F)c7ccc([nH]7)c(-c7c(F)c(F)c(F)c(F)c7F)c7nc(c(-c8c(F)c(F)c(F)c(F)c8F)c8ccc5[nH]8)C=C7)C=C6)cc4)c3oc2c1C
REMARK SMILES IDX 21 1 20 2 19 3 18 4 17 5 16 6 14 7 15 8 13 9 12 10 1 11 2 12
REMARK SMILES IDX 3 13 94 14 4 15 93 16 95 17 5 18 92 19 6 20 91 21 7 22 8 23
REMARK SMILES IDX 9 24 11 25 10 26 22 27 23 28 24 29 25 30 26 31 27 32 28 33
REMARK SMILES IDX 29 34 90 35 30 36 89 37 31 38 32 39 33 40 83 41 34 42 88 43
REMARK SMILES IDX 82 44 84 45 35 46 87 47 81 48 80 49 36 51 68 52 48 53 67 54
REMARK SMILES IDX 49 55 52 56 66 57 85 58 50 59 51 60 65 62 86 63 53 64 37 65
REMARK SMILES IDX 38 66 46 67 39 68 40 69 44 70 47 71 41 72 42 73 45 74 43 75
REMARK SMILES IDX 69 76 70 77 78 78 71 79 72 80 76 81 79 82 73 83 74 84 77 85
REMARK SMILES IDX 75 86 54 87 55 88 63 89 56 90 57 91 61 92 64 93 58 94 59 95
REMARK SMILES IDX 62 96 60 97
REMARK H PARENT 84 50 52 61
REMARK Flexibility Score: inf
ROOT
ATOM      1  C   UNL A   1      43.572  19.060  25.545  1.00  0.00     0.188 C 
ENDROOT
BRANCH   1   2
ATOM      2  C   UNL A   1      42.087  19.389  25.864  1.00  0.00     0.188 C 
BRANCH   2   3
ATOM      3  O   UNL A   1      41.794  20.598  26.539  1.00  0.00    -0.376 OA
BRANCH   3   4
ATOM      4  C   UNL A   1      40.905  21.470  25.866  1.00  0.00     0.202 C 
BRANCH   4   5
ATOM      5  C   UNL A   1      39.644  21.894  26.655  1.00  0.00     0.261 C 
BRANCH   5   6
ATOM      6  O   UNL A   1      38.510  22.345  25.842  1.00  0.00    -0.463 OA
BRANCH   6   7
ATOM      7  C   UNL A   1      37.972  23.567  26.094  1.00  0.00     0.310 C 
ATOM      8  O   UNL A   1      38.568  24.416  26.756  1.00  0.00    -0.252 OA
BRANCH   7   9
ATOM      9  C   UNL A   1      36.624  23.927  25.425  1.00  0.00     0.162 C 
BRANCH   9  10
ATOM     10  C   UNL A   1      35.263  23.356  25.839  1.00  0.00     0.007 A 
ATOM     11  C   UNL A   1      30.039  28.515  23.000  1.00  0.00     0.045 C 
ATOM     12  C   UNL A   1      30.924  27.497  23.807  1.00  0.00    -0.044 A 
ATOM     13  C   UNL A   1      29.947  26.741  24.555  1.00  0.00     0.005 A 
ATOM     14  C   UNL A   1      32.492  27.164  23.830  1.00  0.00    -0.005 A 
ATOM     15  C   UNL A   1      30.210  25.709  25.427  1.00  0.00     0.016 A 
ATOM     16  C   UNL A   1      32.605  25.980  25.050  1.00  0.00     0.141 A 
ATOM     17  C   UNL A   1      34.011  27.676  22.404  1.00  0.00     0.049 C 
ATOM     18  C   UNL A   1      31.508  25.349  25.699  1.00  0.00     0.066 A 
ATOM     19  O   UNL A   1      33.887  25.453  25.606  1.00  0.00    -0.455 OA
ATOM     20  C   UNL A   1      31.658  24.166  26.562  1.00  0.00     0.200 A 
ATOM     21  C   UNL A   1      34.021  24.089  25.940  1.00  0.00     0.142 A 
ATOM     22  O   UNL A   1      30.737  23.742  27.252  1.00  0.00    -0.288 OA
ATOM     23  C   UNL A   1      32.917  23.440  26.486  1.00  0.00     0.066 A 
ATOM     24  C   UNL A   1      32.976  22.121  26.955  1.00  0.00     0.016 A 
ATOM     25  C   UNL A   1      35.294  22.024  26.329  1.00  0.00     0.008 A 
ATOM     26  C   UNL A   1      34.168  21.416  26.882  1.00  0.00     0.001 A 
ENDBRANCH   9  10
ENDBRANCH   7   9
ENDBRANCH   6   7
ENDBRANCH   5   6
ENDBRANCH   4   5
ENDBRANCH   3   4
ENDBRANCH   2   3
ENDBRANCH   1   2
BRANCH   1  27
ATOM     27  O   UNL A   1      44.085  19.934  24.559  1.00  0.00    -0.376 OA
BRANCH  27  28
ATOM     28  C   UNL A   1      45.295  20.573  24.905  1.00  0.00     0.202 C 
BRANCH  28  29
ATOM     29  C   UNL A   1      45.118  21.740  25.887  1.00  0.00     0.261 C 
BRANCH  29  30
ATOM     30  O   UNL A   1      45.155  23.055  25.299  1.00  0.00    -0.460 OA
BRANCH  30  31
ATOM     31  C   UNL A   1      43.984  23.494  24.803  1.00  0.00     0.338 C 
ATOM     32  O   UNL A   1      43.358  23.007  23.879  1.00  0.00    -0.246 OA
BRANCH  31  33
ATOM     33  C   UNL A   1      43.465  24.592  25.637  1.00  0.00     0.060 A 
ATOM     34  C   UNL A   1      42.610  24.110  27.140  1.00  0.00     0.016 A 
ATOM     35  C   UNL A   1      44.083  26.299  25.501  1.00  0.00     0.016 A 
ATOM     36  C   UNL A   1      42.525  25.250  28.563  1.00  0.00     0.010 A 
ATOM     37  C   UNL A   1      44.075  27.431  26.981  1.00  0.00     0.010 A 
ATOM     38  C   UNL A   1      43.298  26.892  28.518  1.00  0.00    -0.014 A 
BRANCH  38  39
ATOM     39  C   UNL A   1      42.813  27.847  29.595  1.00  0.00     0.031 A 
ATOM     40  C   UNL A   1      41.494  28.591  29.470  1.00  0.00     0.074 A 
ATOM     41  C   UNL A   1      43.421  27.849  30.801  1.00  0.00     0.049 A 
ATOM     42  N   UNL A   1      40.808  29.235  30.390  1.00  0.00    -0.248 NA
ATOM     43  C   UNL A   1      40.836  28.593  28.160  1.00  0.00     0.031 C 
ATOM     44  C   UNL A   1      44.658  27.144  31.113  1.00  0.00     0.029 A 
ATOM     45  N   UNL A   1      43.064  28.425  32.003  1.00  0.00    -0.354 N 
ATOM     46  C   UNL A   1      39.638  29.673  29.773  1.00  0.00     0.074 A 
ATOM     47  C   UNL A   1      39.717  29.258  28.394  1.00  0.00     0.031 C 
ATOM     48  C   UNL A   1      44.915  27.249  32.425  1.00  0.00     0.029 A 
ATOM     49  C   UNL A   1      43.915  28.116  33.041  1.00  0.00     0.049 A 
ATOM     50  H   UNL A   1      42.275  29.004  32.109  1.00  0.00     0.167 HD
ATOM     51  C   UNL A   1      38.586  30.359  30.285  1.00  0.00     0.037 A 
ATOM     52  C   UNL A   1      43.916  28.501  34.335  1.00  0.00     0.037 A 
ATOM     53  C   UNL A   1      38.513  30.855  31.634  1.00  0.00     0.049 A 
ATOM     54  C   UNL A   1      42.828  29.410  34.841  1.00  0.00     0.074 A 
ATOM     55  C   UNL A   1      37.524  31.628  32.216  1.00  0.00     0.029 A 
ATOM     56  N   UNL A   1      39.480  30.645  32.603  1.00  0.00    -0.354 N 
ATOM     57  N   UNL A   1      41.745  29.824  34.230  1.00  0.00    -0.248 NA
ATOM     58  C   UNL A   1      42.970  29.920  36.214  1.00  0.00     0.031 C 
ATOM     59  C   UNL A   1      37.923  31.942  33.519  1.00  0.00     0.029 A 
ATOM     60  C   UNL A   1      39.129  31.306  33.770  1.00  0.00     0.049 A 
ATOM     61  H   UNL A   1      40.296  30.108  32.482  1.00  0.00     0.167 HD
ATOM     62  C   UNL A   1      41.072  30.625  35.143  1.00  0.00     0.074 A 
ATOM     63  C   UNL A   1      41.855  30.623  36.361  1.00  0.00     0.031 C 
ATOM     64  C   UNL A   1      39.909  31.303  34.981  1.00  0.00     0.037 A 
BRANCH  51  65
ATOM     65  C   UNL A   1      37.436  30.658  29.363  1.00  0.00     0.064 A 
ATOM     66  C   UNL A   1      36.487  29.679  29.027  1.00  0.00     0.173 A 
ATOM     67  C   UNL A   1      37.257  31.947  28.834  1.00  0.00     0.173 A 
ATOM     68  F   UNL A   1      36.618  28.427  29.492  1.00  0.00    -0.203 F 
ATOM     69  C   UNL A   1      35.419  29.973  28.182  1.00  0.00     0.198 A 
ATOM     70  C   UNL A   1      36.172  32.245  28.013  1.00  0.00     0.198 A 
ATOM     71  F   UNL A   1      38.130  32.923  29.125  1.00  0.00    -0.203 F 
ATOM     72  F   UNL A   1      34.551  29.010  27.842  1.00  0.00    -0.200 F 
ATOM     73  C   UNL A   1      35.258  31.256  27.682  1.00  0.00     0.200 A 
ATOM     74  F   UNL A   1      36.012  33.489  27.541  1.00  0.00    -0.200 F 
ATOM     75  F   UNL A   1      34.226  31.540  26.875  1.00  0.00    -0.200 F 
ENDBRANCH  51  65
BRANCH  52  76
ATOM     76  C   UNL A   1      45.007  28.047  35.245  1.00  0.00     0.064 A 
ATOM     77  C   UNL A   1      46.185  28.791  35.400  1.00  0.00     0.173 A 
ATOM     78  C   UNL A   1      44.890  26.860  35.986  1.00  0.00     0.173 A 
ATOM     79  F   UNL A   1      46.368  29.914  34.688  1.00  0.00    -0.203 F 
ATOM     80  C   UNL A   1      47.196  28.372  36.266  1.00  0.00     0.198 A 
ATOM     81  C   UNL A   1      45.885  26.460  36.875  1.00  0.00     0.198 A 
ATOM     82  F   UNL A   1      43.792  26.099  35.864  1.00  0.00    -0.203 F 
ATOM     83  F   UNL A   1      48.324  29.088  36.372  1.00  0.00    -0.200 F 
ATOM     84  C   UNL A   1      47.039  27.214  37.013  1.00  0.00     0.200 A 
ATOM     85  F   UNL A   1      45.720  25.347  37.603  1.00  0.00    -0.200 F 
ATOM     86  F   UNL A   1      48.000  26.824  37.861  1.00  0.00    -0.200 F 
ENDBRANCH  52  76
BRANCH  64  87
ATOM     87  C   UNL A   1      39.388  32.095  36.146  1.00  0.00     0.064 A 
ATOM     88  C   UNL A   1      39.889  33.369  36.451  1.00  0.00     0.173 A 
ATOM     89  C   UNL A   1      38.328  31.605  36.923  1.00  0.00     0.173 A 
ATOM     90  F   UNL A   1      40.909  33.881  35.745  1.00  0.00    -0.203 F 
ATOM     91  C   UNL A   1      39.360  34.114  37.503  1.00  0.00     0.198 A 
ATOM     92  C   UNL A   1      37.779  32.366  37.952  1.00  0.00     0.198 A 
ATOM     93  F   UNL A   1      37.804  30.396  36.668  1.00  0.00    -0.203 F 
ATOM     94  F   UNL A   1      39.882  35.311  37.801  1.00  0.00    -0.200 F 
ATOM     95  C   UNL A   1      38.300  33.617  38.245  1.00  0.00     0.200 A 
ATOM     96  F   UNL A   1      36.742  31.891  38.655  1.00  0.00    -0.200 F 
ATOM     97  F   UNL A   1      37.782  34.342  39.246  1.00  0.00    -0.200 F 
ENDBRANCH  64  87
ENDBRANCH  38  39
ENDBRANCH  31  33
ENDBRANCH  30  31
ENDBRANCH  29  30
ENDBRANCH  28  29
ENDBRANCH  27  28
ENDBRANCH   1  27
TORSDOF 18
ENDMDL
MODEL 3
REMARK VINA RESULT:     -10.7      1.422      7.719
REMARK SMILES Cc1ccc2c(=O)c3cccc(CC(=O)OCCOCCOCCOC(=O)c4ccc(-c5c6nc(c(-c7c(F)c(F)c(F)c(F)c7F)c7ccc([nH]7)c(-c7c(F)c(F)c(F)c(F)c7F)c7nc(c(-c8c(F)c(F)c(F)c(F)c8F)c8ccc5[nH]8)C=C7)C=C6)cc4)c3oc2c1C
REMARK SMILES IDX 21 1 20 2 19 3 18 4 17 5 16 6 14 7 15 8 13 9 12 10 1 11 2 12
REMARK SMILES IDX 3 13 94 14 4 15 93 16 95 17 5 18 92 19 6 20 91 21 7 22 8 23
REMARK SMILES IDX 9 24 11 25 10 26 22 27 23 28 24 29 25 30 26 31 27 32 28 33
REMARK SMILES IDX 29 34 90 35 30 36 89 37 31 38 32 39 33 40 83 41 34 42 88 43
REMARK SMILES IDX 82 44 84 45 35 46 87 47 81 48 80 49 36 51 68 52 48 53 67 54
REMARK SMILES IDX 49 55 52 56 66 57 85 58 50 59 51 60 65 62 86 63 53 64 37 65
REMARK SMILES IDX 38 66 46 67 39 68 40 69 44 70 47 71 41 72 42 73 45 74 43 75
REMARK SMILES IDX 69 76 70 77 78 78 71 79 72 80 76 81 79 82 73 83 74 84 77 85
REMARK SMILES IDX 75 86 54 87 55 88 63 89 56 90 57 91 61 92 64 93 58 94 59 95
REMARK SMILES IDX 62 96 60 97
REMARK H PARENT 84 50 52 61
REMARK Flexibility Score: inf
ROOT
ATOM      1  C   UNL A   1      42.063  19.764  26.558  1.00  0.00     0.188 C 
ENDROOT
BRANCH   1   2
ATOM      2  C   UNL A   1      40.632  20.365  26.508  1.00  0.00     0.188 C 
BRANCH   2   3
ATOM      3  O   UNL A   1      40.471  21.682  26.014  1.00  0.00    -0.376 OA
BRANCH   3   4
ATOM      4  C   UNL A   1      39.500  22.468  26.680  1.00  0.00     0.202 C 
BRANCH   4   5
ATOM      5  C   UNL A   1      38.070  22.422  26.092  1.00  0.00     0.261 C 
BRANCH   5   6
ATOM      6  O   UNL A   1      37.982  22.513  24.631  1.00  0.00    -0.463 OA
BRANCH   6   7
ATOM      7  C   UNL A   1      37.034  23.319  24.085  1.00  0.00     0.310 C 
ATOM      8  O   UNL A   1      36.801  23.325  22.877  1.00  0.00    -0.252 OA
BRANCH   7   9
ATOM      9  C   UNL A   1      36.150  24.161  25.039  1.00  0.00     0.162 C 
BRANCH   9  10
ATOM     10  C   UNL A   1      34.743  23.768  25.500  1.00  0.00     0.007 A 
ATOM     11  C   UNL A   1      34.636  15.915  24.968  1.00  0.00     0.045 C 
ATOM     12  C   UNL A   1      34.400  17.468  24.945  1.00  0.00    -0.044 A 
ATOM     13  C   UNL A   1      32.989  17.586  25.225  1.00  0.00     0.005 A 
ATOM     14  C   UNL A   1      35.369  18.737  24.789  1.00  0.00    -0.005 A 
ATOM     15  C   UNL A   1      32.272  18.758  25.319  1.00  0.00     0.016 A 
ATOM     16  C   UNL A   1      34.278  20.045  24.797  1.00  0.00     0.141 A 
ATOM     17  C   UNL A   1      37.501  18.852  25.000  1.00  0.00     0.049 C 
ATOM     18  C   UNL A   1      32.887  19.964  25.081  1.00  0.00     0.066 A 
ATOM     19  O   UNL A   1      34.646  21.459  24.495  1.00  0.00    -0.455 OA
ATOM     20  C   UNL A   1      32.045  21.148  25.317  1.00  0.00     0.200 A 
ATOM     21  C   UNL A   1      34.062  22.526  25.212  1.00  0.00     0.142 A 
ATOM     22  O   UNL A   1      30.822  21.076  25.385  1.00  0.00    -0.288 OA
ATOM     23  C   UNL A   1      32.724  22.408  25.579  1.00  0.00     0.066 A 
ATOM     24  C   UNL A   1      32.019  23.452  26.192  1.00  0.00     0.016 A 
ATOM     25  C   UNL A   1      34.000  24.809  26.115  1.00  0.00     0.008 A 
ATOM     26  C   UNL A   1      32.656  24.655  26.454  1.00  0.00     0.001 A 
ENDBRANCH   9  10
ENDBRANCH   7   9
ENDBRANCH   6   7
ENDBRANCH   5   6
ENDBRANCH   4   5
ENDBRANCH   3   4
ENDBRANCH   2   3
ENDBRANCH   1   2
BRANCH   1  27
ATOM     27  O   UNL A   1      42.446  19.259  25.294  1.00  0.00    -0.376 OA
BRANCH  27  28
ATOM     28  C   UNL A   1      43.723  19.669  24.854  1.00  0.00     0.202 C 
BRANCH  28  29
ATOM     29  C   UNL A   1      44.118  21.073  25.331  1.00  0.00     0.261 C 
BRANCH  29  30
ATOM     30  O   UNL A   1      43.572  22.165  24.566  1.00  0.00    -0.460 OA
BRANCH  30  31
ATOM     31  C   UNL A   1      44.199  23.344  24.722  1.00  0.00     0.338 C 
ATOM     32  O   UNL A   1      45.172  23.738  24.105  1.00  0.00    -0.246 OA
BRANCH  31  33
ATOM     33  C   UNL A   1      43.450  24.190  25.669  1.00  0.00     0.060 A 
ATOM     34  C   UNL A   1      43.137  23.479  27.289  1.00  0.00     0.016 A 
ATOM     35  C   UNL A   1      43.317  25.994  25.475  1.00  0.00     0.016 A 
ATOM     36  C   UNL A   1      42.871  24.557  28.736  1.00  0.00     0.010 A 
ATOM     37  C   UNL A   1      43.133  27.097  26.965  1.00  0.00     0.010 A 
ATOM     38  C   UNL A   1      42.918  26.367  28.602  1.00  0.00    -0.014 A 
BRANCH  38  39
ATOM     39  C   UNL A   1      42.302  27.103  29.777  1.00  0.00     0.031 A 
ATOM     40  C   UNL A   1      43.053  27.298  31.083  1.00  0.00     0.074 A 
ATOM     41  C   UNL A   1      41.176  27.827  29.589  1.00  0.00     0.049 A 
ATOM     42  N   UNL A   1      42.791  28.110  32.085  1.00  0.00    -0.248 NA
ATOM     43  C   UNL A   1      44.272  26.510  31.289  1.00  0.00     0.031 C 
ATOM     44  C   UNL A   1      40.364  27.806  28.379  1.00  0.00     0.029 A 
ATOM     45  N   UNL A   1      40.540  28.752  30.391  1.00  0.00    -0.354 N 
ATOM     46  C   UNL A   1      43.828  27.950  33.002  1.00  0.00     0.074 A 
ATOM     47  C   UNL A   1      44.706  26.941  32.463  1.00  0.00     0.031 C 
ATOM     48  C   UNL A   1      39.397  28.730  28.472  1.00  0.00     0.029 A 
ATOM     49  C   UNL A   1      39.450  29.348  29.795  1.00  0.00     0.049 A 
ATOM     50  H   UNL A   1      40.837  28.966  31.305  1.00  0.00     0.167 HD
ATOM     51  C   UNL A   1      44.047  28.572  34.187  1.00  0.00     0.037 A 
ATOM     52  C   UNL A   1      38.574  30.264  30.258  1.00  0.00     0.037 A 
ATOM     53  C   UNL A   1      43.151  29.524  34.788  1.00  0.00     0.049 A 
ATOM     54  C   UNL A   1      38.738  30.813  31.650  1.00  0.00     0.074 A 
ATOM     55  C   UNL A   1      43.252  30.143  36.022  1.00  0.00     0.029 A 
ATOM     56  N   UNL A   1      41.978  29.975  34.209  1.00  0.00    -0.354 N 
ATOM     57  N   UNL A   1      39.717  30.629  32.502  1.00  0.00    -0.248 NA
ATOM     58  C   UNL A   1      37.666  31.685  32.153  1.00  0.00     0.031 C 
ATOM     59  C   UNL A   1      42.106  30.919  36.217  1.00  0.00     0.029 A 
ATOM     60  C   UNL A   1      41.325  30.838  35.076  1.00  0.00     0.049 A 
ATOM     61  H   UNL A   1      41.654  29.721  33.314  1.00  0.00     0.167 HD
ATOM     62  C   UNL A   1      39.389  31.371  33.629  1.00  0.00     0.074 A 
ATOM     63  C   UNL A   1      38.131  32.029  33.347  1.00  0.00     0.031 C 
ATOM     64  C   UNL A   1      40.072  31.491  34.794  1.00  0.00     0.037 A 
BRANCH  51  65
ATOM     65  C   UNL A   1      45.295  28.205  34.944  1.00  0.00     0.064 A 
ATOM     66  C   UNL A   1      46.486  28.935  34.798  1.00  0.00     0.173 A 
ATOM     67  C   UNL A   1      45.294  27.134  35.852  1.00  0.00     0.173 A 
ATOM     68  F   UNL A   1      46.547  29.959  33.934  1.00  0.00    -0.203 F 
ATOM     69  C   UNL A   1      47.631  28.593  35.516  1.00  0.00     0.198 A 
ATOM     70  C   UNL A   1      46.432  26.812  36.589  1.00  0.00     0.198 A 
ATOM     71  F   UNL A   1      44.183  26.405  36.035  1.00  0.00    -0.203 F 
ATOM     72  F   UNL A   1      48.767  29.278  35.328  1.00  0.00    -0.200 F 
ATOM     73  C   UNL A   1      47.601  27.537  36.415  1.00  0.00     0.200 A 
ATOM     74  F   UNL A   1      46.396  25.800  37.466  1.00  0.00    -0.200 F 
ATOM     75  F   UNL A   1      48.701  27.214  37.110  1.00  0.00    -0.200 F 
ENDBRANCH  51  65
BRANCH  52  76
ATOM     76  C   UNL A   1      37.436  30.703  29.400  1.00  0.00     0.064 A 
ATOM     77  C   UNL A   1      36.367  29.844  29.108  1.00  0.00     0.173 A 
ATOM     78  C   UNL A   1      37.390  31.999  28.861  1.00  0.00     0.173 A 
ATOM     79  F   UNL A   1      36.377  28.582  29.565  1.00  0.00    -0.203 F 
ATOM     80  C   UNL A   1      35.296  30.265  28.320  1.00  0.00     0.198 A 
ATOM     81  C   UNL A   1      36.304  32.429  28.102  1.00  0.00     0.198 A 
ATOM     82  F   UNL A   1      38.393  32.858  29.093  1.00  0.00    -0.203 F 
ATOM     83  F   UNL A   1      34.302  29.413  28.031  1.00  0.00    -0.200 F 
ATOM     84  C   UNL A   1      35.258  31.562  27.829  1.00  0.00     0.200 A 
ATOM     85  F   UNL A   1      36.268  33.688  27.642  1.00  0.00    -0.200 F 
ATOM     86  F   UNL A   1      34.219  31.973  27.091  1.00  0.00    -0.200 F 
ENDBRANCH  52  76
BRANCH  64  87
ATOM     87  C   UNL A   1      39.495  32.377  35.860  1.00  0.00     0.064 A 
ATOM     88  C   UNL A   1      38.546  31.901  36.776  1.00  0.00     0.173 A 
ATOM     89  C   UNL A   1      39.948  33.696  36.012  1.00  0.00     0.173 A 
ATOM     90  F   UNL A   1      38.072  30.650  36.671  1.00  0.00    -0.203 F 
ATOM     91  C   UNL A   1      38.057  32.719  37.793  1.00  0.00     0.198 A 
ATOM     92  C   UNL A   1      39.482  34.500  37.049  1.00  0.00     0.198 A 
ATOM     93  F   UNL A   1      40.862  34.199  35.169  1.00  0.00    -0.203 F 
ATOM     94  F   UNL A   1      37.122  32.255  38.631  1.00  0.00    -0.200 F 
ATOM     95  C   UNL A   1      38.533  34.013  37.934  1.00  0.00     0.200 A 
ATOM     96  F   UNL A   1      39.958  35.745  37.196  1.00  0.00    -0.200 F 
ATOM     97  F   UNL A   1      38.074  34.793  38.923  1.00  0.00    -0.200 F 
ENDBRANCH  64  87
ENDBRANCH  38  39
ENDBRANCH  31  33
ENDBRANCH  30  31
ENDBRANCH  29  30
ENDBRANCH  28  29
ENDBRANCH  27  28
ENDBRANCH   1  27
TORSDOF 18
ENDMDL
