MODEL 1
REMARK VINA RESULT:     -11.0      0.000      0.000
REMARK SMILES O=C(OCCOCCOCCOC(=O)c1cc(NC(=S)NC(=O)c2ccccc2Cl)c(Cl)cc1Cl)c1ccc(-c2c3nc(c(-c4c(F)c(F)c(F)c(F)c4F)c4ccc([nH]4)c(-c4c(F)c(F)c(F)c(F)c4F)c4nc(c(-c5c(F)c(F)c(F)c(F)c5F)c5ccc2[nH]5)C=C4)C=C3)cc1
REMARK SMILES IDX 8 1 7 2 6 3 5 4 4 5 3 6 2 7 1 8 36 9 37 10 98 11 38 12 97 13
REMARK SMILES IDX 39 14 40 15 41 16 91 17 42 18 96 19 90 20 92 21 43 22 95 23
REMARK SMILES IDX 89 24 88 25 44 27 76 28 56 29 75 30 57 31 60 32 74 33 93 34
REMARK SMILES IDX 58 35 59 36 73 38 94 39 61 40 45 41 46 42 54 43 47 44 48 45
REMARK SMILES IDX 52 46 55 47 49 48 50 49 53 50 51 51 77 52 78 53 86 54 79 55
REMARK SMILES IDX 80 56 84 57 87 58 81 59 82 60 85 61 83 62 62 63 63 64 71 65
REMARK SMILES IDX 64 66 65 67 69 68 72 69 66 70 67 71 70 72 68 73 9 74 10 75
REMARK SMILES IDX 11 76 12 77 13 78 14 79 15 80 16 81 34 82 17 83 33 84 35 85
REMARK SMILES IDX 31 86 32 87 18 88 19 90 20 91 21 92 22 93 23 95 24 96 25 97
REMARK SMILES IDX 29 98 26 99 28 100 30 101 27 102
REMARK H PARENT 92 26 60 37 18 89 21 94
REMARK Flexibility Score: inf
ROOT
ATOM      1  C   UNL A   1      44.861  19.218  24.537  1.00  0.00     0.188 C 
ENDROOT
BRANCH   1   2
ATOM      2  C   UNL A   1      46.094  20.127  24.417  1.00  0.00     0.188 C 
BRANCH   2   3
ATOM      3  O   UNL A   1      46.343  21.120  25.414  1.00  0.00    -0.376 OA
BRANCH   3   4
ATOM      4  C   UNL A   1      45.282  22.059  25.596  1.00  0.00     0.202 C 
BRANCH   4   5
ATOM      5  C   UNL A   1      44.871  22.900  24.369  1.00  0.00     0.261 C 
BRANCH   5   6
ATOM      6  O   UNL A   1      45.325  24.265  24.342  1.00  0.00    -0.460 OA
BRANCH   6   7
ATOM      7  C   UNL A   1      45.814  25.065  25.316  1.00  0.00     0.338 C 
ATOM      8  O   UNL A   1      47.033  25.077  25.492  1.00  0.00    -0.246 OA
BRANCH   7   9
ATOM      9  C   UNL A   1      44.983  25.934  26.210  1.00  0.00     0.060 A 
ATOM     10  C   UNL A   1      44.962  27.330  26.202  1.00  0.00     0.016 A 
ATOM     11  C   UNL A   1      44.151  25.275  27.141  1.00  0.00     0.016 A 
ATOM     12  C   UNL A   1      44.181  28.054  27.097  1.00  0.00     0.010 A 
ATOM     13  C   UNL A   1      43.353  25.992  28.039  1.00  0.00     0.010 A 
ATOM     14  C   UNL A   1      43.388  27.393  28.031  1.00  0.00    -0.014 A 
BRANCH  14  15
ATOM     15  C   UNL A   1      42.808  28.185  29.129  1.00  0.00     0.031 A 
ATOM     16  C   UNL A   1      43.653  28.352  30.347  1.00  0.00     0.074 A 
ATOM     17  C   UNL A   1      41.651  28.856  28.998  1.00  0.00     0.049 A 
ATOM     18  N   UNL A   1      43.419  29.058  31.416  1.00  0.00    -0.248 NA
ATOM     19  C   UNL A   1      44.971  27.694  30.324  1.00  0.00     0.031 C 
ATOM     20  C   UNL A   1      40.885  28.967  27.768  1.00  0.00     0.029 A 
ATOM     21  N   UNL A   1      40.915  29.585  29.891  1.00  0.00    -0.354 N 
ATOM     22  C   UNL A   1      44.574  28.966  32.173  1.00  0.00     0.074 A 
ATOM     23  C   UNL A   1      45.487  28.091  31.474  1.00  0.00     0.031 C 
ATOM     24  C   UNL A   1      39.730  29.608  27.994  1.00  0.00     0.029 A 
ATOM     25  C   UNL A   1      39.704  30.001  29.388  1.00  0.00     0.049 A 
ATOM     26  H   UNL A   1      41.222  29.793  30.803  1.00  0.00     0.167 HD
ATOM     27  C   UNL A   1      44.845  29.587  33.340  1.00  0.00     0.037 A 
ATOM     28  C   UNL A   1      38.693  30.644  29.989  1.00  0.00     0.037 A 
ATOM     29  C   UNL A   1      43.890  30.409  34.029  1.00  0.00     0.049 A 
ATOM     30  C   UNL A   1      38.933  31.133  31.381  1.00  0.00     0.074 A 
ATOM     31  C   UNL A   1      44.011  31.033  35.253  1.00  0.00     0.029 A 
ATOM     32  N   UNL A   1      42.614  30.696  33.553  1.00  0.00    -0.354 N 
ATOM     33  N   UNL A   1      40.018  31.025  32.108  1.00  0.00    -0.248 NA
ATOM     34  C   UNL A   1      37.840  31.876  32.013  1.00  0.00     0.031 C 
ATOM     35  C   UNL A   1      42.782  31.629  35.556  1.00  0.00     0.029 A 
ATOM     36  C   UNL A   1      41.919  31.446  34.485  1.00  0.00     0.049 A 
ATOM     37  H   UNL A   1      42.258  30.408  32.681  1.00  0.00     0.167 HD
ATOM     38  C   UNL A   1      39.760  31.728  33.269  1.00  0.00     0.074 A 
ATOM     39  C   UNL A   1      38.415  32.259  33.144  1.00  0.00     0.031 C 
ATOM     40  C   UNL A   1      40.571  31.933  34.334  1.00  0.00     0.037 A 
BRANCH  27  41
ATOM     41  C   UNL A   1      46.180  29.295  33.951  1.00  0.00     0.064 A 
ATOM     42  C   UNL A   1      46.356  28.289  34.917  1.00  0.00     0.173 A 
ATOM     43  C   UNL A   1      47.280  30.105  33.638  1.00  0.00     0.173 A 
ATOM     44  F   UNL A   1      45.322  27.517  35.285  1.00  0.00    -0.203 F 
ATOM     45  C   UNL A   1      47.572  28.139  35.577  1.00  0.00     0.198 A 
ATOM     46  C   UNL A   1      48.503  29.928  34.276  1.00  0.00     0.198 A 
ATOM     47  F   UNL A   1      47.157  31.092  32.738  1.00  0.00    -0.203 F 
ATOM     48  F   UNL A   1      47.693  27.234  36.560  1.00  0.00    -0.200 F 
ATOM     49  C   UNL A   1      48.645  28.956  35.255  1.00  0.00     0.200 A 
ATOM     50  F   UNL A   1      49.538  30.721  33.964  1.00  0.00    -0.200 F 
ATOM     51  F   UNL A   1      49.809  28.826  35.906  1.00  0.00    -0.200 F 
ENDBRANCH  27  41
BRANCH  28  52
ATOM     52  C   UNL A   1      37.388  30.860  29.324  1.00  0.00     0.064 A 
ATOM     53  C   UNL A   1      36.502  29.804  29.080  1.00  0.00     0.173 A 
ATOM     54  C   UNL A   1      37.065  32.122  28.806  1.00  0.00     0.173 A 
ATOM     55  F   UNL A   1      36.774  28.580  29.555  1.00  0.00    -0.203 F 
ATOM     56  C   UNL A   1      35.371  29.986  28.286  1.00  0.00     0.198 A 
ATOM     57  C   UNL A   1      35.942  32.300  28.003  1.00  0.00     0.198 A 
ATOM     58  F   UNL A   1      37.852  33.178  29.063  1.00  0.00    -0.203 F 
ATOM     59  F   UNL A   1      34.556  28.951  28.037  1.00  0.00    -0.200 F 
ATOM     60  C   UNL A   1      35.106  31.227  27.726  1.00  0.00     0.200 A 
ATOM     61  F   UNL A   1      35.658  33.519  27.522  1.00  0.00    -0.200 F 
ATOM     62  F   UNL A   1      34.028  31.397  26.949  1.00  0.00    -0.200 F 
ENDBRANCH  28  52
BRANCH  40  63
ATOM     63  C   UNL A   1      40.015  32.787  35.427  1.00  0.00     0.064 A 
ATOM     64  C   UNL A   1      39.208  32.252  36.442  1.00  0.00     0.173 A 
ATOM     65  C   UNL A   1      40.305  34.158  35.463  1.00  0.00     0.173 A 
ATOM     66  F   UNL A   1      38.881  30.951  36.429  1.00  0.00    -0.203 F 
ATOM     67  C   UNL A   1      38.686  33.068  37.438  1.00  0.00     0.198 A 
ATOM     68  C   UNL A   1      39.818  34.962  36.484  1.00  0.00     0.198 A 
ATOM     69  F   UNL A   1      41.070  34.713  34.509  1.00  0.00    -0.203 F 
ATOM     70  F   UNL A   1      37.862  32.551  38.360  1.00  0.00    -0.200 F 
ATOM     71  C   UNL A   1      39.000  34.419  37.465  1.00  0.00     0.200 A 
ATOM     72  F   UNL A   1      40.134  36.264  36.517  1.00  0.00    -0.200 F 
ATOM     73  F   UNL A   1      38.506  35.202  38.432  1.00  0.00    -0.200 F 
ENDBRANCH  40  63
ENDBRANCH  14  15
ENDBRANCH   7   9
ENDBRANCH   6   7
ENDBRANCH   5   6
ENDBRANCH   4   5
ENDBRANCH   3   4
ENDBRANCH   2   3
ENDBRANCH   1   2
BRANCH   1  74
ATOM     74  O   UNL A   1      44.628  18.540  25.759  1.00  0.00    -0.376 OA
BRANCH  74  75
ATOM     75  C   UNL A   1      43.276  18.385  26.179  1.00  0.00     0.202 C 
BRANCH  75  76
ATOM     76  C   UNL A   1      42.201  19.227  25.497  1.00  0.00     0.261 C 
BRANCH  76  77
ATOM     77  O   UNL A   1      40.993  19.311  26.271  1.00  0.00    -0.460 OA
BRANCH  77  78
ATOM     78  C   UNL A   1      40.717  20.506  26.838  1.00  0.00     0.339 C 
ATOM     79  O   UNL A   1      41.186  20.905  27.895  1.00  0.00    -0.246 OA
BRANCH  78  80
ATOM     80  C   UNL A   1      39.624  21.324  26.136  1.00  0.00     0.080 A 
ATOM     81  C   UNL A   1      37.988  20.886  25.023  1.00  0.00     0.045 A 
ATOM     82  C   UNL A   1      39.639  23.003  26.838  1.00  0.00     0.057 A 
ATOM     83  C   UNL A   1      36.638  21.911  24.898  1.00  0.00     0.060 A 
ATOM     84  C   UNL A   1      38.231  24.064  26.528  1.00  0.00     0.044 A 
ATOM     85  Cl  UNL A   1      40.989  23.644  27.681  1.00  0.00    -0.083 Cl
ATOM     86  C   UNL A   1      36.791  23.514  25.604  1.00  0.00     0.066 A 
ATOM     87  Cl  UNL A   1      35.412  24.550  25.574  1.00  0.00    -0.082 Cl
BRANCH  83  88
ATOM     88  N   UNL A   1      35.463  21.094  25.025  1.00  0.00    -0.331 N 
ATOM     89  H   UNL A   1      35.645  20.125  25.023  1.00  0.00     0.169 HD
BRANCH  88  90
ATOM     90  C   UNL A   1      34.122  21.417  25.148  1.00  0.00     0.177 C 
ATOM     91  S   UNL A   1      33.421  21.185  26.656  1.00  0.00    -0.040 S 
BRANCH  90  92
ATOM     92  N   UNL A   1      33.195  21.890  24.184  1.00  0.00    -0.299 N 
ATOM     93  C   UNL A   1      32.347  22.946  23.609  1.00  0.00     0.258 C 
ATOM     94  H   UNL A   1      33.040  21.113  23.598  1.00  0.00     0.172 HD
ATOM     95  O   UNL A   1      31.420  22.674  22.854  1.00  0.00    -0.269 OA
BRANCH  93  96
ATOM     96  C   UNL A   1      32.565  24.378  24.026  1.00  0.00     0.058 A 
ATOM     97  C   UNL A   1      32.936  25.381  22.567  1.00  0.00     0.015 A 
ATOM     98  C   UNL A   1      31.250  24.734  25.122  1.00  0.00     0.053 A 
ATOM     99  C   UNL A   1      31.877  26.695  22.007  1.00  0.00     0.001 A 
ATOM    100  C   UNL A   1      30.077  25.972  24.647  1.00  0.00     0.021 A 
ATOM    101  Cl  UNL A   1      30.936  23.773  26.511  1.00  0.00    -0.083 Cl
ATOM    102  C   UNL A   1      30.353  27.000  22.917  1.00  0.00     0.002 A 
ENDBRANCH  93  96
ENDBRANCH  90  92
ENDBRANCH  88  90
ENDBRANCH  83  88
ENDBRANCH  78  80
ENDBRANCH  77  78
ENDBRANCH  76  77
ENDBRANCH  75  76
ENDBRANCH  74  75
ENDBRANCH   1  74
TORSDOF 21
ENDMDL
MODEL 2
REMARK VINA RESULT:     -10.5      4.340     10.160
REMARK SMILES O=C(OCCOCCOCCOC(=O)c1cc(NC(=S)NC(=O)c2ccccc2Cl)c(Cl)cc1Cl)c1ccc(-c2c3nc(c(-c4c(F)c(F)c(F)c(F)c4F)c4ccc([nH]4)c(-c4c(F)c(F)c(F)c(F)c4F)c4nc(c(-c5c(F)c(F)c(F)c(F)c5F)c5ccc2[nH]5)C=C4)C=C3)cc1
REMARK SMILES IDX 8 1 7 2 6 3 5 4 4 5 3 6 2 7 1 8 36 9 37 10 98 11 38 12 97 13
REMARK SMILES IDX 39 14 40 15 41 16 91 17 42 18 96 19 90 20 92 21 43 22 95 23
REMARK SMILES IDX 89 24 88 25 44 27 76 28 56 29 75 30 57 31 60 32 74 33 93 34
REMARK SMILES IDX 58 35 59 36 73 38 94 39 61 40 45 41 46 42 54 43 47 44 48 45
REMARK SMILES IDX 52 46 55 47 49 48 50 49 53 50 51 51 77 52 78 53 86 54 79 55
REMARK SMILES IDX 80 56 84 57 87 58 81 59 82 60 85 61 83 62 62 63 63 64 71 65
REMARK SMILES IDX 64 66 65 67 69 68 72 69 66 70 67 71 70 72 68 73 9 74 10 75
REMARK SMILES IDX 11 76 12 77 13 78 14 79 15 80 16 81 34 82 17 83 33 84 35 85
REMARK SMILES IDX 31 86 32 87 18 88 19 90 20 91 21 92 22 93 23 95 24 96 25 97
REMARK SMILES IDX 29 98 26 99 28 100 30 101 27 102
REMARK H PARENT 92 26 60 37 18 89 21 94
REMARK Flexibility Score: inf
ROOT
ATOM      1  C   UNL A   1      32.732  29.772  25.800  1.00  0.00     0.188 C 
ENDROOT
BRANCH   1   2
ATOM      2  C   UNL A   1      32.594  30.432  27.180  1.00  0.00     0.188 C 
BRANCH   2   3
ATOM      3  O   UNL A   1      33.754  30.946  27.839  1.00  0.00    -0.376 OA
BRANCH   3   4
ATOM      4  C   UNL A   1      33.953  32.351  27.685  1.00  0.00     0.202 C 
BRANCH   4   5
ATOM      5  C   UNL A   1      35.125  32.984  28.464  1.00  0.00     0.261 C 
BRANCH   5   6
ATOM      6  O   UNL A   1      35.737  32.169  29.481  1.00  0.00    -0.460 OA
BRANCH   6   7
ATOM      7  C   UNL A   1      35.648  32.207  30.830  1.00  0.00     0.338 C 
ATOM      8  O   UNL A   1      34.527  32.290  31.331  1.00  0.00    -0.246 OA
BRANCH   7   9
ATOM      9  C   UNL A   1      36.818  32.164  31.767  1.00  0.00     0.060 A 
ATOM     10  C   UNL A   1      38.141  32.459  31.434  1.00  0.00     0.016 A 
ATOM     11  C   UNL A   1      36.548  31.791  33.101  1.00  0.00     0.016 A 
ATOM     12  C   UNL A   1      39.169  32.357  32.367  1.00  0.00     0.010 A 
ATOM     13  C   UNL A   1      37.571  31.696  34.051  1.00  0.00     0.010 A 
ATOM     14  C   UNL A   1      38.895  31.958  33.672  1.00  0.00    -0.014 A 
BRANCH  14  15
ATOM     15  C   UNL A   1      40.030  31.593  34.536  1.00  0.00     0.031 A 
ATOM     16  C   UNL A   1      40.412  32.581  35.586  1.00  0.00     0.074 A 
ATOM     17  C   UNL A   1      40.603  30.377  34.496  1.00  0.00     0.049 A 
ATOM     18  N   UNL A   1      41.314  32.477  36.520  1.00  0.00    -0.248 NA
ATOM     19  C   UNL A   1      39.618  33.822  35.637  1.00  0.00     0.031 C 
ATOM     20  C   UNL A   1      40.136  29.262  33.690  1.00  0.00     0.029 A 
ATOM     21  N   UNL A   1      41.686  29.858  35.150  1.00  0.00    -0.354 N 
ATOM     22  C   UNL A   1      41.169  33.615  37.293  1.00  0.00     0.074 A 
ATOM     23  C   UNL A   1      40.135  34.425  36.693  1.00  0.00     0.031 C 
ATOM     24  C   UNL A   1      40.982  28.228  33.790  1.00  0.00     0.029 A 
ATOM     25  C   UNL A   1      42.030  28.598  34.718  1.00  0.00     0.049 A 
ATOM     26  H   UNL A   1      42.171  30.339  35.859  1.00  0.00     0.167 HD
ATOM     27  C   UNL A   1      41.833  33.931  38.425  1.00  0.00     0.037 A 
ATOM     28  C   UNL A   1      43.074  27.825  35.053  1.00  0.00     0.037 A 
ATOM     29  C   UNL A   1      42.890  33.122  38.964  1.00  0.00     0.049 A 
ATOM     30  C   UNL A   1      43.942  28.306  36.171  1.00  0.00     0.074 A 
ATOM     31  C   UNL A   1      43.694  33.367  40.058  1.00  0.00     0.029 A 
ATOM     32  N   UNL A   1      43.309  31.913  38.416  1.00  0.00    -0.354 N 
ATOM     33  N   UNL A   1      43.821  29.395  36.888  1.00  0.00    -0.248 NA
ATOM     34  C   UNL A   1      45.051  27.432  36.561  1.00  0.00     0.031 C 
ATOM     35  C   UNL A   1      44.651  32.348  40.125  1.00  0.00     0.029 A 
ATOM     36  C   UNL A   1      44.395  31.426  39.122  1.00  0.00     0.049 A 
ATOM     37  H   UNL A   1      42.894  31.470  37.641  1.00  0.00     0.167 HD
ATOM     38  C   UNL A   1      44.808  29.320  37.851  1.00  0.00     0.074 A 
ATOM     39  C   UNL A   1      45.516  28.074  37.623  1.00  0.00     0.031 C 
ATOM     40  C   UNL A   1      45.090  30.193  38.847  1.00  0.00     0.037 A 
BRANCH  27  41
ATOM     41  C   UNL A   1      41.481  35.242  39.056  1.00  0.00     0.064 A 
ATOM     42  C   UNL A   1      40.324  35.409  39.837  1.00  0.00     0.173 A 
ATOM     43  C   UNL A   1      42.263  36.375  38.790  1.00  0.00     0.173 A 
ATOM     44  F   UNL A   1      39.518  34.364  40.083  1.00  0.00    -0.203 F 
ATOM     45  C   UNL A   1      39.942  36.670  40.286  1.00  0.00     0.198 A 
ATOM     46  C   UNL A   1      41.895  37.627  39.271  1.00  0.00     0.198 A 
ATOM     47  F   UNL A   1      43.365  36.272  38.032  1.00  0.00    -0.203 F 
ATOM     48  F   UNL A   1      38.787  36.821  40.952  1.00  0.00    -0.200 F 
ATOM     49  C   UNL A   1      40.728  37.777  40.005  1.00  0.00     0.200 A 
ATOM     50  F   UNL A   1      42.656  38.696  38.995  1.00  0.00    -0.200 F 
ATOM     51  F   UNL A   1      40.349  38.994  40.419  1.00  0.00    -0.200 F 
ENDBRANCH  27  41
BRANCH  28  52
ATOM     52  C   UNL A   1      43.373  26.556  34.352  1.00  0.00     0.064 A 
ATOM     53  C   UNL A   1      42.912  25.324  34.831  1.00  0.00     0.173 A 
ATOM     54  C   UNL A   1      44.241  26.550  33.252  1.00  0.00     0.173 A 
ATOM     55  F   UNL A   1      42.083  25.284  35.884  1.00  0.00    -0.203 F 
ATOM     56  C   UNL A   1      43.359  24.126  34.276  1.00  0.00     0.198 A 
ATOM     57  C   UNL A   1      44.696  25.354  32.706  1.00  0.00     0.198 A 
ATOM     58  F   UNL A   1      44.663  27.707  32.720  1.00  0.00    -0.203 F 
ATOM     59  F   UNL A   1      42.931  22.958  34.774  1.00  0.00    -0.200 F 
ATOM     60  C   UNL A   1      44.271  24.141  33.231  1.00  0.00     0.200 A 
ATOM     61  F   UNL A   1      45.526  25.379  31.653  1.00  0.00    -0.200 F 
ATOM     62  F   UNL A   1      44.713  22.989  32.709  1.00  0.00    -0.200 F 
ENDBRANCH  28  52
BRANCH  40  63
ATOM     63  C   UNL A   1      46.201  29.802  39.767  1.00  0.00     0.064 A 
ATOM     64  C   UNL A   1      47.533  30.153  39.503  1.00  0.00     0.173 A 
ATOM     65  C   UNL A   1      45.923  29.078  40.934  1.00  0.00     0.173 A 
ATOM     66  F   UNL A   1      47.847  30.820  38.382  1.00  0.00    -0.203 F 
ATOM     67  C   UNL A   1      48.553  29.762  40.363  1.00  0.00     0.198 A 
ATOM     68  C   UNL A   1      46.939  28.727  41.812  1.00  0.00     0.198 A 
ATOM     69  F   UNL A   1      44.663  28.717  41.223  1.00  0.00    -0.203 F 
ATOM     70  F   UNL A   1      49.826  30.048  40.059  1.00  0.00    -0.200 F 
ATOM     71  C   UNL A   1      48.254  29.061  41.522  1.00  0.00     0.200 A 
ATOM     72  F   UNL A   1      46.648  28.062  42.938  1.00  0.00    -0.200 F 
ATOM     73  F   UNL A   1      49.236  28.695  42.355  1.00  0.00    -0.200 F 
ENDBRANCH  40  63
ENDBRANCH  14  15
ENDBRANCH   7   9
ENDBRANCH   6   7
ENDBRANCH   5   6
ENDBRANCH   4   5
ENDBRANCH   3   4
ENDBRANCH   2   3
ENDBRANCH   1   2
BRANCH   1  74
ATOM     74  O   UNL A   1      31.881  28.688  25.472  1.00  0.00    -0.376 OA
BRANCH  74  75
ATOM     75  C   UNL A   1      32.472  27.550  24.852  1.00  0.00     0.202 C 
BRANCH  75  76
ATOM     76  C   UNL A   1      33.636  26.860  25.556  1.00  0.00     0.261 C 
BRANCH  76  77
ATOM     77  O   UNL A   1      34.086  25.687  24.858  1.00  0.00    -0.460 OA
BRANCH  77  78
ATOM     78  C   UNL A   1      34.193  24.552  25.582  1.00  0.00     0.339 C 
ATOM     79  O   UNL A   1      33.462  24.242  26.512  1.00  0.00    -0.246 OA
BRANCH  78  80
ATOM     80  C   UNL A   1      35.423  23.689  25.264  1.00  0.00     0.080 A 
ATOM     81  C   UNL A   1      37.400  23.783  25.700  1.00  0.00     0.045 A 
ATOM     82  C   UNL A   1      34.838  22.049  24.734  1.00  0.00     0.057 A 
ATOM     83  C   UNL A   1      38.411  22.418  25.761  1.00  0.00     0.060 A 
ATOM     84  C   UNL A   1      36.016  20.702  24.691  1.00  0.00     0.044 A 
ATOM     85  Cl  UNL A   1      33.242  21.772  24.168  1.00  0.00    -0.083 Cl
ATOM     86  C   UNL A   1      37.727  20.898  25.203  1.00  0.00     0.066 A 
ATOM     87  Cl  UNL A   1      38.695  19.475  25.332  1.00  0.00    -0.082 Cl
BRANCH  83  88
ATOM     88  N   UNL A   1      39.229  22.540  26.936  1.00  0.00    -0.331 N 
ATOM     89  H   UNL A   1      38.760  22.327  27.776  1.00  0.00     0.169 HD
BRANCH  88  90
ATOM     90  C   UNL A   1      40.555  22.901  27.105  1.00  0.00     0.177 C 
ATOM     91  S   UNL A   1      41.706  21.935  26.356  1.00  0.00    -0.040 S 
BRANCH  90  92
ATOM     92  N   UNL A   1      41.135  23.956  27.855  1.00  0.00    -0.299 N 
ATOM     93  C   UNL A   1      41.183  25.359  28.299  1.00  0.00     0.258 C 
ATOM     94  H   UNL A   1      41.895  23.533  28.317  1.00  0.00     0.172 HD
ATOM     95  O   UNL A   1      42.203  25.836  28.782  1.00  0.00    -0.269 OA
BRANCH  93  96
ATOM     96  C   UNL A   1      39.986  26.247  28.071  1.00  0.00     0.058 A 
ATOM     97  C   UNL A   1      39.024  26.364  29.599  1.00  0.00     0.015 A 
ATOM     98  C   UNL A   1      40.615  27.644  27.228  1.00  0.00     0.053 A 
ATOM     99  C   UNL A   1      38.804  27.891  30.484  1.00  0.00     0.001 A 
ATOM    100  C   UNL A   1      40.527  29.217  28.035  1.00  0.00     0.021 A 
ATOM    101  Cl  UNL A   1      41.508  27.500  25.768  1.00  0.00    -0.083 Cl
ATOM    102  C   UNL A   1      39.616  29.364  29.844  1.00  0.00     0.002 A 
ENDBRANCH  93  96
ENDBRANCH  90  92
ENDBRANCH  88  90
ENDBRANCH  83  88
ENDBRANCH  78  80
ENDBRANCH  77  78
ENDBRANCH  76  77
ENDBRANCH  75  76
ENDBRANCH  74  75
ENDBRANCH   1  74
TORSDOF 21
ENDMDL
MODEL 3
REMARK VINA RESULT:     -10.4      5.538     10.665
REMARK SMILES O=C(OCCOCCOCCOC(=O)c1cc(NC(=S)NC(=O)c2ccccc2Cl)c(Cl)cc1Cl)c1ccc(-c2c3nc(c(-c4c(F)c(F)c(F)c(F)c4F)c4ccc([nH]4)c(-c4c(F)c(F)c(F)c(F)c4F)c4nc(c(-c5c(F)c(F)c(F)c(F)c5F)c5ccc2[nH]5)C=C4)C=C3)cc1
REMARK SMILES IDX 8 1 7 2 6 3 5 4 4 5 3 6 2 7 1 8 36 9 37 10 98 11 38 12 97 13
REMARK SMILES IDX 39 14 40 15 41 16 91 17 42 18 96 19 90 20 92 21 43 22 95 23
REMARK SMILES IDX 89 24 88 25 44 27 76 28 56 29 75 30 57 31 60 32 74 33 93 34
REMARK SMILES IDX 58 35 59 36 73 38 94 39 61 40 45 41 46 42 54 43 47 44 48 45
REMARK SMILES IDX 52 46 55 47 49 48 50 49 53 50 51 51 77 52 78 53 86 54 79 55
REMARK SMILES IDX 80 56 84 57 87 58 81 59 82 60 85 61 83 62 62 63 63 64 71 65
REMARK SMILES IDX 64 66 65 67 69 68 72 69 66 70 67 71 70 72 68 73 9 74 10 75
REMARK SMILES IDX 11 76 12 77 13 78 14 79 15 80 16 81 34 82 17 83 33 84 35 85
REMARK SMILES IDX 31 86 32 87 18 88 19 90 20 91 21 92 22 93 23 95 24 96 25 97
REMARK SMILES IDX 29 98 26 99 28 100 30 101 27 102
REMARK H PARENT 92 26 60 37 18 89 21 94
REMARK Flexibility Score: inf
ROOT
ATOM      1  C   UNL A   1      34.945  33.416  28.004  1.00  0.00     0.188 C 
ENDROOT
BRANCH   1   2
ATOM      2  C   UNL A   1      34.961  34.684  28.871  1.00  0.00     0.188 C 
BRANCH   2   3
ATOM      3  O   UNL A   1      33.829  35.557  28.872  1.00  0.00    -0.376 OA
BRANCH   3   4
ATOM      4  C   UNL A   1      33.043  35.509  30.064  1.00  0.00     0.202 C 
BRANCH   4   5
ATOM      5  C   UNL A   1      33.757  35.848  31.389  1.00  0.00     0.261 C 
BRANCH   5   6
ATOM      6  O   UNL A   1      33.879  34.781  32.347  1.00  0.00    -0.460 OA
BRANCH   6   7
ATOM      7  C   UNL A   1      34.706  33.712  32.394  1.00  0.00     0.338 C 
ATOM      8  O   UNL A   1      34.372  32.699  31.780  1.00  0.00    -0.246 OA
BRANCH   7   9
ATOM      9  C   UNL A   1      36.000  33.663  33.149  1.00  0.00     0.060 A 
ATOM     10  C   UNL A   1      37.276  33.711  32.585  1.00  0.00     0.016 A 
ATOM     11  C   UNL A   1      35.912  33.557  34.553  1.00  0.00     0.016 A 
ATOM     12  C   UNL A   1      38.424  33.623  33.366  1.00  0.00     0.010 A 
ATOM     13  C   UNL A   1      37.059  33.478  35.351  1.00  0.00     0.010 A 
ATOM     14  C   UNL A   1      38.324  33.488  34.748  1.00  0.00    -0.014 A 
BRANCH  14  15
ATOM     15  C   UNL A   1      39.537  33.116  35.495  1.00  0.00     0.031 A 
ATOM     16  C   UNL A   1      40.111  34.160  36.393  1.00  0.00     0.074 A 
ATOM     17  C   UNL A   1      40.023  31.863  35.499  1.00  0.00     0.049 A 
ATOM     18  N   UNL A   1      41.119  34.070  37.214  1.00  0.00    -0.248 NA
ATOM     19  C   UNL A   1      39.409  35.455  36.424  1.00  0.00     0.031 C 
ATOM     20  C   UNL A   1      39.389  30.719  34.866  1.00  0.00     0.029 A 
ATOM     21  N   UNL A   1      41.148  31.324  36.061  1.00  0.00    -0.354 N 
ATOM     22  C   UNL A   1      41.145  35.278  37.889  1.00  0.00     0.074 A 
ATOM     23  C   UNL A   1      40.094  36.107  37.347  1.00  0.00     0.031 C 
ATOM     24  C   UNL A   1      40.176  29.638  34.958  1.00  0.00     0.029 A 
ATOM     25  C   UNL A   1      41.356  30.010  35.711  1.00  0.00     0.049 A 
ATOM     26  H   UNL A   1      41.749  31.827  36.657  1.00  0.00     0.167 HD
ATOM     27  C   UNL A   1      41.968  35.640  38.895  1.00  0.00     0.037 A 
ATOM     28  C   UNL A   1      42.384  29.194  35.986  1.00  0.00     0.037 A 
ATOM     29  C   UNL A   1      43.034  34.805  39.374  1.00  0.00     0.049 A 
ATOM     30  C   UNL A   1      43.418  29.704  36.938  1.00  0.00     0.074 A 
ATOM     31  C   UNL A   1      43.986  35.084  40.333  1.00  0.00     0.029 A 
ATOM     32  N   UNL A   1      43.303  33.526  38.895  1.00  0.00    -0.354 N 
ATOM     33  N   UNL A   1      43.457  30.857  37.559  1.00  0.00    -0.248 NA
ATOM     34  C   UNL A   1      44.511  28.788  37.269  1.00  0.00     0.031 C 
ATOM     35  C   UNL A   1      44.879  34.007  40.377  1.00  0.00     0.029 A 
ATOM     36  C   UNL A   1      44.439  33.023  39.504  1.00  0.00     0.049 A 
ATOM     37  H   UNL A   1      42.766  33.050  38.222  1.00  0.00     0.167 HD
ATOM     38  C   UNL A   1      44.554  30.792  38.396  1.00  0.00     0.074 A 
ATOM     39  C   UNL A   1      45.149  29.483  38.201  1.00  0.00     0.031 C 
ATOM     40  C   UNL A   1      45.015  31.724  39.263  1.00  0.00     0.037 A 
BRANCH  27  41
ATOM     41  C   UNL A   1      41.782  37.023  39.439  1.00  0.00     0.064 A 
ATOM     42  C   UNL A   1      42.591  38.099  39.037  1.00  0.00     0.173 A 
ATOM     43  C   UNL A   1      40.842  37.251  40.454  1.00  0.00     0.173 A 
ATOM     44  F   UNL A   1      43.537  37.921  38.101  1.00  0.00    -0.203 F 
ATOM     45  C   UNL A   1      42.497  39.337  39.666  1.00  0.00     0.198 A 
ATOM     46  C   UNL A   1      40.727  38.499  41.054  1.00  0.00     0.198 A 
ATOM     47  F   UNL A   1      40.060  36.251  40.886  1.00  0.00    -0.203 F 
ATOM     48  F   UNL A   1      43.341  40.324  39.331  1.00  0.00    -0.200 F 
ATOM     49  C   UNL A   1      41.563  39.537  40.673  1.00  0.00     0.200 A 
ATOM     50  F   UNL A   1      39.826  38.689  42.029  1.00  0.00    -0.200 F 
ATOM     51  F   UNL A   1      41.487  40.723  41.292  1.00  0.00    -0.200 F 
ENDBRANCH  27  41
BRANCH  28  52
ATOM     52  C   UNL A   1      42.511  27.851  35.376  1.00  0.00     0.064 A 
ATOM     53  C   UNL A   1      41.945  26.716  35.969  1.00  0.00     0.173 A 
ATOM     54  C   UNL A   1      43.320  27.668  34.246  1.00  0.00     0.173 A 
ATOM     55  F   UNL A   1      41.168  26.846  37.054  1.00  0.00    -0.203 F 
ATOM     56  C   UNL A   1      42.234  25.438  35.493  1.00  0.00     0.198 A 
ATOM     57  C   UNL A   1      43.617  26.391  33.778  1.00  0.00     0.198 A 
ATOM     58  F   UNL A   1      43.837  28.728  33.608  1.00  0.00    -0.203 F 
ATOM     59  F   UNL A   1      41.708  24.365  36.099  1.00  0.00    -0.200 F 
ATOM     60  C   UNL A   1      43.091  25.275  34.414  1.00  0.00     0.200 A 
ATOM     61  F   UNL A   1      44.393  26.247  32.694  1.00  0.00    -0.200 F 
ATOM     62  F   UNL A   1      43.381  24.046  33.967  1.00  0.00    -0.200 F 
ENDBRANCH  28  52
BRANCH  40  63
ATOM     63  C   UNL A   1      46.210  31.334  40.071  1.00  0.00     0.064 A 
ATOM     64  C   UNL A   1      46.084  30.659  41.294  1.00  0.00     0.173 A 
ATOM     65  C   UNL A   1      47.499  31.630  39.606  1.00  0.00     0.173 A 
ATOM     66  F   UNL A   1      44.869  30.382  41.790  1.00  0.00    -0.203 F 
ATOM     67  C   UNL A   1      47.209  30.323  42.038  1.00  0.00     0.198 A 
ATOM     68  C   UNL A   1      48.621  31.254  40.331  1.00  0.00     0.198 A 
ATOM     69  F   UNL A   1      47.666  32.279  38.442  1.00  0.00    -0.203 F 
ATOM     70  F   UNL A   1      47.065  29.739  43.236  1.00  0.00    -0.200 F 
ATOM     71  C   UNL A   1      48.475  30.610  41.551  1.00  0.00     0.200 A 
ATOM     72  F   UNL A   1      49.845  31.519  39.853  1.00  0.00    -0.200 F 
ATOM     73  F   UNL A   1      49.558  30.275  42.264  1.00  0.00    -0.200 F 
ENDBRANCH  40  63
ENDBRANCH  14  15
ENDBRANCH   7   9
ENDBRANCH   6   7
ENDBRANCH   5   6
ENDBRANCH   4   5
ENDBRANCH   3   4
ENDBRANCH   2   3
ENDBRANCH   1   2
BRANCH   1  74
ATOM     74  O   UNL A   1      33.844  32.530  28.109  1.00  0.00    -0.376 OA
BRANCH  74  75
ATOM     75  C   UNL A   1      34.078  31.152  27.835  1.00  0.00     0.202 C 
BRANCH  75  76
ATOM     76  C   UNL A   1      32.936  30.321  27.256  1.00  0.00     0.261 C 
BRANCH  76  77
ATOM     77  O   UNL A   1      33.106  28.913  27.490  1.00  0.00    -0.460 OA
BRANCH  77  78
ATOM     78  C   UNL A   1      32.262  28.083  26.840  1.00  0.00     0.339 C 
ATOM     79  O   UNL A   1      31.220  27.641  27.301  1.00  0.00    -0.246 OA
BRANCH  78  80
ATOM     80  C   UNL A   1      32.764  27.580  25.478  1.00  0.00     0.080 A 
ATOM     81  C   UNL A   1      33.925  26.042  24.851  1.00  0.00     0.045 A 
ATOM     82  C   UNL A   1      31.723  28.324  24.184  1.00  0.00     0.057 A 
ATOM     83  C   UNL A   1      33.815  25.358  23.299  1.00  0.00     0.060 A 
ATOM     84  C   UNL A   1      31.785  27.623  22.538  1.00  0.00     0.044 A 
ATOM     85  Cl  UNL A   1      30.778  29.732  24.449  1.00  0.00    -0.083 Cl
ATOM     86  C   UNL A   1      32.788  26.187  22.137  1.00  0.00     0.066 A 
ATOM     87  Cl  UNL A   1      32.583  25.474  20.580  1.00  0.00    -0.082 Cl
BRANCH  83  88
ATOM     88  N   UNL A   1      33.851  23.930  23.454  1.00  0.00    -0.331 N 
ATOM     89  H   UNL A   1      34.714  23.521  23.213  1.00  0.00     0.169 HD
BRANCH  88  90
ATOM     90  C   UNL A   1      32.895  23.023  23.879  1.00  0.00     0.177 C 
ATOM     91  S   UNL A   1      31.345  23.617  24.137  1.00  0.00    -0.040 S 
BRANCH  90  92
ATOM     92  N   UNL A   1      33.004  21.641  24.180  1.00  0.00    -0.299 N 
ATOM     93  C   UNL A   1      33.734  20.487  24.730  1.00  0.00     0.258 C 
ATOM     94  H   UNL A   1      32.157  21.256  23.857  1.00  0.00     0.172 HD
ATOM     95  O   UNL A   1      33.433  19.340  24.419  1.00  0.00    -0.269 OA
BRANCH  93  96
ATOM     96  C   UNL A   1      34.930  20.723  25.617  1.00  0.00     0.058 A 
ATOM     97  C   UNL A   1      36.413  20.889  24.595  1.00  0.00     0.015 A 
ATOM     98  C   UNL A   1      34.412  21.944  26.757  1.00  0.00     0.053 A 
ATOM     99  C   UNL A   1      37.363  22.391  24.513  1.00  0.00     0.001 A 
ATOM    100  C   UNL A   1      35.226  23.516  26.726  1.00  0.00     0.021 A 
ATOM    101  Cl  UNL A   1      33.008  21.747  27.727  1.00  0.00    -0.083 Cl
ATOM    102  C   UNL A   1      36.786  23.810  25.458  1.00  0.00     0.002 A 
ENDBRANCH  93  96
ENDBRANCH  90  92
ENDBRANCH  88  90
ENDBRANCH  83  88
ENDBRANCH  78  80
ENDBRANCH  77  78
ENDBRANCH  76  77
ENDBRANCH  75  76
ENDBRANCH  74  75
ENDBRANCH   1  74
TORSDOF 21
ENDMDL
