MODEL 1
REMARK VINA RESULT:     -12.7      0.000      0.000
REMARK SMILES O=C(OCCOCCOCCOC(=O)c1ccc(-c2c3nc(c(-c4c(F)c(F)c(F)c(F)c4F)c4ccc([nH]4)c(-c4c(F)c(F)c(F)c(F)c4F)c4nc(c(-c5c(F)c(F)c(F)c(F)c5F)c5ccc2[nH]5)C=C4)C=C3)cc1)C1=Cc2c(Cl)ccc(Cl)c2O[C@@H]1C(F)(F)F
REMARK SMILES IDX 8 1 7 2 6 3 5 4 4 5 3 6 2 7 1 8 78 9 79 10 89 11 80 12 88 13
REMARK SMILES IDX 81 14 87 15 82 16 83 17 85 18 84 19 86 20 90 21 91 22 92 23
REMARK SMILES IDX 93 24 9 25 10 26 11 27 12 28 13 29 14 30 15 31 16 32 77 33
REMARK SMILES IDX 17 34 76 35 18 36 19 37 20 38 70 39 21 40 75 41 69 42 71 43
REMARK SMILES IDX 22 44 74 45 68 46 67 47 23 49 55 50 35 51 54 52 36 53 39 54
REMARK SMILES IDX 53 55 72 56 37 57 38 58 52 60 73 61 40 62 24 63 25 64 33 65
REMARK SMILES IDX 26 66 27 67 31 68 34 69 28 70 29 71 32 72 30 73 56 74 57 75
REMARK SMILES IDX 65 76 58 77 59 78 63 79 66 80 60 81 61 82 64 83 62 84 41 85
REMARK SMILES IDX 42 86 50 87 43 88 44 89 48 90 51 91 45 92 46 93 49 94 47 95
REMARK H PARENT 71 48 39 59
REMARK Flexibility Score: inf
ROOT
ATOM      1  C   UNL A   1      29.746  29.518  23.631  1.00  0.00     0.188 C 
ENDROOT
BRANCH   1   2
ATOM      2  C   UNL A   1      29.620  28.275  22.735  1.00  0.00     0.188 C 
BRANCH   2   3
ATOM      3  O   UNL A   1      30.751  27.793  21.882  1.00  0.00    -0.376 OA
BRANCH   3   4
ATOM      4  C   UNL A   1      31.678  26.338  22.059  1.00  0.00     0.202 C 
BRANCH   4   5
ATOM      5  C   UNL A   1      30.877  24.475  22.839  1.00  0.00     0.261 C 
BRANCH   5   6
ATOM      6  O   UNL A   1      31.668  23.216  23.147  1.00  0.00    -0.460 OA
BRANCH   6   7
ATOM      7  C   UNL A   1      32.985  23.460  23.210  1.00  0.00     0.338 C 
ATOM      8  O   UNL A   1      33.751  23.634  22.293  1.00  0.00    -0.246 OA
BRANCH   7   9
ATOM      9  C   UNL A   1      33.207  22.888  24.530  1.00  0.00     0.087 C 
ATOM     10  C   UNL A   1      34.038  21.694  24.600  1.00  0.00     0.029 C 
ATOM     11  C   UNL A   1      33.677  24.587  25.276  1.00  0.00     0.316 C 
ATOM     12  C   UNL A   1      35.769  21.679  25.112  1.00  0.00     0.037 A 
ATOM     13  O   UNL A   1      35.591  24.665  25.662  1.00  0.00    -0.474 OA
ATOM     14  C   UNL A   1      36.513  20.526  25.057  1.00  0.00     0.052 A 
ATOM     15  C   UNL A   1      36.591  23.132  25.578  1.00  0.00     0.148 A 
ATOM     16  Cl  UNL A   1      35.885  19.020  24.532  1.00  0.00    -0.084 Cl
ATOM     17  C   UNL A   1      37.864  20.642  25.432  1.00  0.00     0.023 A 
ATOM     18  C   UNL A   1      37.923  23.158  25.900  1.00  0.00     0.083 A 
ATOM     19  C   UNL A   1      38.525  21.878  25.832  1.00  0.00     0.026 A 
ATOM     20  Cl  UNL A   1      38.836  24.537  26.277  1.00  0.00    -0.080 Cl
BRANCH  11  21
ATOM     21  C   UNL A   1      32.313  24.593  26.287  1.00  0.00     0.430 C 
ATOM     22  F   UNL A   1      31.085  24.375  25.810  1.00  0.00    -0.167 F 
ATOM     23  F   UNL A   1      32.506  23.721  27.307  1.00  0.00    -0.167 F 
ATOM     24  F   UNL A   1      32.171  25.814  26.902  1.00  0.00    -0.167 F 
ENDBRANCH  11  21
ENDBRANCH   7   9
ENDBRANCH   6   7
ENDBRANCH   5   6
ENDBRANCH   4   5
ENDBRANCH   3   4
ENDBRANCH   2   3
ENDBRANCH   1   2
BRANCH   1  25
ATOM     25  O   UNL A   1      30.984  29.795  24.233  1.00  0.00    -0.376 OA
BRANCH  25  26
ATOM     26  C   UNL A   1      31.354  28.931  25.298  1.00  0.00     0.202 C 
BRANCH  26  27
ATOM     27  C   UNL A   1      31.996  29.567  26.541  1.00  0.00     0.261 C 
BRANCH  27  28
ATOM     28  O   UNL A   1      33.207  30.310  26.274  1.00  0.00    -0.460 OA
BRANCH  28  29
ATOM     29  C   UNL A   1      33.545  31.292  27.148  1.00  0.00     0.338 C 
ATOM     30  O   UNL A   1      32.873  32.246  27.494  1.00  0.00    -0.246 OA
BRANCH  29  31
ATOM     31  C   UNL A   1      34.860  30.978  27.744  1.00  0.00     0.060 A 
ATOM     32  C   UNL A   1      35.172  29.665  28.130  1.00  0.00     0.016 A 
ATOM     33  C   UNL A   1      35.770  32.010  27.961  1.00  0.00     0.016 A 
ATOM     34  C   UNL A   1      36.426  29.374  28.682  1.00  0.00     0.010 A 
ATOM     35  C   UNL A   1      36.999  31.728  28.559  1.00  0.00     0.010 A 
ATOM     36  C   UNL A   1      37.335  30.412  28.924  1.00  0.00    -0.014 A 
BRANCH  36  37
ATOM     37  C   UNL A   1      38.556  30.188  29.738  1.00  0.00     0.031 A 
ATOM     38  C   UNL A   1      39.574  29.216  29.214  1.00  0.00     0.074 A 
ATOM     39  C   UNL A   1      38.719  30.761  30.943  1.00  0.00     0.049 A 
ATOM     40  N   UNL A   1      40.630  28.719  29.803  1.00  0.00    -0.248 NA
ATOM     41  C   UNL A   1      39.359  28.724  27.845  1.00  0.00     0.031 C 
ATOM     42  C   UNL A   1      37.816  31.741  31.539  1.00  0.00     0.029 A 
ATOM     43  N   UNL A   1      39.694  30.578  31.897  1.00  0.00    -0.354 N 
ATOM     44  C   UNL A   1      41.189  27.839  28.887  1.00  0.00     0.074 A 
ATOM     45  C   UNL A   1      40.355  27.863  27.706  1.00  0.00     0.031 C 
ATOM     46  C   UNL A   1      38.263  32.054  32.770  1.00  0.00     0.029 A 
ATOM     47  C   UNL A   1      39.454  31.258  33.068  1.00  0.00     0.049 A 
ATOM     48  H   UNL A   1      40.487  30.012  31.755  1.00  0.00     0.167 HD
ATOM     49  C   UNL A   1      42.293  27.070  29.029  1.00  0.00     0.037 A 
ATOM     50  C   UNL A   1      40.096  31.206  34.253  1.00  0.00     0.037 A 
ATOM     51  C   UNL A   1      43.109  27.046  30.212  1.00  0.00     0.049 A 
ATOM     52  C   UNL A   1      41.288  30.285  34.404  1.00  0.00     0.074 A 
ATOM     53  C   UNL A   1      44.275  26.336  30.435  1.00  0.00     0.029 A 
ATOM     54  N   UNL A   1      42.832  27.743  31.378  1.00  0.00    -0.354 N 
ATOM     55  N   UNL A   1      41.848  29.499  33.515  1.00  0.00    -0.248 NA
ATOM     56  C   UNL A   1      41.932  30.235  35.727  1.00  0.00     0.031 C 
ATOM     57  C   UNL A   1      44.655  26.533  31.764  1.00  0.00     0.029 A 
ATOM     58  C   UNL A   1      43.777  27.436  32.343  1.00  0.00     0.049 A 
ATOM     59  H   UNL A   1      42.078  28.363  31.501  1.00  0.00     0.167 HD
ATOM     60  C   UNL A   1      42.917  28.888  34.159  1.00  0.00     0.074 A 
ATOM     61  C   UNL A   1      42.945  29.409  35.508  1.00  0.00     0.031 C 
ATOM     62  C   UNL A   1      43.795  27.972  33.680  1.00  0.00     0.037 A 
BRANCH  49  63
ATOM     63  C   UNL A   1      42.657  26.149  27.903  1.00  0.00     0.064 A 
ATOM     64  C   UNL A   1      42.074  24.883  27.755  1.00  0.00     0.173 A 
ATOM     65  C   UNL A   1      43.564  26.573  26.918  1.00  0.00     0.173 A 
ATOM     66  F   UNL A   1      41.212  24.423  28.675  1.00  0.00    -0.203 F 
ATOM     67  C   UNL A   1      42.397  24.068  26.673  1.00  0.00     0.198 A 
ATOM     68  C   UNL A   1      43.858  25.772  25.820  1.00  0.00     0.198 A 
ATOM     69  F   UNL A   1      44.151  27.776  27.011  1.00  0.00    -0.203 F 
ATOM     70  F   UNL A   1      41.860  22.845  26.572  1.00  0.00    -0.200 F 
ATOM     71  C   UNL A   1      43.278  24.518  25.700  1.00  0.00     0.200 A 
ATOM     72  F   UNL A   1      44.695  26.217  24.873  1.00  0.00    -0.200 F 
ATOM     73  F   UNL A   1      43.571  23.742  24.648  1.00  0.00    -0.200 F 
ENDBRANCH  49  63
BRANCH  50  74
ATOM     74  C   UNL A   1      39.607  31.996  35.421  1.00  0.00     0.064 A 
ATOM     75  C   UNL A   1      40.132  33.263  35.717  1.00  0.00     0.173 A 
ATOM     76  C   UNL A   1      38.651  31.471  36.306  1.00  0.00     0.173 A 
ATOM     77  F   UNL A   1      41.071  33.801  34.924  1.00  0.00    -0.203 F 
ATOM     78  C   UNL A   1      39.751  33.954  36.867  1.00  0.00     0.198 A 
ATOM     79  C   UNL A   1      38.239  32.181  37.432  1.00  0.00     0.198 A 
ATOM     80  F   UNL A   1      38.120  30.260  36.084  1.00  0.00    -0.203 F 
ATOM     81  F   UNL A   1      40.332  35.124  37.166  1.00  0.00    -0.200 F 
ATOM     82  C   UNL A   1      38.801  33.415  37.721  1.00  0.00     0.200 A 
ATOM     83  F   UNL A   1      37.311  31.662  38.247  1.00  0.00    -0.200 F 
ATOM     84  F   UNL A   1      38.441  34.076  38.830  1.00  0.00    -0.200 F 
ENDBRANCH  50  74
BRANCH  62  85
ATOM     85  C   UNL A   1      44.885  27.495  34.599  1.00  0.00     0.064 A 
ATOM     86  C   UNL A   1      46.135  28.129  34.654  1.00  0.00     0.173 A 
ATOM     87  C   UNL A   1      44.645  26.442  35.496  1.00  0.00     0.173 A 
ATOM     88  F   UNL A   1      46.422  29.134  33.812  1.00  0.00    -0.203 F 
ATOM     89  C   UNL A   1      47.111  27.711  35.556  1.00  0.00     0.198 A 
ATOM     90  C   UNL A   1      45.607  26.054  36.423  1.00  0.00     0.198 A 
ATOM     91  F   UNL A   1      43.461  25.810  35.496  1.00  0.00    -0.203 F 
ATOM     92  F   UNL A   1      48.314  28.302  35.560  1.00  0.00    -0.200 F 
ATOM     93  C   UNL A   1      46.841  26.683  36.448  1.00  0.00     0.200 A 
ATOM     94  F   UNL A   1      45.335  25.078  37.300  1.00  0.00    -0.200 F 
ATOM     95  F   UNL A   1      47.774  26.299  37.331  1.00  0.00    -0.200 F 
ENDBRANCH  62  85
ENDBRANCH  36  37
ENDBRANCH  29  31
ENDBRANCH  28  29
ENDBRANCH  27  28
ENDBRANCH  26  27
ENDBRANCH  25  26
ENDBRANCH   1  25
TORSDOF 18
ENDMDL
MODEL 2
REMARK VINA RESULT:     -12.6      3.134      8.799
REMARK SMILES O=C(OCCOCCOCCOC(=O)c1ccc(-c2c3nc(c(-c4c(F)c(F)c(F)c(F)c4F)c4ccc([nH]4)c(-c4c(F)c(F)c(F)c(F)c4F)c4nc(c(-c5c(F)c(F)c(F)c(F)c5F)c5ccc2[nH]5)C=C4)C=C3)cc1)C1=Cc2c(Cl)ccc(Cl)c2O[C@@H]1C(F)(F)F
REMARK SMILES IDX 8 1 7 2 6 3 5 4 4 5 3 6 2 7 1 8 78 9 79 10 89 11 80 12 88 13
REMARK SMILES IDX 81 14 87 15 82 16 83 17 85 18 84 19 86 20 90 21 91 22 92 23
REMARK SMILES IDX 93 24 9 25 10 26 11 27 12 28 13 29 14 30 15 31 16 32 77 33
REMARK SMILES IDX 17 34 76 35 18 36 19 37 20 38 70 39 21 40 75 41 69 42 71 43
REMARK SMILES IDX 22 44 74 45 68 46 67 47 23 49 55 50 35 51 54 52 36 53 39 54
REMARK SMILES IDX 53 55 72 56 37 57 38 58 52 60 73 61 40 62 24 63 25 64 33 65
REMARK SMILES IDX 26 66 27 67 31 68 34 69 28 70 29 71 32 72 30 73 56 74 57 75
REMARK SMILES IDX 65 76 58 77 59 78 63 79 66 80 60 81 61 82 64 83 62 84 41 85
REMARK SMILES IDX 42 86 50 87 43 88 44 89 48 90 51 91 45 92 46 93 49 94 47 95
REMARK H PARENT 71 48 39 59
REMARK Flexibility Score: inf
ROOT
ATOM      1  C   UNL A   1      42.175  19.199  26.500  1.00  0.00     0.188 C 
ENDROOT
BRANCH   1   2
ATOM      2  C   UNL A   1      41.488  19.993  27.622  1.00  0.00     0.188 C 
BRANCH   2   3
ATOM      3  O   UNL A   1      40.233  20.774  27.387  1.00  0.00    -0.376 OA
BRANCH   3   4
ATOM      4  C   UNL A   1      40.042  22.243  26.486  1.00  0.00     0.202 C 
BRANCH   4   5
ATOM      5  C   UNL A   1      38.131  23.223  26.150  1.00  0.00     0.261 C 
BRANCH   5   6
ATOM      6  O   UNL A   1      36.817  22.539  25.820  1.00  0.00    -0.460 OA
BRANCH   6   7
ATOM      7  C   UNL A   1      36.393  22.847  24.586  1.00  0.00     0.338 C 
ATOM      8  O   UNL A   1      37.050  23.250  23.655  1.00  0.00    -0.246 OA
BRANCH   7   9
ATOM      9  C   UNL A   1      35.000  23.091  24.933  1.00  0.00     0.087 C 
ATOM     10  C   UNL A   1      34.631  24.462  25.254  1.00  0.00     0.029 C 
ATOM     11  C   UNL A   1      34.367  22.120  23.410  1.00  0.00     0.316 C 
ATOM     12  C   UNL A   1      33.777  25.584  24.127  1.00  0.00     0.037 A 
ATOM     13  O   UNL A   1      33.609  23.337  22.083  1.00  0.00    -0.474 OA
ATOM     14  C   UNL A   1      33.551  26.895  24.468  1.00  0.00     0.052 A 
ATOM     15  C   UNL A   1      33.316  25.090  22.530  1.00  0.00     0.148 A 
ATOM     16  Cl  UNL A   1      34.023  27.574  25.969  1.00  0.00    -0.084 Cl
ATOM     17  C   UNL A   1      32.923  27.691  23.493  1.00  0.00     0.023 A 
ATOM     18  C   UNL A   1      32.734  25.944  21.630  1.00  0.00     0.083 A 
ATOM     19  C   UNL A   1      32.536  27.242  22.160  1.00  0.00     0.026 A 
ATOM     20  Cl  UNL A   1      32.333  25.585  20.022  1.00  0.00    -0.080 Cl
BRANCH  11  21
ATOM     21  C   UNL A   1      33.662  20.922  24.386  1.00  0.00     0.430 C 
ATOM     22  F   UNL A   1      33.023  21.226  25.519  1.00  0.00    -0.167 F 
ATOM     23  F   UNL A   1      32.815  20.174  23.637  1.00  0.00    -0.167 F 
ATOM     24  F   UNL A   1      34.612  20.030  24.821  1.00  0.00    -0.167 F 
ENDBRANCH  11  21
ENDBRANCH   7   9
ENDBRANCH   6   7
ENDBRANCH   5   6
ENDBRANCH   4   5
ENDBRANCH   3   4
ENDBRANCH   2   3
ENDBRANCH   1   2
BRANCH   1  25
ATOM     25  O   UNL A   1      42.670  19.893  25.384  1.00  0.00    -0.376 OA
BRANCH  25  26
ATOM     26  C   UNL A   1      44.072  20.118  25.374  1.00  0.00     0.202 C 
BRANCH  26  27
ATOM     27  C   UNL A   1      44.559  21.575  25.354  1.00  0.00     0.261 C 
BRANCH  27  28
ATOM     28  O   UNL A   1      43.649  22.518  25.964  1.00  0.00    -0.460 OA
BRANCH  28  29
ATOM     29  C   UNL A   1      43.710  23.808  25.548  1.00  0.00     0.338 C 
ATOM     30  O   UNL A   1      43.888  24.219  24.416  1.00  0.00    -0.246 OA
BRANCH  29  31
ATOM     31  C   UNL A   1      43.406  24.699  26.687  1.00  0.00     0.060 A 
ATOM     32  C   UNL A   1      42.434  24.339  27.633  1.00  0.00     0.016 A 
ATOM     33  C   UNL A   1      44.064  25.922  26.785  1.00  0.00     0.016 A 
ATOM     34  C   UNL A   1      42.161  25.184  28.717  1.00  0.00     0.010 A 
ATOM     35  C   UNL A   1      43.754  26.787  27.836  1.00  0.00     0.010 A 
ATOM     36  C   UNL A   1      42.802  26.426  28.807  1.00  0.00    -0.014 A 
BRANCH  36  37
ATOM     37  C   UNL A   1      42.356  27.450  29.783  1.00  0.00     0.031 A 
ATOM     38  C   UNL A   1      43.020  27.466  31.130  1.00  0.00     0.074 A 
ATOM     39  C   UNL A   1      41.336  28.285  29.517  1.00  0.00     0.049 A 
ATOM     40  N   UNL A   1      42.703  28.137  32.207  1.00  0.00    -0.248 NA
ATOM     41  C   UNL A   1      44.192  26.591  31.287  1.00  0.00     0.031 C 
ATOM     42  C   UNL A   1      40.637  28.382  28.240  1.00  0.00     0.029 A 
ATOM     43  N   UNL A   1      40.691  29.194  30.324  1.00  0.00    -0.354 N 
ATOM     44  C   UNL A   1      43.619  27.745  33.173  1.00  0.00     0.074 A 
ATOM     45  C   UNL A   1      44.500  26.775  32.561  1.00  0.00     0.031 C 
ATOM     46  C   UNL A   1      39.641  29.280  28.354  1.00  0.00     0.029 A 
ATOM     47  C   UNL A   1      39.600  29.783  29.727  1.00  0.00     0.049 A 
ATOM     48  H   UNL A   1      40.981  29.403  31.241  1.00  0.00     0.167 HD
ATOM     49  C   UNL A   1      43.703  28.151  34.460  1.00  0.00     0.037 A 
ATOM     50  C   UNL A   1      38.656  30.595  30.246  1.00  0.00     0.037 A 
ATOM     51  C   UNL A   1      42.816  29.109  35.062  1.00  0.00     0.049 A 
ATOM     52  C   UNL A   1      38.738  30.979  31.707  1.00  0.00     0.074 A 
ATOM     53  C   UNL A   1      42.849  29.622  36.346  1.00  0.00     0.029 A 
ATOM     54  N   UNL A   1      41.721  29.678  34.430  1.00  0.00    -0.354 N 
ATOM     55  N   UNL A   1      39.640  30.652  32.602  1.00  0.00    -0.248 NA
ATOM     56  C   UNL A   1      37.664  31.836  32.236  1.00  0.00     0.031 C 
ATOM     57  C   UNL A   1      41.726  30.431  36.519  1.00  0.00     0.029 A 
ATOM     58  C   UNL A   1      41.040  30.496  35.316  1.00  0.00     0.049 A 
ATOM     59  H   UNL A   1      41.467  29.525  33.491  1.00  0.00     0.167 HD
ATOM     60  C   UNL A   1      39.259  31.282  33.781  1.00  0.00     0.074 A 
ATOM     61  C   UNL A   1      38.057  32.029  33.487  1.00  0.00     0.031 C 
ATOM     62  C   UNL A   1      39.849  31.241  35.003  1.00  0.00     0.037 A 
BRANCH  49  63
ATOM     63  C   UNL A   1      44.756  27.526  35.327  1.00  0.00     0.064 A 
ATOM     64  C   UNL A   1      45.954  28.183  35.639  1.00  0.00     0.173 A 
ATOM     65  C   UNL A   1      44.528  26.266  35.905  1.00  0.00     0.173 A 
ATOM     66  F   UNL A   1      46.228  29.381  35.101  1.00  0.00    -0.203 F 
ATOM     67  C   UNL A   1      46.893  27.596  36.484  1.00  0.00     0.198 A 
ATOM     68  C   UNL A   1      45.451  25.699  36.777  1.00  0.00     0.198 A 
ATOM     69  F   UNL A   1      43.397  25.595  35.640  1.00  0.00    -0.203 F 
ATOM     70  F   UNL A   1      48.049  28.223  36.737  1.00  0.00    -0.200 F 
ATOM     71  C   UNL A   1      46.635  26.362  37.062  1.00  0.00     0.200 A 
ATOM     72  F   UNL A   1      45.191  24.515  37.348  1.00  0.00    -0.200 F 
ATOM     73  F   UNL A   1      47.529  25.809  37.893  1.00  0.00    -0.200 F 
ENDBRANCH  49  63
BRANCH  50  74
ATOM     74  C   UNL A   1      37.510  31.062  29.411  1.00  0.00     0.064 A 
ATOM     75  C   UNL A   1      37.415  32.395  28.982  1.00  0.00     0.173 A 
ATOM     76  C   UNL A   1      36.450  30.202  29.082  1.00  0.00     0.173 A 
ATOM     77  F   UNL A   1      38.384  33.269  29.294  1.00  0.00    -0.203 F 
ATOM     78  C   UNL A   1      36.293  32.856  28.293  1.00  0.00     0.198 A 
ATOM     79  C   UNL A   1      35.349  30.653  28.357  1.00  0.00     0.198 A 
ATOM     80  F   UNL A   1      36.476  28.920  29.474  1.00  0.00    -0.203 F 
ATOM     81  F   UNL A   1      36.194  34.152  27.970  1.00  0.00    -0.200 F 
ATOM     82  C   UNL A   1      35.264  31.984  27.976  1.00  0.00     0.200 A 
ATOM     83  F   UNL A   1      34.362  29.803  28.042  1.00  0.00    -0.200 F 
ATOM     84  F   UNL A   1      34.182  32.428  27.322  1.00  0.00    -0.200 F 
ENDBRANCH  50  74
BRANCH  62  85
ATOM     85  C   UNL A   1      39.231  32.051  36.108  1.00  0.00     0.064 A 
ATOM     86  C   UNL A   1      38.264  31.510  36.969  1.00  0.00     0.173 A 
ATOM     87  C   UNL A   1      39.673  33.359  36.360  1.00  0.00     0.173 A 
ATOM     88  F   UNL A   1      37.798  30.268  36.768  1.00  0.00    -0.203 F 
ATOM     89  C   UNL A   1      37.748  32.257  38.026  1.00  0.00     0.198 A 
ATOM     90  C   UNL A   1      39.185  34.088  37.440  1.00  0.00     0.198 A 
ATOM     91  F   UNL A   1      40.605  33.921  35.575  1.00  0.00    -0.203 F 
ATOM     92  F   UNL A   1      36.793  31.736  38.808  1.00  0.00    -0.200 F 
ATOM     93  C   UNL A   1      38.218  33.539  38.268  1.00  0.00     0.200 A 
ATOM     94  F   UNL A   1      39.658  35.317  37.686  1.00  0.00    -0.200 F 
ATOM     95  F   UNL A   1      37.737  34.247  39.299  1.00  0.00    -0.200 F 
ENDBRANCH  62  85
ENDBRANCH  36  37
ENDBRANCH  29  31
ENDBRANCH  28  29
ENDBRANCH  27  28
ENDBRANCH  26  27
ENDBRANCH  25  26
ENDBRANCH   1  25
TORSDOF 18
ENDMDL
MODEL 3
REMARK VINA RESULT:     -12.3      1.754      3.132
REMARK SMILES O=C(OCCOCCOCCOC(=O)c1ccc(-c2c3nc(c(-c4c(F)c(F)c(F)c(F)c4F)c4ccc([nH]4)c(-c4c(F)c(F)c(F)c(F)c4F)c4nc(c(-c5c(F)c(F)c(F)c(F)c5F)c5ccc2[nH]5)C=C4)C=C3)cc1)C1=Cc2c(Cl)ccc(Cl)c2O[C@@H]1C(F)(F)F
REMARK SMILES IDX 8 1 7 2 6 3 5 4 4 5 3 6 2 7 1 8 78 9 79 10 89 11 80 12 88 13
REMARK SMILES IDX 81 14 87 15 82 16 83 17 85 18 84 19 86 20 90 21 91 22 92 23
REMARK SMILES IDX 93 24 9 25 10 26 11 27 12 28 13 29 14 30 15 31 16 32 77 33
REMARK SMILES IDX 17 34 76 35 18 36 19 37 20 38 70 39 21 40 75 41 69 42 71 43
REMARK SMILES IDX 22 44 74 45 68 46 67 47 23 49 55 50 35 51 54 52 36 53 39 54
REMARK SMILES IDX 53 55 72 56 37 57 38 58 52 60 73 61 40 62 24 63 25 64 33 65
REMARK SMILES IDX 26 66 27 67 31 68 34 69 28 70 29 71 32 72 30 73 56 74 57 75
REMARK SMILES IDX 65 76 58 77 59 78 63 79 66 80 60 81 61 82 64 83 62 84 41 85
REMARK SMILES IDX 42 86 50 87 43 88 44 89 48 90 51 91 45 92 46 93 49 94 47 95
REMARK H PARENT 71 48 39 59
REMARK Flexibility Score: inf
ROOT
ATOM      1  C   UNL A   1      29.945  31.468  24.704  1.00  0.00     0.188 C 
ENDROOT
BRANCH   1   2
ATOM      2  C   UNL A   1      29.228  30.802  23.519  1.00  0.00     0.188 C 
BRANCH   2   3
ATOM      3  O   UNL A   1      29.539  29.403  23.089  1.00  0.00    -0.376 OA
BRANCH   3   4
ATOM      4  C   UNL A   1      31.013  28.798  22.403  1.00  0.00     0.202 C 
BRANCH   4   5
ATOM      5  C   UNL A   1      31.296  26.745  21.749  1.00  0.00     0.261 C 
BRANCH   5   6
ATOM      6  O   UNL A   1      31.487  25.535  22.646  1.00  0.00    -0.460 OA
BRANCH   6   7
ATOM      7  C   UNL A   1      32.785  25.262  22.842  1.00  0.00     0.338 C 
ATOM      8  O   UNL A   1      33.649  25.130  22.008  1.00  0.00    -0.246 OA
BRANCH   7   9
ATOM      9  C   UNL A   1      32.641  24.653  24.157  1.00  0.00     0.087 C 
ATOM     10  C   UNL A   1      32.609  23.199  24.210  1.00  0.00     0.029 C 
ATOM     11  C   UNL A   1      34.028  25.740  24.902  1.00  0.00     0.316 C 
ATOM     12  C   UNL A   1      34.004  22.161  24.696  1.00  0.00     0.037 A 
ATOM     13  O   UNL A   1      35.624  24.672  25.260  1.00  0.00    -0.474 OA
ATOM     14  C   UNL A   1      33.925  20.791  24.625  1.00  0.00     0.052 A 
ATOM     15  C   UNL A   1      35.528  22.845  25.156  1.00  0.00     0.148 A 
ATOM     16  Cl  UNL A   1      32.526  19.951  24.104  1.00  0.00    -0.084 Cl
ATOM     17  C   UNL A   1      35.089  20.084  24.981  1.00  0.00     0.023 A 
ATOM     18  C   UNL A   1      36.624  22.078  25.458  1.00  0.00     0.083 A 
ATOM     19  C   UNL A   1      36.355  20.690  25.376  1.00  0.00     0.026 A 
ATOM     20  Cl  UNL A   1      38.177  22.649  25.827  1.00  0.00    -0.080 Cl
BRANCH  11  21
ATOM     21  C   UNL A   1      32.940  26.537  25.934  1.00  0.00     0.430 C 
ATOM     22  F   UNL A   1      32.056  25.863  26.676  1.00  0.00    -0.167 F 
ATOM     23  F   UNL A   1      33.628  27.350  26.771  1.00  0.00    -0.167 F 
ATOM     24  F   UNL A   1      32.128  27.386  25.221  1.00  0.00    -0.167 F 
ENDBRANCH  11  21
ENDBRANCH   7   9
ENDBRANCH   6   7
ENDBRANCH   5   6
ENDBRANCH   4   5
ENDBRANCH   3   4
ENDBRANCH   2   3
ENDBRANCH   1   2
BRANCH   1  25
ATOM     25  O   UNL A   1      31.050  30.821  25.279  1.00  0.00    -0.376 OA
BRANCH  25  26
ATOM     26  C   UNL A   1      31.403  31.255  26.585  1.00  0.00     0.202 C 
BRANCH  26  27
ATOM     27  C   UNL A   1      31.751  32.740  26.772  1.00  0.00     0.261 C 
BRANCH  27  28
ATOM     28  O   UNL A   1      33.091  32.983  27.257  1.00  0.00    -0.460 OA
BRANCH  28  29
ATOM     29  C   UNL A   1      33.256  33.973  28.170  1.00  0.00     0.338 C 
ATOM     30  O   UNL A   1      32.528  34.927  28.377  1.00  0.00    -0.246 OA
BRANCH  29  31
ATOM     31  C   UNL A   1      34.438  33.670  29.004  1.00  0.00     0.060 A 
ATOM     32  C   UNL A   1      35.695  34.203  28.679  1.00  0.00     0.016 A 
ATOM     33  C   UNL A   1      34.297  32.812  30.092  1.00  0.00     0.016 A 
ATOM     34  C   UNL A   1      36.807  33.921  29.484  1.00  0.00     0.010 A 
ATOM     35  C   UNL A   1      35.416  32.490  30.862  1.00  0.00     0.010 A 
ATOM     36  C   UNL A   1      36.676  33.039  30.564  1.00  0.00    -0.014 A 
BRANCH  36  37
ATOM     37  C   UNL A   1      37.869  32.515  31.275  1.00  0.00     0.031 A 
ATOM     38  C   UNL A   1      38.579  31.338  30.671  1.00  0.00     0.074 A 
ATOM     39  C   UNL A   1      38.262  33.013  32.461  1.00  0.00     0.049 A 
ATOM     40  N   UNL A   1      39.530  30.593  31.172  1.00  0.00    -0.248 NA
ATOM     41  C   UNL A   1      38.142  30.935  29.325  1.00  0.00     0.031 C 
ATOM     42  C   UNL A   1      37.671  34.169  33.127  1.00  0.00     0.029 A 
ATOM     43  N   UNL A   1      39.238  32.585  33.331  1.00  0.00    -0.354 N 
ATOM     44  C   UNL A   1      39.785  29.621  30.215  1.00  0.00     0.074 A 
ATOM     45  C   UNL A   1      38.889  29.864  29.107  1.00  0.00     0.031 C 
ATOM     46  C   UNL A   1      38.278  34.345  34.315  1.00  0.00     0.029 A 
ATOM     47  C   UNL A   1      39.264  33.283  34.516  1.00  0.00     0.049 A 
ATOM     48  H   UNL A   1      39.858  31.849  33.125  1.00  0.00     0.167 HD
ATOM     49  C   UNL A   1      40.680  28.608  30.268  1.00  0.00     0.037 A 
ATOM     50  C   UNL A   1      39.968  33.058  35.644  1.00  0.00     0.037 A 
ATOM     51  C   UNL A   1      41.561  28.370  31.379  1.00  0.00     0.049 A 
ATOM     52  C   UNL A   1      40.913  31.877  35.698  1.00  0.00     0.074 A 
ATOM     53  C   UNL A   1      42.537  27.398  31.507  1.00  0.00     0.029 A 
ATOM     54  N   UNL A   1      41.554  29.092  32.563  1.00  0.00    -0.354 N 
ATOM     55  N   UNL A   1      41.194  30.995  34.769  1.00  0.00    -0.248 NA
ATOM     56  C   UNL A   1      41.630  31.652  36.964  1.00  0.00     0.031 C 
ATOM     57  C   UNL A   1      43.058  27.475  32.800  1.00  0.00     0.029 A 
ATOM     58  C   UNL A   1      42.472  28.552  33.447  1.00  0.00     0.049 A 
ATOM     59  H   UNL A   1      40.982  29.872  32.746  1.00  0.00     0.167 HD
ATOM     60  C   UNL A   1      42.134  30.136  35.324  1.00  0.00     0.074 A 
ATOM     61  C   UNL A   1      42.395  30.611  36.664  1.00  0.00     0.031 C 
ATOM     62  C   UNL A   1      42.726  29.045  34.776  1.00  0.00     0.037 A 
BRANCH  49  63
ATOM     63  C   UNL A   1      40.721  27.646  29.117  1.00  0.00     0.064 A 
ATOM     64  C   UNL A   1      41.669  27.750  28.090  1.00  0.00     0.173 A 
ATOM     65  C   UNL A   1      39.829  26.562  29.081  1.00  0.00     0.173 A 
ATOM     66  F   UNL A   1      42.534  28.775  28.069  1.00  0.00    -0.203 F 
ATOM     67  C   UNL A   1      41.712  26.814  27.059  1.00  0.00     0.198 A 
ATOM     68  C   UNL A   1      39.899  25.609  28.071  1.00  0.00     0.198 A 
ATOM     69  F   UNL A   1      38.903  26.414  30.041  1.00  0.00    -0.203 F 
ATOM     70  F   UNL A   1      42.598  26.955  26.065  1.00  0.00    -0.200 F 
ATOM     71  C   UNL A   1      40.836  25.738  27.058  1.00  0.00     0.200 A 
ATOM     72  F   UNL A   1      39.064  24.561  28.082  1.00  0.00    -0.200 F 
ATOM     73  F   UNL A   1      40.894  24.827  26.077  1.00  0.00    -0.200 F 
ENDBRANCH  49  63
BRANCH  50  74
ATOM     74  C   UNL A   1      39.778  33.922  36.846  1.00  0.00     0.064 A 
ATOM     75  C   UNL A   1      38.923  33.539  37.892  1.00  0.00     0.173 A 
ATOM     76  C   UNL A   1      40.393  35.180  36.945  1.00  0.00     0.173 A 
ATOM     77  F   UNL A   1      38.284  32.361  37.837  1.00  0.00    -0.203 F 
ATOM     78  C   UNL A   1      38.663  34.393  38.964  1.00  0.00     0.198 A 
ATOM     79  C   UNL A   1      40.166  36.015  38.038  1.00  0.00     0.198 A 
ATOM     80  F   UNL A   1      41.211  35.608  35.973  1.00  0.00    -0.203 F 
ATOM     81  F   UNL A   1      37.778  34.033  39.904  1.00  0.00    -0.200 F 
ATOM     82  C   UNL A   1      39.289  35.627  39.039  1.00  0.00     0.200 A 
ATOM     83  F   UNL A   1      40.783  37.201  38.111  1.00  0.00    -0.200 F 
ATOM     84  F   UNL A   1      39.032  36.451  40.065  1.00  0.00    -0.200 F 
ENDBRANCH  50  74
BRANCH  62  85
ATOM     85  C   UNL A   1      43.741  28.306  35.603  1.00  0.00     0.064 A 
ATOM     86  C   UNL A   1      43.371  27.271  36.476  1.00  0.00     0.173 A 
ATOM     87  C   UNL A   1      45.109  28.582  35.458  1.00  0.00     0.173 A 
ATOM     88  F   UNL A   1      42.076  26.972  36.660  1.00  0.00    -0.203 F 
ATOM     89  C   UNL A   1      44.332  26.557  37.188  1.00  0.00     0.198 A 
ATOM     90  C   UNL A   1      46.069  27.840  36.141  1.00  0.00     0.198 A 
ATOM     91  F   UNL A   1      45.519  29.553  34.628  1.00  0.00    -0.203 F 
ATOM     92  F   UNL A   1      43.953  25.603  38.049  1.00  0.00    -0.200 F 
ATOM     93  C   UNL A   1      45.680  26.834  37.010  1.00  0.00     0.200 A 
ATOM     94  F   UNL A   1      47.371  28.093  35.949  1.00  0.00    -0.200 F 
ATOM     95  F   UNL A   1      46.603  26.130  37.679  1.00  0.00    -0.200 F 
ENDBRANCH  62  85
ENDBRANCH  36  37
ENDBRANCH  29  31
ENDBRANCH  28  29
ENDBRANCH  27  28
ENDBRANCH  26  27
ENDBRANCH  25  26
ENDBRANCH   1  25
TORSDOF 18
ENDMDL
