MODEL 1
REMARK VINA RESULT:     -11.5      0.000      0.000
REMARK SMILES Cc1cccc2c(C(F)(F)F)cc(C(=O)OCCOCCOCCOC(=O)c3ccc(-c4c5nc(c(-c6c(F)c(F)c(F)c(F)c6F)c6ccc([nH]6)c(-c6c(F)c(F)c(F)c(F)c6F)c6nc(c(-c7c(F)c(F)c(F)c(F)c7F)c7ccc4[nH]7)C=C6)C=C5)cc3)nc12
REMARK SMILES IDX 21 1 20 2 19 3 18 4 17 5 16 6 14 7 15 8 13 9 1 10 2 11 3 12
REMARK SMILES IDX 92 13 4 14 6 15 91 16 5 17 7 18 12 19 8 20 9 21 10 22 11 23
REMARK SMILES IDX 22 24 23 25 24 26 25 27 26 28 27 29 28 30 29 31 90 32 30 33
REMARK SMILES IDX 89 34 31 35 32 36 33 37 83 38 34 39 88 40 82 41 84 42 35 43
REMARK SMILES IDX 87 44 81 45 80 46 36 48 68 49 48 50 67 51 49 52 52 53 66 54
REMARK SMILES IDX 85 55 50 56 51 57 65 59 86 60 53 61 37 62 38 63 46 64 39 65
REMARK SMILES IDX 40 66 44 67 47 68 41 69 42 70 45 71 43 72 69 73 70 74 78 75
REMARK SMILES IDX 71 76 72 77 76 78 79 79 73 80 74 81 77 82 75 83 54 84 55 85
REMARK SMILES IDX 63 86 56 87 57 88 61 89 64 90 58 91 59 92 62 93 60 94
REMARK H PARENT 84 47 52 58
REMARK Flexibility Score: inf
ROOT
ATOM      1  C   UNL A   1      30.036  29.108  22.888  1.00  0.00     0.188 C 
ENDROOT
BRANCH   1   2
ATOM      2  C   UNL A   1      29.888  27.585  23.088  1.00  0.00     0.188 C 
BRANCH   2   3
ATOM      3  O   UNL A   1      31.023  26.739  23.169  1.00  0.00    -0.376 OA
BRANCH   3   4
ATOM      4  C   UNL A   1      30.906  25.431  23.708  1.00  0.00     0.202 C 
BRANCH   4   5
ATOM      5  C   UNL A   1      31.048  25.195  25.219  1.00  0.00     0.261 C 
BRANCH   5   6
ATOM      6  O   UNL A   1      32.352  24.788  25.652  1.00  0.00    -0.459 OA
BRANCH   6   7
ATOM      7  C   UNL A   1      32.378  23.722  26.492  1.00  0.00     0.357 C 
ATOM      8  O   UNL A   1      31.588  23.488  27.396  1.00  0.00    -0.244 OA
BRANCH   7   9
ATOM      9  C   UNL A   1      33.385  22.720  26.048  1.00  0.00     0.149 A 
ATOM     10  C   UNL A   1      37.354  23.946  25.783  1.00  0.00     0.047 C 
ATOM     11  C   UNL A   1      36.943  22.512  25.559  1.00  0.00    -0.025 A 
ATOM     12  C   UNL A   1      37.939  21.566  25.270  1.00  0.00     0.005 A 
ATOM     13  C   UNL A   1      35.589  22.150  25.600  1.00  0.00     0.075 A 
ATOM     14  C   UNL A   1      37.592  20.256  24.990  1.00  0.00     0.001 A 
ATOM     15  C   UNL A   1      35.222  20.815  25.269  1.00  0.00     0.013 A 
ATOM     16  N   UNL A   1      34.682  23.081  25.957  1.00  0.00    -0.240 NA
ATOM     17  C   UNL A   1      36.249  19.890  24.964  1.00  0.00     0.011 A 
ATOM     18  C   UNL A   1      33.838  20.494  25.273  1.00  0.00     0.067 A 
ATOM     19  C   UNL A   1      32.924  21.466  25.698  1.00  0.00     0.049 A 
BRANCH  18  20
ATOM     20  C   UNL A   1      33.242  19.201  24.766  1.00  0.00     0.417 C 
ATOM     21  F   UNL A   1      32.950  18.336  25.780  1.00  0.00    -0.166 F 
ATOM     22  F   UNL A   1      32.056  19.423  24.129  1.00  0.00    -0.166 F 
ATOM     23  F   UNL A   1      34.005  18.489  23.899  1.00  0.00    -0.166 F 
ENDBRANCH  18  20
ENDBRANCH   7   9
ENDBRANCH   6   7
ENDBRANCH   5   6
ENDBRANCH   4   5
ENDBRANCH   3   4
ENDBRANCH   2   3
ENDBRANCH   1   2
BRANCH   1  24
ATOM     24  O   UNL A   1      30.191  29.878  24.052  1.00  0.00    -0.376 OA
BRANCH  24  25
ATOM     25  C   UNL A   1      31.356  29.792  24.850  1.00  0.00     0.202 C 
BRANCH  25  26
ATOM     26  C   UNL A   1      31.681  30.647  26.090  1.00  0.00     0.261 C 
BRANCH  26  27
ATOM     27  O   UNL A   1      32.927  30.442  26.753  1.00  0.00    -0.460 OA
BRANCH  27  28
ATOM     28  C   UNL A   1      33.531  31.549  27.238  1.00  0.00     0.338 C 
ATOM     29  O   UNL A   1      33.061  32.677  27.326  1.00  0.00    -0.246 OA
BRANCH  28  30
ATOM     30  C   UNL A   1      34.832  31.166  27.807  1.00  0.00     0.060 A 
ATOM     31  C   UNL A   1      35.045  29.828  28.162  1.00  0.00     0.016 A 
ATOM     32  C   UNL A   1      35.824  32.126  28.012  1.00  0.00     0.016 A 
ATOM     33  C   UNL A   1      36.253  29.449  28.748  1.00  0.00     0.010 A 
ATOM     34  C   UNL A   1      37.026  31.747  28.618  1.00  0.00     0.010 A 
ATOM     35  C   UNL A   1      37.235  30.413  29.013  1.00  0.00    -0.014 A 
BRANCH  35  36
ATOM     36  C   UNL A   1      38.411  30.064  29.845  1.00  0.00     0.031 A 
ATOM     37  C   UNL A   1      39.421  29.095  29.296  1.00  0.00     0.074 A 
ATOM     38  C   UNL A   1      38.587  30.603  31.063  1.00  0.00     0.049 A 
ATOM     39  N   UNL A   1      40.489  28.594  29.861  1.00  0.00    -0.248 NA
ATOM     40  C   UNL A   1      39.190  28.623  27.921  1.00  0.00     0.031 C 
ATOM     41  C   UNL A   1      37.702  31.582  31.690  1.00  0.00     0.029 A 
ATOM     42  N   UNL A   1      39.569  30.388  31.999  1.00  0.00    -0.354 N 
ATOM     43  C   UNL A   1      41.055  27.749  28.916  1.00  0.00     0.074 A 
ATOM     44  C   UNL A   1      40.196  27.779  27.752  1.00  0.00     0.031 C 
ATOM     45  C   UNL A   1      38.175  31.874  32.916  1.00  0.00     0.029 A 
ATOM     46  C   UNL A   1      39.373  31.075  33.171  1.00  0.00     0.049 A 
ATOM     47  H   UNL A   1      40.341  29.797  31.843  1.00  0.00     0.167 HD
ATOM     48  C   UNL A   1      42.192  27.020  29.007  1.00  0.00     0.037 A 
ATOM     49  C   UNL A   1      40.067  31.040  34.325  1.00  0.00     0.037 A 
ATOM     50  C   UNL A   1      43.043  26.987  30.168  1.00  0.00     0.049 A 
ATOM     51  C   UNL A   1      41.286  30.156  34.430  1.00  0.00     0.074 A 
ATOM     52  C   UNL A   1      44.226  26.292  30.351  1.00  0.00     0.029 A 
ATOM     53  N   UNL A   1      42.794  27.674  31.347  1.00  0.00    -0.354 N 
ATOM     54  N   UNL A   1      41.832  29.381  33.523  1.00  0.00    -0.248 NA
ATOM     55  C   UNL A   1      41.985  30.142  35.723  1.00  0.00     0.031 C 
ATOM     56  C   UNL A   1      44.663  26.513  31.661  1.00  0.00     0.029 A 
ATOM     57  C   UNL A   1      43.788  27.395  32.274  1.00  0.00     0.049 A 
ATOM     58  H   UNL A   1      42.028  28.270  31.504  1.00  0.00     0.167 HD
ATOM     59  C   UNL A   1      42.952  28.817  34.123  1.00  0.00     0.074 A 
ATOM     60  C   UNL A   1      43.016  29.349  35.467  1.00  0.00     0.031 C 
ATOM     61  C   UNL A   1      43.847  27.939  33.606  1.00  0.00     0.037 A 
BRANCH  48  62
ATOM     62  C   UNL A   1      42.572  26.175  27.827  1.00  0.00     0.064 A 
ATOM     63  C   UNL A   1      41.984  24.922  27.598  1.00  0.00     0.173 A 
ATOM     64  C   UNL A   1      43.507  26.642  26.891  1.00  0.00     0.173 A 
ATOM     65  F   UNL A   1      41.095  24.423  28.471  1.00  0.00    -0.203 F 
ATOM     66  C   UNL A   1      42.337  24.157  26.489  1.00  0.00     0.198 A 
ATOM     67  C   UNL A   1      43.835  25.889  25.768  1.00  0.00     0.198 A 
ATOM     68  F   UNL A   1      44.096  27.835  27.061  1.00  0.00    -0.203 F 
ATOM     69  F   UNL A   1      41.796  22.943  26.314  1.00  0.00    -0.200 F 
ATOM     70  C   UNL A   1      43.255  24.645  25.570  1.00  0.00     0.200 A 
ATOM     71  F   UNL A   1      44.711  26.367  24.875  1.00  0.00    -0.200 F 
ATOM     72  F   UNL A   1      43.585  23.912  24.497  1.00  0.00    -0.200 F 
ENDBRANCH  48  62
BRANCH  49  73
ATOM     73  C   UNL A   1      39.624  31.851  35.490  1.00  0.00     0.064 A 
ATOM     74  C   UNL A   1      38.635  31.380  36.366  1.00  0.00     0.173 A 
ATOM     75  C   UNL A   1      40.149  33.129  35.729  1.00  0.00     0.173 A 
ATOM     76  F   UNL A   1      38.078  30.177  36.162  1.00  0.00    -0.203 F 
ATOM     77  C   UNL A   1      38.172  32.167  37.419  1.00  0.00     0.198 A 
ATOM     78  C   UNL A   1      39.709  33.902  36.801  1.00  0.00     0.198 A 
ATOM     79  F   UNL A   1      41.092  33.631  34.918  1.00  0.00    -0.203 F 
ATOM     80  F   UNL A   1      37.184  31.716  38.205  1.00  0.00    -0.200 F 
ATOM     81  C   UNL A   1      38.713  33.424  37.640  1.00  0.00     0.200 A 
ATOM     82  F   UNL A   1      40.239  35.113  37.016  1.00  0.00    -0.200 F 
ATOM     83  F   UNL A   1      38.264  34.181  38.650  1.00  0.00    -0.200 F 
ENDBRANCH  49  73
BRANCH  61  84
ATOM     84  C   UNL A   1      45.000  27.529  34.478  1.00  0.00     0.064 A 
ATOM     85  C   UNL A   1      44.948  26.377  35.278  1.00  0.00     0.173 A 
ATOM     86  C   UNL A   1      46.190  28.274  34.477  1.00  0.00     0.173 A 
ATOM     87  F   UNL A   1      43.831  25.637  35.325  1.00  0.00    -0.203 F 
ATOM     88  C   UNL A   1      46.035  26.004  36.065  1.00  0.00     0.198 A 
ATOM     89  C   UNL A   1      47.285  27.879  35.241  1.00  0.00     0.198 A 
ATOM     90  F   UNL A   1      46.296  29.379  33.724  1.00  0.00    -0.203 F 
ATOM     91  F   UNL A   1      45.946  24.928  36.859  1.00  0.00    -0.200 F 
ATOM     92  C   UNL A   1      47.205  26.749  36.040  1.00  0.00     0.200 A 
ATOM     93  F   UNL A   1      48.419  28.592  35.200  1.00  0.00    -0.200 F 
ATOM     94  F   UNL A   1      48.252  26.382  36.790  1.00  0.00    -0.200 F 
ENDBRANCH  61  84
ENDBRANCH  35  36
ENDBRANCH  28  30
ENDBRANCH  27  28
ENDBRANCH  26  27
ENDBRANCH  25  26
ENDBRANCH  24  25
ENDBRANCH   1  24
TORSDOF 18
ENDMDL
MODEL 2
REMARK VINA RESULT:     -11.5      0.529      1.650
REMARK SMILES Cc1cccc2c(C(F)(F)F)cc(C(=O)OCCOCCOCCOC(=O)c3ccc(-c4c5nc(c(-c6c(F)c(F)c(F)c(F)c6F)c6ccc([nH]6)c(-c6c(F)c(F)c(F)c(F)c6F)c6nc(c(-c7c(F)c(F)c(F)c(F)c7F)c7ccc4[nH]7)C=C6)C=C5)cc3)nc12
REMARK SMILES IDX 21 1 20 2 19 3 18 4 17 5 16 6 14 7 15 8 13 9 1 10 2 11 3 12
REMARK SMILES IDX 92 13 4 14 6 15 91 16 5 17 7 18 12 19 8 20 9 21 10 22 11 23
REMARK SMILES IDX 22 24 23 25 24 26 25 27 26 28 27 29 28 30 29 31 90 32 30 33
REMARK SMILES IDX 89 34 31 35 32 36 33 37 83 38 34 39 88 40 82 41 84 42 35 43
REMARK SMILES IDX 87 44 81 45 80 46 36 48 68 49 48 50 67 51 49 52 52 53 66 54
REMARK SMILES IDX 85 55 50 56 51 57 65 59 86 60 53 61 37 62 38 63 46 64 39 65
REMARK SMILES IDX 40 66 44 67 47 68 41 69 42 70 45 71 43 72 69 73 70 74 78 75
REMARK SMILES IDX 71 76 72 77 76 78 79 79 73 80 74 81 77 82 75 83 54 84 55 85
REMARK SMILES IDX 63 86 56 87 57 88 61 89 64 90 58 91 59 92 62 93 60 94
REMARK H PARENT 84 47 52 58
REMARK Flexibility Score: inf
ROOT
ATOM      1  C   UNL A   1      29.523  29.579  22.802  1.00  0.00     0.188 C 
ENDROOT
BRANCH   1   2
ATOM      2  C   UNL A   1      29.018  28.160  23.139  1.00  0.00     0.188 C 
BRANCH   2   3
ATOM      3  O   UNL A   1      29.919  27.080  23.322  1.00  0.00    -0.376 OA
BRANCH   3   4
ATOM      4  C   UNL A   1      29.838  26.264  24.481  1.00  0.00     0.202 C 
BRANCH   4   5
ATOM      5  C   UNL A   1      31.080  26.017  25.348  1.00  0.00     0.261 C 
BRANCH   5   6
ATOM      6  O   UNL A   1      31.803  24.816  25.049  1.00  0.00    -0.459 OA
BRANCH   6   7
ATOM      7  C   UNL A   1      32.153  24.067  26.124  1.00  0.00     0.357 C 
ATOM      8  O   UNL A   1      31.627  24.087  27.228  1.00  0.00    -0.244 OA
BRANCH   7   9
ATOM      9  C   UNL A   1      33.150  23.028  25.747  1.00  0.00     0.149 A 
ATOM     10  C   UNL A   1      37.178  24.069  25.880  1.00  0.00     0.047 C 
ATOM     11  C   UNL A   1      36.726  22.662  25.580  1.00  0.00    -0.025 A 
ATOM     12  C   UNL A   1      37.699  21.676  25.357  1.00  0.00     0.005 A 
ATOM     13  C   UNL A   1      35.359  22.364  25.487  1.00  0.00     0.075 A 
ATOM     14  C   UNL A   1      37.321  20.391  25.011  1.00  0.00     0.001 A 
ATOM     15  C   UNL A   1      34.963  21.057  25.087  1.00  0.00     0.013 A 
ATOM     16  N   UNL A   1      34.465  23.329  25.785  1.00  0.00    -0.240 NA
ATOM     17  C   UNL A   1      35.971  20.091  24.852  1.00  0.00     0.011 A 
ATOM     18  C   UNL A   1      33.572  20.802  24.956  1.00  0.00     0.067 A 
ATOM     19  C   UNL A   1      32.667  21.806  25.323  1.00  0.00     0.049 A 
BRANCH  18  20
ATOM     20  C   UNL A   1      32.967  19.551  24.362  1.00  0.00     0.417 C 
ATOM     21  F   UNL A   1      32.183  18.882  25.256  1.00  0.00    -0.166 F 
ATOM     22  F   UNL A   1      32.144  19.852  23.316  1.00  0.00    -0.166 F 
ATOM     23  F   UNL A   1      33.843  18.626  23.895  1.00  0.00    -0.166 F 
ENDBRANCH  18  20
ENDBRANCH   7   9
ENDBRANCH   6   7
ENDBRANCH   5   6
ENDBRANCH   4   5
ENDBRANCH   3   4
ENDBRANCH   2   3
ENDBRANCH   1   2
BRANCH   1  24
ATOM     24  O   UNL A   1      29.897  30.383  23.890  1.00  0.00    -0.376 OA
BRANCH  24  25
ATOM     25  C   UNL A   1      30.995  30.051  24.718  1.00  0.00     0.202 C 
BRANCH  25  26
ATOM     26  C   UNL A   1      31.410  30.766  26.018  1.00  0.00     0.261 C 
BRANCH  26  27
ATOM     27  O   UNL A   1      32.767  30.667  26.447  1.00  0.00    -0.460 OA
BRANCH  27  28
ATOM     28  C   UNL A   1      33.259  31.736  27.111  1.00  0.00     0.338 C 
ATOM     29  O   UNL A   1      32.704  32.810  27.312  1.00  0.00    -0.246 OA
BRANCH  28  30
ATOM     30  C   UNL A   1      34.547  31.364  27.715  1.00  0.00     0.060 A 
ATOM     31  C   UNL A   1      34.802  30.014  27.983  1.00  0.00     0.016 A 
ATOM     32  C   UNL A   1      35.486  32.345  28.038  1.00  0.00     0.016 A 
ATOM     33  C   UNL A   1      35.997  29.641  28.599  1.00  0.00     0.010 A 
ATOM     34  C   UNL A   1      36.674  31.972  28.673  1.00  0.00     0.010 A 
ATOM     35  C   UNL A   1      36.922  30.621  28.981  1.00  0.00    -0.014 A 
BRANCH  35  36
ATOM     36  C   UNL A   1      38.073  30.260  29.843  1.00  0.00     0.031 A 
ATOM     37  C   UNL A   1      39.099  29.298  29.309  1.00  0.00     0.074 A 
ATOM     38  C   UNL A   1      38.212  30.781  31.074  1.00  0.00     0.049 A 
ATOM     39  N   UNL A   1      40.149  28.787  29.900  1.00  0.00    -0.248 NA
ATOM     40  C   UNL A   1      38.909  28.847  27.921  1.00  0.00     0.031 C 
ATOM     41  C   UNL A   1      37.309  31.751  31.688  1.00  0.00     0.029 A 
ATOM     42  N   UNL A   1      39.166  30.551  32.035  1.00  0.00    -0.354 N 
ATOM     43  C   UNL A   1      40.743  27.956  28.960  1.00  0.00     0.074 A 
ATOM     44  C   UNL A   1      39.919  28.004  27.770  1.00  0.00     0.031 C 
ATOM     45  C   UNL A   1      37.745  32.024  32.931  1.00  0.00     0.029 A 
ATOM     46  C   UNL A   1      38.934  31.220  33.211  1.00  0.00     0.049 A 
ATOM     47  H   UNL A   1      39.942  29.961  31.894  1.00  0.00     0.167 HD
ATOM     48  C   UNL A   1      41.877  27.226  29.074  1.00  0.00     0.037 A 
ATOM     49  C   UNL A   1      39.594  31.168  34.385  1.00  0.00     0.037 A 
ATOM     50  C   UNL A   1      42.692  27.175  30.260  1.00  0.00     0.049 A 
ATOM     51  C   UNL A   1      40.808  30.281  34.513  1.00  0.00     0.074 A 
ATOM     52  C   UNL A   1      43.869  26.476  30.468  1.00  0.00     0.029 A 
ATOM     53  N   UNL A   1      42.408  27.844  31.441  1.00  0.00    -0.354 N 
ATOM     54  N   UNL A   1      41.381  29.520  33.611  1.00  0.00    -0.248 NA
ATOM     55  C   UNL A   1      41.468  30.247  35.826  1.00  0.00     0.031 C 
ATOM     56  C   UNL A   1      44.267  26.678  31.793  1.00  0.00     0.029 A 
ATOM     57  C   UNL A   1      43.373  27.551  32.393  1.00  0.00     0.049 A 
ATOM     58  H   UNL A   1      41.637  28.438  31.583  1.00  0.00     0.167 HD
ATOM     59  C   UNL A   1      42.482  28.946  34.236  1.00  0.00     0.074 A 
ATOM     60  C   UNL A   1      42.506  29.458  35.590  1.00  0.00     0.031 C 
ATOM     61  C   UNL A   1      43.392  28.075  33.734  1.00  0.00     0.037 A 
BRANCH  48  62
ATOM     62  C   UNL A   1      42.291  26.398  27.893  1.00  0.00     0.064 A 
ATOM     63  C   UNL A   1      43.263  26.844  26.985  1.00  0.00     0.173 A 
ATOM     64  C   UNL A   1      41.737  25.125  27.690  1.00  0.00     0.173 A 
ATOM     65  F   UNL A   1      43.813  28.059  27.126  1.00  0.00    -0.203 F 
ATOM     66  C   UNL A   1      43.648  26.055  25.903  1.00  0.00     0.198 A 
ATOM     67  C   UNL A   1      42.146  24.327  26.625  1.00  0.00     0.198 A 
ATOM     68  F   UNL A   1      40.806  24.649  28.531  1.00  0.00    -0.203 F 
ATOM     69  F   UNL A   1      44.545  26.519  25.023  1.00  0.00    -0.200 F 
ATOM     70  C   UNL A   1      43.095  24.794  25.729  1.00  0.00     0.200 A 
ATOM     71  F   UNL A   1      41.621  23.104  26.466  1.00  0.00    -0.200 F 
ATOM     72  F   UNL A   1      43.474  24.032  24.694  1.00  0.00    -0.200 F 
ENDBRANCH  48  62
BRANCH  49  73
ATOM     73  C   UNL A   1      39.115  31.961  35.548  1.00  0.00     0.064 A 
ATOM     74  C   UNL A   1      39.525  33.288  35.737  1.00  0.00     0.173 A 
ATOM     75  C   UNL A   1      38.270  31.396  36.515  1.00  0.00     0.173 A 
ATOM     76  F   UNL A   1      40.358  33.863  34.857  1.00  0.00    -0.203 F 
ATOM     77  C   UNL A   1      39.130  34.011  36.862  1.00  0.00     0.198 A 
ATOM     78  C   UNL A   1      37.850  32.130  37.622  1.00  0.00     0.198 A 
ATOM     79  F   UNL A   1      37.854  30.129  36.386  1.00  0.00    -0.203 F 
ATOM     80  F   UNL A   1      39.585  35.258  37.048  1.00  0.00    -0.200 F 
ATOM     81  C   UNL A   1      38.287  33.434  37.799  1.00  0.00     0.200 A 
ATOM     82  F   UNL A   1      37.030  31.572  38.522  1.00  0.00    -0.200 F 
ATOM     83  F   UNL A   1      37.911  34.128  38.882  1.00  0.00    -0.200 F 
ENDBRANCH  49  73
BRANCH  61  84
ATOM     84  C   UNL A   1      44.518  27.651  34.634  1.00  0.00     0.064 A 
ATOM     85  C   UNL A   1      44.435  26.497  35.428  1.00  0.00     0.173 A 
ATOM     86  C   UNL A   1      45.714  28.385  34.667  1.00  0.00     0.173 A 
ATOM     87  F   UNL A   1      43.311  25.766  35.442  1.00  0.00    -0.203 F 
ATOM     88  C   UNL A   1      45.498  26.111  36.242  1.00  0.00     0.198 A 
ATOM     89  C   UNL A   1      46.786  27.978  35.458  1.00  0.00     0.198 A 
ATOM     90  F   UNL A   1      45.850  29.492  33.921  1.00  0.00    -0.203 F 
ATOM     91  F   UNL A   1      45.378  25.033  37.029  1.00  0.00    -0.200 F 
ATOM     92  C   UNL A   1      46.675  26.846  36.249  1.00  0.00     0.200 A 
ATOM     93  F   UNL A   1      47.927  28.681  35.450  1.00  0.00    -0.200 F 
ATOM     94  F   UNL A   1      47.699  26.467  37.026  1.00  0.00    -0.200 F 
ENDBRANCH  61  84
ENDBRANCH  35  36
ENDBRANCH  28  30
ENDBRANCH  27  28
ENDBRANCH  26  27
ENDBRANCH  25  26
ENDBRANCH  24  25
ENDBRANCH   1  24
TORSDOF 18
ENDMDL
MODEL 3
REMARK VINA RESULT:     -11.5      1.479      7.591
REMARK SMILES Cc1cccc2c(C(F)(F)F)cc(C(=O)OCCOCCOCCOC(=O)c3ccc(-c4c5nc(c(-c6c(F)c(F)c(F)c(F)c6F)c6ccc([nH]6)c(-c6c(F)c(F)c(F)c(F)c6F)c6nc(c(-c7c(F)c(F)c(F)c(F)c7F)c7ccc4[nH]7)C=C6)C=C5)cc3)nc12
REMARK SMILES IDX 21 1 20 2 19 3 18 4 17 5 16 6 14 7 15 8 13 9 1 10 2 11 3 12
REMARK SMILES IDX 92 13 4 14 6 15 91 16 5 17 7 18 12 19 8 20 9 21 10 22 11 23
REMARK SMILES IDX 22 24 23 25 24 26 25 27 26 28 27 29 28 30 29 31 90 32 30 33
REMARK SMILES IDX 89 34 31 35 32 36 33 37 83 38 34 39 88 40 82 41 84 42 35 43
REMARK SMILES IDX 87 44 81 45 80 46 36 48 68 49 48 50 67 51 49 52 52 53 66 54
REMARK SMILES IDX 85 55 50 56 51 57 65 59 86 60 53 61 37 62 38 63 46 64 39 65
REMARK SMILES IDX 40 66 44 67 47 68 41 69 42 70 45 71 43 72 69 73 70 74 78 75
REMARK SMILES IDX 71 76 72 77 76 78 79 79 73 80 74 81 77 82 75 83 54 84 55 85
REMARK SMILES IDX 63 86 56 87 57 88 61 89 64 90 58 91 59 92 62 93 60 94
REMARK H PARENT 84 47 52 58
REMARK Flexibility Score: inf
ROOT
ATOM      1  C   UNL A   1      31.684  28.438  25.724  1.00  0.00     0.188 C 
ENDROOT
BRANCH   1   2
ATOM      2  C   UNL A   1      30.955  27.192  25.181  1.00  0.00     0.188 C 
BRANCH   2   3
ATOM      3  O   UNL A   1      29.947  27.301  24.189  1.00  0.00    -0.376 OA
BRANCH   3   4
ATOM      4  C   UNL A   1      30.298  27.417  22.818  1.00  0.00     0.202 C 
BRANCH   4   5
ATOM      5  C   UNL A   1      31.545  26.708  22.271  1.00  0.00     0.261 C 
BRANCH   5   6
ATOM      6  O   UNL A   1      31.503  25.276  22.320  1.00  0.00    -0.459 OA
BRANCH   6   7
ATOM      7  C   UNL A   1      32.664  24.651  22.000  1.00  0.00     0.357 C 
ATOM      8  O   UNL A   1      33.268  24.736  20.940  1.00  0.00    -0.244 OA
BRANCH   7   9
ATOM      9  C   UNL A   1      33.258  23.989  23.193  1.00  0.00     0.149 A 
ATOM     10  C   UNL A   1      30.959  23.816  26.659  1.00  0.00     0.047 C 
ATOM     11  C   UNL A   1      32.300  23.134  26.554  1.00  0.00    -0.025 A 
ATOM     12  C   UNL A   1      32.772  22.406  27.658  1.00  0.00     0.005 A 
ATOM     13  C   UNL A   1      33.070  23.264  25.390  1.00  0.00     0.075 A 
ATOM     14  C   UNL A   1      34.028  21.826  27.623  1.00  0.00     0.001 A 
ATOM     15  C   UNL A   1      34.381  22.709  25.363  1.00  0.00     0.013 A 
ATOM     16  N   UNL A   1      32.538  23.909  24.332  1.00  0.00    -0.240 NA
ATOM     17  C   UNL A   1      34.833  21.997  26.500  1.00  0.00     0.011 A 
ATOM     18  C   UNL A   1      35.152  22.900  24.186  1.00  0.00     0.067 A 
ATOM     19  C   UNL A   1      34.555  23.528  23.085  1.00  0.00     0.049 A 
BRANCH  18  20
ATOM     20  C   UNL A   1      36.617  22.560  24.040  1.00  0.00     0.417 C 
ATOM     21  F   UNL A   1      37.027  22.594  22.739  1.00  0.00    -0.166 F 
ATOM     22  F   UNL A   1      37.400  23.471  24.687  1.00  0.00    -0.166 F 
ATOM     23  F   UNL A   1      36.999  21.343  24.502  1.00  0.00    -0.166 F 
ENDBRANCH  18  20
ENDBRANCH   7   9
ENDBRANCH   6   7
ENDBRANCH   5   6
ENDBRANCH   4   5
ENDBRANCH   3   4
ENDBRANCH   2   3
ENDBRANCH   1   2
BRANCH   1  24
ATOM     24  O   UNL A   1      31.622  29.594  24.930  1.00  0.00    -0.376 OA
BRANCH  24  25
ATOM     25  C   UNL A   1      31.062  30.800  25.414  1.00  0.00     0.202 C 
BRANCH  25  26
ATOM     26  C   UNL A   1      31.656  31.709  26.508  1.00  0.00     0.261 C 
BRANCH  26  27
ATOM     27  O   UNL A   1      32.855  31.297  27.161  1.00  0.00    -0.460 OA
BRANCH  27  28
ATOM     28  C   UNL A   1      33.648  32.287  27.625  1.00  0.00     0.338 C 
ATOM     29  O   UNL A   1      33.363  33.472  27.757  1.00  0.00    -0.246 OA
BRANCH  28  30
ATOM     30  C   UNL A   1      34.904  31.697  28.112  1.00  0.00     0.060 A 
ATOM     31  C   UNL A   1      34.942  30.325  28.388  1.00  0.00     0.016 A 
ATOM     32  C   UNL A   1      36.029  32.497  28.319  1.00  0.00     0.016 A 
ATOM     33  C   UNL A   1      36.107  29.749  28.896  1.00  0.00     0.010 A 
ATOM     34  C   UNL A   1      37.189  31.923  28.846  1.00  0.00     0.010 A 
ATOM     35  C   UNL A   1      37.224  30.552  29.162  1.00  0.00    -0.014 A 
BRANCH  35  36
ATOM     36  C   UNL A   1      38.372  29.998  29.919  1.00  0.00     0.031 A 
ATOM     37  C   UNL A   1      38.600  30.468  31.329  1.00  0.00     0.074 A 
ATOM     38  C   UNL A   1      39.194  29.088  29.370  1.00  0.00     0.049 A 
ATOM     39  N   UNL A   1      39.568  30.175  32.160  1.00  0.00    -0.248 NA
ATOM     40  C   UNL A   1      37.600  31.400  31.875  1.00  0.00     0.031 C 
ATOM     41  C   UNL A   1      39.057  28.525  28.029  1.00  0.00     0.029 A 
ATOM     42  N   UNL A   1      40.321  28.487  29.875  1.00  0.00    -0.354 N 
ATOM     43  C   UNL A   1      39.297  30.885  33.321  1.00  0.00     0.074 A 
ATOM     44  C   UNL A   1      38.092  31.649  33.079  1.00  0.00     0.031 C 
ATOM     45  C   UNL A   1      40.071  27.669  27.810  1.00  0.00     0.029 A 
ATOM     46  C   UNL A   1      40.947  27.653  28.982  1.00  0.00     0.049 A 
ATOM     47  H   UNL A   1      40.650  28.640  30.791  1.00  0.00     0.167 HD
ATOM     48  C   UNL A   1      39.985  30.894  34.486  1.00  0.00     0.037 A 
ATOM     49  C   UNL A   1      42.107  26.977  29.091  1.00  0.00     0.037 A 
ATOM     50  C   UNL A   1      41.188  30.138  34.723  1.00  0.00     0.049 A 
ATOM     51  C   UNL A   1      42.900  27.068  30.372  1.00  0.00     0.074 A 
ATOM     52  C   UNL A   1      41.949  30.068  35.877  1.00  0.00     0.029 A 
ATOM     53  N   UNL A   1      41.807  29.327  33.784  1.00  0.00    -0.354 N 
ATOM     54  N   UNL A   1      42.623  27.719  31.477  1.00  0.00    -0.248 NA
ATOM     55  C   UNL A   1      44.170  26.328  30.420  1.00  0.00     0.031 C 
ATOM     56  C   UNL A   1      43.060  29.259  35.618  1.00  0.00     0.029 A 
ATOM     57  C   UNL A   1      42.959  28.776  34.323  1.00  0.00     0.049 A 
ATOM     58  H   UNL A   1      41.478  29.167  32.871  1.00  0.00     0.167 HD
ATOM     59  C   UNL A   1      43.662  27.441  32.357  1.00  0.00     0.074 A 
ATOM     60  C   UNL A   1      44.569  26.551  31.664  1.00  0.00     0.031 C 
ATOM     61  C   UNL A   1      43.848  27.882  33.626  1.00  0.00     0.037 A 
BRANCH  48  62
ATOM     62  C   UNL A   1      39.471  31.770  35.590  1.00  0.00     0.064 A 
ATOM     63  C   UNL A   1      38.520  31.311  36.514  1.00  0.00     0.173 A 
ATOM     64  C   UNL A   1      39.964  33.074  35.750  1.00  0.00     0.173 A 
ATOM     65  F   UNL A   1      38.005  30.078  36.396  1.00  0.00    -0.203 F 
ATOM     66  C   UNL A   1      38.065  32.133  37.542  1.00  0.00     0.198 A 
ATOM     67  C   UNL A   1      39.530  33.882  36.797  1.00  0.00     0.198 A 
ATOM     68  F   UNL A   1      40.877  33.561  34.896  1.00  0.00    -0.203 F 
ATOM     69  F   UNL A   1      37.123  31.688  38.386  1.00  0.00    -0.200 F 
ATOM     70  C   UNL A   1      38.577  33.414  37.688  1.00  0.00     0.200 A 
ATOM     71  F   UNL A   1      40.035  35.114  36.944  1.00  0.00    -0.200 F 
ATOM     72  F   UNL A   1      38.146  34.200  38.684  1.00  0.00    -0.200 F 
ENDBRANCH  48  62
BRANCH  49  73
ATOM     73  C   UNL A   1      42.610  26.165  27.951  1.00  0.00     0.064 A 
ATOM     74  C   UNL A   1      43.507  26.703  27.018  1.00  0.00     0.173 A 
ATOM     75  C   UNL A   1      42.173  24.847  27.748  1.00  0.00     0.173 A 
ATOM     76  F   UNL A   1      43.930  27.969  27.150  1.00  0.00    -0.203 F 
ATOM     77  C   UNL A   1      43.927  25.965  25.913  1.00  0.00     0.198 A 
ATOM     78  C   UNL A   1      42.619  24.099  26.661  1.00  0.00     0.198 A 
ATOM     79  F   UNL A   1      41.310  24.285  28.607  1.00  0.00    -0.203 F 
ATOM     80  F   UNL A   1      44.738  26.525  25.005  1.00  0.00    -0.200 F 
ATOM     81  C   UNL A   1      43.488  24.662  25.739  1.00  0.00     0.200 A 
ATOM     82  F   UNL A   1      42.198  22.837  26.500  1.00  0.00    -0.200 F 
ATOM     83  F   UNL A   1      43.889  23.954  24.674  1.00  0.00    -0.200 F 
ENDBRANCH  49  73
BRANCH  61  84
ATOM     84  C   UNL A   1      45.053  27.376  34.367  1.00  0.00     0.064 A 
ATOM     85  C   UNL A   1      46.280  28.057  34.335  1.00  0.00     0.173 A 
ATOM     86  C   UNL A   1      44.966  26.220  35.158  1.00  0.00     0.173 A 
ATOM     87  F   UNL A   1      46.421  29.161  33.586  1.00  0.00    -0.203 F 
ATOM     88  C   UNL A   1      47.381  27.582  35.044  1.00  0.00     0.198 A 
ATOM     89  C   UNL A   1      46.060  25.766  35.891  1.00  0.00     0.198 A 
ATOM     90  F   UNL A   1      43.815  25.535  35.231  1.00  0.00    -0.203 F 
ATOM     91  F   UNL A   1      48.556  28.221  34.959  1.00  0.00    -0.200 F 
ATOM     92  C   UNL A   1      47.268  26.443  35.828  1.00  0.00     0.200 A 
ATOM     93  F   UNL A   1      45.942  24.675  36.660  1.00  0.00    -0.200 F 
ATOM     94  F   UNL A   1      48.326  25.994  36.517  1.00  0.00    -0.200 F 
ENDBRANCH  61  84
ENDBRANCH  35  36
ENDBRANCH  28  30
ENDBRANCH  27  28
ENDBRANCH  26  27
ENDBRANCH  25  26
ENDBRANCH  24  25
ENDBRANCH   1  24
TORSDOF 18
ENDMDL
