MODEL 1
REMARK VINA RESULT:     -12.5      0.000      0.000
REMARK SMILES O=C(OCCOCCOCCOC(=O)c1ccn(-c2cc(-c3ccncc3)nc(-c3ccccc3F)n2)n1)c1ccc(-c2c3nc(c(-c4c(F)c(F)c(F)c(F)c4F)c4ccc([nH]4)c(-c4c(F)c(F)c(F)c(F)c4F)c4nc(c(-c5c(F)c(F)c(F)c(F)c5F)c5ccc2[nH]5)C=C4)C=C3)cc1
REMARK SMILES IDX 7 1 6 2 5 3 4 4 3 5 2 6 1 7 39 8 40 9 101 10 41 11 100 12
REMARK SMILES IDX 42 13 43 14 44 15 94 16 45 17 99 18 93 19 95 20 46 21 98 22
REMARK SMILES IDX 92 23 91 24 47 26 79 27 59 28 78 29 60 30 63 31 77 32 96 33
REMARK SMILES IDX 61 34 62 35 76 37 97 38 64 39 48 40 49 41 57 42 50 43 51 44
REMARK SMILES IDX 55 45 58 46 52 47 53 48 56 49 54 50 80 51 81 52 89 53 82 54
REMARK SMILES IDX 83 55 87 56 90 57 84 58 85 59 88 60 86 61 65 62 66 63 74 64
REMARK SMILES IDX 67 65 68 66 72 67 75 68 69 69 70 70 73 71 71 72 8 73 9 74
REMARK SMILES IDX 10 75 11 76 12 77 13 78 14 79 15 80 16 81 38 82 17 83 18 84
REMARK SMILES IDX 19 85 20 86 37 87 21 88 29 89 28 90 22 91 23 92 27 93 24 94
REMARK SMILES IDX 26 95 25 96 30 97 31 98 35 99 32 100 34 101 36 102 33 103
REMARK H PARENT 95 25 63 36
REMARK Flexibility Score: inf
ROOT
ATOM      1  C   UNL A   1      32.055  29.394  26.470  1.00  0.00     0.188 C 
ENDROOT
BRANCH   1   2
ATOM      2  O   UNL A   1      33.168  29.208  27.331  1.00  0.00    -0.376 OA
BRANCH   2   3
ATOM      3  C   UNL A   1      34.366  29.863  26.953  1.00  0.00     0.202 C 
BRANCH   3   4
ATOM      4  C   UNL A   1      34.507  31.283  27.516  1.00  0.00     0.261 C 
BRANCH   4   5
ATOM      5  O   UNL A   1      35.741  31.646  28.180  1.00  0.00    -0.460 OA
BRANCH   5   6
ATOM      6  C   UNL A   1      36.078  31.736  29.482  1.00  0.00     0.338 C 
ATOM      7  O   UNL A   1      35.548  32.577  30.203  1.00  0.00    -0.246 OA
BRANCH   6   8
ATOM      8  C   UNL A   1      37.161  30.914  30.066  1.00  0.00     0.060 A 
ATOM      9  C   UNL A   1      38.422  31.424  30.365  1.00  0.00     0.016 A 
ATOM     10  C   UNL A   1      36.922  29.532  30.181  1.00  0.00     0.016 A 
ATOM     11  C   UNL A   1      39.448  30.560  30.732  1.00  0.00     0.010 A 
ATOM     12  C   UNL A   1      37.954  28.664  30.527  1.00  0.00     0.010 A 
ATOM     13  C   UNL A   1      39.235  29.177  30.740  1.00  0.00    -0.014 A 
BRANCH  13  14
ATOM     14  C   UNL A   1      40.430  28.325  30.783  1.00  0.00     0.031 A 
ATOM     15  C   UNL A   1      41.243  28.266  32.041  1.00  0.00     0.074 A 
ATOM     16  C   UNL A   1      40.803  27.627  29.688  1.00  0.00     0.049 A 
ATOM     17  N   UNL A   1      42.535  28.302  32.182  1.00  0.00    -0.248 NA
ATOM     18  C   UNL A   1      40.525  28.133  33.317  1.00  0.00     0.031 C 
ATOM     19  C   UNL A   1      40.039  27.391  28.454  1.00  0.00     0.029 A 
ATOM     20  N   UNL A   1      41.953  26.921  29.476  1.00  0.00    -0.354 N 
ATOM     21  C   UNL A   1      42.795  28.050  33.531  1.00  0.00     0.074 A 
ATOM     22  C   UNL A   1      41.519  27.937  34.185  1.00  0.00     0.031 C 
ATOM     23  C   UNL A   1      40.669  26.461  27.706  1.00  0.00     0.029 A 
ATOM     24  C   UNL A   1      41.937  26.139  28.335  1.00  0.00     0.049 A 
ATOM     25  H   UNL A   1      42.727  26.966  30.083  1.00  0.00     0.167 HD
ATOM     26  C   UNL A   1      44.051  27.897  34.036  1.00  0.00     0.037 A 
ATOM     27  C   UNL A   1      42.881  25.259  27.935  1.00  0.00     0.037 A 
ATOM     28  C   UNL A   1      45.017  28.614  33.259  1.00  0.00     0.049 A 
ATOM     29  C   UNL A   1      44.149  25.610  28.608  1.00  0.00     0.074 A 
ATOM     30  C   UNL A   1      45.266  29.954  33.049  1.00  0.00     0.029 A 
ATOM     31  N   UNL A   1      45.774  27.937  32.343  1.00  0.00    -0.354 N 
ATOM     32  N   UNL A   1      44.863  26.669  28.349  1.00  0.00    -0.248 NA
ATOM     33  C   UNL A   1      44.515  24.887  29.816  1.00  0.00     0.031 C 
ATOM     34  C   UNL A   1      45.830  30.036  31.747  1.00  0.00     0.029 A 
ATOM     35  C   UNL A   1      45.885  28.739  31.234  1.00  0.00     0.049 A 
ATOM     36  H   UNL A   1      46.166  27.041  32.457  1.00  0.00     0.167 HD
ATOM     37  C   UNL A   1      45.499  26.962  29.544  1.00  0.00     0.074 A 
ATOM     38  C   UNL A   1      45.379  25.754  30.346  1.00  0.00     0.031 C 
ATOM     39  C   UNL A   1      45.819  28.245  29.876  1.00  0.00     0.037 A 
BRANCH  26  40
ATOM     40  C   UNL A   1      44.440  26.988  35.173  1.00  0.00     0.064 A 
ATOM     41  C   UNL A   1      44.705  27.465  36.472  1.00  0.00     0.173 A 
ATOM     42  C   UNL A   1      44.283  25.591  35.060  1.00  0.00     0.173 A 
ATOM     43  F   UNL A   1      44.827  28.774  36.721  1.00  0.00    -0.203 F 
ATOM     44  C   UNL A   1      44.778  26.616  37.580  1.00  0.00     0.198 A 
ATOM     45  C   UNL A   1      44.334  24.745  36.174  1.00  0.00     0.198 A 
ATOM     46  F   UNL A   1      44.012  25.024  33.875  1.00  0.00    -0.203 F 
ATOM     47  F   UNL A   1      44.994  27.136  38.797  1.00  0.00    -0.200 F 
ATOM     48  C   UNL A   1      44.573  25.259  37.434  1.00  0.00     0.200 A 
ATOM     49  F   UNL A   1      44.102  23.434  36.026  1.00  0.00    -0.200 F 
ATOM     50  F   UNL A   1      44.572  24.458  38.508  1.00  0.00    -0.200 F 
ENDBRANCH  26  40
BRANCH  27  51
ATOM     51  C   UNL A   1      42.709  24.012  27.158  1.00  0.00     0.064 A 
ATOM     52  C   UNL A   1      42.325  22.811  27.784  1.00  0.00     0.173 A 
ATOM     53  C   UNL A   1      43.170  23.913  25.835  1.00  0.00     0.173 A 
ATOM     54  F   UNL A   1      41.932  22.794  29.065  1.00  0.00    -0.203 F 
ATOM     55  C   UNL A   1      42.413  21.581  27.132  1.00  0.00     0.198 A 
ATOM     56  C   UNL A   1      43.269  22.678  25.187  1.00  0.00     0.198 A 
ATOM     57  F   UNL A   1      43.588  25.005  25.180  1.00  0.00    -0.203 F 
ATOM     58  F   UNL A   1      42.077  20.458  27.782  1.00  0.00    -0.200 F 
ATOM     59  C   UNL A   1      42.900  21.513  25.839  1.00  0.00     0.200 A 
ATOM     60  F   UNL A   1      43.770  22.614  23.946  1.00  0.00    -0.200 F 
ATOM     61  F   UNL A   1      43.046  20.325  25.237  1.00  0.00    -0.200 F 
ENDBRANCH  27  51
BRANCH  39  62
ATOM     62  C   UNL A   1      45.789  29.281  28.786  1.00  0.00     0.064 A 
ATOM     63  C   UNL A   1      47.001  29.701  28.220  1.00  0.00     0.173 A 
ATOM     64  C   UNL A   1      44.626  29.978  28.416  1.00  0.00     0.173 A 
ATOM     65  F   UNL A   1      48.154  29.120  28.588  1.00  0.00    -0.203 F 
ATOM     66  C   UNL A   1      47.049  30.767  27.323  1.00  0.00     0.198 A 
ATOM     67  C   UNL A   1      44.672  31.017  27.489  1.00  0.00     0.198 A 
ATOM     68  F   UNL A   1      43.450  29.711  28.996  1.00  0.00    -0.203 F 
ATOM     69  F   UNL A   1      48.230  31.190  26.851  1.00  0.00    -0.200 F 
ATOM     70  C   UNL A   1      45.883  31.417  26.950  1.00  0.00     0.200 A 
ATOM     71  F   UNL A   1      43.547  31.665  27.151  1.00  0.00    -0.200 F 
ATOM     72  F   UNL A   1      45.934  32.453  26.102  1.00  0.00    -0.200 F 
ENDBRANCH  39  62
ENDBRANCH  13  14
ENDBRANCH   6   8
ENDBRANCH   5   6
ENDBRANCH   4   5
ENDBRANCH   3   4
ENDBRANCH   2   3
ENDBRANCH   1   2
BRANCH   1  73
ATOM     73  C   UNL A   1      32.443  29.659  25.008  1.00  0.00     0.188 C 
BRANCH  73  74
ATOM     74  O   UNL A   1      32.334  28.571  24.094  1.00  0.00    -0.376 OA
BRANCH  74  75
ATOM     75  C   UNL A   1      31.321  28.660  23.090  1.00  0.00     0.202 C 
BRANCH  75  76
ATOM     76  C   UNL A   1      29.912  28.205  23.491  1.00  0.00     0.261 C 
BRANCH  76  77
ATOM     77  O   UNL A   1      29.601  26.840  23.119  1.00  0.00    -0.458 OA
BRANCH  77  78
ATOM     78  C   UNL A   1      29.937  25.910  24.064  1.00  0.00     0.358 C 
ATOM     79  O   UNL A   1      29.568  25.972  25.232  1.00  0.00    -0.244 OA
BRANCH  78  80
ATOM     80  C   UNL A   1      30.843  24.825  23.627  1.00  0.00     0.170 A 
ATOM     81  C   UNL A   1      31.741  25.035  22.547  1.00  0.00     0.058 A 
ATOM     82  N   UNL A   1      31.063  23.618  24.218  1.00  0.00    -0.159 NA
ATOM     83  C   UNL A   1      32.617  23.994  22.598  1.00  0.00     0.118 A 
ATOM     84  N   UNL A   1      32.257  23.206  23.669  1.00  0.00    -0.222 N 
BRANCH  84  85
ATOM     85  C   UNL A   1      33.117  22.183  24.189  1.00  0.00     0.158 A 
ATOM     86  C   UNL A   1      32.714  20.864  24.321  1.00  0.00     0.078 A 
ATOM     87  N   UNL A   1      34.379  22.598  24.484  1.00  0.00    -0.209 NA
ATOM     88  C   UNL A   1      33.716  19.981  24.707  1.00  0.00     0.077 A 
ATOM     89  C   UNL A   1      35.236  21.680  24.934  1.00  0.00     0.165 A 
ATOM     90  N   UNL A   1      34.956  20.383  25.048  1.00  0.00    -0.228 NA
BRANCH  88  91
ATOM     91  C   UNL A   1      33.632  18.516  24.682  1.00  0.00     0.003 A 
ATOM     92  C   UNL A   1      34.743  17.764  24.278  1.00  0.00     0.030 A 
ATOM     93  C   UNL A   1      32.559  17.826  25.256  1.00  0.00     0.030 A 
ATOM     94  C   UNL A   1      34.716  16.385  24.419  1.00  0.00     0.111 A 
ATOM     95  C   UNL A   1      32.628  16.442  25.358  1.00  0.00     0.111 A 
ATOM     96  N   UNL A   1      33.678  15.706  24.940  1.00  0.00    -0.265 NA
ENDBRANCH  88  91
BRANCH  89  97
ATOM     97  C   UNL A   1      36.523  22.121  25.439  1.00  0.00     0.055 A 
ATOM     98  C   UNL A   1      37.628  21.252  25.446  1.00  0.00     0.015 A 
ATOM     99  C   UNL A   1      36.714  23.435  25.872  1.00  0.00     0.134 A 
ATOM    100  C   UNL A   1      38.886  21.699  25.858  1.00  0.00     0.001 A 
ATOM    101  C   UNL A   1      37.965  23.886  26.291  1.00  0.00     0.040 A 
ATOM    102  F   UNL A   1      35.685  24.297  25.896  1.00  0.00    -0.206 F 
ATOM    103  C   UNL A   1      39.055  23.017  26.277  1.00  0.00     0.003 A 
ENDBRANCH  89  97
ENDBRANCH  84  85
ENDBRANCH  78  80
ENDBRANCH  77  78
ENDBRANCH  76  77
ENDBRANCH  75  76
ENDBRANCH  74  75
ENDBRANCH  73  74
ENDBRANCH   1  73
TORSDOF 20
ENDMDL
MODEL 2
REMARK VINA RESULT:     -11.7      1.054      3.092
REMARK SMILES O=C(OCCOCCOCCOC(=O)c1ccn(-c2cc(-c3ccncc3)nc(-c3ccccc3F)n2)n1)c1ccc(-c2c3nc(c(-c4c(F)c(F)c(F)c(F)c4F)c4ccc([nH]4)c(-c4c(F)c(F)c(F)c(F)c4F)c4nc(c(-c5c(F)c(F)c(F)c(F)c5F)c5ccc2[nH]5)C=C4)C=C3)cc1
REMARK SMILES IDX 7 1 6 2 5 3 4 4 3 5 2 6 1 7 39 8 40 9 101 10 41 11 100 12
REMARK SMILES IDX 42 13 43 14 44 15 94 16 45 17 99 18 93 19 95 20 46 21 98 22
REMARK SMILES IDX 92 23 91 24 47 26 79 27 59 28 78 29 60 30 63 31 77 32 96 33
REMARK SMILES IDX 61 34 62 35 76 37 97 38 64 39 48 40 49 41 57 42 50 43 51 44
REMARK SMILES IDX 55 45 58 46 52 47 53 48 56 49 54 50 80 51 81 52 89 53 82 54
REMARK SMILES IDX 83 55 87 56 90 57 84 58 85 59 88 60 86 61 65 62 66 63 74 64
REMARK SMILES IDX 67 65 68 66 72 67 75 68 69 69 70 70 73 71 71 72 8 73 9 74
REMARK SMILES IDX 10 75 11 76 12 77 13 78 14 79 15 80 16 81 38 82 17 83 18 84
REMARK SMILES IDX 19 85 20 86 37 87 21 88 29 89 28 90 22 91 23 92 27 93 24 94
REMARK SMILES IDX 26 95 25 96 30 97 31 98 35 99 32 100 34 101 36 102 33 103
REMARK H PARENT 95 25 63 36
REMARK Flexibility Score: inf
ROOT
ATOM      1  C   UNL A   1      31.857  28.803  26.406  1.00  0.00     0.188 C 
ENDROOT
BRANCH   1   2
ATOM      2  O   UNL A   1      33.058  28.662  27.151  1.00  0.00    -0.376 OA
BRANCH   2   3
ATOM      3  C   UNL A   1      34.089  29.589  26.855  1.00  0.00     0.202 C 
BRANCH   3   4
ATOM      4  C   UNL A   1      34.000  30.897  27.651  1.00  0.00     0.261 C 
BRANCH   4   5
ATOM      5  O   UNL A   1      34.983  31.147  28.685  1.00  0.00    -0.460 OA
BRANCH   5   6
ATOM      6  C   UNL A   1      36.272  31.538  28.635  1.00  0.00     0.338 C 
ATOM      7  O   UNL A   1      36.615  32.444  27.881  1.00  0.00    -0.246 OA
BRANCH   6   8
ATOM      8  C   UNL A   1      37.330  30.836  29.393  1.00  0.00     0.060 A 
ATOM      9  C   UNL A   1      38.570  31.408  29.669  1.00  0.00     0.016 A 
ATOM     10  C   UNL A   1      37.098  29.485  29.712  1.00  0.00     0.016 A 
ATOM     11  C   UNL A   1      39.584  30.628  30.216  1.00  0.00     0.010 A 
ATOM     12  C   UNL A   1      38.119  28.699  30.240  1.00  0.00     0.010 A 
ATOM     13  C   UNL A   1      39.383  29.260  30.431  1.00  0.00    -0.014 A 
BRANCH  13  14
ATOM     14  C   UNL A   1      40.582  28.446  30.666  1.00  0.00     0.031 A 
ATOM     15  C   UNL A   1      41.235  28.474  32.014  1.00  0.00     0.074 A 
ATOM     16  C   UNL A   1      41.102  27.703  29.663  1.00  0.00     0.049 A 
ATOM     17  N   UNL A   1      42.499  28.553  32.310  1.00  0.00    -0.248 NA
ATOM     18  C   UNL A   1      40.368  28.386  33.199  1.00  0.00     0.031 C 
ATOM     19  C   UNL A   1      40.500  27.383  28.361  1.00  0.00     0.029 A 
ATOM     20  N   UNL A   1      42.283  27.020  29.632  1.00  0.00    -0.354 N 
ATOM     21  C   UNL A   1      42.596  28.377  33.692  1.00  0.00     0.074 A 
ATOM     22  C   UNL A   1      41.252  28.263  34.191  1.00  0.00     0.031 C 
ATOM     23  C   UNL A   1      41.237  26.434  27.746  1.00  0.00     0.029 A 
ATOM     24  C   UNL A   1      42.425  26.180  28.541  1.00  0.00     0.049 A 
ATOM     25  H   UNL A   1      42.976  27.117  30.325  1.00  0.00     0.167 HD
ATOM     26  C   UNL A   1      43.783  28.286  34.353  1.00  0.00     0.037 A 
ATOM     27  C   UNL A   1      43.429  25.308  28.307  1.00  0.00     0.037 A 
ATOM     28  C   UNL A   1      44.822  28.989  33.662  1.00  0.00     0.049 A 
ATOM     29  C   UNL A   1      44.598  25.728  29.110  1.00  0.00     0.074 A 
ATOM     30  C   UNL A   1      45.066  30.323  33.412  1.00  0.00     0.029 A 
ATOM     31  N   UNL A   1      45.700  28.287  32.883  1.00  0.00    -0.354 N 
ATOM     32  N   UNL A   1      45.315  26.792  28.883  1.00  0.00    -0.248 NA
ATOM     33  C   UNL A   1      44.828  25.078  30.391  1.00  0.00     0.031 C 
ATOM     34  C   UNL A   1      45.784  30.354  32.186  1.00  0.00     0.029 A 
ATOM     35  C   UNL A   1      45.930  29.035  31.754  1.00  0.00     0.049 A 
ATOM     36  H   UNL A   1      46.095  27.410  33.092  1.00  0.00     0.167 HD
ATOM     37  C   UNL A   1      45.792  27.164  30.128  1.00  0.00     0.074 A 
ATOM     38  C   UNL A   1      45.601  25.995  30.974  1.00  0.00     0.031 C 
ATOM     39  C   UNL A   1      46.042  28.470  30.427  1.00  0.00     0.037 A 
BRANCH  26  40
ATOM     40  C   UNL A   1      44.049  27.448  35.576  1.00  0.00     0.064 A 
ATOM     41  C   UNL A   1      44.194  26.046  35.523  1.00  0.00     0.173 A 
ATOM     42  C   UNL A   1      44.446  28.052  36.788  1.00  0.00     0.173 A 
ATOM     43  F   UNL A   1      43.899  25.359  34.413  1.00  0.00    -0.203 F 
ATOM     44  C   UNL A   1      44.722  25.308  36.585  1.00  0.00     0.198 A 
ATOM     45  C   UNL A   1      44.995  27.313  37.842  1.00  0.00     0.198 A 
ATOM     46  F   UNL A   1      44.369  29.381  36.949  1.00  0.00    -0.203 F 
ATOM     47  F   UNL A   1      44.871  23.982  36.457  1.00  0.00    -0.200 F 
ATOM     48  C   UNL A   1      45.142  25.943  37.737  1.00  0.00     0.200 A 
ATOM     49  F   UNL A   1      45.429  27.943  38.942  1.00  0.00    -0.200 F 
ATOM     50  F   UNL A   1      45.714  25.241  38.724  1.00  0.00    -0.200 F 
ENDBRANCH  26  40
BRANCH  27  51
ATOM     51  C   UNL A   1      43.382  24.019  27.583  1.00  0.00     0.064 A 
ATOM     52  C   UNL A   1      43.597  23.955  26.193  1.00  0.00     0.173 A 
ATOM     53  C   UNL A   1      42.868  22.863  28.193  1.00  0.00     0.173 A 
ATOM     54  F   UNL A   1      44.024  25.027  25.511  1.00  0.00    -0.203 F 
ATOM     55  C   UNL A   1      43.300  22.811  25.455  1.00  0.00     0.198 A 
ATOM     56  C   UNL A   1      42.560  21.720  27.450  1.00  0.00     0.198 A 
ATOM     57  F   UNL A   1      42.602  22.852  29.507  1.00  0.00    -0.203 F 
ATOM     58  F   UNL A   1      43.480  22.810  24.126  1.00  0.00    -0.200 F 
ATOM     59  C   UNL A   1      42.766  21.698  26.080  1.00  0.00     0.200 A 
ATOM     60  F   UNL A   1      42.014  20.657  28.055  1.00  0.00    -0.200 F 
ATOM     61  F   UNL A   1      42.420  20.623  25.360  1.00  0.00    -0.200 F 
ENDBRANCH  27  51
BRANCH  39  62
ATOM     62  C   UNL A   1      46.124  29.447  29.287  1.00  0.00     0.064 A 
ATOM     63  C   UNL A   1      47.387  29.808  28.795  1.00  0.00     0.173 A 
ATOM     64  C   UNL A   1      45.013  30.152  28.793  1.00  0.00     0.173 A 
ATOM     65  F   UNL A   1      48.492  29.219  29.280  1.00  0.00    -0.203 F 
ATOM     66  C   UNL A   1      47.532  30.824  27.852  1.00  0.00     0.198 A 
ATOM     67  C   UNL A   1      45.158  31.141  27.821  1.00  0.00     0.198 A 
ATOM     68  F   UNL A   1      43.789  29.945  29.294  1.00  0.00    -0.203 F 
ATOM     69  F   UNL A   1      48.757  31.192  27.451  1.00  0.00    -0.200 F 
ATOM     70  C   UNL A   1      46.418  31.481  27.358  1.00  0.00     0.200 A 
ATOM     71  F   UNL A   1      44.081  31.797  27.365  1.00  0.00    -0.200 F 
ATOM     72  F   UNL A   1      46.561  32.470  26.465  1.00  0.00    -0.200 F 
ENDBRANCH  39  62
ENDBRANCH  13  14
ENDBRANCH   6   8
ENDBRANCH   5   6
ENDBRANCH   4   5
ENDBRANCH   3   4
ENDBRANCH   2   3
ENDBRANCH   1   2
BRANCH   1  73
ATOM     73  C   UNL A   1      32.047  29.516  25.059  1.00  0.00     0.188 C 
BRANCH  73  74
ATOM     74  O   UNL A   1      32.165  28.698  23.898  1.00  0.00    -0.376 OA
BRANCH  74  75
ATOM     75  C   UNL A   1      31.105  28.766  22.941  1.00  0.00     0.202 C 
BRANCH  75  76
ATOM     76  C   UNL A   1      29.731  28.261  23.399  1.00  0.00     0.261 C 
BRANCH  76  77
ATOM     77  O   UNL A   1      29.476  26.870  23.087  1.00  0.00    -0.458 OA
BRANCH  77  78
ATOM     78  C   UNL A   1      29.922  25.991  24.035  1.00  0.00     0.358 C 
ATOM     79  O   UNL A   1      29.599  26.053  25.217  1.00  0.00    -0.244 OA
BRANCH  78  80
ATOM     80  C   UNL A   1      30.890  24.968  23.581  1.00  0.00     0.170 A 
ATOM     81  C   UNL A   1      31.580  25.133  22.352  1.00  0.00     0.058 A 
ATOM     82  N   UNL A   1      31.355  23.883  24.262  1.00  0.00    -0.159 NA
ATOM     83  C   UNL A   1      32.585  24.214  22.375  1.00  0.00     0.118 A 
ATOM     84  N   UNL A   1      32.497  23.541  23.574  1.00  0.00    -0.222 N 
BRANCH  84  85
ATOM     85  C   UNL A   1      33.554  22.700  24.058  1.00  0.00     0.158 A 
ATOM     86  C   UNL A   1      34.802  23.193  24.401  1.00  0.00     0.078 A 
ATOM     87  N   UNL A   1      33.213  21.392  24.212  1.00  0.00    -0.209 NA
ATOM     88  C   UNL A   1      35.658  22.265  24.985  1.00  0.00     0.077 A 
ATOM     89  C   UNL A   1      34.145  20.570  24.698  1.00  0.00     0.165 A 
ATOM     90  N   UNL A   1      35.353  20.958  25.099  1.00  0.00    -0.228 NA
BRANCH  88  91
ATOM     91  C   UNL A   1      36.926  22.566  25.659  1.00  0.00     0.003 A 
ATOM     92  C   UNL A   1      37.955  21.614  25.660  1.00  0.00     0.030 A 
ATOM     93  C   UNL A   1      37.236  23.851  26.115  1.00  0.00     0.030 A 
ATOM     94  C   UNL A   1      39.204  21.966  26.148  1.00  0.00     0.111 A 
ATOM     95  C   UNL A   1      38.520  24.108  26.580  1.00  0.00     0.111 A 
ATOM     96  N   UNL A   1      39.507  23.189  26.619  1.00  0.00    -0.265 NA
ENDBRANCH  88  91
BRANCH  89  97
ATOM     97  C   UNL A   1      33.881  19.143  24.692  1.00  0.00     0.055 A 
ATOM     98  C   UNL A   1      32.563  18.656  24.756  1.00  0.00     0.015 A 
ATOM     99  C   UNL A   1      34.920  18.219  24.561  1.00  0.00     0.134 A 
ATOM    100  C   UNL A   1      32.303  17.286  24.670  1.00  0.00     0.001 A 
ATOM    101  C   UNL A   1      34.668  16.850  24.482  1.00  0.00     0.040 A 
ATOM    102  F   UNL A   1      36.194  18.637  24.510  1.00  0.00    -0.206 F 
ATOM    103  C   UNL A   1      33.356  16.384  24.531  1.00  0.00     0.003 A 
ENDBRANCH  89  97
ENDBRANCH  84  85
ENDBRANCH  78  80
ENDBRANCH  77  78
ENDBRANCH  76  77
ENDBRANCH  75  76
ENDBRANCH  74  75
ENDBRANCH  73  74
ENDBRANCH   1  73
TORSDOF 20
ENDMDL
MODEL 3
REMARK VINA RESULT:     -11.2      4.019      9.610
REMARK SMILES O=C(OCCOCCOCCOC(=O)c1ccn(-c2cc(-c3ccncc3)nc(-c3ccccc3F)n2)n1)c1ccc(-c2c3nc(c(-c4c(F)c(F)c(F)c(F)c4F)c4ccc([nH]4)c(-c4c(F)c(F)c(F)c(F)c4F)c4nc(c(-c5c(F)c(F)c(F)c(F)c5F)c5ccc2[nH]5)C=C4)C=C3)cc1
REMARK SMILES IDX 7 1 6 2 5 3 4 4 3 5 2 6 1 7 39 8 40 9 101 10 41 11 100 12
REMARK SMILES IDX 42 13 43 14 44 15 94 16 45 17 99 18 93 19 95 20 46 21 98 22
REMARK SMILES IDX 92 23 91 24 47 26 79 27 59 28 78 29 60 30 63 31 77 32 96 33
REMARK SMILES IDX 61 34 62 35 76 37 97 38 64 39 48 40 49 41 57 42 50 43 51 44
REMARK SMILES IDX 55 45 58 46 52 47 53 48 56 49 54 50 80 51 81 52 89 53 82 54
REMARK SMILES IDX 83 55 87 56 90 57 84 58 85 59 88 60 86 61 65 62 66 63 74 64
REMARK SMILES IDX 67 65 68 66 72 67 75 68 69 69 70 70 73 71 71 72 8 73 9 74
REMARK SMILES IDX 10 75 11 76 12 77 13 78 14 79 15 80 16 81 38 82 17 83 18 84
REMARK SMILES IDX 19 85 20 86 37 87 21 88 29 89 28 90 22 91 23 92 27 93 24 94
REMARK SMILES IDX 26 95 25 96 30 97 31 98 35 99 32 100 34 101 36 102 33 103
REMARK H PARENT 95 25 63 36
REMARK Flexibility Score: inf
ROOT
ATOM      1  C   UNL A   1      37.408  20.965  24.633  1.00  0.00     0.188 C 
ENDROOT
BRANCH   1   2
ATOM      2  O   UNL A   1      37.978  22.184  25.086  1.00  0.00    -0.376 OA
BRANCH   2   3
ATOM      3  C   UNL A   1      38.867  22.087  26.185  1.00  0.00     0.202 C 
BRANCH   3   4
ATOM      4  C   UNL A   1      40.348  22.048  25.789  1.00  0.00     0.261 C 
BRANCH   4   5
ATOM      5  O   UNL A   1      41.317  22.668  26.668  1.00  0.00    -0.460 OA
BRANCH   5   6
ATOM      6  C   UNL A   1      41.183  23.434  27.769  1.00  0.00     0.338 C 
ATOM      7  O   UNL A   1      40.698  22.965  28.795  1.00  0.00    -0.246 OA
BRANCH   6   8
ATOM      8  C   UNL A   1      41.509  24.877  27.761  1.00  0.00     0.060 A 
ATOM      9  C   UNL A   1      42.555  25.422  28.501  1.00  0.00     0.016 A 
ATOM     10  C   UNL A   1      40.619  25.728  27.080  1.00  0.00     0.016 A 
ATOM     11  C   UNL A   1      42.687  26.803  28.598  1.00  0.00     0.010 A 
ATOM     12  C   UNL A   1      40.737  27.111  27.194  1.00  0.00     0.010 A 
ATOM     13  C   UNL A   1      41.737  27.645  28.008  1.00  0.00    -0.014 A 
BRANCH  13  14
ATOM     14  C   UNL A   1      41.736  29.047  28.445  1.00  0.00     0.031 A 
ATOM     15  C   UNL A   1      42.928  29.907  28.151  1.00  0.00     0.074 A 
ATOM     16  C   UNL A   1      40.680  29.542  29.127  1.00  0.00     0.049 A 
ATOM     17  N   UNL A   1      43.540  30.750  28.930  1.00  0.00    -0.248 NA
ATOM     18  C   UNL A   1      43.512  29.834  26.804  1.00  0.00     0.031 C 
ATOM     19  C   UNL A   1      39.357  28.933  29.324  1.00  0.00     0.029 A 
ATOM     20  N   UNL A   1      40.559  30.749  29.753  1.00  0.00    -0.354 N 
ATOM     21  C   UNL A   1      44.480  31.413  28.138  1.00  0.00     0.074 A 
ATOM     22  C   UNL A   1      44.410  30.821  26.829  1.00  0.00     0.031 C 
ATOM     23  C   UNL A   1      38.519  29.843  29.864  1.00  0.00     0.029 A 
ATOM     24  C   UNL A   1      39.275  31.043  30.175  1.00  0.00     0.049 A 
ATOM     25  H   UNL A   1      41.320  31.358  29.893  1.00  0.00     0.167 HD
ATOM     26  C   UNL A   1      45.236  32.453  28.586  1.00  0.00     0.037 A 
ATOM     27  C   UNL A   1      38.838  32.200  30.720  1.00  0.00     0.037 A 
ATOM     28  C   UNL A   1      45.442  32.377  30.001  1.00  0.00     0.049 A 
ATOM     29  C   UNL A   1      40.009  32.922  31.262  1.00  0.00     0.074 A 
ATOM     30  C   UNL A   1      46.147  31.516  30.817  1.00  0.00     0.029 A 
ATOM     31  N   UNL A   1      44.674  33.146  30.831  1.00  0.00    -0.354 N 
ATOM     32  N   UNL A   1      40.693  32.554  32.309  1.00  0.00    -0.248 NA
ATOM     33  C   UNL A   1      40.618  33.963  30.449  1.00  0.00     0.031 C 
ATOM     34  C   UNL A   1      45.456  31.519  32.059  1.00  0.00     0.029 A 
ATOM     35  C   UNL A   1      44.364  32.378  31.927  1.00  0.00     0.049 A 
ATOM     36  H   UNL A   1      44.396  34.077  30.674  1.00  0.00     0.167 HD
ATOM     37  C   UNL A   1      41.972  33.028  32.074  1.00  0.00     0.074 A 
ATOM     38  C   UNL A   1      41.825  34.015  31.014  1.00  0.00     0.031 C 
ATOM     39  C   UNL A   1      43.067  32.381  32.566  1.00  0.00     0.037 A 
BRANCH  26  40
ATOM     40  C   UNL A   1      45.696  33.628  27.764  1.00  0.00     0.064 A 
ATOM     41  C   UNL A   1      44.871  34.740  27.496  1.00  0.00     0.173 A 
ATOM     42  C   UNL A   1      47.063  33.801  27.460  1.00  0.00     0.173 A 
ATOM     43  F   UNL A   1      43.565  34.721  27.784  1.00  0.00    -0.203 F 
ATOM     44  C   UNL A   1      45.376  35.942  26.993  1.00  0.00     0.198 A 
ATOM     45  C   UNL A   1      47.570  35.013  26.977  1.00  0.00     0.198 A 
ATOM     46  F   UNL A   1      47.946  32.818  27.688  1.00  0.00    -0.203 F 
ATOM     47  F   UNL A   1      44.546  36.976  26.797  1.00  0.00    -0.200 F 
ATOM     48  C   UNL A   1      46.728  36.086  26.752  1.00  0.00     0.200 A 
ATOM     49  F   UNL A   1      48.887  35.152  26.778  1.00  0.00    -0.200 F 
ATOM     50  F   UNL A   1      47.218  37.261  26.338  1.00  0.00    -0.200 F 
ENDBRANCH  26  40
BRANCH  27  51
ATOM     51  C   UNL A   1      37.496  32.815  30.626  1.00  0.00     0.064 A 
ATOM     52  C   UNL A   1      36.481  32.491  31.547  1.00  0.00     0.173 A 
ATOM     53  C   UNL A   1      37.104  33.530  29.484  1.00  0.00     0.173 A 
ATOM     54  F   UNL A   1      36.745  31.755  32.636  1.00  0.00    -0.203 F 
ATOM     55  C   UNL A   1      35.150  32.846  31.329  1.00  0.00     0.198 A 
ATOM     56  C   UNL A   1      35.768  33.876  29.261  1.00  0.00     0.198 A 
ATOM     57  F   UNL A   1      38.003  33.847  28.542  1.00  0.00    -0.203 F 
ATOM     58  F   UNL A   1      34.210  32.479  32.211  1.00  0.00    -0.200 F 
ATOM     59  C   UNL A   1      34.791  33.524  30.178  1.00  0.00     0.200 A 
ATOM     60  F   UNL A   1      35.420  34.505  28.130  1.00  0.00    -0.200 F 
ATOM     61  F   UNL A   1      33.504  33.807  29.938  1.00  0.00    -0.200 F 
ENDBRANCH  27  51
BRANCH  39  62
ATOM     62  C   UNL A   1      42.849  31.356  33.645  1.00  0.00     0.064 A 
ATOM     63  C   UNL A   1      43.134  31.703  34.974  1.00  0.00     0.173 A 
ATOM     64  C   UNL A   1      42.535  30.012  33.381  1.00  0.00     0.173 A 
ATOM     65  F   UNL A   1      43.509  32.956  35.277  1.00  0.00    -0.203 F 
ATOM     66  C   UNL A   1      43.104  30.752  35.992  1.00  0.00     0.198 A 
ATOM     67  C   UNL A   1      42.467  29.071  34.407  1.00  0.00     0.198 A 
ATOM     68  F   UNL A   1      42.361  29.580  32.126  1.00  0.00    -0.203 F 
ATOM     69  F   UNL A   1      43.448  31.098  37.240  1.00  0.00    -0.200 F 
ATOM     70  C   UNL A   1      42.761  29.439  35.710  1.00  0.00     0.200 A 
ATOM     71  F   UNL A   1      42.163  27.795  34.129  1.00  0.00    -0.200 F 
ATOM     72  F   UNL A   1      42.750  28.522  36.687  1.00  0.00    -0.200 F 
ENDBRANCH  39  62
ENDBRANCH  13  14
ENDBRANCH   6   8
ENDBRANCH   5   6
ENDBRANCH   4   5
ENDBRANCH   3   4
ENDBRANCH   2   3
ENDBRANCH   1   2
BRANCH   1  73
ATOM     73  C   UNL A   1      35.959  20.752  25.097  1.00  0.00     0.188 C 
BRANCH  73  74
ATOM     74  O   UNL A   1      35.159  21.914  25.299  1.00  0.00    -0.376 OA
BRANCH  74  75
ATOM     75  C   UNL A   1      34.797  22.231  26.645  1.00  0.00     0.202 C 
BRANCH  75  76
ATOM     76  C   UNL A   1      33.480  21.640  27.162  1.00  0.00     0.261 C 
BRANCH  76  77
ATOM     77  O   UNL A   1      32.306  22.413  26.814  1.00  0.00    -0.458 OA
BRANCH  77  78
ATOM     78  C   UNL A   1      31.834  22.182  25.552  1.00  0.00     0.358 C 
ATOM     79  O   UNL A   1      31.623  21.059  25.107  1.00  0.00    -0.244 OA
BRANCH  78  80
ATOM     80  C   UNL A   1      31.643  23.371  24.692  1.00  0.00     0.170 A 
ATOM     81  C   UNL A   1      30.670  23.356  23.659  1.00  0.00     0.058 A 
ATOM     82  N   UNL A   1      32.196  24.609  24.825  1.00  0.00    -0.159 NA
ATOM     83  C   UNL A   1      30.531  24.655  23.273  1.00  0.00     0.118 A 
ATOM     84  N   UNL A   1      31.381  25.407  24.055  1.00  0.00    -0.222 N 
BRANCH  84  85
ATOM     85  C   UNL A   1      31.297  26.838  24.117  1.00  0.00     0.158 A 
ATOM     86  C   UNL A   1      30.473  27.574  23.283  1.00  0.00     0.078 A 
ATOM     87  N   UNL A   1      32.043  27.407  25.102  1.00  0.00    -0.209 NA
ATOM     88  C   UNL A   1      30.407  28.933  23.574  1.00  0.00     0.077 A 
ATOM     89  C   UNL A   1      31.973  28.733  25.235  1.00  0.00     0.165 A 
ATOM     90  N   UNL A   1      31.176  29.518  24.514  1.00  0.00    -0.228 NA
BRANCH  88  91
ATOM     91  C   UNL A   1      29.440  29.888  23.021  1.00  0.00     0.003 A 
ATOM     92  C   UNL A   1      28.521  30.516  23.872  1.00  0.00     0.030 A 
ATOM     93  C   UNL A   1      29.540  30.368  21.712  1.00  0.00     0.030 A 
ATOM     94  C   UNL A   1      27.728  31.539  23.377  1.00  0.00     0.111 A 
ATOM     95  C   UNL A   1      28.703  31.402  21.310  1.00  0.00     0.111 A 
ATOM     96  N   UNL A   1      27.790  31.989  22.111  1.00  0.00    -0.265 NA
ENDBRANCH  88  91
BRANCH  89  97
ATOM     97  C   UNL A   1      32.898  29.389  26.141  1.00  0.00     0.055 A 
ATOM     98  C   UNL A   1      34.139  28.805  26.446  1.00  0.00     0.015 A 
ATOM     99  C   UNL A   1      32.607  30.643  26.682  1.00  0.00     0.134 A 
ATOM    100  C   UNL A   1      35.063  29.473  27.255  1.00  0.00     0.001 A 
ATOM    101  C   UNL A   1      33.521  31.311  27.495  1.00  0.00     0.040 A 
ATOM    102  F   UNL A   1      31.429  31.233  26.429  1.00  0.00    -0.206 F 
ATOM    103  C   UNL A   1      34.755  30.727  27.776  1.00  0.00     0.003 A 
ENDBRANCH  89  97
ENDBRANCH  84  85
ENDBRANCH  78  80
ENDBRANCH  77  78
ENDBRANCH  76  77
ENDBRANCH  75  76
ENDBRANCH  74  75
ENDBRANCH  73  74
ENDBRANCH   1  73
TORSDOF 20
ENDMDL
