MODEL 1
REMARK VINA RESULT:      -9.1      0.000      0.000
REMARK SMILES CCC[N@@H+](C)CC[C@@H]1CCC[C@]1([NH2+]C)C(=O)OCCOCCOCCOC(=O)c1ccc(-c2c3nc(c(-c4c(F)c(F)c(F)c(F)c4F)c4ccc([nH]4)c(-c4c(F)c(F)c(F)c(F)c4F)c4nc(c(-c5c(F)c(F)c(F)c(F)c5F)c5ccc2[nH]5)C=C4)C=C3)cc1
REMARK SMILES IDX 20 1 19 2 18 3 17 4 15 5 16 6 12 7 8 8 9 9 10 10 11 11 7 12
REMARK SMILES IDX 6 13 4 14 5 15 3 17 2 18 1 19 13 20 14 21 21 24 22 25 23 26
REMARK SMILES IDX 24 27 25 28 26 29 27 30 28 31 29 32 30 33 91 34 31 35 90 36
REMARK SMILES IDX 32 37 33 38 34 39 84 40 35 41 89 42 83 43 85 44 36 45 88 46
REMARK SMILES IDX 82 47 81 48 37 50 69 51 49 52 68 53 50 54 53 55 67 56 86 57
REMARK SMILES IDX 51 58 52 59 66 61 87 62 54 63 38 64 39 65 47 66 40 67 41 68
REMARK SMILES IDX 45 69 48 70 42 71 43 72 46 73 44 74 70 75 71 76 79 77 72 78
REMARK SMILES IDX 73 79 77 80 80 81 74 82 75 83 78 84 76 85 55 86 56 87 64 88
REMARK SMILES IDX 57 89 58 90 62 91 65 92 59 93 60 94 63 95 61 96
REMARK H PARENT 4 16 13 22 13 23 85 49 53 60
REMARK Flexibility Score: inf
ROOT
ATOM      1  O   UNL A   1      34.775  20.532  25.071  1.00  0.00    -0.376 OA
ENDROOT
BRANCH   1   2
ATOM      2  C   UNL A   1      34.099  21.208  24.016  1.00  0.00     0.202 C 
BRANCH   2   3
ATOM      3  C   UNL A   1      32.591  21.367  24.221  1.00  0.00     0.261 C 
BRANCH   3   4
ATOM      4  O   UNL A   1      32.278  22.326  25.261  1.00  0.00    -0.459 OA
BRANCH   4   5
ATOM      5  C   UNL A   1      32.837  23.557  25.154  1.00  0.00     0.368 C 
ATOM      6  O   UNL A   1      33.873  23.871  25.736  1.00  0.00    -0.245 OA
BRANCH   5   7
ATOM      7  C   UNL A   1      31.951  24.579  24.364  1.00  0.00     0.197 C 
ATOM      8  C   UNL A   1      31.999  26.124  24.711  1.00  0.00     0.068 C 
ATOM      9  C   UNL A   1      31.159  26.213  26.028  1.00  0.00     0.011 C 
ATOM     10  C   UNL A   1      30.318  24.957  26.136  1.00  0.00     0.008 C 
ATOM     11  C   UNL A   1      30.471  24.284  24.786  1.00  0.00     0.081 C 
BRANCH   8  12
ATOM     12  C   UNL A   1      33.114  27.206  24.878  1.00  0.00     0.072 C 
BRANCH  12  13
ATOM     13  C   UNL A   1      33.250  28.700  24.508  1.00  0.00     0.262 C 
BRANCH  13  14
ATOM     14  N   UNL A   1      32.176  29.624  24.139  1.00  0.00    -0.337 N 
ATOM     15  C   UNL A   1      31.382  30.044  25.291  1.00  0.00     0.332 C 
ATOM     16  H   UNL A   1      32.662  30.446  23.781  1.00  0.00     0.347 HD
BRANCH  14  17
ATOM     17  C   UNL A   1      31.339  29.171  23.040  1.00  0.00     0.261 C 
BRANCH  17  18
ATOM     18  C   UNL A   1      29.813  29.125  23.241  1.00  0.00     0.058 C 
ATOM     19  C   UNL A   1      29.119  27.778  23.292  1.00  0.00     0.010 C 
ENDBRANCH  17  18
ENDBRANCH  14  17
ENDBRANCH  13  14
ENDBRANCH  12  13
ENDBRANCH   8  12
BRANCH   7  20
ATOM     20  N   UNL A   1      32.054  24.321  22.902  1.00  0.00    -0.334 N 
ATOM     21  C   UNL A   1      33.300  24.732  22.265  1.00  0.00     0.331 C 
ATOM     22  H   UNL A   1      31.290  24.817  22.444  1.00  0.00     0.347 HD
ATOM     23  H   UNL A   1      32.016  23.307  22.800  1.00  0.00     0.347 HD
ENDBRANCH   7  20
ENDBRANCH   5   7
ENDBRANCH   4   5
ENDBRANCH   3   4
ENDBRANCH   2   3
ENDBRANCH   1   2
BRANCH   1  24
ATOM     24  C   UNL A   1      35.829  21.226  25.722  1.00  0.00     0.188 C 
BRANCH  24  25
ATOM     25  C   UNL A   1      37.031  21.653  24.863  1.00  0.00     0.188 C 
BRANCH  25  26
ATOM     26  O   UNL A   1      38.340  21.332  25.316  1.00  0.00    -0.376 OA
BRANCH  26  27
ATOM     27  C   UNL A   1      38.756  19.973  25.231  1.00  0.00     0.202 C 
BRANCH  27  28
ATOM     28  C   UNL A   1      39.863  19.570  26.210  1.00  0.00     0.261 C 
BRANCH  28  29
ATOM     29  O   UNL A   1      40.977  18.969  25.519  1.00  0.00    -0.460 OA
BRANCH  29  30
ATOM     30  C   UNL A   1      42.187  19.110  26.102  1.00  0.00     0.338 C 
ATOM     31  O   UNL A   1      43.094  18.287  26.140  1.00  0.00    -0.246 OA
BRANCH  30  32
ATOM     32  C   UNL A   1      42.373  20.510  26.530  1.00  0.00     0.060 A 
ATOM     33  C   UNL A   1      42.524  21.482  25.532  1.00  0.00     0.016 A 
ATOM     34  C   UNL A   1      42.441  20.872  27.878  1.00  0.00     0.016 A 
ATOM     35  C   UNL A   1      42.771  22.811  25.871  1.00  0.00     0.010 A 
ATOM     36  C   UNL A   1      42.714  22.204  28.217  1.00  0.00     0.010 A 
ATOM     37  C   UNL A   1      42.907  23.174  27.216  1.00  0.00    -0.014 A 
BRANCH  37  38
ATOM     38  C   UNL A   1      43.435  24.517  27.566  1.00  0.00     0.031 A 
ATOM     39  C   UNL A   1      42.464  25.579  28.002  1.00  0.00     0.074 A 
ATOM     40  C   UNL A   1      44.751  24.790  27.532  1.00  0.00     0.049 A 
ATOM     41  N   UNL A   1      42.668  26.848  28.251  1.00  0.00    -0.248 NA
ATOM     42  C   UNL A   1      41.070  25.146  28.189  1.00  0.00     0.031 C 
ATOM     43  C   UNL A   1      45.808  23.831  27.215  1.00  0.00     0.029 A 
ATOM     44  N   UNL A   1      45.420  25.968  27.763  1.00  0.00    -0.354 N 
ATOM     45  C   UNL A   1      41.431  27.366  28.607  1.00  0.00     0.074 A 
ATOM     46  C   UNL A   1      40.478  26.279  28.535  1.00  0.00     0.031 C 
ATOM     47  C   UNL A   1      46.992  24.467  27.249  1.00  0.00     0.029 A 
ATOM     48  C   UNL A   1      46.773  25.882  27.546  1.00  0.00     0.049 A 
ATOM     49  H   UNL A   1      44.971  26.794  28.055  1.00  0.00     0.167 HD
ATOM     50  C   UNL A   1      41.115  28.635  28.959  1.00  0.00     0.037 A 
ATOM     51  C   UNL A   1      47.716  26.845  27.549  1.00  0.00     0.037 A 
ATOM     52  C   UNL A   1      42.059  29.718  29.031  1.00  0.00     0.049 A 
ATOM     53  C   UNL A   1      47.324  28.272  27.845  1.00  0.00     0.074 A 
ATOM     54  C   UNL A   1      41.832  31.040  29.369  1.00  0.00     0.029 A 
ATOM     55  N   UNL A   1      43.413  29.602  28.755  1.00  0.00    -0.354 N 
ATOM     56  N   UNL A   1      46.151  28.763  28.162  1.00  0.00    -0.248 NA
ATOM     57  C   UNL A   1      48.392  29.283  27.775  1.00  0.00     0.031 C 
ATOM     58  C   UNL A   1      43.041  31.735  29.252  1.00  0.00     0.029 A 
ATOM     59  C   UNL A   1      44.030  30.835  28.891  1.00  0.00     0.049 A 
ATOM     60  H   UNL A   1      43.869  28.767  28.501  1.00  0.00     0.167 HD
ATOM     61  C   UNL A   1      46.342  30.127  28.351  1.00  0.00     0.074 A 
ATOM     62  C   UNL A   1      47.748  30.387  28.129  1.00  0.00     0.031 C 
ATOM     63  C   UNL A   1      45.433  31.078  28.679  1.00  0.00     0.037 A 
BRANCH  50  64
ATOM     64  C   UNL A   1      39.674  28.931  29.245  1.00  0.00     0.064 A 
ATOM     65  C   UNL A   1      38.782  29.313  28.233  1.00  0.00     0.173 A 
ATOM     66  C   UNL A   1      39.176  28.810  30.551  1.00  0.00     0.173 A 
ATOM     67  F   UNL A   1      39.214  29.459  26.972  1.00  0.00    -0.203 F 
ATOM     68  C   UNL A   1      37.447  29.587  28.523  1.00  0.00     0.198 A 
ATOM     69  C   UNL A   1      37.835  29.059  30.833  1.00  0.00     0.198 A 
ATOM     70  F   UNL A   1      39.989  28.446  31.555  1.00  0.00    -0.203 F 
ATOM     71  F   UNL A   1      36.622  29.994  27.549  1.00  0.00    -0.200 F 
ATOM     72  C   UNL A   1      36.974  29.454  29.820  1.00  0.00     0.200 A 
ATOM     73  F   UNL A   1      37.379  28.921  32.085  1.00  0.00    -0.200 F 
ATOM     74  F   UNL A   1      35.689  29.714  30.097  1.00  0.00    -0.200 F 
ENDBRANCH  50  64
BRANCH  51  75
ATOM     75  C   UNL A   1      49.127  26.510  27.216  1.00  0.00     0.064 A 
ATOM     76  C   UNL A   1      50.057  26.209  28.220  1.00  0.00     0.173 A 
ATOM     77  C   UNL A   1      49.582  26.529  25.890  1.00  0.00     0.173 A 
ATOM     78  F   UNL A   1      49.680  26.212  29.507  1.00  0.00    -0.203 F 
ATOM     79  C   UNL A   1      51.394  25.957  27.911  1.00  0.00     0.198 A 
ATOM     80  C   UNL A   1      50.910  26.249  25.579  1.00  0.00     0.198 A 
ATOM     81  F   UNL A   1      48.735  26.825  24.892  1.00  0.00    -0.203 F 
ATOM     82  F   UNL A   1      52.274  25.726  28.893  1.00  0.00    -0.200 F 
ATOM     83  C   UNL A   1      51.817  25.971  26.590  1.00  0.00     0.200 A 
ATOM     84  F   UNL A   1      51.314  26.259  24.301  1.00  0.00    -0.200 F 
ATOM     85  F   UNL A   1      53.102  25.734  26.294  1.00  0.00    -0.200 F 
ENDBRANCH  51  75
BRANCH  63  86
ATOM     86  C   UNL A   1      45.933  32.484  28.855  1.00  0.00     0.064 A 
ATOM     87  C   UNL A   1      45.927  33.407  27.800  1.00  0.00     0.173 A 
ATOM     88  C   UNL A   1      46.374  32.926  30.113  1.00  0.00     0.173 A 
ATOM     89  F   UNL A   1      45.526  33.030  26.577  1.00  0.00    -0.203 F 
ATOM     90  C   UNL A   1      46.363  34.716  27.992  1.00  0.00     0.198 A 
ATOM     91  C   UNL A   1      46.783  34.243  30.307  1.00  0.00     0.198 A 
ATOM     92  F   UNL A   1      46.393  32.085  31.158  1.00  0.00    -0.203 F 
ATOM     93  F   UNL A   1      46.387  35.570  26.959  1.00  0.00    -0.200 F 
ATOM     94  C   UNL A   1      46.783  35.134  29.245  1.00  0.00     0.200 A 
ATOM     95  F   UNL A   1      47.175  34.649  31.522  1.00  0.00    -0.200 F 
ATOM     96  F   UNL A   1      47.193  36.398  29.429  1.00  0.00    -0.200 F 
ENDBRANCH  63  86
ENDBRANCH  37  38
ENDBRANCH  30  32
ENDBRANCH  29  30
ENDBRANCH  28  29
ENDBRANCH  27  28
ENDBRANCH  26  27
ENDBRANCH  25  26
ENDBRANCH  24  25
ENDBRANCH   1  24
TORSDOF 23
ENDMDL
MODEL 2
REMARK VINA RESULT:      -9.0      6.404     11.036
REMARK SMILES CCC[N@@H+](C)CC[C@@H]1CCC[C@]1([NH2+]C)C(=O)OCCOCCOCCOC(=O)c1ccc(-c2c3nc(c(-c4c(F)c(F)c(F)c(F)c4F)c4ccc([nH]4)c(-c4c(F)c(F)c(F)c(F)c4F)c4nc(c(-c5c(F)c(F)c(F)c(F)c5F)c5ccc2[nH]5)C=C4)C=C3)cc1
REMARK SMILES IDX 20 1 19 2 18 3 17 4 15 5 16 6 12 7 8 8 9 9 10 10 11 11 7 12
REMARK SMILES IDX 6 13 4 14 5 15 3 17 2 18 1 19 13 20 14 21 21 24 22 25 23 26
REMARK SMILES IDX 24 27 25 28 26 29 27 30 28 31 29 32 30 33 91 34 31 35 90 36
REMARK SMILES IDX 32 37 33 38 34 39 84 40 35 41 89 42 83 43 85 44 36 45 88 46
REMARK SMILES IDX 82 47 81 48 37 50 69 51 49 52 68 53 50 54 53 55 67 56 86 57
REMARK SMILES IDX 51 58 52 59 66 61 87 62 54 63 38 64 39 65 47 66 40 67 41 68
REMARK SMILES IDX 45 69 48 70 42 71 43 72 46 73 44 74 70 75 71 76 79 77 72 78
REMARK SMILES IDX 73 79 77 80 80 81 74 82 75 83 78 84 76 85 55 86 56 87 64 88
REMARK SMILES IDX 57 89 58 90 62 91 65 92 59 93 60 94 63 95 61 96
REMARK H PARENT 4 16 13 22 13 23 85 49 53 60
REMARK Flexibility Score: inf
ROOT
ATOM      1  O   UNL A   1      34.687  31.552  27.800  1.00  0.00    -0.376 OA
ENDROOT
BRANCH   1   2
ATOM      2  C   UNL A   1      34.115  30.267  27.581  1.00  0.00     0.202 C 
BRANCH   2   3
ATOM      3  C   UNL A   1      33.401  30.105  26.238  1.00  0.00     0.261 C 
BRANCH   3   4
ATOM      4  O   UNL A   1      32.499  28.971  26.231  1.00  0.00    -0.459 OA
BRANCH   4   5
ATOM      5  C   UNL A   1      32.922  27.849  25.596  1.00  0.00     0.368 C 
ATOM      6  O   UNL A   1      33.983  27.291  25.866  1.00  0.00    -0.245 OA
BRANCH   5   7
ATOM      7  C   UNL A   1      32.018  27.441  24.383  1.00  0.00     0.197 C 
ATOM      8  C   UNL A   1      32.553  26.433  23.283  1.00  0.00     0.068 C 
ATOM      9  C   UNL A   1      33.518  27.325  22.433  1.00  0.00     0.011 C 
ATOM     10  C   UNL A   1      33.182  28.777  22.708  1.00  0.00     0.008 C 
ATOM     11  C   UNL A   1      31.886  28.722  23.491  1.00  0.00     0.081 C 
BRANCH   8  12
ATOM     12  C   UNL A   1      33.215  25.018  23.280  1.00  0.00     0.072 C 
BRANCH  12  13
ATOM     13  C   UNL A   1      32.688  23.567  23.229  1.00  0.00     0.262 C 
BRANCH  13  14
ATOM     14  N   UNL A   1      33.370  22.358  23.696  1.00  0.00    -0.337 N 
ATOM     15  C   UNL A   1      32.437  21.351  24.195  1.00  0.00     0.332 C 
ATOM     16  H   UNL A   1      33.816  21.980  22.859  1.00  0.00     0.347 HD
BRANCH  14  17
ATOM     17  C   UNL A   1      34.459  22.599  24.628  1.00  0.00     0.261 C 
BRANCH  17  18
ATOM     18  C   UNL A   1      35.879  22.146  24.242  1.00  0.00     0.058 C 
ATOM     19  C   UNL A   1      36.653  22.952  23.216  1.00  0.00     0.010 C 
ENDBRANCH  17  18
ENDBRANCH  14  17
ENDBRANCH  13  14
ENDBRANCH  12  13
ENDBRANCH   8  12
BRANCH   7  20
ATOM     20  N   UNL A   1      30.653  27.090  24.859  1.00  0.00    -0.334 N 
ATOM     21  C   UNL A   1      30.528  25.822  25.571  1.00  0.00     0.331 C 
ATOM     22  H   UNL A   1      30.039  27.052  24.046  1.00  0.00     0.347 HD
ATOM     23  H   UNL A   1      30.407  27.809  25.538  1.00  0.00     0.347 HD
ENDBRANCH   7  20
ENDBRANCH   5   7
ENDBRANCH   4   5
ENDBRANCH   3   4
ENDBRANCH   2   3
ENDBRANCH   1   2
BRANCH   1  24
ATOM     24  C   UNL A   1      33.795  32.652  27.919  1.00  0.00     0.188 C 
BRANCH  24  25
ATOM     25  C   UNL A   1      34.236  33.826  28.809  1.00  0.00     0.188 C 
BRANCH  25  26
ATOM     26  O   UNL A   1      34.363  35.115  28.221  1.00  0.00    -0.376 OA
BRANCH  26  27
ATOM     27  C   UNL A   1      33.566  36.167  28.754  1.00  0.00     0.202 C 
BRANCH  27  28
ATOM     28  C   UNL A   1      32.530  35.734  29.796  1.00  0.00     0.261 C 
BRANCH  28  29
ATOM     29  O   UNL A   1      32.456  36.678  30.883  1.00  0.00    -0.460 OA
BRANCH  29  30
ATOM     30  C   UNL A   1      32.550  36.164  32.128  1.00  0.00     0.338 C 
ATOM     31  O   UNL A   1      31.714  36.224  33.022  1.00  0.00    -0.246 OA
BRANCH  30  32
ATOM     32  C   UNL A   1      33.747  35.305  32.223  1.00  0.00     0.060 A 
ATOM     33  C   UNL A   1      33.555  33.956  32.551  1.00  0.00     0.016 A 
ATOM     34  C   UNL A   1      35.037  35.806  32.037  1.00  0.00     0.016 A 
ATOM     35  C   UNL A   1      34.649  33.108  32.722  1.00  0.00     0.010 A 
ATOM     36  C   UNL A   1      36.137  34.959  32.234  1.00  0.00     0.010 A 
ATOM     37  C   UNL A   1      35.949  33.614  32.604  1.00  0.00    -0.014 A 
BRANCH  37  38
ATOM     38  C   UNL A   1      37.102  32.792  33.049  1.00  0.00     0.031 A 
ATOM     39  C   UNL A   1      37.718  33.085  34.389  1.00  0.00     0.074 A 
ATOM     40  C   UNL A   1      37.579  31.781  32.302  1.00  0.00     0.049 A 
ATOM     41  N   UNL A   1      38.791  32.581  34.944  1.00  0.00    -0.248 NA
ATOM     42  C   UNL A   1      37.021  34.080  35.220  1.00  0.00     0.031 C 
ATOM     43  C   UNL A   1      37.022  31.331  31.029  1.00  0.00     0.029 A 
ATOM     44  N   UNL A   1      38.656  30.953  32.513  1.00  0.00    -0.354 N 
ATOM     45  C   UNL A   1      38.906  33.209  36.178  1.00  0.00     0.074 A 
ATOM     46  C   UNL A   1      37.801  34.135  36.289  1.00  0.00     0.031 C 
ATOM     47  C   UNL A   1      37.777  30.322  30.559  1.00  0.00     0.029 A 
ATOM     48  C   UNL A   1      38.891  30.085  31.475  1.00  0.00     0.049 A 
ATOM     49  H   UNL A   1      39.205  30.980  33.329  1.00  0.00     0.167 HD
ATOM     50  C   UNL A   1      39.852  33.031  37.131  1.00  0.00     0.037 A 
ATOM     51  C   UNL A   1      39.912  29.229  31.274  1.00  0.00     0.037 A 
ATOM     52  C   UNL A   1      40.953  32.112  37.023  1.00  0.00     0.049 A 
ATOM     53  C   UNL A   1      41.010  29.121  32.304  1.00  0.00     0.074 A 
ATOM     54  C   UNL A   1      41.967  31.868  37.933  1.00  0.00     0.029 A 
ATOM     55  N   UNL A   1      41.186  31.285  35.934  1.00  0.00    -0.354 N 
ATOM     56  N   UNL A   1      41.128  29.729  33.460  1.00  0.00    -0.248 NA
ATOM     57  C   UNL A   1      42.124  28.210  31.995  1.00  0.00     0.031 C 
ATOM     58  C   UNL A   1      42.840  30.929  37.374  1.00  0.00     0.029 A 
ATOM     59  C   UNL A   1      42.342  30.548  36.138  1.00  0.00     0.049 A 
ATOM     60  H   UNL A   1      40.614  31.230  35.135  1.00  0.00     0.167 HD
ATOM     61  C   UNL A   1      42.308  29.259  34.024  1.00  0.00     0.074 A 
ATOM     62  C   UNL A   1      42.866  28.304  33.091  1.00  0.00     0.031 C 
ATOM     63  C   UNL A   1      42.880  29.591  35.207  1.00  0.00     0.037 A 
BRANCH  50  64
ATOM     64  C   UNL A   1      39.762  33.889  38.356  1.00  0.00     0.064 A 
ATOM     65  C   UNL A   1      40.445  35.109  38.457  1.00  0.00     0.173 A 
ATOM     66  C   UNL A   1      38.963  33.490  39.439  1.00  0.00     0.173 A 
ATOM     67  F   UNL A   1      41.236  35.525  37.456  1.00  0.00    -0.203 F 
ATOM     68  C   UNL A   1      40.350  35.888  39.607  1.00  0.00     0.198 A 
ATOM     69  C   UNL A   1      38.849  34.284  40.576  1.00  0.00     0.198 A 
ATOM     70  F   UNL A   1      38.288  32.331  39.390  1.00  0.00    -0.203 F 
ATOM     71  F   UNL A   1      41.047  37.029  39.701  1.00  0.00    -0.200 F 
ATOM     72  C   UNL A   1      39.548  35.479  40.663  1.00  0.00     0.200 A 
ATOM     73  F   UNL A   1      38.067  33.891  41.590  1.00  0.00    -0.200 F 
ATOM     74  F   UNL A   1      39.455  36.232  41.768  1.00  0.00    -0.200 F 
ENDBRANCH  50  64
BRANCH  51  75
ATOM     75  C   UNL A   1      39.980  28.429  30.021  1.00  0.00     0.064 A 
ATOM     76  C   UNL A   1      40.607  28.932  28.873  1.00  0.00     0.173 A 
ATOM     77  C   UNL A   1      39.380  27.164  29.936  1.00  0.00     0.173 A 
ATOM     78  F   UNL A   1      41.164  30.151  28.893  1.00  0.00    -0.203 F 
ATOM     79  C   UNL A   1      40.614  28.207  27.681  1.00  0.00     0.198 A 
ATOM     80  C   UNL A   1      39.413  26.429  28.754  1.00  0.00     0.198 A 
ATOM     81  F   UNL A   1      38.755  26.643  31.002  1.00  0.00    -0.203 F 
ATOM     82  F   UNL A   1      41.171  28.735  26.583  1.00  0.00    -0.200 F 
ATOM     83  C   UNL A   1      40.022  26.954  27.625  1.00  0.00     0.200 A 
ATOM     84  F   UNL A   1      38.845  25.216  28.704  1.00  0.00    -0.200 F 
ATOM     85  F   UNL A   1      40.026  26.261  26.478  1.00  0.00    -0.200 F 
ENDBRANCH  51  75
BRANCH  63  86
ATOM     86  C   UNL A   1      44.154  28.892  35.584  1.00  0.00     0.064 A 
ATOM     87  C   UNL A   1      44.151  27.690  36.306  1.00  0.00     0.173 A 
ATOM     88  C   UNL A   1      45.394  29.405  35.170  1.00  0.00     0.173 A 
ATOM     89  F   UNL A   1      42.994  27.165  36.736  1.00  0.00    -0.203 F 
ATOM     90  C   UNL A   1      45.342  27.039  36.618  1.00  0.00     0.198 A 
ATOM     91  C   UNL A   1      46.580  28.737  35.460  1.00  0.00     0.198 A 
ATOM     92  F   UNL A   1      45.453  30.548  34.469  1.00  0.00    -0.203 F 
ATOM     93  F   UNL A   1      45.317  25.913  37.346  1.00  0.00    -0.200 F 
ATOM     94  C   UNL A   1      46.553  27.558  36.188  1.00  0.00     0.200 A 
ATOM     95  F   UNL A   1      47.749  29.233  35.031  1.00  0.00    -0.200 F 
ATOM     96  F   UNL A   1      47.698  26.924  36.482  1.00  0.00    -0.200 F 
ENDBRANCH  63  86
ENDBRANCH  37  38
ENDBRANCH  30  32
ENDBRANCH  29  30
ENDBRANCH  28  29
ENDBRANCH  27  28
ENDBRANCH  26  27
ENDBRANCH  25  26
ENDBRANCH  24  25
ENDBRANCH   1  24
TORSDOF 23
ENDMDL
MODEL 3
REMARK VINA RESULT:      -8.9      1.028      7.379
REMARK SMILES CCC[N@@H+](C)CC[C@@H]1CCC[C@]1([NH2+]C)C(=O)OCCOCCOCCOC(=O)c1ccc(-c2c3nc(c(-c4c(F)c(F)c(F)c(F)c4F)c4ccc([nH]4)c(-c4c(F)c(F)c(F)c(F)c4F)c4nc(c(-c5c(F)c(F)c(F)c(F)c5F)c5ccc2[nH]5)C=C4)C=C3)cc1
REMARK SMILES IDX 20 1 19 2 18 3 17 4 15 5 16 6 12 7 8 8 9 9 10 10 11 11 7 12
REMARK SMILES IDX 6 13 4 14 5 15 3 17 2 18 1 19 13 20 14 21 21 24 22 25 23 26
REMARK SMILES IDX 24 27 25 28 26 29 27 30 28 31 29 32 30 33 91 34 31 35 90 36
REMARK SMILES IDX 32 37 33 38 34 39 84 40 35 41 89 42 83 43 85 44 36 45 88 46
REMARK SMILES IDX 82 47 81 48 37 50 69 51 49 52 68 53 50 54 53 55 67 56 86 57
REMARK SMILES IDX 51 58 52 59 66 61 87 62 54 63 38 64 39 65 47 66 40 67 41 68
REMARK SMILES IDX 45 69 48 70 42 71 43 72 46 73 44 74 70 75 71 76 79 77 72 78
REMARK SMILES IDX 73 79 77 80 80 81 74 82 75 83 78 84 76 85 55 86 56 87 64 88
REMARK SMILES IDX 57 89 58 90 62 91 65 92 59 93 60 94 63 95 61 96
REMARK H PARENT 4 16 13 22 13 23 85 49 53 60
REMARK Flexibility Score: inf
ROOT
ATOM      1  O   UNL A   1      34.905  20.453  25.133  1.00  0.00    -0.376 OA
ENDROOT
BRANCH   1   2
ATOM      2  C   UNL A   1      34.271  21.110  24.041  1.00  0.00     0.202 C 
BRANCH   2   3
ATOM      3  C   UNL A   1      32.772  21.354  24.224  1.00  0.00     0.261 C 
BRANCH   3   4
ATOM      4  O   UNL A   1      32.501  22.384  25.205  1.00  0.00    -0.459 OA
BRANCH   4   5
ATOM      5  C   UNL A   1      33.000  23.621  24.958  1.00  0.00     0.368 C 
ATOM      6  O   UNL A   1      34.106  23.983  25.352  1.00  0.00    -0.245 OA
BRANCH   5   7
ATOM      7  C   UNL A   1      31.970  24.585  24.277  1.00  0.00     0.197 C 
ATOM      8  C   UNL A   1      31.951  26.128  24.638  1.00  0.00     0.068 C 
ATOM      9  C   UNL A   1      31.249  26.152  26.036  1.00  0.00     0.011 C 
ATOM     10  C   UNL A   1      30.510  24.841  26.214  1.00  0.00     0.008 C 
ATOM     11  C   UNL A   1      30.565  24.189  24.846  1.00  0.00     0.081 C 
BRANCH   8  12
ATOM     12  C   UNL A   1      33.003  27.282  24.702  1.00  0.00     0.072 C 
BRANCH  12  13
ATOM     13  C   UNL A   1      33.028  28.762  24.261  1.00  0.00     0.262 C 
BRANCH  13  14
ATOM     14  N   UNL A   1      31.887  29.589  23.865  1.00  0.00    -0.337 N 
ATOM     15  C   UNL A   1      31.140  30.095  25.014  1.00  0.00     0.332 C 
ATOM     16  H   UNL A   1      32.308  30.390  23.392  1.00  0.00     0.347 HD
BRANCH  14  17
ATOM     17  C   UNL A   1      31.013  28.982  22.875  1.00  0.00     0.261 C 
BRANCH  17  18
ATOM     18  C   UNL A   1      29.507  28.884  23.177  1.00  0.00     0.058 C 
ATOM     19  C   UNL A   1      28.909  27.528  23.501  1.00  0.00     0.010 C 
ENDBRANCH  17  18
ENDBRANCH  14  17
ENDBRANCH  13  14
ENDBRANCH  12  13
ENDBRANCH   8  12
BRANCH   7  20
ATOM     20  N   UNL A   1      31.937  24.344  22.810  1.00  0.00    -0.334 N 
ATOM     21  C   UNL A   1      33.067  24.865  22.049  1.00  0.00     0.331 C 
ATOM     22  H   UNL A   1      31.089  24.774  22.442  1.00  0.00     0.347 HD
ATOM     23  H   UNL A   1      31.976  23.331  22.698  1.00  0.00     0.347 HD
ENDBRANCH   7  20
ENDBRANCH   5   7
ENDBRANCH   4   5
ENDBRANCH   3   4
ENDBRANCH   2   3
ENDBRANCH   1   2
BRANCH   1  24
ATOM     24  C   UNL A   1      35.999  21.117  25.750  1.00  0.00     0.188 C 
BRANCH  24  25
ATOM     25  C   UNL A   1      37.218  21.439  24.869  1.00  0.00     0.188 C 
BRANCH  25  26
ATOM     26  O   UNL A   1      38.518  21.177  25.383  1.00  0.00    -0.376 OA
BRANCH  26  27
ATOM     27  C   UNL A   1      38.974  19.828  25.375  1.00  0.00     0.202 C 
BRANCH  27  28
ATOM     28  C   UNL A   1      40.122  19.525  26.343  1.00  0.00     0.261 C 
BRANCH  28  29
ATOM     29  O   UNL A   1      41.281  19.033  25.639  1.00  0.00    -0.460 OA
BRANCH  29  30
ATOM     30  C   UNL A   1      42.481  19.421  26.121  1.00  0.00     0.338 C 
ATOM     31  O   UNL A   1      43.522  18.775  26.129  1.00  0.00    -0.246 OA
BRANCH  30  32
ATOM     32  C   UNL A   1      42.439  20.856  26.465  1.00  0.00     0.060 A 
ATOM     33  C   UNL A   1      42.238  21.770  25.422  1.00  0.00     0.016 A 
ATOM     34  C   UNL A   1      42.631  21.312  27.771  1.00  0.00     0.016 A 
ATOM     35  C   UNL A   1      42.255  23.142  25.671  1.00  0.00     0.010 A 
ATOM     36  C   UNL A   1      42.674  22.691  28.016  1.00  0.00     0.010 A 
ATOM     37  C   UNL A   1      42.513  23.612  26.964  1.00  0.00    -0.014 A 
BRANCH  37  38
ATOM     38  C   UNL A   1      42.801  25.053  27.178  1.00  0.00     0.031 A 
ATOM     39  C   UNL A   1      44.143  25.587  26.759  1.00  0.00     0.074 A 
ATOM     40  C   UNL A   1      41.886  25.886  27.703  1.00  0.00     0.049 A 
ATOM     41  N   UNL A   1      44.665  26.773  26.942  1.00  0.00    -0.248 NA
ATOM     42  C   UNL A   1      45.013  24.652  26.027  1.00  0.00     0.031 C 
ATOM     43  C   UNL A   1      40.519  25.522  28.069  1.00  0.00     0.029 A 
ATOM     44  N   UNL A   1      41.981  27.218  28.026  1.00  0.00    -0.354 N 
ATOM     45  C   UNL A   1      45.926  26.722  26.364  1.00  0.00     0.074 A 
ATOM     46  C   UNL A   1      46.097  25.388  25.830  1.00  0.00     0.031 C 
ATOM     47  C   UNL A   1      39.909  26.602  28.589  1.00  0.00     0.029 A 
ATOM     48  C   UNL A   1      40.854  27.717  28.632  1.00  0.00     0.049 A 
ATOM     49  H   UNL A   1      42.779  27.763  27.841  1.00  0.00     0.167 HD
ATOM     50  C   UNL A   1      46.861  27.700  26.287  1.00  0.00     0.037 A 
ATOM     51  C   UNL A   1      40.629  28.923  29.191  1.00  0.00     0.037 A 
ATOM     52  C   UNL A   1      46.695  29.027  26.816  1.00  0.00     0.049 A 
ATOM     53  C   UNL A   1      41.722  29.964  29.184  1.00  0.00     0.074 A 
ATOM     54  C   UNL A   1      47.589  30.083  26.795  1.00  0.00     0.029 A 
ATOM     55  N   UNL A   1      45.558  29.479  27.467  1.00  0.00    -0.354 N 
ATOM     56  N   UNL A   1      42.920  29.908  28.654  1.00  0.00    -0.248 NA
ATOM     57  C   UNL A   1      41.431  31.237  29.862  1.00  0.00     0.031 C 
ATOM     58  C   UNL A   1      47.011  31.160  27.475  1.00  0.00     0.029 A 
ATOM     59  C   UNL A   1      45.736  30.792  27.875  1.00  0.00     0.049 A 
ATOM     60  H   UNL A   1      44.743  28.947  27.618  1.00  0.00     0.167 HD
ATOM     61  C   UNL A   1      43.514  31.138  28.912  1.00  0.00     0.074 A 
ATOM     62  C   UNL A   1      42.540  31.928  29.633  1.00  0.00     0.031 C 
ATOM     63  C   UNL A   1      44.754  31.572  28.582  1.00  0.00     0.037 A 
BRANCH  50  64
ATOM     64  C   UNL A   1      48.170  27.350  25.646  1.00  0.00     0.064 A 
ATOM     65  C   UNL A   1      49.266  26.903  26.398  1.00  0.00     0.173 A 
ATOM     66  C   UNL A   1      48.322  27.447  24.255  1.00  0.00     0.173 A 
ATOM     67  F   UNL A   1      49.175  26.812  27.734  1.00  0.00    -0.203 F 
ATOM     68  C   UNL A   1      50.474  26.588  25.782  1.00  0.00     0.198 A 
ATOM     69  C   UNL A   1      49.523  27.105  23.640  1.00  0.00     0.198 A 
ATOM     70  F   UNL A   1      47.302  27.868  23.491  1.00  0.00    -0.203 F 
ATOM     71  F   UNL A   1      51.523  26.206  26.524  1.00  0.00    -0.200 F 
ATOM     72  C   UNL A   1      50.600  26.683  24.404  1.00  0.00     0.200 A 
ATOM     73  F   UNL A   1      49.638  27.189  22.308  1.00  0.00    -0.200 F 
ATOM     74  F   UNL A   1      51.763  26.376  23.812  1.00  0.00    -0.200 F 
ENDBRANCH  50  64
BRANCH  51  75
ATOM     75  C   UNL A   1      39.328  29.208  29.853  1.00  0.00     0.064 A 
ATOM     76  C   UNL A   1      38.264  29.783  29.145  1.00  0.00     0.173 A 
ATOM     77  C   UNL A   1      39.139  28.953  31.220  1.00  0.00     0.173 A 
ATOM     78  F   UNL A   1      38.406  30.078  27.845  1.00  0.00    -0.203 F 
ATOM     79  C   UNL A   1      37.067  30.108  29.783  1.00  0.00     0.198 A 
ATOM     80  C   UNL A   1      37.934  29.252  31.850  1.00  0.00     0.198 A 
ATOM     81  F   UNL A   1      40.131  28.417  31.947  1.00  0.00    -0.203 F 
ATOM     82  F   UNL A   1      36.085  30.706  29.095  1.00  0.00    -0.200 F 
ATOM     83  C   UNL A   1      36.901  29.836  31.133  1.00  0.00     0.200 A 
ATOM     84  F   UNL A   1      37.776  28.983  33.153  1.00  0.00    -0.200 F 
ATOM     85  F   UNL A   1      35.753  30.153  31.745  1.00  0.00    -0.200 F 
ENDBRANCH  51  75
BRANCH  63  86
ATOM     86  C   UNL A   1      45.122  32.978  28.961  1.00  0.00     0.064 A 
ATOM     87  C   UNL A   1      45.795  33.268  30.157  1.00  0.00     0.173 A 
ATOM     88  C   UNL A   1      44.843  34.043  28.090  1.00  0.00     0.173 A 
ATOM     89  F   UNL A   1      46.074  32.287  31.028  1.00  0.00    -0.203 F 
ATOM     90  C   UNL A   1      46.157  34.574  30.476  1.00  0.00     0.198 A 
ATOM     91  C   UNL A   1      45.231  35.344  28.400  1.00  0.00     0.198 A 
ATOM     92  F   UNL A   1      44.207  33.820  26.929  1.00  0.00    -0.203 F 
ATOM     93  F   UNL A   1      46.763  34.833  31.643  1.00  0.00    -0.200 F 
ATOM     94  C   UNL A   1      45.882  35.609  29.595  1.00  0.00     0.200 A 
ATOM     95  F   UNL A   1      44.977  36.340  27.541  1.00  0.00    -0.200 F 
ATOM     96  F   UNL A   1      46.240  36.864  29.900  1.00  0.00    -0.200 F 
ENDBRANCH  63  86
ENDBRANCH  37  38
ENDBRANCH  30  32
ENDBRANCH  29  30
ENDBRANCH  28  29
ENDBRANCH  27  28
ENDBRANCH  26  27
ENDBRANCH  25  26
ENDBRANCH  24  25
ENDBRANCH   1  24
TORSDOF 23
ENDMDL
