MODEL 1
REMARK VINA RESULT:     -10.1      0.000      0.000
REMARK SMILES O=C(OCCOCCOCCOC(=O)[C@H](CCO)NC(=O)c1cccc(C(F)(F)F)c1F)c1ccc(-c2c3nc(c(-c4c(F)c(F)c(F)c(F)c4F)c4ccc([nH]4)c(-c4c(F)c(F)c(F)c(F)c4F)c4nc(c(-c5c(F)c(F)c(F)c(F)c5F)c5ccc2[nH]5)C=C4)C=C3)cc1
REMARK SMILES IDX 8 1 7 2 6 3 5 4 4 5 3 6 2 7 1 8 33 9 34 10 95 11 35 12 94 13
REMARK SMILES IDX 36 14 37 15 38 16 88 17 39 18 93 19 87 20 89 21 40 22 92 23
REMARK SMILES IDX 86 24 85 25 41 27 73 28 53 29 72 30 54 31 57 32 71 33 90 34
REMARK SMILES IDX 55 35 56 36 70 38 91 39 58 40 42 41 43 42 51 43 44 44 45 45
REMARK SMILES IDX 49 46 52 47 46 48 47 49 50 50 48 51 74 52 75 53 83 54 76 55
REMARK SMILES IDX 77 56 81 57 84 58 78 59 79 60 82 61 80 62 59 63 60 64 68 65
REMARK SMILES IDX 61 66 62 67 66 68 69 69 63 70 64 71 67 72 65 73 9 74 10 75
REMARK SMILES IDX 11 76 12 77 13 78 14 79 15 80 19 81 20 82 21 84 22 85 23 86
REMARK SMILES IDX 31 87 24 88 26 89 32 90 25 91 27 92 28 93 29 94 30 95 16 96
REMARK SMILES IDX 17 97 18 98
REMARK H PARENT 89 26 57 37 19 83 18 99
REMARK Flexibility Score: inf
ROOT
ATOM      1  C   UNL A   1      34.064  31.973  28.066  1.00  0.00     0.188 C 
ENDROOT
BRANCH   1   2
ATOM      2  C   UNL A   1      34.360  33.318  28.725  1.00  0.00     0.188 C 
BRANCH   2   3
ATOM      3  O   UNL A   1      33.225  34.198  28.724  1.00  0.00    -0.376 OA
BRANCH   3   4
ATOM      4  C   UNL A   1      33.606  35.577  28.820  1.00  0.00     0.202 C 
BRANCH   4   5
ATOM      5  C   UNL A   1      32.532  36.493  29.427  1.00  0.00     0.261 C 
BRANCH   5   6
ATOM      6  O   UNL A   1      32.709  36.704  30.840  1.00  0.00    -0.460 OA
BRANCH   6   7
ATOM      7  C   UNL A   1      32.676  35.796  31.848  1.00  0.00     0.338 C 
ATOM      8  O   UNL A   1      31.637  35.676  32.496  1.00  0.00    -0.246 OA
BRANCH   7   9
ATOM      9  C   UNL A   1      33.809  34.879  32.181  1.00  0.00     0.060 A 
ATOM     10  C   UNL A   1      33.673  33.591  32.694  1.00  0.00     0.016 A 
ATOM     11  C   UNL A   1      35.112  35.342  31.918  1.00  0.00     0.016 A 
ATOM     12  C   UNL A   1      34.785  32.850  33.081  1.00  0.00     0.010 A 
ATOM     13  C   UNL A   1      36.240  34.571  32.235  1.00  0.00     0.010 A 
ATOM     14  C   UNL A   1      36.077  33.336  32.867  1.00  0.00    -0.014 A 
BRANCH  14  15
ATOM     15  C   UNL A   1      37.206  32.543  33.407  1.00  0.00     0.031 A 
ATOM     16  C   UNL A   1      37.888  31.538  32.530  1.00  0.00     0.074 A 
ATOM     17  C   UNL A   1      37.766  32.886  34.581  1.00  0.00     0.049 A 
ATOM     18  N   UNL A   1      38.996  30.879  32.748  1.00  0.00    -0.248 NA
ATOM     19  C   UNL A   1      37.275  31.281  31.219  1.00  0.00     0.031 C 
ATOM     20  C   UNL A   1      37.286  33.959  35.446  1.00  0.00     0.029 A 
ATOM     21  N   UNL A   1      38.901  32.430  35.207  1.00  0.00    -0.354 N 
ATOM     22  C   UNL A   1      39.224  30.143  31.597  1.00  0.00     0.074 A 
ATOM     23  C   UNL A   1      38.131  30.419  30.690  1.00  0.00     0.031 C 
ATOM     24  C   UNL A   1      38.156  34.114  36.453  1.00  0.00     0.029 A 
ATOM     25  C   UNL A   1      39.219  33.133  36.342  1.00  0.00     0.049 A 
ATOM     26  H   UNL A   1      39.434  31.673  34.873  1.00  0.00     0.167 HD
ATOM     27  C   UNL A   1      40.258  29.316  31.321  1.00  0.00     0.037 A 
ATOM     28  C   UNL A   1      40.251  33.013  37.197  1.00  0.00     0.037 A 
ATOM     29  C   UNL A   1      41.339  29.022  32.222  1.00  0.00     0.049 A 
ATOM     30  C   UNL A   1      41.304  31.988  36.929  1.00  0.00     0.074 A 
ATOM     31  C   UNL A   1      42.377  28.120  32.059  1.00  0.00     0.029 A 
ATOM     32  N   UNL A   1      41.525  29.623  33.458  1.00  0.00    -0.354 N 
ATOM     33  N   UNL A   1      41.451  31.219  35.882  1.00  0.00    -0.248 NA
ATOM     34  C   UNL A   1      42.333  31.820  37.964  1.00  0.00     0.031 C 
ATOM     35  C   UNL A   1      43.166  28.143  33.216  1.00  0.00     0.029 A 
ATOM     36  C   UNL A   1      42.644  29.089  34.080  1.00  0.00     0.049 A 
ATOM     37  H   UNL A   1      40.948  30.324  33.837  1.00  0.00     0.167 HD
ATOM     38  C   UNL A   1      42.583  30.464  36.133  1.00  0.00     0.074 A 
ATOM     39  C   UNL A   1      43.108  30.898  37.412  1.00  0.00     0.031 C 
ATOM     40  C   UNL A   1      43.128  29.488  35.373  1.00  0.00     0.037 A 
BRANCH  27  41
ATOM     41  C   UNL A   1      40.227  28.617  30.001  1.00  0.00     0.064 A 
ATOM     42  C   UNL A   1      39.550  27.397  29.872  1.00  0.00     0.173 A 
ATOM     43  C   UNL A   1      40.880  29.136  28.875  1.00  0.00     0.173 A 
ATOM     44  F   UNL A   1      38.901  26.872  30.923  1.00  0.00    -0.203 F 
ATOM     45  C   UNL A   1      39.540  26.711  28.663  1.00  0.00     0.198 A 
ATOM     46  C   UNL A   1      40.851  28.456  27.661  1.00  0.00     0.198 A 
ATOM     47  F   UNL A   1      41.513  30.318  28.945  1.00  0.00    -0.203 F 
ATOM     48  F   UNL A   1      38.900  25.537  28.567  1.00  0.00    -0.200 F 
ATOM     49  C   UNL A   1      40.189  27.241  27.559  1.00  0.00     0.200 A 
ATOM     50  F   UNL A   1      41.455  28.982  26.585  1.00  0.00    -0.200 F 
ATOM     51  F   UNL A   1      40.170  26.583  26.391  1.00  0.00    -0.200 F 
ENDBRANCH  27  41
BRANCH  28  52
ATOM     52  C   UNL A   1      40.349  33.848  38.418  1.00  0.00     0.064 A 
ATOM     53  C   UNL A   1      39.694  33.463  39.595  1.00  0.00     0.173 A 
ATOM     54  C   UNL A   1      41.146  35.001  38.452  1.00  0.00     0.173 A 
ATOM     55  F   UNL A   1      38.916  32.372  39.604  1.00  0.00    -0.203 F 
ATOM     56  C   UNL A   1      39.820  34.212  40.763  1.00  0.00     0.198 A 
ATOM     57  C   UNL A   1      41.271  35.750  39.622  1.00  0.00     0.198 A 
ATOM     58  F   UNL A   1      41.808  35.390  37.353  1.00  0.00    -0.203 F 
ATOM     59  F   UNL A   1      39.140  33.853  41.861  1.00  0.00    -0.200 F 
ATOM     60  C   UNL A   1      40.605  35.356  40.775  1.00  0.00     0.200 A 
ATOM     61  F   UNL A   1      42.021  36.859  39.629  1.00  0.00    -0.200 F 
ATOM     62  F   UNL A   1      40.688  36.100  41.886  1.00  0.00    -0.200 F 
ENDBRANCH  28  52
BRANCH  40  63
ATOM     63  C   UNL A   1      44.331  28.803  35.939  1.00  0.00     0.064 A 
ATOM     64  C   UNL A   1      45.617  29.316  35.725  1.00  0.00     0.173 A 
ATOM     65  C   UNL A   1      44.199  27.648  36.726  1.00  0.00     0.173 A 
ATOM     66  F   UNL A   1      45.790  30.422  34.987  1.00  0.00    -0.203 F 
ATOM     67  C   UNL A   1      46.730  28.700  36.286  1.00  0.00     0.198 A 
ATOM     68  C   UNL A   1      45.312  27.051  37.307  1.00  0.00     0.198 A 
ATOM     69  F   UNL A   1      42.983  27.141  36.981  1.00  0.00    -0.203 F 
ATOM     70  F   UNL A   1      47.953  29.204  36.070  1.00  0.00    -0.200 F 
ATOM     71  C   UNL A   1      46.576  27.574  37.084  1.00  0.00     0.200 A 
ATOM     72  F   UNL A   1      45.157  25.987  38.108  1.00  0.00    -0.200 F 
ATOM     73  F   UNL A   1      47.647  27.004  37.652  1.00  0.00    -0.200 F 
ENDBRANCH  40  63
ENDBRANCH  14  15
ENDBRANCH   7   9
ENDBRANCH   6   7
ENDBRANCH   5   6
ENDBRANCH   4   5
ENDBRANCH   3   4
ENDBRANCH   2   3
ENDBRANCH   1   2
BRANCH   1  74
ATOM     74  O   UNL A   1      35.183  31.209  27.628  1.00  0.00    -0.376 OA
BRANCH  74  75
ATOM     75  C   UNL A   1      35.132  29.796  27.776  1.00  0.00     0.202 C 
BRANCH  75  76
ATOM     76  C   UNL A   1      34.563  28.965  26.618  1.00  0.00     0.261 C 
BRANCH  76  77
ATOM     77  O   UNL A   1      33.221  28.487  26.794  1.00  0.00    -0.462 OA
BRANCH  77  78
ATOM     78  C   UNL A   1      32.397  28.731  25.732  1.00  0.00     0.328 C 
ATOM     79  O   UNL A   1      32.452  29.715  25.005  1.00  0.00    -0.250 OA
BRANCH  78  80
ATOM     80  C   UNL A   1      31.372  27.604  25.565  1.00  0.00     0.194 C 
BRANCH  80  81
ATOM     81  N   UNL A   1      31.631  27.036  24.232  1.00  0.00    -0.338 N 
ATOM     82  C   UNL A   1      30.999  27.312  23.042  1.00  0.00     0.254 C 
ATOM     83  H   UNL A   1      32.353  26.368  24.186  1.00  0.00     0.164 HD
ATOM     84  O   UNL A   1      31.459  26.962  21.976  1.00  0.00    -0.269 OA
BRANCH  82  85
ATOM     85  C   UNL A   1      29.660  27.903  23.096  1.00  0.00     0.076 A 
ATOM     86  C   UNL A   1      28.624  27.063  23.506  1.00  0.00     0.017 A 
ATOM     87  C   UNL A   1      29.446  29.262  22.867  1.00  0.00     0.148 A 
ATOM     88  C   UNL A   1      27.360  27.597  23.691  1.00  0.00     0.002 A 
ATOM     89  C   UNL A   1      28.206  29.820  23.123  1.00  0.00     0.092 A 
ATOM     90  F   UNL A   1      30.457  30.060  22.500  1.00  0.00    -0.205 F 
ATOM     91  C   UNL A   1      27.160  28.963  23.484  1.00  0.00     0.016 A 
BRANCH  89  92
ATOM     92  C   UNL A   1      28.045  31.311  23.187  1.00  0.00     0.419 C 
ATOM     93  F   UNL A   1      29.075  31.917  23.847  1.00  0.00    -0.166 F 
ATOM     94  F   UNL A   1      28.045  31.864  21.940  1.00  0.00    -0.166 F 
ATOM     95  F   UNL A   1      26.908  31.732  23.793  1.00  0.00    -0.166 F 
ENDBRANCH  89  92
ENDBRANCH  82  85
ENDBRANCH  80  81
BRANCH  80  96
ATOM     96  C   UNL A   1      31.465  26.541  26.660  1.00  0.00     0.065 C 
BRANCH  96  97
ATOM     97  C   UNL A   1      32.200  25.290  26.175  1.00  0.00     0.159 C 
BRANCH  97  98
ATOM     98  O   UNL A   1      33.598  25.490  26.043  1.00  0.00    -0.396 OA
ATOM     99  H   UNL A   1      34.022  24.651  25.802  1.00  0.00     0.210 HD
ENDBRANCH  97  98
ENDBRANCH  96  97
ENDBRANCH  80  96
ENDBRANCH  78  80
ENDBRANCH  77  78
ENDBRANCH  76  77
ENDBRANCH  75  76
ENDBRANCH  74  75
ENDBRANCH   1  74
TORSDOF 23
ENDMDL
MODEL 2
REMARK VINA RESULT:      -9.9      2.385      3.741
REMARK SMILES O=C(OCCOCCOCCOC(=O)[C@H](CCO)NC(=O)c1cccc(C(F)(F)F)c1F)c1ccc(-c2c3nc(c(-c4c(F)c(F)c(F)c(F)c4F)c4ccc([nH]4)c(-c4c(F)c(F)c(F)c(F)c4F)c4nc(c(-c5c(F)c(F)c(F)c(F)c5F)c5ccc2[nH]5)C=C4)C=C3)cc1
REMARK SMILES IDX 8 1 7 2 6 3 5 4 4 5 3 6 2 7 1 8 33 9 34 10 95 11 35 12 94 13
REMARK SMILES IDX 36 14 37 15 38 16 88 17 39 18 93 19 87 20 89 21 40 22 92 23
REMARK SMILES IDX 86 24 85 25 41 27 73 28 53 29 72 30 54 31 57 32 71 33 90 34
REMARK SMILES IDX 55 35 56 36 70 38 91 39 58 40 42 41 43 42 51 43 44 44 45 45
REMARK SMILES IDX 49 46 52 47 46 48 47 49 50 50 48 51 74 52 75 53 83 54 76 55
REMARK SMILES IDX 77 56 81 57 84 58 78 59 79 60 82 61 80 62 59 63 60 64 68 65
REMARK SMILES IDX 61 66 62 67 66 68 69 69 63 70 64 71 67 72 65 73 9 74 10 75
REMARK SMILES IDX 11 76 12 77 13 78 14 79 15 80 19 81 20 82 21 84 22 85 23 86
REMARK SMILES IDX 31 87 24 88 26 89 32 90 25 91 27 92 28 93 29 94 30 95 16 96
REMARK SMILES IDX 17 97 18 98
REMARK H PARENT 89 26 57 37 19 83 18 99
REMARK Flexibility Score: inf
ROOT
ATOM      1  C   UNL A   1      34.008  31.842  27.964  1.00  0.00     0.188 C 
ENDROOT
BRANCH   1   2
ATOM      2  C   UNL A   1      34.389  33.179  28.597  1.00  0.00     0.188 C 
BRANCH   2   3
ATOM      3  O   UNL A   1      33.333  34.148  28.524  1.00  0.00    -0.376 OA
BRANCH   3   4
ATOM      4  C   UNL A   1      33.798  35.479  28.786  1.00  0.00     0.202 C 
BRANCH   4   5
ATOM      5  C   UNL A   1      32.735  36.419  29.375  1.00  0.00     0.261 C 
BRANCH   5   6
ATOM      6  O   UNL A   1      32.869  36.596  30.797  1.00  0.00    -0.460 OA
BRANCH   6   7
ATOM      7  C   UNL A   1      32.837  35.660  31.779  1.00  0.00     0.338 C 
ATOM      8  O   UNL A   1      31.792  35.505  32.410  1.00  0.00    -0.246 OA
BRANCH   7   9
ATOM      9  C   UNL A   1      33.980  34.750  32.101  1.00  0.00     0.060 A 
ATOM     10  C   UNL A   1      33.858  33.445  32.570  1.00  0.00     0.016 A 
ATOM     11  C   UNL A   1      35.279  35.242  31.872  1.00  0.00     0.016 A 
ATOM     12  C   UNL A   1      34.976  32.710  32.951  1.00  0.00     0.010 A 
ATOM     13  C   UNL A   1      36.415  34.479  32.182  1.00  0.00     0.010 A 
ATOM     14  C   UNL A   1      36.263  33.222  32.773  1.00  0.00    -0.014 A 
BRANCH  14  15
ATOM     15  C   UNL A   1      37.396  32.431  33.305  1.00  0.00     0.031 A 
ATOM     16  C   UNL A   1      38.067  31.420  32.426  1.00  0.00     0.074 A 
ATOM     17  C   UNL A   1      37.969  32.779  34.471  1.00  0.00     0.049 A 
ATOM     18  N   UNL A   1      39.176  30.760  32.636  1.00  0.00    -0.248 NA
ATOM     19  C   UNL A   1      37.440  31.156  31.123  1.00  0.00     0.031 C 
ATOM     20  C   UNL A   1      37.500  33.858  35.335  1.00  0.00     0.029 A 
ATOM     21  N   UNL A   1      39.110  32.325  35.087  1.00  0.00    -0.354 N 
ATOM     22  C   UNL A   1      39.391  30.017  31.487  1.00  0.00     0.074 A 
ATOM     23  C   UNL A   1      38.289  30.290  30.589  1.00  0.00     0.031 C 
ATOM     24  C   UNL A   1      38.381  34.017  36.332  1.00  0.00     0.029 A 
ATOM     25  C   UNL A   1      39.442  33.034  36.215  1.00  0.00     0.049 A 
ATOM     26  H   UNL A   1      39.638  31.565  34.752  1.00  0.00     0.167 HD
ATOM     27  C   UNL A   1      40.421  29.187  31.204  1.00  0.00     0.037 A 
ATOM     28  C   UNL A   1      40.483  32.917  37.059  1.00  0.00     0.037 A 
ATOM     29  C   UNL A   1      41.511  28.896  32.095  1.00  0.00     0.049 A 
ATOM     30  C   UNL A   1      41.530  31.889  36.785  1.00  0.00     0.074 A 
ATOM     31  C   UNL A   1      42.545  27.992  31.926  1.00  0.00     0.029 A 
ATOM     32  N   UNL A   1      41.711  29.504  33.325  1.00  0.00    -0.354 N 
ATOM     33  N   UNL A   1      41.666  31.114  35.741  1.00  0.00    -0.248 NA
ATOM     34  C   UNL A   1      42.571  31.724  37.810  1.00  0.00     0.031 C 
ATOM     35  C   UNL A   1      43.347  28.020  33.074  1.00  0.00     0.029 A 
ATOM     36  C   UNL A   1      42.836  28.972  33.938  1.00  0.00     0.049 A 
ATOM     37  H   UNL A   1      41.139  30.208  33.707  1.00  0.00     0.167 HD
ATOM     38  C   UNL A   1      42.799  30.358  35.984  1.00  0.00     0.074 A 
ATOM     39  C   UNL A   1      43.338  30.798  37.255  1.00  0.00     0.031 C 
ATOM     40  C   UNL A   1      43.335  29.377  35.223  1.00  0.00     0.037 A 
BRANCH  27  41
ATOM     41  C   UNL A   1      40.375  28.481  29.888  1.00  0.00     0.064 A 
ATOM     42  C   UNL A   1      39.652  27.287  29.761  1.00  0.00     0.173 A 
ATOM     43  C   UNL A   1      41.057  28.967  28.765  1.00  0.00     0.173 A 
ATOM     44  F   UNL A   1      38.973  26.796  30.809  1.00  0.00    -0.203 F 
ATOM     45  C   UNL A   1      39.626  26.594  28.556  1.00  0.00     0.198 A 
ATOM     46  C   UNL A   1      41.013  28.280  27.555  1.00  0.00     0.198 A 
ATOM     47  F   UNL A   1      41.735  30.124  28.833  1.00  0.00    -0.203 F 
ATOM     48  F   UNL A   1      38.941  25.445  28.462  1.00  0.00    -0.200 F 
ATOM     49  C   UNL A   1      40.305  27.091  27.455  1.00  0.00     0.200 A 
ATOM     50  F   UNL A   1      41.646  28.775  26.482  1.00  0.00    -0.200 F 
ATOM     51  F   UNL A   1      40.270  26.426  26.292  1.00  0.00    -0.200 F 
ENDBRANCH  27  41
BRANCH  28  52
ATOM     52  C   UNL A   1      40.595  33.758  38.274  1.00  0.00     0.064 A 
ATOM     53  C   UNL A   1      41.412  34.896  38.276  1.00  0.00     0.173 A 
ATOM     54  C   UNL A   1      39.844  33.482  39.426  1.00  0.00     0.173 A 
ATOM     55  F   UNL A   1      42.153  35.192  37.200  1.00  0.00    -0.203 F 
ATOM     56  C   UNL A   1      41.486  35.723  39.395  1.00  0.00     0.198 A 
ATOM     57  C   UNL A   1      39.919  34.311  40.545  1.00  0.00     0.198 A 
ATOM     58  F   UNL A   1      39.032  32.415  39.455  1.00  0.00    -0.203 F 
ATOM     59  F   UNL A   1      42.315  36.776  39.392  1.00  0.00    -0.200 F 
ATOM     60  C   UNL A   1      40.742  35.429  40.529  1.00  0.00     0.200 A 
ATOM     61  F   UNL A   1      39.209  34.019  41.642  1.00  0.00    -0.200 F 
ATOM     62  F   UNL A   1      40.850  36.199  41.620  1.00  0.00    -0.200 F 
ENDBRANCH  28  52
BRANCH  40  63
ATOM     63  C   UNL A   1      44.542  28.693  35.781  1.00  0.00     0.064 A 
ATOM     64  C   UNL A   1      44.415  27.548  36.577  1.00  0.00     0.173 A 
ATOM     65  C   UNL A   1      45.834  29.162  35.492  1.00  0.00     0.173 A 
ATOM     66  F   UNL A   1      43.201  27.060  36.871  1.00  0.00    -0.203 F 
ATOM     67  C   UNL A   1      45.541  26.890  37.061  1.00  0.00     0.198 A 
ATOM     68  C   UNL A   1      46.956  28.485  35.955  1.00  0.00     0.198 A 
ATOM     69  F   UNL A   1      46.002  30.237  34.707  1.00  0.00    -0.203 F 
ATOM     70  F   UNL A   1      45.400  25.797  37.823  1.00  0.00    -0.200 F 
ATOM     71  C   UNL A   1      46.809  27.354  36.743  1.00  0.00     0.200 A 
ATOM     72  F   UNL A   1      48.181  28.912  35.615  1.00  0.00    -0.200 F 
ATOM     73  F   UNL A   1      47.892  26.697  37.180  1.00  0.00    -0.200 F 
ENDBRANCH  40  63
ENDBRANCH  14  15
ENDBRANCH   7   9
ENDBRANCH   6   7
ENDBRANCH   5   6
ENDBRANCH   4   5
ENDBRANCH   3   4
ENDBRANCH   2   3
ENDBRANCH   1   2
BRANCH   1  74
ATOM     74  O   UNL A   1      35.077  30.988  27.565  1.00  0.00    -0.376 OA
BRANCH  74  75
ATOM     75  C   UNL A   1      34.780  29.628  27.279  1.00  0.00     0.202 C 
BRANCH  75  76
ATOM     76  C   UNL A   1      33.307  29.216  27.161  1.00  0.00     0.261 C 
BRANCH  76  77
ATOM     77  O   UNL A   1      33.061  27.951  26.530  1.00  0.00    -0.462 OA
BRANCH  77  78
ATOM     78  C   UNL A   1      31.799  27.467  26.719  1.00  0.00     0.328 C 
ATOM     79  O   UNL A   1      31.040  27.802  27.620  1.00  0.00    -0.250 OA
BRANCH  78  80
ATOM     80  C   UNL A   1      31.444  26.429  25.649  1.00  0.00     0.194 C 
BRANCH  80  81
ATOM     81  N   UNL A   1      30.667  25.394  26.352  1.00  0.00    -0.338 N 
ATOM     82  C   UNL A   1      30.922  24.047  26.451  1.00  0.00     0.254 C 
ATOM     83  H   UNL A   1      29.856  25.710  26.812  1.00  0.00     0.164 HD
ATOM     84  O   UNL A   1      30.345  23.343  27.253  1.00  0.00    -0.269 OA
BRANCH  82  85
ATOM     85  C   UNL A   1      31.796  23.437  25.446  1.00  0.00     0.076 A 
ATOM     86  C   UNL A   1      31.211  23.126  24.217  1.00  0.00     0.017 A 
ATOM     87  C   UNL A   1      33.166  23.285  25.658  1.00  0.00     0.148 A 
ATOM     88  C   UNL A   1      32.014  22.659  23.190  1.00  0.00     0.002 A 
ATOM     89  C   UNL A   1      33.988  22.894  24.616  1.00  0.00     0.092 A 
ATOM     90  F   UNL A   1      33.715  23.614  26.833  1.00  0.00    -0.205 F 
ATOM     91  C   UNL A   1      33.388  22.534  23.403  1.00  0.00     0.016 A 
BRANCH  89  92
ATOM     92  C   UNL A   1      35.478  23.030  24.735  1.00  0.00     0.419 C 
ATOM     93  F   UNL A   1      35.859  24.299  25.061  1.00  0.00    -0.166 F 
ATOM     94  F   UNL A   1      35.969  22.240  25.733  1.00  0.00    -0.166 F 
ATOM     95  F   UNL A   1      36.167  22.703  23.614  1.00  0.00    -0.166 F 
ENDBRANCH  89  92
ENDBRANCH  82  85
ENDBRANCH  80  81
BRANCH  80  96
ATOM     96  C   UNL A   1      30.664  27.021  24.475  1.00  0.00     0.065 C 
BRANCH  96  97
ATOM     97  C   UNL A   1      31.526  27.122  23.215  1.00  0.00     0.159 C 
BRANCH  97  98
ATOM     98  O   UNL A   1      30.813  27.635  22.101  1.00  0.00    -0.396 OA
ATOM     99  H   UNL A   1      30.057  28.157  22.414  1.00  0.00     0.210 HD
ENDBRANCH  97  98
ENDBRANCH  96  97
ENDBRANCH  80  96
ENDBRANCH  78  80
ENDBRANCH  77  78
ENDBRANCH  76  77
ENDBRANCH  75  76
ENDBRANCH  74  75
ENDBRANCH   1  74
TORSDOF 23
ENDMDL
MODEL 3
REMARK VINA RESULT:      -9.8      7.187     12.283
REMARK SMILES O=C(OCCOCCOCCOC(=O)[C@H](CCO)NC(=O)c1cccc(C(F)(F)F)c1F)c1ccc(-c2c3nc(c(-c4c(F)c(F)c(F)c(F)c4F)c4ccc([nH]4)c(-c4c(F)c(F)c(F)c(F)c4F)c4nc(c(-c5c(F)c(F)c(F)c(F)c5F)c5ccc2[nH]5)C=C4)C=C3)cc1
REMARK SMILES IDX 8 1 7 2 6 3 5 4 4 5 3 6 2 7 1 8 33 9 34 10 95 11 35 12 94 13
REMARK SMILES IDX 36 14 37 15 38 16 88 17 39 18 93 19 87 20 89 21 40 22 92 23
REMARK SMILES IDX 86 24 85 25 41 27 73 28 53 29 72 30 54 31 57 32 71 33 90 34
REMARK SMILES IDX 55 35 56 36 70 38 91 39 58 40 42 41 43 42 51 43 44 44 45 45
REMARK SMILES IDX 49 46 52 47 46 48 47 49 50 50 48 51 74 52 75 53 83 54 76 55
REMARK SMILES IDX 77 56 81 57 84 58 78 59 79 60 82 61 80 62 59 63 60 64 68 65
REMARK SMILES IDX 61 66 62 67 66 68 69 69 63 70 64 71 67 72 65 73 9 74 10 75
REMARK SMILES IDX 11 76 12 77 13 78 14 79 15 80 19 81 20 82 21 84 22 85 23 86
REMARK SMILES IDX 31 87 24 88 26 89 32 90 25 91 27 92 28 93 29 94 30 95 16 96
REMARK SMILES IDX 17 97 18 98
REMARK H PARENT 89 26 57 37 19 83 18 99
REMARK Flexibility Score: inf
ROOT
ATOM      1  C   UNL A   1      38.862  21.036  25.740  1.00  0.00     0.188 C 
ENDROOT
BRANCH   1   2
ATOM      2  C   UNL A   1      40.079  21.724  26.354  1.00  0.00     0.188 C 
BRANCH   2   3
ATOM      3  O   UNL A   1      41.311  21.063  26.032  1.00  0.00    -0.376 OA
BRANCH   3   4
ATOM      4  C   UNL A   1      41.580  19.959  26.907  1.00  0.00     0.202 C 
BRANCH   4   5
ATOM      5  C   UNL A   1      42.328  18.791  26.246  1.00  0.00     0.261 C 
BRANCH   5   6
ATOM      6  O   UNL A   1      42.937  19.153  24.993  1.00  0.00    -0.460 OA
BRANCH   6   7
ATOM      7  C   UNL A   1      44.197  19.598  24.756  1.00  0.00     0.338 C 
ATOM      8  O   UNL A   1      45.010  18.820  24.257  1.00  0.00    -0.246 OA
BRANCH   7   9
ATOM      9  C   UNL A   1      44.646  21.003  25.001  1.00  0.00     0.060 A 
ATOM     10  C   UNL A   1      45.223  21.466  26.180  1.00  0.00     0.016 A 
ATOM     11  C   UNL A   1      44.508  21.917  23.939  1.00  0.00     0.016 A 
ATOM     12  C   UNL A   1      45.507  22.815  26.361  1.00  0.00     0.010 A 
ATOM     13  C   UNL A   1      44.863  23.267  24.086  1.00  0.00     0.010 A 
ATOM     14  C   UNL A   1      45.319  23.731  25.322  1.00  0.00    -0.014 A 
BRANCH  14  15
ATOM     15  C   UNL A   1      45.536  25.165  25.623  1.00  0.00     0.031 A 
ATOM     16  C   UNL A   1      44.440  25.958  26.266  1.00  0.00     0.074 A 
ATOM     17  C   UNL A   1      46.774  25.686  25.545  1.00  0.00     0.049 A 
ATOM     18  N   UNL A   1      44.489  27.163  26.770  1.00  0.00    -0.248 NA
ATOM     19  C   UNL A   1      43.138  25.292  26.407  1.00  0.00     0.031 C 
ATOM     20  C   UNL A   1      47.953  24.959  25.087  1.00  0.00     0.029 A 
ATOM     21  N   UNL A   1      47.261  26.914  25.923  1.00  0.00    -0.354 N 
ATOM     22  C   UNL A   1      43.233  27.395  27.305  1.00  0.00     0.074 A 
ATOM     23  C   UNL A   1      42.435  26.215  27.047  1.00  0.00     0.031 C 
ATOM     24  C   UNL A   1      49.029  25.735  25.271  1.00  0.00     0.029 A 
ATOM     25  C   UNL A   1      48.624  27.022  25.805  1.00  0.00     0.049 A 
ATOM     26  H   UNL A   1      46.687  27.646  26.246  1.00  0.00     0.167 HD
ATOM     27  C   UNL A   1      42.788  28.492  27.959  1.00  0.00     0.037 A 
ATOM     28  C   UNL A   1      49.460  28.034  26.098  1.00  0.00     0.037 A 
ATOM     29  C   UNL A   1      43.567  29.675  28.204  1.00  0.00     0.049 A 
ATOM     30  C   UNL A   1      48.907  29.287  26.693  1.00  0.00     0.074 A 
ATOM     31  C   UNL A   1      43.164  30.871  28.774  1.00  0.00     0.029 A 
ATOM     32  N   UNL A   1      44.911  29.815  27.895  1.00  0.00    -0.354 N 
ATOM     33  N   UNL A   1      47.689  29.533  27.098  1.00  0.00    -0.248 NA
ATOM     34  C   UNL A   1      49.850  30.399  26.871  1.00  0.00     0.031 C 
ATOM     35  C   UNL A   1      44.253  31.750  28.769  1.00  0.00     0.029 A 
ATOM     36  C   UNL A   1      45.345  31.088  28.236  1.00  0.00     0.049 A 
ATOM     37  H   UNL A   1      45.475  29.115  27.494  1.00  0.00     0.167 HD
ATOM     38  C   UNL A   1      47.711  30.834  27.570  1.00  0.00     0.074 A 
ATOM     39  C   UNL A   1      49.074  31.310  27.440  1.00  0.00     0.031 C 
ATOM     40  C   UNL A   1      46.686  31.570  28.055  1.00  0.00     0.037 A 
BRANCH  27  41
ATOM     41  C   UNL A   1      41.360  28.482  28.398  1.00  0.00     0.064 A 
ATOM     42  C   UNL A   1      40.359  28.943  27.532  1.00  0.00     0.173 A 
ATOM     43  C   UNL A   1      40.983  28.039  29.673  1.00  0.00     0.173 A 
ATOM     44  F   UNL A   1      40.677  29.362  26.298  1.00  0.00    -0.203 F 
ATOM     45  C   UNL A   1      39.029  28.977  27.933  1.00  0.00     0.198 A 
ATOM     46  C   UNL A   1      39.647  28.056  30.065  1.00  0.00     0.198 A 
ATOM     47  F   UNL A   1      41.904  27.558  30.522  1.00  0.00    -0.203 F 
ATOM     48  F   UNL A   1      38.090  29.438  27.095  1.00  0.00    -0.200 F 
ATOM     49  C   UNL A   1      38.674  28.534  29.198  1.00  0.00     0.200 A 
ATOM     50  F   UNL A   1      39.299  27.601  31.276  1.00  0.00    -0.200 F 
ATOM     51  F   UNL A   1      37.389  28.557  29.579  1.00  0.00    -0.200 F 
ENDBRANCH  27  41
BRANCH  28  52
ATOM     52  C   UNL A   1      50.912  27.949  25.811  1.00  0.00     0.064 A 
ATOM     53  C   UNL A   1      51.399  28.227  24.527  1.00  0.00     0.173 A 
ATOM     54  C   UNL A   1      51.840  27.656  26.821  1.00  0.00     0.173 A 
ATOM     55  F   UNL A   1      50.546  28.504  23.531  1.00  0.00    -0.203 F 
ATOM     56  C   UNL A   1      52.766  28.201  24.258  1.00  0.00     0.198 A 
ATOM     57  C   UNL A   1      53.208  27.630  26.550  1.00  0.00     0.198 A 
ATOM     58  F   UNL A   1      51.416  27.407  28.068  1.00  0.00    -0.203 F 
ATOM     59  F   UNL A   1      53.203  28.418  23.010  1.00  0.00    -0.200 F 
ATOM     60  C   UNL A   1      53.669  27.899  25.268  1.00  0.00     0.200 A 
ATOM     61  F   UNL A   1      54.077  27.329  27.523  1.00  0.00    -0.200 F 
ATOM     62  F   UNL A   1      54.979  27.829  24.996  1.00  0.00    -0.200 F 
ENDBRANCH  28  52
BRANCH  40  63
ATOM     63  C   UNL A   1      47.007  32.980  28.437  1.00  0.00     0.064 A 
ATOM     64  C   UNL A   1      47.447  33.291  29.730  1.00  0.00     0.173 A 
ATOM     65  C   UNL A   1      46.908  34.021  27.501  1.00  0.00     0.173 A 
ATOM     66  F   UNL A   1      47.566  32.327  30.655  1.00  0.00    -0.203 F 
ATOM     67  C   UNL A   1      47.784  34.597  30.071  1.00  0.00     0.198 A 
ATOM     68  C   UNL A   1      47.271  35.320  27.838  1.00  0.00     0.198 A 
ATOM     69  F   UNL A   1      46.520  33.762  26.243  1.00  0.00    -0.203 F 
ATOM     70  F   UNL A   1      48.202  34.876  31.314  1.00  0.00    -0.200 F 
ATOM     71  C   UNL A   1      47.704  35.607  29.124  1.00  0.00     0.200 A 
ATOM     72  F   UNL A   1      47.230  36.287  26.911  1.00  0.00    -0.200 F 
ATOM     73  F   UNL A   1      48.064  36.858  29.445  1.00  0.00    -0.200 F 
ENDBRANCH  40  63
ENDBRANCH  14  15
ENDBRANCH   7   9
ENDBRANCH   6   7
ENDBRANCH   5   6
ENDBRANCH   4   5
ENDBRANCH   3   4
ENDBRANCH   2   3
ENDBRANCH   1   2
BRANCH   1  74
ATOM     74  O   UNL A   1      37.931  21.863  25.048  1.00  0.00    -0.376 OA
BRANCH  74  75
ATOM     75  C   UNL A   1      37.397  22.990  25.731  1.00  0.00     0.202 C 
BRANCH  75  76
ATOM     76  C   UNL A   1      35.910  22.972  26.109  1.00  0.00     0.261 C 
BRANCH  76  77
ATOM     77  O   UNL A   1      35.351  21.680  26.382  1.00  0.00    -0.462 OA
BRANCH  77  78
ATOM     78  C   UNL A   1      34.465  21.243  25.439  1.00  0.00     0.328 C 
ATOM     79  O   UNL A   1      34.441  20.117  24.959  1.00  0.00    -0.250 OA
BRANCH  78  80
ATOM     80  C   UNL A   1      33.492  22.359  25.044  1.00  0.00     0.194 C 
BRANCH  80  81
ATOM     81  N   UNL A   1      33.480  22.363  23.571  1.00  0.00    -0.338 N 
ATOM     82  C   UNL A   1      33.210  23.406  22.717  1.00  0.00     0.254 C 
ATOM     83  H   UNL A   1      33.694  21.504  23.141  1.00  0.00     0.164 HD
ATOM     84  O   UNL A   1      33.467  23.347  21.533  1.00  0.00    -0.269 OA
BRANCH  82  85
ATOM     85  C   UNL A   1      32.448  24.542  23.238  1.00  0.00     0.076 A 
ATOM     86  C   UNL A   1      31.058  24.457  23.141  1.00  0.00     0.017 A 
ATOM     87  C   UNL A   1      33.066  25.599  23.905  1.00  0.00     0.148 A 
ATOM     88  C   UNL A   1      30.282  25.445  23.725  1.00  0.00     0.002 A 
ATOM     89  C   UNL A   1      32.300  26.549  24.557  1.00  0.00     0.092 A 
ATOM     90  F   UNL A   1      34.400  25.652  24.013  1.00  0.00    -0.205 F 
ATOM     91  C   UNL A   1      30.909  26.486  24.411  1.00  0.00     0.016 A 
BRANCH  89  92
ATOM     92  C   UNL A   1      32.937  27.498  25.530  1.00  0.00     0.419 C 
ATOM     93  F   UNL A   1      33.646  26.849  26.499  1.00  0.00    -0.166 F 
ATOM     94  F   UNL A   1      33.839  28.312  24.910  1.00  0.00    -0.166 F 
ATOM     95  F   UNL A   1      32.067  28.312  26.178  1.00  0.00    -0.166 F 
ENDBRANCH  89  92
ENDBRANCH  82  85
ENDBRANCH  80  81
BRANCH  80  96
ATOM     96  C   UNL A   1      32.089  22.163  25.619  1.00  0.00     0.065 C 
BRANCH  96  97
ATOM     97  C   UNL A   1      31.832  23.086  26.812  1.00  0.00     0.159 C 
BRANCH  97  98
ATOM     98  O   UNL A   1      30.683  22.714  27.557  1.00  0.00    -0.396 OA
ATOM     99  H   UNL A   1      30.084  23.474  27.628  1.00  0.00     0.210 HD
ENDBRANCH  97  98
ENDBRANCH  96  97
ENDBRANCH  80  96
ENDBRANCH  78  80
ENDBRANCH  77  78
ENDBRANCH  76  77
ENDBRANCH  75  76
ENDBRANCH  74  75
ENDBRANCH   1  74
TORSDOF 23
ENDMDL
