MODEL 1
REMARK VINA RESULT:     -11.8      0.000      0.000
REMARK SMILES Cc1ncccc1OC1(C(=O)OCCOCCOCCOC(=O)c2ccc(-c3c4nc(c(-c5c(F)c(F)c(F)c(F)c5F)c5ccc([nH]5)c(-c5c(F)c(F)c(F)c(F)c5F)c5nc(c(-c6c(F)c(F)c(F)c(F)c6F)c6ccc3[nH]6)C=C5)C=C4)cc2)CCN(C(=O)c2ccc(O)nn2)CC1
REMARK SMILES IDX 16 1 15 2 14 3 13 4 12 5 10 6 11 7 9 8 87 9 100 10 88 11
REMARK SMILES IDX 99 12 89 13 90 14 91 15 8 16 7 17 1 18 2 19 3 20 4 21 6 22
REMARK SMILES IDX 5 23 92 24 93 25 98 26 94 27 97 28 95 29 96 30 17 32 18 33
REMARK SMILES IDX 19 34 20 35 21 36 22 37 23 38 24 39 25 40 86 41 26 42 85 43
REMARK SMILES IDX 27 44 28 45 29 46 79 47 30 48 84 49 78 50 80 51 31 52 83 53
REMARK SMILES IDX 77 54 76 55 32 57 64 58 44 59 63 60 45 61 48 62 62 63 81 64
REMARK SMILES IDX 46 65 47 66 61 68 82 69 49 70 33 71 34 72 42 73 35 74 36 75
REMARK SMILES IDX 40 76 43 77 37 78 38 79 41 80 39 81 65 82 66 83 74 84 67 85
REMARK SMILES IDX 68 86 72 87 75 88 69 89 70 90 73 91 71 92 50 93 51 94 59 95
REMARK SMILES IDX 52 96 53 97 57 98 60 99 54 100 55 101 58 102 56 103
REMARK H PARENT 96 31 80 56 48 67
REMARK Flexibility Score: inf
ROOT
ATOM      1  C   UNL A   1      40.170  20.667  26.501  1.00  0.00     0.188 C 
ENDROOT
BRANCH   1   2
ATOM      2  O   UNL A   1      39.730  21.999  26.743  1.00  0.00    -0.376 OA
BRANCH   2   3
ATOM      3  C   UNL A   1      38.792  22.603  25.863  1.00  0.00     0.202 C 
BRANCH   3   4
ATOM      4  C   UNL A   1      38.108  23.876  26.367  1.00  0.00     0.261 C 
BRANCH   4   5
ATOM      5  O   UNL A   1      36.721  24.020  25.991  1.00  0.00    -0.460 OA
BRANCH   5   6
ATOM      6  C   UNL A   1      36.311  23.441  24.813  1.00  0.00     0.350 C 
ATOM      7  O   UNL A   1      36.872  23.634  23.740  1.00  0.00    -0.247 OA
BRANCH   6   8
ATOM      8  C   UNL A   1      34.993  22.602  24.991  1.00  0.00     0.209 C 
ATOM      9  C   UNL A   1      34.174  22.619  23.692  1.00  0.00     0.082 C 
ATOM     10  C   UNL A   1      35.540  21.197  25.282  1.00  0.00     0.082 C 
ATOM     11  C   UNL A   1      33.271  21.433  23.392  1.00  0.00     0.124 C 
ATOM     12  C   UNL A   1      34.533  20.085  25.141  1.00  0.00     0.124 C 
ATOM     13  N   UNL A   1      33.660  20.151  23.968  1.00  0.00    -0.337 N 
ATOM     14  C   UNL A   1      32.858  19.050  23.599  1.00  0.00     0.274 C 
ATOM     15  O   UNL A   1      32.042  19.074  22.683  1.00  0.00    -0.267 OA
BRANCH   8  16
ATOM     16  O   UNL A   1      34.408  23.032  26.243  1.00  0.00    -0.474 OA
BRANCH  16  17
ATOM     17  C   UNL A   1      33.199  23.557  26.583  1.00  0.00     0.142 A 
ATOM     18  C   UNL A   1      33.596  25.953  25.757  1.00  0.00     0.071 C 
ATOM     19  C   UNL A   1      32.747  24.844  26.256  1.00  0.00     0.079 A 
ATOM     20  N   UNL A   1      31.429  25.198  26.230  1.00  0.00    -0.258 NA
ATOM     21  C   UNL A   1      30.506  24.255  26.466  1.00  0.00     0.111 A 
ATOM     22  C   UNL A   1      32.193  22.615  26.857  1.00  0.00     0.050 A 
ATOM     23  C   UNL A   1      30.835  22.959  26.793  1.00  0.00     0.024 A 
ENDBRANCH  16  17
ENDBRANCH   8  16
BRANCH  14  24
ATOM     24  C   UNL A   1      33.056  17.788  24.346  1.00  0.00     0.151 A 
ATOM     25  C   UNL A   1      32.098  17.398  25.267  1.00  0.00     0.042 A 
ATOM     26  N   UNL A   1      34.054  16.974  23.914  1.00  0.00    -0.142 NA
ATOM     27  C   UNL A   1      32.160  16.095  25.736  1.00  0.00     0.072 A 
ATOM     28  N   UNL A   1      34.115  15.702  24.385  1.00  0.00    -0.112 NA
ATOM     29  C   UNL A   1      33.176  15.293  25.261  1.00  0.00     0.230 A 
BRANCH  29  30
ATOM     30  O   UNL A   1      33.254  13.989  25.634  1.00  0.00    -0.492 OA
ATOM     31  H   UNL A   1      33.395  13.326  24.987  1.00  0.00     0.295 HD
ENDBRANCH  29  30
ENDBRANCH  14  24
ENDBRANCH   6   8
ENDBRANCH   5   6
ENDBRANCH   4   5
ENDBRANCH   3   4
ENDBRANCH   2   3
ENDBRANCH   1   2
BRANCH   1  32
ATOM     32  C   UNL A   1      41.653  20.414  26.216  1.00  0.00     0.188 C 
BRANCH  32  33
ATOM     33  O   UNL A   1      41.930  19.114  25.723  1.00  0.00    -0.376 OA
BRANCH  33  34
ATOM     34  C   UNL A   1      42.815  18.337  26.519  1.00  0.00     0.202 C 
BRANCH  34  35
ATOM     35  C   UNL A   1      44.188  18.221  25.853  1.00  0.00     0.261 C 
BRANCH  35  36
ATOM     36  O   UNL A   1      44.198  18.616  24.466  1.00  0.00    -0.460 OA
BRANCH  36  37
ATOM     37  C   UNL A   1      45.261  19.335  24.044  1.00  0.00     0.338 C 
ATOM     38  O   UNL A   1      46.108  18.995  23.236  1.00  0.00    -0.246 OA
BRANCH  37  39
ATOM     39  C   UNL A   1      45.102  20.716  24.553  1.00  0.00     0.060 A 
ATOM     40  C   UNL A   1      44.641  21.712  23.680  1.00  0.00     0.016 A 
ATOM     41  C   UNL A   1      45.383  21.019  25.886  1.00  0.00     0.016 A 
ATOM     42  C   UNL A   1      44.490  23.024  24.135  1.00  0.00     0.010 A 
ATOM     43  C   UNL A   1      45.251  22.334  26.334  1.00  0.00     0.010 A 
ATOM     44  C   UNL A   1      44.834  23.349  25.454  1.00  0.00    -0.014 A 
BRANCH  44  45
ATOM     45  C   UNL A   1      44.964  24.767  25.870  1.00  0.00     0.031 A 
ATOM     46  C   UNL A   1      46.323  25.405  25.792  1.00  0.00     0.074 A 
ATOM     47  C   UNL A   1      43.916  25.470  26.332  1.00  0.00     0.049 A 
ATOM     48  N   UNL A   1      46.714  26.590  26.188  1.00  0.00    -0.248 NA
ATOM     49  C   UNL A   1      47.390  24.589  25.190  1.00  0.00     0.031 C 
ATOM     50  C   UNL A   1      42.543  24.984  26.428  1.00  0.00     0.029 A 
ATOM     51  N   UNL A   1      43.859  26.750  26.829  1.00  0.00    -0.354 N 
ATOM     52  C   UNL A   1      48.069  26.655  25.894  1.00  0.00     0.074 A 
ATOM     53  C   UNL A   1      48.441  25.384  25.312  1.00  0.00     0.031 C 
ATOM     54  C   UNL A   1      41.778  25.951  26.970  1.00  0.00     0.029 A 
ATOM     55  C   UNL A   1      42.616  27.106  27.290  1.00  0.00     0.049 A 
ATOM     56  H   UNL A   1      44.636  27.354  26.853  1.00  0.00     0.167 HD
ATOM     57  C   UNL A   1      48.927  27.685  26.087  1.00  0.00     0.037 A 
ATOM     58  C   UNL A   1      42.213  28.228  27.921  1.00  0.00     0.037 A 
ATOM     59  C   UNL A   1      48.563  28.949  26.667  1.00  0.00     0.049 A 
ATOM     60  C   UNL A   1      43.205  29.331  28.195  1.00  0.00     0.074 A 
ATOM     61  C   UNL A   1      49.357  30.063  26.873  1.00  0.00     0.029 A 
ATOM     62  N   UNL A   1      47.300  29.264  27.141  1.00  0.00    -0.354 N 
ATOM     63  N   UNL A   1      44.477  29.402  27.883  1.00  0.00    -0.248 NA
ATOM     64  C   UNL A   1      42.702  30.512  28.913  1.00  0.00     0.031 C 
ATOM     65  C   UNL A   1      48.588  31.033  27.524  1.00  0.00     0.029 A 
ATOM     66  C   UNL A   1      47.299  30.545  27.670  1.00  0.00     0.049 A 
ATOM     67  H   UNL A   1      46.518  28.666  27.110  1.00  0.00     0.167 HD
ATOM     68  C   UNL A   1      44.914  30.643  28.334  1.00  0.00     0.074 A 
ATOM     69  C   UNL A   1      43.771  31.296  28.934  1.00  0.00     0.031 C 
ATOM     70  C   UNL A   1      46.152  31.192  28.253  1.00  0.00     0.037 A 
BRANCH  57  71
ATOM     71  C   UNL A   1      50.358  27.471  25.690  1.00  0.00     0.064 A 
ATOM     72  C   UNL A   1      50.798  27.682  24.374  1.00  0.00     0.173 A 
ATOM     73  C   UNL A   1      51.304  27.070  26.644  1.00  0.00     0.173 A 
ATOM     74  F   UNL A   1      49.928  28.049  23.422  1.00  0.00    -0.203 F 
ATOM     75  C   UNL A   1      52.130  27.473  24.025  1.00  0.00     0.198 A 
ATOM     76  C   UNL A   1      52.640  26.892  26.297  1.00  0.00     0.198 A 
ATOM     77  F   UNL A   1      50.934  26.855  27.915  1.00  0.00    -0.203 F 
ATOM     78  F   UNL A   1      52.519  27.634  22.752  1.00  0.00    -0.200 F 
ATOM     79  C   UNL A   1      53.050  27.086  24.987  1.00  0.00     0.200 A 
ATOM     80  F   UNL A   1      53.530  26.527  27.231  1.00  0.00    -0.200 F 
ATOM     81  F   UNL A   1      54.332  26.890  24.649  1.00  0.00    -0.200 F 
ENDBRANCH  57  71
BRANCH  58  82
ATOM     82  C   UNL A   1      40.797  28.371  28.353  1.00  0.00     0.064 A 
ATOM     83  C   UNL A   1      39.846  28.968  27.514  1.00  0.00     0.173 A 
ATOM     84  C   UNL A   1      40.375  27.950  29.622  1.00  0.00     0.173 A 
ATOM     85  F   UNL A   1      40.209  29.416  26.303  1.00  0.00    -0.203 F 
ATOM     86  C   UNL A   1      38.531  29.155  27.935  1.00  0.00     0.198 A 
ATOM     87  C   UNL A   1      39.053  28.112  30.032  1.00  0.00     0.198 A 
ATOM     88  F   UNL A   1      41.250  27.382  30.466  1.00  0.00    -0.203 F 
ATOM     89  F   UNL A   1      37.656  29.776  27.133  1.00  0.00    -0.200 F 
ATOM     90  C   UNL A   1      38.134  28.722  29.191  1.00  0.00     0.200 A 
ATOM     91  F   UNL A   1      38.673  27.688  31.245  1.00  0.00    -0.200 F 
ATOM     92  F   UNL A   1      36.870  28.905  29.597  1.00  0.00    -0.200 F 
ENDBRANCH  58  82
BRANCH  70  93
ATOM     93  C   UNL A   1      46.332  32.587  28.782  1.00  0.00     0.064 A 
ATOM     94  C   UNL A   1      46.732  32.831  30.104  1.00  0.00     0.173 A 
ATOM     95  C   UNL A   1      46.152  33.694  27.937  1.00  0.00     0.173 A 
ATOM     96  F   UNL A   1      46.906  31.809  30.956  1.00  0.00    -0.203 F 
ATOM     97  C   UNL A   1      46.923  34.131  30.566  1.00  0.00     0.198 A 
ATOM     98  C   UNL A   1      46.373  34.990  28.394  1.00  0.00     0.198 A 
ATOM     99  F   UNL A   1      45.778  33.515  26.661  1.00  0.00    -0.203 F 
ATOM    100  F   UNL A   1      47.263  34.343  31.845  1.00  0.00    -0.200 F 
ATOM    101  C   UNL A   1      46.752  35.208  29.709  1.00  0.00     0.200 A 
ATOM    102  F   UNL A   1      46.222  36.028  27.559  1.00  0.00    -0.200 F 
ATOM    103  F   UNL A   1      46.945  36.458  30.153  1.00  0.00    -0.200 F 
ENDBRANCH  70  93
ENDBRANCH  44  45
ENDBRANCH  37  39
ENDBRANCH  36  37
ENDBRANCH  35  36
ENDBRANCH  34  35
ENDBRANCH  33  34
ENDBRANCH  32  33
ENDBRANCH   1  32
TORSDOF 21
ENDMDL
MODEL 2
REMARK VINA RESULT:     -11.4      0.750      7.077
REMARK SMILES Cc1ncccc1OC1(C(=O)OCCOCCOCCOC(=O)c2ccc(-c3c4nc(c(-c5c(F)c(F)c(F)c(F)c5F)c5ccc([nH]5)c(-c5c(F)c(F)c(F)c(F)c5F)c5nc(c(-c6c(F)c(F)c(F)c(F)c6F)c6ccc3[nH]6)C=C5)C=C4)cc2)CCN(C(=O)c2ccc(O)nn2)CC1
REMARK SMILES IDX 16 1 15 2 14 3 13 4 12 5 10 6 11 7 9 8 87 9 100 10 88 11
REMARK SMILES IDX 99 12 89 13 90 14 91 15 8 16 7 17 1 18 2 19 3 20 4 21 6 22
REMARK SMILES IDX 5 23 92 24 93 25 98 26 94 27 97 28 95 29 96 30 17 32 18 33
REMARK SMILES IDX 19 34 20 35 21 36 22 37 23 38 24 39 25 40 86 41 26 42 85 43
REMARK SMILES IDX 27 44 28 45 29 46 79 47 30 48 84 49 78 50 80 51 31 52 83 53
REMARK SMILES IDX 77 54 76 55 32 57 64 58 44 59 63 60 45 61 48 62 62 63 81 64
REMARK SMILES IDX 46 65 47 66 61 68 82 69 49 70 33 71 34 72 42 73 35 74 36 75
REMARK SMILES IDX 40 76 43 77 37 78 38 79 41 80 39 81 65 82 66 83 74 84 67 85
REMARK SMILES IDX 68 86 72 87 75 88 69 89 70 90 73 91 71 92 50 93 51 94 59 95
REMARK SMILES IDX 52 96 53 97 57 98 60 99 54 100 55 101 58 102 56 103
REMARK H PARENT 96 31 80 56 48 67
REMARK Flexibility Score: inf
ROOT
ATOM      1  C   UNL A   1      41.310  21.842  27.406  1.00  0.00     0.188 C 
ENDROOT
BRANCH   1   2
ATOM      2  O   UNL A   1      40.110  22.565  27.657  1.00  0.00    -0.376 OA
BRANCH   2   3
ATOM      3  C   UNL A   1      39.485  23.284  26.603  1.00  0.00     0.202 C 
BRANCH   3   4
ATOM      4  C   UNL A   1      38.275  22.615  25.946  1.00  0.00     0.261 C 
BRANCH   4   5
ATOM      5  O   UNL A   1      37.193  23.507  25.597  1.00  0.00    -0.460 OA
BRANCH   5   6
ATOM      6  C   UNL A   1      36.476  23.231  24.457  1.00  0.00     0.350 C 
ATOM      7  O   UNL A   1      36.798  23.638  23.347  1.00  0.00    -0.247 OA
BRANCH   6   8
ATOM      8  C   UNL A   1      35.156  22.433  24.764  1.00  0.00     0.209 C 
ATOM      9  C   UNL A   1      34.223  22.462  23.545  1.00  0.00     0.082 C 
ATOM     10  C   UNL A   1      35.687  21.015  25.021  1.00  0.00     0.082 C 
ATOM     11  C   UNL A   1      33.262  21.301  23.342  1.00  0.00     0.124 C 
ATOM     12  C   UNL A   1      34.639  19.933  24.986  1.00  0.00     0.124 C 
ATOM     13  N   UNL A   1      33.665  20.014  23.896  1.00  0.00    -0.337 N 
ATOM     14  C   UNL A   1      32.802  18.933  23.615  1.00  0.00     0.274 C 
ATOM     15  O   UNL A   1      31.907  18.973  22.776  1.00  0.00    -0.267 OA
BRANCH   8  16
ATOM     16  O   UNL A   1      34.700  22.893  26.059  1.00  0.00    -0.474 OA
BRANCH  16  17
ATOM     17  C   UNL A   1      33.566  23.510  26.490  1.00  0.00     0.142 A 
ATOM     18  C   UNL A   1      34.058  25.855  25.572  1.00  0.00     0.071 C 
ATOM     19  C   UNL A   1      33.180  24.820  26.171  1.00  0.00     0.079 A 
ATOM     20  N   UNL A   1      31.893  25.269  26.252  1.00  0.00    -0.258 NA
ATOM     21  C   UNL A   1      30.930  24.401  26.592  1.00  0.00     0.111 A 
ATOM     22  C   UNL A   1      32.525  22.649  26.875  1.00  0.00     0.050 A 
ATOM     23  C   UNL A   1      31.195  23.090  26.921  1.00  0.00     0.024 A 
ENDBRANCH  16  17
ENDBRANCH   8  16
BRANCH  14  24
ATOM     24  C   UNL A   1      33.030  17.673  24.356  1.00  0.00     0.151 A 
ATOM     25  C   UNL A   1      32.148  17.319  25.363  1.00  0.00     0.042 A 
ATOM     26  N   UNL A   1      33.963  16.827  23.847  1.00  0.00    -0.142 NA
ATOM     27  C   UNL A   1      32.216  16.019  25.841  1.00  0.00     0.072 A 
ATOM     28  N   UNL A   1      34.030  15.558  24.326  1.00  0.00    -0.112 NA
ATOM     29  C   UNL A   1      33.163  15.184  25.287  1.00  0.00     0.230 A 
BRANCH  29  30
ATOM     30  O   UNL A   1      33.237  13.882  25.666  1.00  0.00    -0.492 OA
ATOM     31  H   UNL A   1      32.557  13.509  26.192  1.00  0.00     0.295 HD
ENDBRANCH  29  30
ENDBRANCH  14  24
ENDBRANCH   6   8
ENDBRANCH   5   6
ENDBRANCH   4   5
ENDBRANCH   3   4
ENDBRANCH   2   3
ENDBRANCH   1   2
BRANCH   1  32
ATOM     32  C   UNL A   1      41.767  21.639  25.959  1.00  0.00     0.188 C 
BRANCH  32  33
ATOM     33  O   UNL A   1      41.681  20.296  25.512  1.00  0.00    -0.376 OA
BRANCH  33  34
ATOM     34  C   UNL A   1      42.404  19.349  26.286  1.00  0.00     0.202 C 
BRANCH  34  35
ATOM     35  C   UNL A   1      43.480  18.662  25.442  1.00  0.00     0.261 C 
BRANCH  35  36
ATOM     36  O   UNL A   1      43.861  19.405  24.267  1.00  0.00    -0.460 OA
BRANCH  36  37
ATOM     37  C   UNL A   1      45.135  19.851  24.213  1.00  0.00     0.338 C 
ATOM     38  O   UNL A   1      46.072  19.338  23.627  1.00  0.00    -0.246 OA
BRANCH  37  39
ATOM     39  C   UNL A   1      45.162  21.211  24.796  1.00  0.00     0.060 A 
ATOM     40  C   UNL A   1      44.874  22.309  23.973  1.00  0.00     0.016 A 
ATOM     41  C   UNL A   1      45.445  21.398  26.150  1.00  0.00     0.016 A 
ATOM     42  C   UNL A   1      44.900  23.603  24.498  1.00  0.00     0.010 A 
ATOM     43  C   UNL A   1      45.490  22.693  26.670  1.00  0.00     0.010 A 
ATOM     44  C   UNL A   1      45.248  23.803  25.841  1.00  0.00    -0.014 A 
BRANCH  44  45
ATOM     45  C   UNL A   1      45.569  25.163  26.341  1.00  0.00     0.031 A 
ATOM     46  C   UNL A   1      44.451  25.990  26.910  1.00  0.00     0.074 A 
ATOM     47  C   UNL A   1      46.813  25.669  26.272  1.00  0.00     0.049 A 
ATOM     48  N   UNL A   1      44.455  27.234  27.317  1.00  0.00    -0.248 NA
ATOM     49  C   UNL A   1      43.145  25.321  27.029  1.00  0.00     0.031 C 
ATOM     50  C   UNL A   1      47.991  24.964  25.776  1.00  0.00     0.029 A 
ATOM     51  N   UNL A   1      47.280  26.916  26.608  1.00  0.00    -0.354 N 
ATOM     52  C   UNL A   1      43.155  27.498  27.728  1.00  0.00     0.074 A 
ATOM     53  C   UNL A   1      42.383  26.297  27.497  1.00  0.00     0.031 C 
ATOM     54  C   UNL A   1      49.047  25.798  25.823  1.00  0.00     0.029 A 
ATOM     55  C   UNL A   1      48.609  27.102  26.319  1.00  0.00     0.049 A 
ATOM     56  H   UNL A   1      46.716  27.611  27.017  1.00  0.00     0.167 HD
ATOM     57  C   UNL A   1      42.651  28.638  28.255  1.00  0.00     0.037 A 
ATOM     58  C   UNL A   1      49.373  28.209  26.420  1.00  0.00     0.037 A 
ATOM     59  C   UNL A   1      43.415  29.835  28.485  1.00  0.00     0.049 A 
ATOM     60  C   UNL A   1      48.769  29.491  26.938  1.00  0.00     0.074 A 
ATOM     61  C   UNL A   1      42.997  31.030  29.044  1.00  0.00     0.029 A 
ATOM     62  N   UNL A   1      44.752  29.992  28.158  1.00  0.00    -0.354 N 
ATOM     63  N   UNL A   1      47.549  29.726  27.358  1.00  0.00    -0.248 NA
ATOM     64  C   UNL A   1      49.653  30.665  26.994  1.00  0.00     0.031 C 
ATOM     65  C   UNL A   1      44.067  31.929  29.005  1.00  0.00     0.029 A 
ATOM     66  C   UNL A   1      45.168  31.275  28.475  1.00  0.00     0.049 A 
ATOM     67  H   UNL A   1      45.322  29.296  27.759  1.00  0.00     0.167 HD
ATOM     68  C   UNL A   1      47.530  31.057  27.758  1.00  0.00     0.074 A 
ATOM     69  C   UNL A   1      48.861  31.579  27.538  1.00  0.00     0.031 C 
ATOM     70  C   UNL A   1      46.501  31.781  28.266  1.00  0.00     0.037 A 
BRANCH  57  71
ATOM     71  C   UNL A   1      41.190  28.651  28.594  1.00  0.00     0.064 A 
ATOM     72  C   UNL A   1      40.722  28.265  29.859  1.00  0.00     0.173 A 
ATOM     73  C   UNL A   1      40.248  29.078  27.647  1.00  0.00     0.173 A 
ATOM     74  F   UNL A   1      41.582  27.833  30.794  1.00  0.00    -0.203 F 
ATOM     75  C   UNL A   1      39.361  28.279  30.153  1.00  0.00     0.198 A 
ATOM     76  C   UNL A   1      38.891  29.120  27.954  1.00  0.00     0.198 A 
ATOM     77  F   UNL A   1      40.644  29.458  26.423  1.00  0.00    -0.203 F 
ATOM     78  F   UNL A   1      38.932  27.860  31.351  1.00  0.00    -0.200 F 
ATOM     79  C   UNL A   1      38.449  28.713  29.204  1.00  0.00     0.200 A 
ATOM     80  F   UNL A   1      38.011  29.549  27.039  1.00  0.00    -0.200 F 
ATOM     81  F   UNL A   1      37.139  28.731  29.490  1.00  0.00    -0.200 F 
ENDBRANCH  57  71
BRANCH  58  82
ATOM     82  C   UNL A   1      50.803  28.167  26.013  1.00  0.00     0.064 A 
ATOM     83  C   UNL A   1      51.821  28.083  26.972  1.00  0.00     0.173 A 
ATOM     84  C   UNL A   1      51.181  28.246  24.665  1.00  0.00     0.173 A 
ATOM     85  F   UNL A   1      51.511  28.038  28.276  1.00  0.00    -0.203 F 
ATOM     86  C   UNL A   1      53.164  28.099  26.600  1.00  0.00     0.198 A 
ATOM     87  C   UNL A   1      52.523  28.234  24.291  1.00  0.00     0.198 A 
ATOM     88  F   UNL A   1      50.244  28.338  23.710  1.00  0.00    -0.203 F 
ATOM     89  F   UNL A   1      54.118  28.072  27.540  1.00  0.00    -0.200 F 
ATOM     90  C   UNL A   1      53.514  28.170  25.260  1.00  0.00     0.200 A 
ATOM     91  F   UNL A   1      52.856  28.297  22.995  1.00  0.00    -0.200 F 
ATOM     92  F   UNL A   1      54.805  28.187  24.903  1.00  0.00    -0.200 F 
ENDBRANCH  58  82
BRANCH  70  93
ATOM     93  C   UNL A   1      46.778  33.202  28.666  1.00  0.00     0.064 A 
ATOM     94  C   UNL A   1      46.575  34.272  27.783  1.00  0.00     0.173 A 
ATOM     95  C   UNL A   1      47.204  33.501  29.970  1.00  0.00     0.173 A 
ATOM     96  F   UNL A   1      46.180  34.042  26.522  1.00  0.00    -0.203 F 
ATOM     97  C   UNL A   1      46.809  35.587  28.184  1.00  0.00     0.198 A 
ATOM     98  C   UNL A   1      47.407  34.816  30.376  1.00  0.00     0.198 A 
ATOM     99  F   UNL A   1      47.405  32.514  30.857  1.00  0.00    -0.203 F 
ATOM    100  F   UNL A   1      46.649  36.590  27.311  1.00  0.00    -0.200 F 
ATOM    101  C   UNL A   1      47.216  35.857  29.482  1.00  0.00     0.200 A 
ATOM    102  F   UNL A   1      47.786  35.076  31.636  1.00  0.00    -0.200 F 
ATOM    103  F   UNL A   1      47.431  37.122  29.869  1.00  0.00    -0.200 F 
ENDBRANCH  70  93
ENDBRANCH  44  45
ENDBRANCH  37  39
ENDBRANCH  36  37
ENDBRANCH  35  36
ENDBRANCH  34  35
ENDBRANCH  33  34
ENDBRANCH  32  33
ENDBRANCH   1  32
TORSDOF 21
ENDMDL
MODEL 3
REMARK VINA RESULT:     -11.3      5.038      8.179
REMARK SMILES Cc1ncccc1OC1(C(=O)OCCOCCOCCOC(=O)c2ccc(-c3c4nc(c(-c5c(F)c(F)c(F)c(F)c5F)c5ccc([nH]5)c(-c5c(F)c(F)c(F)c(F)c5F)c5nc(c(-c6c(F)c(F)c(F)c(F)c6F)c6ccc3[nH]6)C=C5)C=C4)cc2)CCN(C(=O)c2ccc(O)nn2)CC1
REMARK SMILES IDX 16 1 15 2 14 3 13 4 12 5 10 6 11 7 9 8 87 9 100 10 88 11
REMARK SMILES IDX 99 12 89 13 90 14 91 15 8 16 7 17 1 18 2 19 3 20 4 21 6 22
REMARK SMILES IDX 5 23 92 24 93 25 98 26 94 27 97 28 95 29 96 30 17 32 18 33
REMARK SMILES IDX 19 34 20 35 21 36 22 37 23 38 24 39 25 40 86 41 26 42 85 43
REMARK SMILES IDX 27 44 28 45 29 46 79 47 30 48 84 49 78 50 80 51 31 52 83 53
REMARK SMILES IDX 77 54 76 55 32 57 64 58 44 59 63 60 45 61 48 62 62 63 81 64
REMARK SMILES IDX 46 65 47 66 61 68 82 69 49 70 33 71 34 72 42 73 35 74 36 75
REMARK SMILES IDX 40 76 43 77 37 78 38 79 41 80 39 81 65 82 66 83 74 84 67 85
REMARK SMILES IDX 68 86 72 87 75 88 69 89 70 90 73 91 71 92 50 93 51 94 59 95
REMARK SMILES IDX 52 96 53 97 57 98 60 99 54 100 55 101 58 102 56 103
REMARK H PARENT 96 31 80 56 48 67
REMARK Flexibility Score: inf
ROOT
ATOM      1  C   UNL A   1      39.696  21.770  26.455  1.00  0.00     0.188 C 
ENDROOT
BRANCH   1   2
ATOM      2  O   UNL A   1      39.923  23.033  27.070  1.00  0.00    -0.376 OA
BRANCH   2   3
ATOM      3  C   UNL A   1      38.985  24.085  26.890  1.00  0.00     0.202 C 
BRANCH   3   4
ATOM      4  C   UNL A   1      37.890  23.848  25.845  1.00  0.00     0.261 C 
BRANCH   4   5
ATOM      5  O   UNL A   1      36.551  23.731  26.373  1.00  0.00    -0.460 OA
BRANCH   5   6
ATOM      6  C   UNL A   1      35.838  22.596  26.069  1.00  0.00     0.350 C 
ATOM      7  O   UNL A   1      36.314  21.468  26.128  1.00  0.00    -0.247 OA
BRANCH   6   8
ATOM      8  C   UNL A   1      34.392  22.926  25.544  1.00  0.00     0.209 C 
ATOM      9  C   UNL A   1      33.398  22.965  26.713  1.00  0.00     0.082 C 
ATOM     10  C   UNL A   1      34.581  24.321  24.930  1.00  0.00     0.082 C 
ATOM     11  C   UNL A   1      32.171  23.853  26.589  1.00  0.00     0.124 C 
ATOM     12  C   UNL A   1      33.302  25.072  24.664  1.00  0.00     0.124 C 
ATOM     13  N   UNL A   1      32.291  25.019  25.723  1.00  0.00    -0.337 N 
ATOM     14  C   UNL A   1      31.171  25.877  25.697  1.00  0.00     0.274 C 
ATOM     15  O   UNL A   1      30.247  25.821  26.503  1.00  0.00    -0.267 OA
BRANCH   8  16
ATOM     16  O   UNL A   1      34.169  22.055  24.408  1.00  0.00    -0.474 OA
BRANCH  16  17
ATOM     17  C   UNL A   1      33.397  20.951  24.210  1.00  0.00     0.142 A 
ATOM     18  C   UNL A   1      31.881  21.893  22.367  1.00  0.00     0.071 C 
ATOM     19  C   UNL A   1      32.438  20.798  23.198  1.00  0.00     0.079 A 
ATOM     20  N   UNL A   1      31.991  19.585  22.759  1.00  0.00    -0.258 NA
ATOM     21  C   UNL A   1      32.538  18.474  23.272  1.00  0.00     0.111 A 
ATOM     22  C   UNL A   1      33.914  19.757  24.739  1.00  0.00     0.050 A 
ATOM     23  C   UNL A   1      33.491  18.507  24.265  1.00  0.00     0.024 A 
ENDBRANCH  16  17
ENDBRANCH   8  16
BRANCH  14  24
ATOM     24  C   UNL A   1      31.145  26.926  24.653  1.00  0.00     0.151 A 
ATOM     25  C   UNL A   1      30.528  26.654  23.445  1.00  0.00     0.042 A 
ATOM     26  N   UNL A   1      31.528  28.173  25.033  1.00  0.00    -0.142 NA
ATOM     27  C   UNL A   1      30.268  27.727  22.606  1.00  0.00     0.072 A 
ATOM     28  N   UNL A   1      31.280  29.218  24.203  1.00  0.00    -0.112 NA
ATOM     29  C   UNL A   1      30.655  28.979  23.033  1.00  0.00     0.230 A 
BRANCH  29  30
ATOM     30  O   UNL A   1      30.372  30.077  22.286  1.00  0.00    -0.492 OA
ATOM     31  H   UNL A   1      29.897  30.791  22.666  1.00  0.00     0.295 HD
ENDBRANCH  29  30
ENDBRANCH  14  24
ENDBRANCH   6   8
ENDBRANCH   5   6
ENDBRANCH   4   5
ENDBRANCH   3   4
ENDBRANCH   2   3
ENDBRANCH   1   2
BRANCH   1  32
ATOM     32  C   UNL A   1      40.889  20.851  26.179  1.00  0.00     0.188 C 
BRANCH  32  33
ATOM     33  O   UNL A   1      42.094  21.542  25.898  1.00  0.00    -0.376 OA
BRANCH  33  34
ATOM     34  C   UNL A   1      43.247  20.723  25.755  1.00  0.00     0.202 C 
BRANCH  34  35
ATOM     35  C   UNL A   1      44.460  21.556  25.334  1.00  0.00     0.261 C 
BRANCH  35  36
ATOM     36  O   UNL A   1      44.670  22.730  26.144  1.00  0.00    -0.460 OA
BRANCH  36  37
ATOM     37  C   UNL A   1      44.197  23.899  25.661  1.00  0.00     0.338 C 
ATOM     38  O   UNL A   1      43.896  24.153  24.507  1.00  0.00    -0.246 OA
BRANCH  37  39
ATOM     39  C   UNL A   1      43.876  24.768  26.815  1.00  0.00     0.060 A 
ATOM     40  C   UNL A   1      43.067  24.262  27.842  1.00  0.00     0.016 A 
ATOM     41  C   UNL A   1      44.392  26.064  26.894  1.00  0.00     0.016 A 
ATOM     42  C   UNL A   1      42.744  25.066  28.938  1.00  0.00     0.010 A 
ATOM     43  C   UNL A   1      44.053  26.872  27.981  1.00  0.00     0.010 A 
ATOM     44  C   UNL A   1      43.203  26.388  28.992  1.00  0.00    -0.014 A 
BRANCH  44  45
ATOM     45  C   UNL A   1      42.640  27.341  29.980  1.00  0.00     0.031 A 
ATOM     46  C   UNL A   1      43.292  27.428  31.332  1.00  0.00     0.074 A 
ATOM     47  C   UNL A   1      41.562  28.096  29.705  1.00  0.00     0.049 A 
ATOM     48  N   UNL A   1      42.931  28.104  32.392  1.00  0.00    -0.248 NA
ATOM     49  C   UNL A   1      44.519  26.633  31.512  1.00  0.00     0.031 C 
ATOM     50  C   UNL A   1      40.857  28.134  28.427  1.00  0.00     0.029 A 
ATOM     51  N   UNL A   1      40.862  28.965  30.505  1.00  0.00    -0.354 N 
ATOM     52  C   UNL A   1      43.877  27.808  33.366  1.00  0.00     0.074 A 
ATOM     53  C   UNL A   1      44.812  26.872  32.781  1.00  0.00     0.031 C 
ATOM     54  C   UNL A   1      39.809  28.972  28.536  1.00  0.00     0.029 A 
ATOM     55  C   UNL A   1      39.753  29.499  29.899  1.00  0.00     0.049 A 
ATOM     56  H   UNL A   1      41.130  29.183  31.427  1.00  0.00     0.167 HD
ATOM     57  C   UNL A   1      43.962  28.279  34.632  1.00  0.00     0.037 A 
ATOM     58  C   UNL A   1      38.791  30.301  30.400  1.00  0.00     0.037 A 
ATOM     59  C   UNL A   1      43.034  29.208  35.218  1.00  0.00     0.049 A 
ATOM     60  C   UNL A   1      38.865  30.751  31.839  1.00  0.00     0.074 A 
ATOM     61  C   UNL A   1      43.056  29.765  36.484  1.00  0.00     0.029 A 
ATOM     62  N   UNL A   1      41.911  29.709  34.580  1.00  0.00    -0.354 N 
ATOM     63  N   UNL A   1      39.779  30.497  32.743  1.00  0.00    -0.248 NA
ATOM     64  C   UNL A   1      37.767  31.599  32.325  1.00  0.00     0.031 C 
ATOM     65  C   UNL A   1      41.916  30.561  36.631  1.00  0.00     0.029 A 
ATOM     66  C   UNL A   1      41.215  30.546  35.437  1.00  0.00     0.049 A 
ATOM     67  H   UNL A   1      41.646  29.501  33.655  1.00  0.00     0.167 HD
ATOM     68  C   UNL A   1      39.387  31.180  33.889  1.00  0.00     0.074 A 
ATOM     69  C   UNL A   1      38.155  31.866  33.565  1.00  0.00     0.031 C 
ATOM     70  C   UNL A   1      39.996  31.236  35.100  1.00  0.00     0.037 A 
BRANCH  57  71
ATOM     71  C   UNL A   1      45.089  27.769  35.481  1.00  0.00     0.064 A 
ATOM     72  C   UNL A   1      46.301  28.467  35.595  1.00  0.00     0.173 A 
ATOM     73  C   UNL A   1      44.944  26.577  36.206  1.00  0.00     0.173 A 
ATOM     74  F   UNL A   1      46.493  29.602  34.908  1.00  0.00    -0.203 F 
ATOM     75  C   UNL A   1      47.337  27.974  36.385  1.00  0.00     0.198 A 
ATOM     76  C   UNL A   1      45.972  26.104  37.017  1.00  0.00     0.198 A 
ATOM     77  F   UNL A   1      43.806  25.873  36.131  1.00  0.00    -0.203 F 
ATOM     78  F   UNL A   1      48.504  28.631  36.441  1.00  0.00    -0.200 F 
ATOM     79  C   UNL A   1      47.169  26.799  37.100  1.00  0.00     0.200 A 
ATOM     80  F   UNL A   1      45.803  24.973  37.716  1.00  0.00    -0.200 F 
ATOM     81  F   UNL A   1      48.166  26.328  37.863  1.00  0.00    -0.200 F 
ENDBRANCH  57  71
BRANCH  58  82
ATOM     82  C   UNL A   1      37.657  30.733  29.539  1.00  0.00     0.064 A 
ATOM     83  C   UNL A   1      37.569  32.051  29.073  1.00  0.00     0.173 A 
ATOM     84  C   UNL A   1      36.624  29.849  29.197  1.00  0.00     0.173 A 
ATOM     85  F   UNL A   1      38.517  32.942  29.401  1.00  0.00    -0.203 F 
ATOM     86  C   UNL A   1      36.481  32.475  28.312  1.00  0.00     0.198 A 
ATOM     87  C   UNL A   1      35.550  30.265  28.413  1.00  0.00     0.198 A 
ATOM     88  F   UNL A   1      36.657  28.579  29.626  1.00  0.00    -0.203 F 
ATOM     89  F   UNL A   1      36.396  33.754  27.924  1.00  0.00    -0.200 F 
ATOM     90  C   UNL A   1      35.475  31.581  27.978  1.00  0.00     0.200 A 
ATOM     91  F   UNL A   1      34.583  29.397  28.088  1.00  0.00    -0.200 F 
ATOM     92  F   UNL A   1      34.428  31.989  27.249  1.00  0.00    -0.200 F 
ENDBRANCH  58  82
BRANCH  70  93
ATOM     93  C   UNL A   1      39.371  32.103  36.156  1.00  0.00     0.064 A 
ATOM     94  C   UNL A   1      38.333  31.639  36.976  1.00  0.00     0.173 A 
ATOM     95  C   UNL A   1      39.855  33.402  36.383  1.00  0.00     0.173 A 
ATOM     96  F   UNL A   1      37.826  30.410  36.793  1.00  0.00    -0.203 F 
ATOM     97  C   UNL A   1      37.788  32.449  37.970  1.00  0.00     0.198 A 
ATOM     98  C   UNL A   1      39.328  34.197  37.397  1.00  0.00     0.198 A 
ATOM     99  F   UNL A   1      40.852  33.892  35.632  1.00  0.00    -0.203 F 
ATOM    100  F   UNL A   1      36.768  32.000  38.713  1.00  0.00    -0.200 F 
ATOM    101  C   UNL A   1      38.291  33.724  38.185  1.00  0.00     0.200 A 
ATOM    102  F   UNL A   1      39.828  35.423  37.612  1.00  0.00    -0.200 F 
ATOM    103  F   UNL A   1      37.772  34.498  39.147  1.00  0.00    -0.200 F 
ENDBRANCH  70  93
ENDBRANCH  44  45
ENDBRANCH  37  39
ENDBRANCH  36  37
ENDBRANCH  35  36
ENDBRANCH  34  35
ENDBRANCH  33  34
ENDBRANCH  32  33
ENDBRANCH   1  32
TORSDOF 21
ENDMDL
