MODEL 1
REMARK VINA RESULT:     -12.0      0.000      0.000
REMARK SMILES COC(=O)c1c(NC(=O)[C@@H]2[C@H]3CC[C@H](CC3)[C@H]2C(=O)OCCOCCOCCOC(=O)c2ccc(-c3c4nc(c(-c5c(F)c(F)c(F)c(F)c5F)c5ccc([nH]5)c(-c5c(F)c(F)c(F)c(F)c5F)c5nc(c(-c6c(F)c(F)c(F)c(F)c6F)c6ccc3[nH]6)C=C5)C=C4)cc2)sc(C)c1-c1ccc(C)cc1
REMARK SMILES IDX 24 1 23 2 22 3 21 4 20 5 18 6 19 7 17 8 10 9 11 10 12 11
REMARK SMILES IDX 16 12 14 13 13 14 15 15 8 16 7 17 9 19 6 20 5 21 98 22 95 23
REMARK SMILES IDX 96 24 97 25 3 26 4 27 2 28 1 29 99 30 100 31 105 32 101 33
REMARK SMILES IDX 104 34 102 35 103 36 25 37 26 38 27 39 28 40 29 41 30 42
REMARK SMILES IDX 31 43 32 44 33 45 94 46 34 47 93 48 35 49 36 50 37 51 87 52
REMARK SMILES IDX 38 53 92 54 86 55 88 56 39 57 91 58 85 59 84 60 40 62 72 63
REMARK SMILES IDX 52 64 71 65 53 66 56 67 70 68 89 69 54 70 55 71 69 73 90 74
REMARK SMILES IDX 57 75 41 76 42 77 50 78 43 79 44 80 48 81 51 82 45 83 46 84
REMARK SMILES IDX 49 85 47 86 73 87 74 88 82 89 75 90 76 91 80 92 83 93 77 94
REMARK SMILES IDX 78 95 81 96 79 97 58 98 59 99 67 100 60 101 61 102 65 103
REMARK SMILES IDX 68 104 62 105 63 106 66 107 64 108
REMARK H PARENT 7 18 88 61 56 72
REMARK Flexibility Score: inf
ROOT
ATOM      1  C   UNL A   1      33.748  29.510  26.840  1.00  0.00     0.188 C 
ENDROOT
BRANCH   1   2
ATOM      2  O   UNL A   1      33.087  28.397  27.422  1.00  0.00    -0.376 OA
BRANCH   2   3
ATOM      3  C   UNL A   1      31.928  27.911  26.739  1.00  0.00     0.202 C 
BRANCH   3   4
ATOM      4  C   UNL A   1      31.899  26.416  26.371  1.00  0.00     0.261 C 
BRANCH   4   5
ATOM      5  O   UNL A   1      33.040  25.647  26.838  1.00  0.00    -0.463 OA
BRANCH   5   6
ATOM      6  C   UNL A   1      33.751  25.049  25.843  1.00  0.00     0.310 C 
ATOM      7  O   UNL A   1      34.913  25.353  25.580  1.00  0.00    -0.252 OA
BRANCH   6   8
ATOM      8  C   UNL A   1      33.036  23.910  25.091  1.00  0.00     0.115 C 
ATOM      9  C   UNL A   1      33.611  23.415  23.745  1.00  0.00     0.096 C 
ATOM     10  C   UNL A   1      33.816  21.861  23.861  1.00  0.00     0.002 C 
ATOM     11  C   UNL A   1      34.753  21.568  25.050  1.00  0.00     0.005 C 
ATOM     12  C   UNL A   1      32.465  21.171  24.128  1.00  0.00     0.005 C 
ATOM     13  C   UNL A   1      32.785  22.733  26.066  1.00  0.00     0.004 C 
ATOM     14  C   UNL A   1      34.101  22.011  26.361  1.00  0.00     0.005 C 
ATOM     15  C   UNL A   1      31.806  21.771  25.370  1.00  0.00     0.005 C 
BRANCH   9  16
ATOM     16  C   UNL A   1      32.940  23.679  22.350  1.00  0.00     0.229 C 
ATOM     17  N   UNL A   1      31.819  24.386  22.038  1.00  0.00    -0.317 N 
ATOM     18  H   UNL A   1      31.390  24.085  21.204  1.00  0.00     0.170 HD
ATOM     19  O   UNL A   1      33.427  23.070  21.376  1.00  0.00    -0.274 OA
BRANCH  17  20
ATOM     20  C   UNL A   1      31.158  25.429  22.638  1.00  0.00     0.111 A 
ATOM     21  C   UNL A   1      31.373  26.805  22.603  1.00  0.00     0.102 A 
ATOM     22  C   UNL A   1      30.164  27.472  23.077  1.00  0.00     0.012 A 
ATOM     23  S   UNL A   1      30.183  25.147  24.005  1.00  0.00    -0.122 S 
ATOM     24  C   UNL A   1      29.271  26.533  23.579  1.00  0.00     0.012 A 
ATOM     25  C   UNL A   1      27.810  26.570  23.864  1.00  0.00     0.057 C 
BRANCH  21  26
ATOM     26  C   UNL A   1      32.611  27.416  22.135  1.00  0.00     0.341 C 
ATOM     27  O   UNL A   1      33.319  26.912  21.268  1.00  0.00    -0.246 OA
BRANCH  26  28
ATOM     28  O   UNL A   1      32.946  28.512  22.869  1.00  0.00    -0.465 OA
ATOM     29  C   UNL A   1      34.151  28.430  23.632  1.00  0.00     0.282 C 
ENDBRANCH  26  28
ENDBRANCH  21  26
BRANCH  22  30
ATOM     30  C   UNL A   1      29.826  28.891  23.081  1.00  0.00    -0.016 A 
ATOM     31  C   UNL A   1      30.189  29.741  24.128  1.00  0.00     0.009 A 
ATOM     32  C   UNL A   1      29.109  29.411  21.994  1.00  0.00     0.009 A 
ATOM     33  C   UNL A   1      29.833  31.095  24.083  1.00  0.00     0.004 A 
ATOM     34  C   UNL A   1      28.768  30.760  21.943  1.00  0.00     0.004 A 
ATOM     35  C   UNL A   1      29.124  31.613  22.989  1.00  0.00    -0.051 A 
ATOM     36  C   UNL A   1      28.726  33.059  22.952  1.00  0.00     0.044 C 
ENDBRANCH  22  30
ENDBRANCH  17  20
ENDBRANCH   9  16
ENDBRANCH   6   8
ENDBRANCH   5   6
ENDBRANCH   4   5
ENDBRANCH   3   4
ENDBRANCH   2   3
ENDBRANCH   1   2
BRANCH   1  37
ATOM     37  C   UNL A   1      33.290  30.908  27.272  1.00  0.00     0.188 C 
BRANCH  37  38
ATOM     38  O   UNL A   1      31.958  31.216  26.908  1.00  0.00    -0.376 OA
BRANCH  38  39
ATOM     39  C   UNL A   1      31.603  32.592  26.851  1.00  0.00     0.202 C 
BRANCH  39  40
ATOM     40  C   UNL A   1      32.693  33.548  27.363  1.00  0.00     0.261 C 
BRANCH  40  41
ATOM     41  O   UNL A   1      32.235  34.491  28.349  1.00  0.00    -0.460 OA
BRANCH  41  42
ATOM     42  C   UNL A   1      33.152  35.378  28.809  1.00  0.00     0.338 C 
ATOM     43  O   UNL A   1      33.012  36.579  28.947  1.00  0.00    -0.246 OA
BRANCH  42  44
ATOM     44  C   UNL A   1      34.287  34.595  29.345  1.00  0.00     0.060 A 
ATOM     45  C   UNL A   1      34.063  33.722  30.421  1.00  0.00     0.016 A 
ATOM     46  C   UNL A   1      35.549  34.680  28.753  1.00  0.00     0.016 A 
ATOM     47  C   UNL A   1      35.117  32.962  30.933  1.00  0.00     0.010 A 
ATOM     48  C   UNL A   1      36.604  33.932  29.275  1.00  0.00     0.010 A 
ATOM     49  C   UNL A   1      36.400  33.097  30.387  1.00  0.00    -0.014 A 
BRANCH  49  50
ATOM     50  C   UNL A   1      37.579  32.549  31.099  1.00  0.00     0.031 A 
ATOM     51  C   UNL A   1      38.321  31.411  30.455  1.00  0.00     0.074 A 
ATOM     52  C   UNL A   1      37.964  33.014  32.299  1.00  0.00     0.049 A 
ATOM     53  N   UNL A   1      39.317  30.698  30.913  1.00  0.00    -0.248 NA
ATOM     54  C   UNL A   1      37.867  31.020  29.110  1.00  0.00     0.031 C 
ATOM     55  C   UNL A   1      37.343  34.122  33.020  1.00  0.00     0.029 A 
ATOM     56  N   UNL A   1      38.966  32.583  33.133  1.00  0.00    -0.354 N 
ATOM     57  C   UNL A   1      39.607  29.776  29.916  1.00  0.00     0.074 A 
ATOM     58  C   UNL A   1      38.665  29.998  28.841  1.00  0.00     0.031 C 
ATOM     59  C   UNL A   1      37.961  34.266  34.207  1.00  0.00     0.029 A 
ATOM     60  C   UNL A   1      38.998  33.242  34.337  1.00  0.00     0.049 A 
ATOM     61  H   UNL A   1      39.601  31.871  32.892  1.00  0.00     0.167 HD
ATOM     62  C   UNL A   1      40.576  28.833  29.892  1.00  0.00     0.037 A 
ATOM     63  C   UNL A   1      39.760  33.020  35.426  1.00  0.00     0.037 A 
ATOM     64  C   UNL A   1      41.508  28.601  30.961  1.00  0.00     0.049 A 
ATOM     65  C   UNL A   1      40.788  31.917  35.408  1.00  0.00     0.074 A 
ATOM     66  C   UNL A   1      42.547  27.689  31.021  1.00  0.00     0.029 A 
ATOM     67  N   UNL A   1      41.503  29.283  32.168  1.00  0.00    -0.354 N 
ATOM     68  N   UNL A   1      41.088  31.079  34.446  1.00  0.00    -0.248 NA
ATOM     69  C   UNL A   1      41.586  31.733  36.629  1.00  0.00     0.031 C 
ATOM     70  C   UNL A   1      43.142  27.788  32.282  1.00  0.00     0.029 A 
ATOM     71  C   UNL A   1      42.505  28.795  32.991  1.00  0.00     0.049 A 
ATOM     72  H   UNL A   1      40.879  30.006  32.406  1.00  0.00     0.167 HD
ATOM     73  C   UNL A   1      42.122  30.288  34.932  1.00  0.00     0.074 A 
ATOM     74  C   UNL A   1      42.405  30.752  36.274  1.00  0.00     0.031 C 
ATOM     75  C   UNL A   1      42.781  29.272  34.321  1.00  0.00     0.037 A 
BRANCH  62  76
ATOM     76  C   UNL A   1      40.656  27.964  28.673  1.00  0.00     0.064 A 
ATOM     77  C   UNL A   1      41.436  28.325  27.564  1.00  0.00     0.173 A 
ATOM     78  C   UNL A   1      39.948  26.754  28.616  1.00  0.00     0.173 A 
ATOM     79  F   UNL A   1      42.116  29.481  27.565  1.00  0.00    -0.203 F 
ATOM     80  C   UNL A   1      41.482  27.519  26.431  1.00  0.00     0.198 A 
ATOM     81  C   UNL A   1      40.017  25.938  27.491  1.00  0.00     0.198 A 
ATOM     82  F   UNL A   1      39.188  26.366  29.651  1.00  0.00    -0.203 F 
ATOM     83  F   UNL A   1      42.195  27.906  25.364  1.00  0.00    -0.200 F 
ATOM     84  C   UNL A   1      40.778  26.324  26.397  1.00  0.00     0.200 A 
ATOM     85  F   UNL A   1      39.344  24.781  27.463  1.00  0.00    -0.200 F 
ATOM     86  F   UNL A   1      40.825  25.548  25.306  1.00  0.00    -0.200 F 
ENDBRANCH  62  76
BRANCH  63  87
ATOM     87  C   UNL A   1      39.569  33.852  36.642  1.00  0.00     0.064 A 
ATOM     88  C   UNL A   1      40.201  35.095  36.774  1.00  0.00     0.173 A 
ATOM     89  C   UNL A   1      38.765  33.410  37.703  1.00  0.00     0.173 A 
ATOM     90  F   UNL A   1      41.007  35.541  35.799  1.00  0.00    -0.203 F 
ATOM     91  C   UNL A   1      40.047  35.862  37.927  1.00  0.00     0.198 A 
ATOM     92  C   UNL A   1      38.593  34.188  38.846  1.00  0.00     0.198 A 
ATOM     93  F   UNL A   1      38.144  32.225  37.627  1.00  0.00    -0.203 F 
ATOM     94  F   UNL A   1      40.696  37.028  38.047  1.00  0.00    -0.200 F 
ATOM     95  C   UNL A   1      39.239  35.410  38.959  1.00  0.00     0.200 A 
ATOM     96  F   UNL A   1      37.807  33.751  39.840  1.00  0.00    -0.200 F 
ATOM     97  F   UNL A   1      39.090  36.149  40.068  1.00  0.00    -0.200 F 
ENDBRANCH  63  87
BRANCH  75  98
ATOM     98  C   UNL A   1      43.897  28.612  35.077  1.00  0.00     0.064 A 
ATOM     99  C   UNL A   1      45.211  29.094  35.021  1.00  0.00     0.173 A 
ATOM    100  C   UNL A   1      43.632  27.517  35.915  1.00  0.00     0.173 A 
ATOM    101  F   UNL A   1      45.517  30.130  34.224  1.00  0.00    -0.203 F 
ATOM    102  C   UNL A   1      46.226  28.494  35.761  1.00  0.00     0.198 A 
ATOM    103  C   UNL A   1      44.645  26.935  36.674  1.00  0.00     0.198 A 
ATOM    104  F   UNL A   1      42.390  27.023  36.010  1.00  0.00    -0.203 F 
ATOM    105  F   UNL A   1      47.484  28.947  35.664  1.00  0.00    -0.200 F 
ATOM    106  C   UNL A   1      45.941  27.421  36.593  1.00  0.00     0.200 A 
ATOM    107  F   UNL A   1      44.364  25.907  37.487  1.00  0.00    -0.200 F 
ATOM    108  F   UNL A   1      46.917  26.850  37.313  1.00  0.00    -0.200 F 
ENDBRANCH  75  98
ENDBRANCH  49  50
ENDBRANCH  42  44
ENDBRANCH  41  42
ENDBRANCH  40  41
ENDBRANCH  39  40
ENDBRANCH  38  39
ENDBRANCH  37  38
ENDBRANCH   1  37
TORSDOF 22
ENDMDL
MODEL 2
REMARK VINA RESULT:     -11.6      0.962      6.843
REMARK SMILES COC(=O)c1c(NC(=O)[C@@H]2[C@H]3CC[C@H](CC3)[C@H]2C(=O)OCCOCCOCCOC(=O)c2ccc(-c3c4nc(c(-c5c(F)c(F)c(F)c(F)c5F)c5ccc([nH]5)c(-c5c(F)c(F)c(F)c(F)c5F)c5nc(c(-c6c(F)c(F)c(F)c(F)c6F)c6ccc3[nH]6)C=C5)C=C4)cc2)sc(C)c1-c1ccc(C)cc1
REMARK SMILES IDX 24 1 23 2 22 3 21 4 20 5 18 6 19 7 17 8 10 9 11 10 12 11
REMARK SMILES IDX 16 12 14 13 13 14 15 15 8 16 7 17 9 19 6 20 5 21 98 22 95 23
REMARK SMILES IDX 96 24 97 25 3 26 4 27 2 28 1 29 99 30 100 31 105 32 101 33
REMARK SMILES IDX 104 34 102 35 103 36 25 37 26 38 27 39 28 40 29 41 30 42
REMARK SMILES IDX 31 43 32 44 33 45 94 46 34 47 93 48 35 49 36 50 37 51 87 52
REMARK SMILES IDX 38 53 92 54 86 55 88 56 39 57 91 58 85 59 84 60 40 62 72 63
REMARK SMILES IDX 52 64 71 65 53 66 56 67 70 68 89 69 54 70 55 71 69 73 90 74
REMARK SMILES IDX 57 75 41 76 42 77 50 78 43 79 44 80 48 81 51 82 45 83 46 84
REMARK SMILES IDX 49 85 47 86 73 87 74 88 82 89 75 90 76 91 80 92 83 93 77 94
REMARK SMILES IDX 78 95 81 96 79 97 58 98 59 99 67 100 60 101 61 102 65 103
REMARK SMILES IDX 68 104 62 105 63 106 66 107 64 108
REMARK H PARENT 7 18 88 61 56 72
REMARK Flexibility Score: inf
ROOT
ATOM      1  C   UNL A   1      34.431  29.004  27.360  1.00  0.00     0.188 C 
ENDROOT
BRANCH   1   2
ATOM      2  O   UNL A   1      33.489  28.012  26.979  1.00  0.00    -0.376 OA
BRANCH   2   3
ATOM      3  C   UNL A   1      33.706  27.375  25.717  1.00  0.00     0.202 C 
BRANCH   3   4
ATOM      4  C   UNL A   1      34.031  25.870  25.731  1.00  0.00     0.261 C 
BRANCH   4   5
ATOM      5  O   UNL A   1      34.656  25.366  24.521  1.00  0.00    -0.463 OA
BRANCH   5   6
ATOM      6  C   UNL A   1      35.198  24.124  24.653  1.00  0.00     0.310 C 
ATOM      7  O   UNL A   1      36.406  23.911  24.553  1.00  0.00    -0.252 OA
BRANCH   6   8
ATOM      8  C   UNL A   1      34.215  22.990  25.002  1.00  0.00     0.115 C 
ATOM      9  C   UNL A   1      33.857  21.942  23.924  1.00  0.00     0.096 C 
ATOM     10  C   UNL A   1      34.149  20.521  24.529  1.00  0.00     0.002 C 
ATOM     11  C   UNL A   1      35.629  20.453  24.953  1.00  0.00     0.005 C 
ATOM     12  C   UNL A   1      33.278  20.292  25.779  1.00  0.00     0.005 C 
ATOM     13  C   UNL A   1      34.665  22.313  26.321  1.00  0.00     0.004 C 
ATOM     14  C   UNL A   1      35.909  21.459  26.071  1.00  0.00     0.005 C 
ATOM     15  C   UNL A   1      33.502  21.420  26.789  1.00  0.00     0.005 C 
BRANCH   9  16
ATOM     16  C   UNL A   1      32.459  21.852  23.215  1.00  0.00     0.229 C 
ATOM     17  N   UNL A   1      31.319  22.563  23.434  1.00  0.00    -0.317 N 
ATOM     18  H   UNL A   1      30.503  22.080  23.171  1.00  0.00     0.170 HD
ATOM     19  O   UNL A   1      32.311  20.922  22.397  1.00  0.00    -0.274 OA
BRANCH  17  20
ATOM     20  C   UNL A   1      31.064  23.812  23.944  1.00  0.00     0.111 A 
ATOM     21  C   UNL A   1      31.187  25.083  23.388  1.00  0.00     0.102 A 
ATOM     22  C   UNL A   1      30.415  26.018  24.200  1.00  0.00     0.012 A 
ATOM     23  S   UNL A   1      31.001  24.048  25.630  1.00  0.00    -0.122 S 
ATOM     24  C   UNL A   1      29.966  25.385  25.353  1.00  0.00     0.012 A 
ATOM     25  C   UNL A   1      28.896  25.705  26.339  1.00  0.00     0.057 C 
BRANCH  21  26
ATOM     26  C   UNL A   1      31.952  25.364  22.179  1.00  0.00     0.341 C 
ATOM     27  O   UNL A   1      32.547  24.495  21.548  1.00  0.00    -0.246 OA
BRANCH  26  28
ATOM     28  O   UNL A   1      32.039  26.699  21.931  1.00  0.00    -0.465 OA
ATOM     29  C   UNL A   1      33.338  27.286  22.025  1.00  0.00     0.282 C 
ENDBRANCH  26  28
ENDBRANCH  21  26
BRANCH  22  30
ATOM     30  C   UNL A   1      30.094  27.420  23.953  1.00  0.00    -0.016 A 
ATOM     31  C   UNL A   1      30.856  28.464  24.485  1.00  0.00     0.009 A 
ATOM     32  C   UNL A   1      28.981  27.722  23.157  1.00  0.00     0.009 A 
ATOM     33  C   UNL A   1      30.499  29.792  24.220  1.00  0.00     0.004 A 
ATOM     34  C   UNL A   1      28.636  29.042  22.882  1.00  0.00     0.004 A 
ATOM     35  C   UNL A   1      29.390  30.089  23.415  1.00  0.00    -0.051 A 
ATOM     36  C   UNL A   1      28.997  31.513  23.150  1.00  0.00     0.044 C 
ENDBRANCH  22  30
ENDBRANCH  17  20
ENDBRANCH   9  16
ENDBRANCH   6   8
ENDBRANCH   5   6
ENDBRANCH   4   5
ENDBRANCH   3   4
ENDBRANCH   2   3
ENDBRANCH   1   2
BRANCH   1  37
ATOM     37  C   UNL A   1      33.988  30.469  27.276  1.00  0.00     0.188 C 
BRANCH  37  38
ATOM     38  O   UNL A   1      32.596  30.639  27.095  1.00  0.00    -0.376 OA
BRANCH  38  39
ATOM     39  C   UNL A   1      32.102  31.973  27.084  1.00  0.00     0.202 C 
BRANCH  39  40
ATOM     40  C   UNL A   1      32.941  32.965  27.906  1.00  0.00     0.261 C 
BRANCH  40  41
ATOM     41  O   UNL A   1      32.566  34.344  27.730  1.00  0.00    -0.460 OA
BRANCH  41  42
ATOM     42  C   UNL A   1      32.950  35.204  28.704  1.00  0.00     0.338 C 
ATOM     43  O   UNL A   1      32.360  36.199  29.084  1.00  0.00    -0.246 OA
BRANCH  42  44
ATOM     44  C   UNL A   1      34.105  34.593  29.399  1.00  0.00     0.060 A 
ATOM     45  C   UNL A   1      35.335  34.512  28.728  1.00  0.00     0.016 A 
ATOM     46  C   UNL A   1      33.987  34.157  30.720  1.00  0.00     0.016 A 
ATOM     47  C   UNL A   1      36.442  33.953  29.370  1.00  0.00     0.010 A 
ATOM     48  C   UNL A   1      35.089  33.584  31.354  1.00  0.00     0.010 A 
ATOM     49  C   UNL A   1      36.311  33.449  30.671  1.00  0.00    -0.014 A 
BRANCH  49  50
ATOM     50  C   UNL A   1      37.366  32.583  31.250  1.00  0.00     0.031 A 
ATOM     51  C   UNL A   1      37.887  32.932  32.615  1.00  0.00     0.074 A 
ATOM     52  C   UNL A   1      37.877  31.540  30.576  1.00  0.00     0.049 A 
ATOM     53  N   UNL A   1      38.867  32.396  33.297  1.00  0.00    -0.248 NA
ATOM     54  C   UNL A   1      37.215  34.047  33.301  1.00  0.00     0.031 C 
ATOM     55  C   UNL A   1      37.446  31.086  29.256  1.00  0.00     0.029 A 
ATOM     56  N   UNL A   1      38.900  30.687  30.912  1.00  0.00    -0.354 N 
ATOM     57  C   UNL A   1      38.928  33.108  34.487  1.00  0.00     0.074 A 
ATOM     58  C   UNL A   1      37.909  34.132  34.425  1.00  0.00     0.031 C 
ATOM     59  C   UNL A   1      38.221  30.053  28.879  1.00  0.00     0.029 A 
ATOM     60  C   UNL A   1      39.218  29.795  29.919  1.00  0.00     0.049 A 
ATOM     61  H   UNL A   1      39.360  30.712  31.782  1.00  0.00     0.167 HD
ATOM     62  C   UNL A   1      39.753  32.922  35.543  1.00  0.00     0.037 A 
ATOM     63  C   UNL A   1      40.219  28.895  29.851  1.00  0.00     0.037 A 
ATOM     64  C   UNL A   1      40.774  31.912  35.605  1.00  0.00     0.049 A 
ATOM     65  C   UNL A   1      41.174  28.750  31.009  1.00  0.00     0.074 A 
ATOM     66  C   UNL A   1      41.642  31.623  36.643  1.00  0.00     0.029 A 
ATOM     67  N   UNL A   1      41.072  31.033  34.576  1.00  0.00    -0.354 N 
ATOM     68  N   UNL A   1      41.198  29.394  32.150  1.00  0.00    -0.248 NA
ATOM     69  C   UNL A   1      42.241  27.747  30.868  1.00  0.00     0.031 C 
ATOM     70  C   UNL A   1      42.496  30.598  36.224  1.00  0.00     0.029 A 
ATOM     71  C   UNL A   1      42.129  30.216  34.943  1.00  0.00     0.049 A 
ATOM     72  H   UNL A   1      40.603  30.995  33.711  1.00  0.00     0.167 HD
ATOM     73  C   UNL A   1      42.260  28.861  32.872  1.00  0.00     0.074 A 
ATOM     74  C   UNL A   1      42.851  27.831  32.042  1.00  0.00     0.031 C 
ATOM     75  C   UNL A   1      42.701  29.190  34.111  1.00  0.00     0.037 A 
BRANCH  62  76
ATOM     76  C   UNL A   1      39.596  33.853  36.707  1.00  0.00     0.064 A 
ATOM     77  C   UNL A   1      40.220  35.109  36.732  1.00  0.00     0.173 A 
ATOM     78  C   UNL A   1      38.808  33.486  37.807  1.00  0.00     0.173 A 
ATOM     79  F   UNL A   1      40.998  35.496  35.710  1.00  0.00    -0.203 F 
ATOM     80  C   UNL A   1      40.083  35.953  37.829  1.00  0.00     0.198 A 
ATOM     81  C   UNL A   1      38.652  34.344  38.892  1.00  0.00     0.198 A 
ATOM     82  F   UNL A   1      38.191  32.295  37.831  1.00  0.00    -0.203 F 
ATOM     83  F   UNL A   1      40.727  37.129  37.853  1.00  0.00    -0.200 F 
ATOM     84  C   UNL A   1      39.295  35.573  38.906  1.00  0.00     0.200 A 
ATOM     85  F   UNL A   1      37.885  33.979  39.928  1.00  0.00    -0.200 F 
ATOM     86  F   UNL A   1      39.162  36.387  39.961  1.00  0.00    -0.200 F 
ENDBRANCH  62  76
BRANCH  63  87
ATOM     87  C   UNL A   1      40.384  28.066  28.629  1.00  0.00     0.064 A 
ATOM     88  C   UNL A   1      39.803  26.795  28.534  1.00  0.00     0.173 A 
ATOM     89  C   UNL A   1      41.143  28.523  27.541  1.00  0.00     0.173 A 
ATOM     90  F   UNL A   1      39.098  26.304  29.564  1.00  0.00    -0.203 F 
ATOM     91  C   UNL A   1      39.983  26.005  27.401  1.00  0.00     0.198 A 
ATOM     92  C   UNL A   1      41.304  27.741  26.399  1.00  0.00     0.198 A 
ATOM     93  F   UNL A   1      41.725  29.730  27.588  1.00  0.00    -0.203 F 
ATOM     94  F   UNL A   1      39.452  24.776  27.350  1.00  0.00    -0.200 F 
ATOM     95  C   UNL A   1      40.728  26.481  26.332  1.00  0.00     0.200 A 
ATOM     96  F   UNL A   1      42.020  28.206  25.366  1.00  0.00    -0.200 F 
ATOM     97  F   UNL A   1      40.900  25.721  25.242  1.00  0.00    -0.200 F 
ENDBRANCH  63  87
BRANCH  75  98
ATOM     98  C   UNL A   1      43.858  28.411  34.666  1.00  0.00     0.064 A 
ATOM     99  C   UNL A   1      45.179  28.861  34.537  1.00  0.00     0.173 A 
ATOM    100  C   UNL A   1      43.633  27.229  35.389  1.00  0.00     0.173 A 
ATOM    101  F   UNL A   1      45.447  29.979  33.844  1.00  0.00    -0.203 F 
ATOM    102  C   UNL A   1      46.236  28.146  35.095  1.00  0.00     0.198 A 
ATOM    103  C   UNL A   1      44.690  26.530  35.967  1.00  0.00     0.198 A 
ATOM    104  F   UNL A   1      42.387  26.760  35.547  1.00  0.00    -0.203 F 
ATOM    105  F   UNL A   1      47.496  28.574  34.927  1.00  0.00    -0.200 F 
ATOM    106  C   UNL A   1      45.990  26.987  35.816  1.00  0.00     0.200 A 
ATOM    107  F   UNL A   1      44.449  25.418  36.674  1.00  0.00    -0.200 F 
ATOM    108  F   UNL A   1      47.008  26.305  36.360  1.00  0.00    -0.200 F 
ENDBRANCH  75  98
ENDBRANCH  49  50
ENDBRANCH  42  44
ENDBRANCH  41  42
ENDBRANCH  40  41
ENDBRANCH  39  40
ENDBRANCH  38  39
ENDBRANCH  37  38
ENDBRANCH   1  37
TORSDOF 22
ENDMDL
MODEL 3
REMARK VINA RESULT:     -11.4      4.660      9.410
REMARK SMILES COC(=O)c1c(NC(=O)[C@@H]2[C@H]3CC[C@H](CC3)[C@H]2C(=O)OCCOCCOCCOC(=O)c2ccc(-c3c4nc(c(-c5c(F)c(F)c(F)c(F)c5F)c5ccc([nH]5)c(-c5c(F)c(F)c(F)c(F)c5F)c5nc(c(-c6c(F)c(F)c(F)c(F)c6F)c6ccc3[nH]6)C=C5)C=C4)cc2)sc(C)c1-c1ccc(C)cc1
REMARK SMILES IDX 24 1 23 2 22 3 21 4 20 5 18 6 19 7 17 8 10 9 11 10 12 11
REMARK SMILES IDX 16 12 14 13 13 14 15 15 8 16 7 17 9 19 6 20 5 21 98 22 95 23
REMARK SMILES IDX 96 24 97 25 3 26 4 27 2 28 1 29 99 30 100 31 105 32 101 33
REMARK SMILES IDX 104 34 102 35 103 36 25 37 26 38 27 39 28 40 29 41 30 42
REMARK SMILES IDX 31 43 32 44 33 45 94 46 34 47 93 48 35 49 36 50 37 51 87 52
REMARK SMILES IDX 38 53 92 54 86 55 88 56 39 57 91 58 85 59 84 60 40 62 72 63
REMARK SMILES IDX 52 64 71 65 53 66 56 67 70 68 89 69 54 70 55 71 69 73 90 74
REMARK SMILES IDX 57 75 41 76 42 77 50 78 43 79 44 80 48 81 51 82 45 83 46 84
REMARK SMILES IDX 49 85 47 86 73 87 74 88 82 89 75 90 76 91 80 92 83 93 77 94
REMARK SMILES IDX 78 95 81 96 79 97 58 98 59 99 67 100 60 101 61 102 65 103
REMARK SMILES IDX 68 104 62 105 63 106 66 107 64 108
REMARK H PARENT 7 18 88 61 56 72
REMARK Flexibility Score: inf
ROOT
ATOM      1  C   UNL A   1      36.016  31.677  28.014  1.00  0.00     0.188 C 
ENDROOT
BRANCH   1   2
ATOM      2  O   UNL A   1      35.828  30.286  28.233  1.00  0.00    -0.376 OA
BRANCH   2   3
ATOM      3  C   UNL A   1      35.252  29.541  27.157  1.00  0.00     0.202 C 
BRANCH   3   4
ATOM      4  C   UNL A   1      33.845  28.954  27.377  1.00  0.00     0.261 C 
BRANCH   4   5
ATOM      5  O   UNL A   1      33.662  27.601  26.882  1.00  0.00    -0.463 OA
BRANCH   5   6
ATOM      6  C   UNL A   1      32.419  27.357  26.383  1.00  0.00     0.310 C 
ATOM      7  O   UNL A   1      31.390  27.702  26.961  1.00  0.00    -0.252 OA
BRANCH   6   8
ATOM      8  C   UNL A   1      32.365  26.670  25.004  1.00  0.00     0.115 C 
ATOM      9  C   UNL A   1      31.091  26.804  24.142  1.00  0.00     0.096 C 
ATOM     10  C   UNL A   1      31.526  27.356  22.736  1.00  0.00     0.002 C 
ATOM     11  C   UNL A   1      32.254  28.701  22.930  1.00  0.00     0.005 C 
ATOM     12  C   UNL A   1      32.501  26.371  22.063  1.00  0.00     0.005 C 
ATOM     13  C   UNL A   1      33.635  27.044  24.199  1.00  0.00     0.004 C 
ATOM     14  C   UNL A   1      33.544  28.495  23.726  1.00  0.00     0.005 C 
ATOM     15  C   UNL A   1      33.692  26.101  22.984  1.00  0.00     0.005 C 
BRANCH   9  16
ATOM     16  C   UNL A   1      30.081  25.631  23.873  1.00  0.00     0.229 C 
ATOM     17  N   UNL A   1      30.287  24.285  23.866  1.00  0.00    -0.317 N 
ATOM     18  H   UNL A   1      29.645  23.797  23.301  1.00  0.00     0.170 HD
ATOM     19  O   UNL A   1      28.937  25.958  23.501  1.00  0.00    -0.274 OA
BRANCH  17  20
ATOM     20  C   UNL A   1      31.199  23.461  24.479  1.00  0.00     0.111 A 
ATOM     21  C   UNL A   1      32.252  22.705  23.970  1.00  0.00     0.102 A 
ATOM     22  C   UNL A   1      33.136  22.345  25.075  1.00  0.00     0.012 A 
ATOM     23  S   UNL A   1      30.865  22.815  26.019  1.00  0.00    -0.122 S 
ATOM     24  C   UNL A   1      32.555  22.707  26.284  1.00  0.00     0.012 A 
ATOM     25  C   UNL A   1      33.098  22.904  27.656  1.00  0.00     0.057 C 
BRANCH  21  26
ATOM     26  C   UNL A   1      32.405  22.382  22.556  1.00  0.00     0.341 C 
ATOM     27  O   UNL A   1      33.054  23.076  21.779  1.00  0.00    -0.246 OA
BRANCH  26  28
ATOM     28  O   UNL A   1      31.634  21.321  22.191  1.00  0.00    -0.465 OA
ATOM     29  C   UNL A   1      32.152  20.022  22.483  1.00  0.00     0.282 C 
ENDBRANCH  26  28
ENDBRANCH  21  26
BRANCH  22  30
ATOM     30  C   UNL A   1      34.445  21.702  25.047  1.00  0.00    -0.016 A 
ATOM     31  C   UNL A   1      34.594  20.313  25.021  1.00  0.00     0.009 A 
ATOM     32  C   UNL A   1      35.589  22.514  25.050  1.00  0.00     0.009 A 
ATOM     33  C   UNL A   1      35.876  19.750  25.000  1.00  0.00     0.004 A 
ATOM     34  C   UNL A   1      36.863  21.952  25.015  1.00  0.00     0.004 A 
ATOM     35  C   UNL A   1      37.018  20.565  24.994  1.00  0.00    -0.051 A 
ATOM     36  C   UNL A   1      38.390  19.959  24.993  1.00  0.00     0.044 C 
ENDBRANCH  22  30
ENDBRANCH  17  20
ENDBRANCH   9  16
ENDBRANCH   6   8
ENDBRANCH   5   6
ENDBRANCH   4   5
ENDBRANCH   3   4
ENDBRANCH   2   3
ENDBRANCH   1   2
BRANCH   1  37
ATOM     37  C   UNL A   1      34.784  32.582  28.127  1.00  0.00     0.188 C 
BRANCH  37  38
ATOM     38  O   UNL A   1      34.090  32.459  29.353  1.00  0.00    -0.376 OA
BRANCH  38  39
ATOM     39  C   UNL A   1      34.757  32.915  30.524  1.00  0.00     0.202 C 
BRANCH  39  40
ATOM     40  C   UNL A   1      35.311  31.792  31.416  1.00  0.00     0.261 C 
BRANCH  40  41
ATOM     41  O   UNL A   1      35.987  32.256  32.599  1.00  0.00    -0.460 OA
BRANCH  41  42
ATOM     42  C   UNL A   1      36.793  33.336  32.450  1.00  0.00     0.338 C 
ATOM     43  O   UNL A   1      36.615  34.456  32.892  1.00  0.00    -0.246 OA
BRANCH  42  44
ATOM     44  C   UNL A   1      38.058  32.858  31.850  1.00  0.00     0.060 A 
ATOM     45  C   UNL A   1      38.355  33.206  30.523  1.00  0.00     0.016 A 
ATOM     46  C   UNL A   1      38.969  32.121  32.610  1.00  0.00     0.016 A 
ATOM     47  C   UNL A   1      39.551  32.779  29.942  1.00  0.00     0.010 A 
ATOM     48  C   UNL A   1      40.155  31.681  32.023  1.00  0.00     0.010 A 
ATOM     49  C   UNL A   1      40.435  31.979  30.678  1.00  0.00    -0.014 A 
BRANCH  49  50
ATOM     50  C   UNL A   1      41.541  31.263  29.999  1.00  0.00     0.031 A 
ATOM     51  C   UNL A   1      42.794  32.037  29.694  1.00  0.00     0.074 A 
ATOM     52  C   UNL A   1      41.433  29.977  29.627  1.00  0.00     0.049 A 
ATOM     53  N   UNL A   1      43.859  31.672  29.028  1.00  0.00    -0.248 NA
ATOM     54  C   UNL A   1      42.844  33.417  30.204  1.00  0.00     0.031 C 
ATOM     55  C   UNL A   1      40.282  29.114  29.880  1.00  0.00     0.029 A 
ATOM     56  N   UNL A   1      42.307  29.183  28.927  1.00  0.00    -0.354 N 
ATOM     57  C   UNL A   1      44.702  32.774  29.039  1.00  0.00     0.074 A 
ATOM     58  C   UNL A   1      44.017  33.831  29.750  1.00  0.00     0.031 C 
ATOM     59  C   UNL A   1      40.510  27.914  29.315  1.00  0.00     0.029 A 
ATOM     60  C   UNL A   1      41.807  27.938  28.639  1.00  0.00     0.049 A 
ATOM     61  H   UNL A   1      43.207  29.478  28.658  1.00  0.00     0.167 HD
ATOM     62  C   UNL A   1      45.942  32.896  28.511  1.00  0.00     0.037 A 
ATOM     63  C   UNL A   1      42.328  26.948  27.888  1.00  0.00     0.037 A 
ATOM     64  C   UNL A   1      46.624  31.853  27.795  1.00  0.00     0.049 A 
ATOM     65  C   UNL A   1      43.682  27.127  27.248  1.00  0.00     0.074 A 
ATOM     66  C   UNL A   1      47.894  31.868  27.247  1.00  0.00     0.029 A 
ATOM     67  N   UNL A   1      46.081  30.609  27.515  1.00  0.00    -0.354 N 
ATOM     68  N   UNL A   1      44.494  28.154  27.301  1.00  0.00    -0.248 NA
ATOM     69  C   UNL A   1      44.192  26.005  26.446  1.00  0.00     0.031 C 
ATOM     70  C   UNL A   1      48.103  30.647  26.597  1.00  0.00     0.029 A 
ATOM     71  C   UNL A   1      46.981  29.854  26.781  1.00  0.00     0.049 A 
ATOM     72  H   UNL A   1      45.187  30.306  27.797  1.00  0.00     0.167 HD
ATOM     73  C   UNL A   1      45.618  27.795  26.564  1.00  0.00     0.074 A 
ATOM     74  C   UNL A   1      45.386  26.450  26.082  1.00  0.00     0.031 C 
ATOM     75  C   UNL A   1      46.740  28.513  26.315  1.00  0.00     0.037 A 
BRANCH  62  76
ATOM     76  C   UNL A   1      46.628  34.219  28.672  1.00  0.00     0.064 A 
ATOM     77  C   UNL A   1      47.455  34.489  29.773  1.00  0.00     0.173 A 
ATOM     78  C   UNL A   1      46.460  35.227  27.711  1.00  0.00     0.173 A 
ATOM     79  F   UNL A   1      47.631  33.562  30.727  1.00  0.00    -0.203 F 
ATOM     80  C   UNL A   1      48.066  35.730  29.920  1.00  0.00     0.198 A 
ATOM     81  C   UNL A   1      47.094  36.458  27.848  1.00  0.00     0.198 A 
ATOM     82  F   UNL A   1      45.679  35.018  26.641  1.00  0.00    -0.203 F 
ATOM     83  F   UNL A   1      48.813  35.983  31.004  1.00  0.00    -0.200 F 
ATOM     84  C   UNL A   1      47.891  36.711  28.955  1.00  0.00     0.200 A 
ATOM     85  F   UNL A   1      46.930  37.402  26.912  1.00  0.00    -0.200 F 
ATOM     86  F   UNL A   1      48.482  37.905  29.097  1.00  0.00    -0.200 F 
ENDBRANCH  62  76
BRANCH  63  87
ATOM     87  C   UNL A   1      41.559  25.693  27.685  1.00  0.00     0.064 A 
ATOM     88  C   UNL A   1      41.907  24.514  28.355  1.00  0.00     0.173 A 
ATOM     89  C   UNL A   1      40.471  25.647  26.800  1.00  0.00     0.173 A 
ATOM     90  F   UNL A   1      42.962  24.504  29.184  1.00  0.00    -0.203 F 
ATOM     91  C   UNL A   1      41.205  23.330  28.141  1.00  0.00     0.198 A 
ATOM     92  C   UNL A   1      39.755  24.469  26.604  1.00  0.00     0.198 A 
ATOM     93  F   UNL A   1      40.103  26.748  26.130  1.00  0.00    -0.203 F 
ATOM     94  F   UNL A   1      41.583  22.205  28.762  1.00  0.00    -0.200 F 
ATOM     95  C   UNL A   1      40.126  23.310  27.270  1.00  0.00     0.200 A 
ATOM     96  F   UNL A   1      38.709  24.453  25.765  1.00  0.00    -0.200 F 
ATOM     97  F   UNL A   1      39.449  22.171  27.065  1.00  0.00    -0.200 F 
ENDBRANCH  63  87
BRANCH  75  98
ATOM     98  C   UNL A   1      47.824  27.853  25.513  1.00  0.00     0.064 A 
ATOM     99  C   UNL A   1      47.794  27.828  24.112  1.00  0.00     0.173 A 
ATOM    100  C   UNL A   1      48.937  27.289  26.158  1.00  0.00     0.173 A 
ATOM    101  F   UNL A   1      46.745  28.341  23.451  1.00  0.00    -0.203 F 
ATOM    102  C   UNL A   1      48.829  27.247  23.385  1.00  0.00     0.198 A 
ATOM    103  C   UNL A   1      49.983  26.732  25.426  1.00  0.00     0.198 A 
ATOM    104  F   UNL A   1      49.018  27.294  27.496  1.00  0.00    -0.203 F 
ATOM    105  F   UNL A   1      48.762  27.200  22.046  1.00  0.00    -0.200 F 
ATOM    106  C   UNL A   1      49.925  26.707  24.041  1.00  0.00     0.200 A 
ATOM    107  F   UNL A   1      51.047  26.223  26.062  1.00  0.00    -0.200 F 
ATOM    108  F   UNL A   1      50.925  26.156  23.338  1.00  0.00    -0.200 F 
ENDBRANCH  75  98
ENDBRANCH  49  50
ENDBRANCH  42  44
ENDBRANCH  41  42
ENDBRANCH  40  41
ENDBRANCH  39  40
ENDBRANCH  38  39
ENDBRANCH  37  38
ENDBRANCH   1  37
TORSDOF 22
ENDMDL
