MODEL 1
REMARK VINA RESULT:     -11.7      0.000      0.000
REMARK SMILES Cc1cc(=O)cc(C)n1-c1ccc(Cl)cc1C(=O)OCCOCCOCCOC(=O)c1ccc(-c2c3nc(c(-c4c(F)c(F)c(F)c(F)c4F)c4ccc([nH]4)c(-c4c(F)c(F)c(F)c(F)c4F)c4nc(c(-c5c(F)c(F)c(F)c(F)c5F)c5ccc2[nH]5)C=C4)C=C3)cc1
REMARK SMILES IDX 24 1 23 2 22 3 21 4 20 5 19 6 17 7 18 8 16 9 10 10 11 11
REMARK SMILES IDX 12 12 15 13 13 14 14 15 9 16 1 17 2 18 3 19 4 20 7 21 5 22
REMARK SMILES IDX 6 23 8 24 25 25 26 26 27 27 28 28 29 29 30 30 31 31 32 32
REMARK SMILES IDX 93 33 33 34 92 35 34 36 35 37 36 38 86 39 37 40 91 41 85 42
REMARK SMILES IDX 87 43 38 44 90 45 84 46 83 47 39 49 71 50 51 51 70 52 52 53
REMARK SMILES IDX 55 54 69 55 88 56 53 57 54 58 68 60 89 61 56 62 40 63 41 64
REMARK SMILES IDX 49 65 42 66 43 67 47 68 50 69 44 70 45 71 48 72 46 73 72 74
REMARK SMILES IDX 73 75 81 76 74 77 75 78 79 79 82 80 76 81 77 82 80 83 78 84
REMARK SMILES IDX 57 85 58 86 66 87 59 88 60 89 64 90 67 91 61 92 62 93 65 94
REMARK SMILES IDX 63 95
REMARK H PARENT 87 48 55 59
REMARK Flexibility Score: inf
ROOT
ATOM      1  C   UNL A   1      41.120  20.624  26.424  1.00  0.00     0.188 C 
ENDROOT
BRANCH   1   2
ATOM      2  C   UNL A   1      40.421  21.694  27.295  1.00  0.00     0.188 C 
BRANCH   2   3
ATOM      3  O   UNL A   1      39.490  22.561  26.694  1.00  0.00    -0.376 OA
BRANCH   3   4
ATOM      4  C   UNL A   1      38.549  22.082  25.748  1.00  0.00     0.202 C 
BRANCH   4   5
ATOM      5  C   UNL A   1      37.053  22.426  25.748  1.00  0.00     0.261 C 
BRANCH   5   6
ATOM      6  O   UNL A   1      36.688  23.702  25.219  1.00  0.00    -0.460 OA
BRANCH   6   7
ATOM      7  C   UNL A   1      35.652  23.699  24.347  1.00  0.00     0.340 C 
ATOM      8  O   UNL A   1      35.650  23.208  23.228  1.00  0.00    -0.246 OA
BRANCH   7   9
ATOM      9  C   UNL A   1      34.416  24.238  24.961  1.00  0.00     0.085 A 
ATOM     10  C   UNL A   1      33.271  23.471  25.277  1.00  0.00     0.060 A 
ATOM     11  C   UNL A   1      32.196  24.145  25.901  1.00  0.00     0.029 A 
ATOM     12  C   UNL A   1      32.221  25.526  26.124  1.00  0.00     0.023 A 
ATOM     13  C   UNL A   1      34.440  25.627  25.196  1.00  0.00     0.038 A 
ATOM     14  C   UNL A   1      33.337  26.263  25.753  1.00  0.00     0.042 A 
ATOM     15  Cl  UNL A   1      33.354  27.969  25.965  1.00  0.00    -0.084 Cl
BRANCH  10  16
ATOM     16  N   UNL A   1      33.131  22.071  24.981  1.00  0.00    -0.317 N 
ATOM     17  C   UNL A   1      32.326  22.594  22.606  1.00  0.00     0.065 C 
ATOM     18  C   UNL A   1      32.614  21.630  23.733  1.00  0.00     0.024 A 
ATOM     19  C   UNL A   1      32.390  20.328  23.471  1.00  0.00     0.073 A 
ATOM     20  C   UNL A   1      32.698  19.307  24.484  1.00  0.00     0.182 A 
ATOM     21  C   UNL A   1      33.468  21.091  25.961  1.00  0.00     0.024 A 
ATOM     22  O   UNL A   1      32.494  18.118  24.274  1.00  0.00    -0.290 OA
ATOM     23  C   UNL A   1      33.276  19.774  25.753  1.00  0.00     0.073 A 
ATOM     24  C   UNL A   1      34.022  21.461  27.321  1.00  0.00     0.065 C 
ENDBRANCH  10  16
ENDBRANCH   7   9
ENDBRANCH   6   7
ENDBRANCH   5   6
ENDBRANCH   4   5
ENDBRANCH   3   4
ENDBRANCH   2   3
ENDBRANCH   1   2
BRANCH   1  25
ATOM     25  O   UNL A   1      42.515  20.414  26.502  1.00  0.00    -0.376 OA
BRANCH  25  26
ATOM     26  C   UNL A   1      43.350  20.982  25.506  1.00  0.00     0.202 C 
BRANCH  26  27
ATOM     27  C   UNL A   1      44.024  22.351  25.711  1.00  0.00     0.261 C 
BRANCH  27  28
ATOM     28  O   UNL A   1      43.331  23.476  25.147  1.00  0.00    -0.460 OA
BRANCH  28  29
ATOM     29  C   UNL A   1      43.957  24.678  25.265  1.00  0.00     0.338 C 
ATOM     30  O   UNL A   1      44.864  25.111  24.588  1.00  0.00    -0.246 OA
BRANCH  29  31
ATOM     31  C   UNL A   1      43.207  25.509  26.235  1.00  0.00     0.060 A 
ATOM     32  C   UNL A   1      43.696  26.788  26.538  1.00  0.00     0.016 A 
ATOM     33  C   UNL A   1      42.038  25.038  26.834  1.00  0.00     0.016 A 
ATOM     34  C   UNL A   1      43.009  27.608  27.432  1.00  0.00     0.010 A 
ATOM     35  C   UNL A   1      41.373  25.845  27.765  1.00  0.00     0.010 A 
ATOM     36  C   UNL A   1      41.865  27.125  28.080  1.00  0.00    -0.014 A 
BRANCH  36  37
ATOM     37  C   UNL A   1      41.328  27.882  29.238  1.00  0.00     0.031 A 
ATOM     38  C   UNL A   1      42.055  27.780  30.549  1.00  0.00     0.074 A 
ATOM     39  C   UNL A   1      40.262  28.694  29.118  1.00  0.00     0.049 A 
ATOM     40  N   UNL A   1      41.814  28.385  31.683  1.00  0.00    -0.248 NA
ATOM     41  C   UNL A   1      43.216  26.875  30.582  1.00  0.00     0.031 C 
ATOM     42  C   UNL A   1      39.499  28.913  27.894  1.00  0.00     0.029 A 
ATOM     43  N   UNL A   1      39.646  29.495  30.049  1.00  0.00    -0.354 N 
ATOM     44  C   UNL A   1      42.802  27.949  32.555  1.00  0.00     0.074 A 
ATOM     45  C   UNL A   1      43.613  26.989  31.840  1.00  0.00     0.031 C 
ATOM     46  C   UNL A   1      38.517  29.796  28.145  1.00  0.00     0.029 A 
ATOM     47  C   UNL A   1      38.568  30.189  29.555  1.00  0.00     0.049 A 
ATOM     48  H   UNL A   1      39.947  29.564  30.984  1.00  0.00     0.167 HD
ATOM     49  C   UNL A   1      43.028  28.332  33.832  1.00  0.00     0.037 A 
ATOM     50  C   UNL A   1      37.722  31.038  30.172  1.00  0.00     0.037 A 
ATOM     51  C   UNL A   1      42.218  29.279  34.548  1.00  0.00     0.049 A 
ATOM     52  C   UNL A   1      37.927  31.365  31.632  1.00  0.00     0.074 A 
ATOM     53  C   UNL A   1      42.377  29.738  35.842  1.00  0.00     0.029 A 
ATOM     54  N   UNL A   1      41.090  29.901  34.034  1.00  0.00    -0.354 N 
ATOM     55  N   UNL A   1      38.889  30.986  32.437  1.00  0.00    -0.248 NA
ATOM     56  C   UNL A   1      36.927  32.238  32.270  1.00  0.00     0.031 C 
ATOM     57  C   UNL A   1      41.312  30.593  36.134  1.00  0.00     0.029 A 
ATOM     58  C   UNL A   1      40.520  30.711  35.002  1.00  0.00     0.049 A 
ATOM     59  H   UNL A   1      40.748  29.785  33.119  1.00  0.00     0.167 HD
ATOM     60  C   UNL A   1      38.625  31.586  33.663  1.00  0.00     0.074 A 
ATOM     61  C   UNL A   1      37.420  32.367  33.496  1.00  0.00     0.031 C 
ATOM     62  C   UNL A   1      39.321  31.492  34.823  1.00  0.00     0.037 A 
BRANCH  49  63
ATOM     63  C   UNL A   1      44.198  27.720  34.544  1.00  0.00     0.064 A 
ATOM     64  C   UNL A   1      45.481  28.282  34.456  1.00  0.00     0.173 A 
ATOM     65  C   UNL A   1      44.027  26.594  35.360  1.00  0.00     0.173 A 
ATOM     66  F   UNL A   1      45.699  29.352  33.675  1.00  0.00    -0.203 F 
ATOM     67  C   UNL A   1      46.554  27.724  35.144  1.00  0.00     0.198 A 
ATOM     68  C   UNL A   1      45.096  26.058  36.073  1.00  0.00     0.198 A 
ATOM     69  F   UNL A   1      42.819  26.022  35.482  1.00  0.00    -0.203 F 
ATOM     70  F   UNL A   1      47.779  28.252  35.013  1.00  0.00    -0.200 F 
ATOM     71  C   UNL A   1      46.360  26.619  35.959  1.00  0.00     0.200 A 
ATOM     72  F   UNL A   1      44.904  24.999  36.870  1.00  0.00    -0.200 F 
ATOM     73  F   UNL A   1      47.391  26.093  36.634  1.00  0.00    -0.200 F 
ENDBRANCH  49  63
BRANCH  50  74
ATOM     74  C   UNL A   1      36.604  31.655  29.406  1.00  0.00     0.064 A 
ATOM     75  C   UNL A   1      35.528  30.881  28.951  1.00  0.00     0.173 A 
ATOM     76  C   UNL A   1      36.587  33.028  29.119  1.00  0.00     0.173 A 
ATOM     77  F   UNL A   1      35.515  29.558  29.173  1.00  0.00    -0.203 F 
ATOM     78  C   UNL A   1      34.479  31.455  28.235  1.00  0.00     0.198 A 
ATOM     79  C   UNL A   1      35.524  33.606  28.427  1.00  0.00     0.198 A 
ATOM     80  F   UNL A   1      37.597  33.813  29.522  1.00  0.00    -0.203 F 
ATOM     81  F   UNL A   1      33.480  30.686  27.782  1.00  0.00    -0.200 F 
ATOM     82  C   UNL A   1      34.472  32.819  27.982  1.00  0.00     0.200 A 
ATOM     83  F   UNL A   1      35.518  34.925  28.190  1.00  0.00    -0.200 F 
ATOM     84  F   UNL A   1      33.458  33.372  27.304  1.00  0.00    -0.200 F 
ENDBRANCH  50  74
BRANCH  62  85
ATOM     85  C   UNL A   1      38.818  32.244  36.021  1.00  0.00     0.064 A 
ATOM     86  C   UNL A   1      38.122  31.591  37.048  1.00  0.00     0.173 A 
ATOM     87  C   UNL A   1      39.161  33.592  36.213  1.00  0.00     0.173 A 
ATOM     88  F   UNL A   1      37.763  30.306  36.911  1.00  0.00    -0.203 F 
ATOM     89  C   UNL A   1      37.794  32.259  38.226  1.00  0.00     0.198 A 
ATOM     90  C   UNL A   1      38.856  34.248  37.402  1.00  0.00     0.198 A 
ATOM     91  F   UNL A   1      39.837  34.259  35.265  1.00  0.00    -0.203 F 
ATOM     92  F   UNL A   1      37.119  31.618  39.190  1.00  0.00    -0.200 F 
ATOM     93  C   UNL A   1      38.174  33.580  38.408  1.00  0.00     0.200 A 
ATOM     94  F   UNL A   1      39.245  35.517  37.586  1.00  0.00    -0.200 F 
ATOM     95  F   UNL A   1      37.890  34.209  39.557  1.00  0.00    -0.200 F 
ENDBRANCH  62  85
ENDBRANCH  36  37
ENDBRANCH  29  31
ENDBRANCH  28  29
ENDBRANCH  27  28
ENDBRANCH  26  27
ENDBRANCH  25  26
ENDBRANCH   1  25
TORSDOF 18
ENDMDL
MODEL 2
REMARK VINA RESULT:     -11.6      1.428      7.540
REMARK SMILES Cc1cc(=O)cc(C)n1-c1ccc(Cl)cc1C(=O)OCCOCCOCCOC(=O)c1ccc(-c2c3nc(c(-c4c(F)c(F)c(F)c(F)c4F)c4ccc([nH]4)c(-c4c(F)c(F)c(F)c(F)c4F)c4nc(c(-c5c(F)c(F)c(F)c(F)c5F)c5ccc2[nH]5)C=C4)C=C3)cc1
REMARK SMILES IDX 24 1 23 2 22 3 21 4 20 5 19 6 17 7 18 8 16 9 10 10 11 11
REMARK SMILES IDX 12 12 15 13 13 14 14 15 9 16 1 17 2 18 3 19 4 20 7 21 5 22
REMARK SMILES IDX 6 23 8 24 25 25 26 26 27 27 28 28 29 29 30 30 31 31 32 32
REMARK SMILES IDX 93 33 33 34 92 35 34 36 35 37 36 38 86 39 37 40 91 41 85 42
REMARK SMILES IDX 87 43 38 44 90 45 84 46 83 47 39 49 71 50 51 51 70 52 52 53
REMARK SMILES IDX 55 54 69 55 88 56 53 57 54 58 68 60 89 61 56 62 40 63 41 64
REMARK SMILES IDX 49 65 42 66 43 67 47 68 50 69 44 70 45 71 48 72 46 73 72 74
REMARK SMILES IDX 73 75 81 76 74 77 75 78 79 79 82 80 76 81 77 82 80 83 78 84
REMARK SMILES IDX 57 85 58 86 66 87 59 88 60 89 64 90 67 91 61 92 62 93 65 94
REMARK SMILES IDX 63 95
REMARK H PARENT 87 48 55 59
REMARK Flexibility Score: inf
ROOT
ATOM      1  C   UNL A   1      41.066  20.542  26.341  1.00  0.00     0.188 C 
ENDROOT
BRANCH   1   2
ATOM      2  C   UNL A   1      40.620  21.848  27.038  1.00  0.00     0.188 C 
BRANCH   2   3
ATOM      3  O   UNL A   1      39.331  22.352  26.784  1.00  0.00    -0.376 OA
BRANCH   3   4
ATOM      4  C   UNL A   1      38.512  21.789  25.773  1.00  0.00     0.202 C 
BRANCH   4   5
ATOM      5  C   UNL A   1      37.011  22.063  25.606  1.00  0.00     0.261 C 
BRANCH   5   6
ATOM      6  O   UNL A   1      36.138  20.937  25.705  1.00  0.00    -0.460 OA
BRANCH   6   7
ATOM      7  C   UNL A   1      34.875  21.210  26.110  1.00  0.00     0.340 C 
ATOM      8  O   UNL A   1      34.549  21.696  27.183  1.00  0.00    -0.246 OA
BRANCH   7   9
ATOM      9  C   UNL A   1      33.891  20.997  25.023  1.00  0.00     0.085 A 
ATOM     10  C   UNL A   1      33.084  22.008  24.454  1.00  0.00     0.060 A 
ATOM     11  C   UNL A   1      32.230  21.631  23.392  1.00  0.00     0.029 A 
ATOM     12  C   UNL A   1      32.120  20.301  22.971  1.00  0.00     0.023 A 
ATOM     13  C   UNL A   1      33.784  19.661  24.588  1.00  0.00     0.038 A 
ATOM     14  C   UNL A   1      32.886  19.319  23.585  1.00  0.00     0.042 A 
ATOM     15  Cl  UNL A   1      32.714  17.674  23.118  1.00  0.00    -0.084 Cl
BRANCH  10  16
ATOM     16  N   UNL A   1      33.063  23.373  24.906  1.00  0.00    -0.317 N 
ATOM     17  C   UNL A   1      34.987  23.985  23.329  1.00  0.00     0.065 C 
ATOM     18  C   UNL A   1      34.010  24.321  24.432  1.00  0.00     0.024 A 
ATOM     19  C   UNL A   1      34.065  25.578  24.910  1.00  0.00     0.073 A 
ATOM     20  C   UNL A   1      33.114  26.018  25.942  1.00  0.00     0.182 A 
ATOM     21  C   UNL A   1      32.111  23.794  25.881  1.00  0.00     0.024 A 
ATOM     22  O   UNL A   1      33.149  27.153  26.400  1.00  0.00    -0.290 OA
ATOM     23  C   UNL A   1      32.110  25.042  26.389  1.00  0.00     0.073 A 
ATOM     24  C   UNL A   1      31.065  22.859  26.449  1.00  0.00     0.065 C 
ENDBRANCH  10  16
ENDBRANCH   7   9
ENDBRANCH   6   7
ENDBRANCH   5   6
ENDBRANCH   4   5
ENDBRANCH   3   4
ENDBRANCH   2   3
ENDBRANCH   1   2
BRANCH   1  25
ATOM     25  O   UNL A   1      42.304  20.459  25.665  1.00  0.00    -0.376 OA
BRANCH  25  26
ATOM     26  C   UNL A   1      43.296  21.439  25.928  1.00  0.00     0.202 C 
BRANCH  26  27
ATOM     27  C   UNL A   1      43.720  22.456  24.853  1.00  0.00     0.261 C 
BRANCH  27  28
ATOM     28  O   UNL A   1      43.077  23.740  24.925  1.00  0.00    -0.460 OA
BRANCH  28  29
ATOM     29  C   UNL A   1      43.890  24.794  25.211  1.00  0.00     0.338 C 
ATOM     30  O   UNL A   1      44.887  25.143  24.616  1.00  0.00    -0.246 OA
BRANCH  29  31
ATOM     31  C   UNL A   1      43.245  25.618  26.258  1.00  0.00     0.060 A 
ATOM     32  C   UNL A   1      43.712  26.925  26.462  1.00  0.00     0.016 A 
ATOM     33  C   UNL A   1      42.195  25.114  27.026  1.00  0.00     0.016 A 
ATOM     34  C   UNL A   1      43.120  27.739  27.426  1.00  0.00     0.010 A 
ATOM     35  C   UNL A   1      41.630  25.918  28.024  1.00  0.00     0.010 A 
ATOM     36  C   UNL A   1      42.102  27.225  28.240  1.00  0.00    -0.014 A 
BRANCH  36  37
ATOM     37  C   UNL A   1      41.697  27.991  29.445  1.00  0.00     0.031 A 
ATOM     38  C   UNL A   1      40.459  28.838  29.361  1.00  0.00     0.074 A 
ATOM     39  C   UNL A   1      42.367  27.889  30.606  1.00  0.00     0.049 A 
ATOM     40  N   UNL A   1      39.874  29.552  30.288  1.00  0.00    -0.248 NA
ATOM     41  C   UNL A   1      39.785  28.881  28.052  1.00  0.00     0.031 C 
ATOM     42  C   UNL A   1      43.554  27.069  30.828  1.00  0.00     0.029 A 
ATOM     43  N   UNL A   1      42.131  28.480  31.824  1.00  0.00    -0.354 N 
ATOM     44  C   UNL A   1      38.759  30.112  29.680  1.00  0.00     0.074 A 
ATOM     45  C   UNL A   1      38.774  29.701  28.294  1.00  0.00     0.031 C 
ATOM     46  C   UNL A   1      43.942  27.202  32.108  1.00  0.00     0.029 A 
ATOM     47  C   UNL A   1      43.043  28.135  32.792  1.00  0.00     0.049 A 
ATOM     48  H   UNL A   1      41.379  29.093  31.988  1.00  0.00     0.167 HD
ATOM     49  C   UNL A   1      37.793  30.880  30.234  1.00  0.00     0.037 A 
ATOM     50  C   UNL A   1      43.141  28.531  34.077  1.00  0.00     0.037 A 
ATOM     51  C   UNL A   1      37.781  31.296  31.610  1.00  0.00     0.049 A 
ATOM     52  C   UNL A   1      42.113  29.481  34.644  1.00  0.00     0.074 A 
ATOM     53  C   UNL A   1      36.838  32.066  32.264  1.00  0.00     0.029 A 
ATOM     54  N   UNL A   1      38.765  30.988  32.538  1.00  0.00    -0.354 N 
ATOM     55  N   UNL A   1      41.036  29.967  34.079  1.00  0.00    -0.248 NA
ATOM     56  C   UNL A   1      42.315  29.936  36.029  1.00  0.00     0.031 C 
ATOM     57  C   UNL A   1      37.279  32.274  33.573  1.00  0.00     0.029 A 
ATOM     58  C   UNL A   1      38.470  31.587  33.750  1.00  0.00     0.049 A 
ATOM     59  H   UNL A   1      39.554  30.426  32.360  1.00  0.00     0.167 HD
ATOM     60  C   UNL A   1      40.423  30.766  35.038  1.00  0.00     0.074 A 
ATOM     61  C   UNL A   1      41.240  30.689  36.229  1.00  0.00     0.031 C 
ATOM     62  C   UNL A   1      39.287  31.498  34.934  1.00  0.00     0.037 A 
BRANCH  49  63
ATOM     63  C   UNL A   1      36.669  31.327  29.349  1.00  0.00     0.064 A 
ATOM     64  C   UNL A   1      35.661  30.439  28.942  1.00  0.00     0.173 A 
ATOM     65  C   UNL A   1      36.570  32.666  28.944  1.00  0.00     0.173 A 
ATOM     66  F   UNL A   1      35.720  29.145  29.293  1.00  0.00    -0.203 F 
ATOM     67  C   UNL A   1      34.606  30.872  28.146  1.00  0.00     0.198 A 
ATOM     68  C   UNL A   1      35.496  33.102  28.174  1.00  0.00     0.198 A 
ATOM     69  F   UNL A   1      37.505  33.556  29.309  1.00  0.00    -0.203 F 
ATOM     70  F   UNL A   1      33.676  29.998  27.735  1.00  0.00    -0.200 F 
ATOM     71  C   UNL A   1      34.518  32.204  27.770  1.00  0.00     0.200 A 
ATOM     72  F   UNL A   1      35.405  34.392  27.822  1.00  0.00    -0.200 F 
ATOM     73  F   UNL A   1      33.493  32.622  27.016  1.00  0.00    -0.200 F 
ENDBRANCH  49  63
BRANCH  50  74
ATOM     74  C   UNL A   1      44.250  28.018  34.927  1.00  0.00     0.064 A 
ATOM     75  C   UNL A   1      44.133  26.799  35.608  1.00  0.00     0.173 A 
ATOM     76  C   UNL A   1      45.449  28.732  35.071  1.00  0.00     0.173 A 
ATOM     77  F   UNL A   1      42.995  26.094  35.527  1.00  0.00    -0.203 F 
ATOM     78  C   UNL A   1      45.171  26.314  36.403  1.00  0.00     0.198 A 
ATOM     79  C   UNL A   1      46.496  28.235  35.844  1.00  0.00     0.198 A 
ATOM     80  F   UNL A   1      45.609  29.910  34.449  1.00  0.00    -0.203 F 
ATOM     81  F   UNL A   1      45.019  25.163  37.071  1.00  0.00    -0.200 F 
ATOM     82  C   UNL A   1      46.356  27.028  36.512  1.00  0.00     0.200 A 
ATOM     83  F   UNL A   1      47.641  28.923  35.942  1.00  0.00    -0.200 F 
ATOM     84  F   UNL A   1      47.357  26.556  37.267  1.00  0.00    -0.200 F 
ENDBRANCH  50  74
BRANCH  62  85
ATOM     85  C   UNL A   1      38.835  32.287  36.129  1.00  0.00     0.064 A 
ATOM     86  C   UNL A   1      38.095  31.686  37.158  1.00  0.00     0.173 A 
ATOM     87  C   UNL A   1      39.268  33.610  36.317  1.00  0.00     0.173 A 
ATOM     88  F   UNL A   1      37.651  30.428  37.024  1.00  0.00    -0.203 F 
ATOM     89  C   UNL A   1      37.812  32.379  38.333  1.00  0.00     0.198 A 
ATOM     90  C   UNL A   1      39.006  34.289  37.504  1.00  0.00     0.198 A 
ATOM     91  F   UNL A   1      39.988  34.226  35.368  1.00  0.00    -0.203 F 
ATOM     92  F   UNL A   1      37.095  31.788  39.299  1.00  0.00    -0.200 F 
ATOM     93  C   UNL A   1      38.280  33.671  38.512  1.00  0.00     0.200 A 
ATOM     94  F   UNL A   1      39.479  35.529  37.684  1.00  0.00    -0.200 F 
ATOM     95  F   UNL A   1      38.038  34.322  39.658  1.00  0.00    -0.200 F 
ENDBRANCH  62  85
ENDBRANCH  36  37
ENDBRANCH  29  31
ENDBRANCH  28  29
ENDBRANCH  27  28
ENDBRANCH  26  27
ENDBRANCH  25  26
ENDBRANCH   1  25
TORSDOF 18
ENDMDL
MODEL 3
REMARK VINA RESULT:     -11.5      0.475      7.373
REMARK SMILES Cc1cc(=O)cc(C)n1-c1ccc(Cl)cc1C(=O)OCCOCCOCCOC(=O)c1ccc(-c2c3nc(c(-c4c(F)c(F)c(F)c(F)c4F)c4ccc([nH]4)c(-c4c(F)c(F)c(F)c(F)c4F)c4nc(c(-c5c(F)c(F)c(F)c(F)c5F)c5ccc2[nH]5)C=C4)C=C3)cc1
REMARK SMILES IDX 24 1 23 2 22 3 21 4 20 5 19 6 17 7 18 8 16 9 10 10 11 11
REMARK SMILES IDX 12 12 15 13 13 14 14 15 9 16 1 17 2 18 3 19 4 20 7 21 5 22
REMARK SMILES IDX 6 23 8 24 25 25 26 26 27 27 28 28 29 29 30 30 31 31 32 32
REMARK SMILES IDX 93 33 33 34 92 35 34 36 35 37 36 38 86 39 37 40 91 41 85 42
REMARK SMILES IDX 87 43 38 44 90 45 84 46 83 47 39 49 71 50 51 51 70 52 52 53
REMARK SMILES IDX 55 54 69 55 88 56 53 57 54 58 68 60 89 61 56 62 40 63 41 64
REMARK SMILES IDX 49 65 42 66 43 67 47 68 50 69 44 70 45 71 48 72 46 73 72 74
REMARK SMILES IDX 73 75 81 76 74 77 75 78 79 79 82 80 76 81 77 82 80 83 78 84
REMARK SMILES IDX 57 85 58 86 66 87 59 88 60 89 64 90 67 91 61 92 62 93 65 94
REMARK SMILES IDX 63 95
REMARK H PARENT 87 48 55 59
REMARK Flexibility Score: inf
ROOT
ATOM      1  C   UNL A   1      40.792  20.408  26.385  1.00  0.00     0.188 C 
ENDROOT
BRANCH   1   2
ATOM      2  C   UNL A   1      40.445  21.684  27.186  1.00  0.00     0.188 C 
BRANCH   2   3
ATOM      3  O   UNL A   1      39.312  22.433  26.818  1.00  0.00    -0.376 OA
BRANCH   3   4
ATOM      4  C   UNL A   1      38.482  22.025  25.744  1.00  0.00     0.202 C 
BRANCH   4   5
ATOM      5  C   UNL A   1      36.990  22.358  25.613  1.00  0.00     0.261 C 
BRANCH   5   6
ATOM      6  O   UNL A   1      36.661  23.593  24.975  1.00  0.00    -0.460 OA
BRANCH   6   7
ATOM      7  C   UNL A   1      35.558  23.570  24.190  1.00  0.00     0.340 C 
ATOM      8  O   UNL A   1      35.454  23.017  23.105  1.00  0.00    -0.246 OA
BRANCH   7   9
ATOM      9  C   UNL A   1      34.389  24.178  24.867  1.00  0.00     0.085 A 
ATOM     10  C   UNL A   1      33.236  23.471  25.278  1.00  0.00     0.060 A 
ATOM     11  C   UNL A   1      32.234  24.206  25.952  1.00  0.00     0.029 A 
ATOM     12  C   UNL A   1      32.332  25.590  26.135  1.00  0.00     0.023 A 
ATOM     13  C   UNL A   1      34.487  25.570  25.063  1.00  0.00     0.038 A 
ATOM     14  C   UNL A   1      33.452  26.268  25.673  1.00  0.00     0.042 A 
ATOM     15  Cl  UNL A   1      33.555  27.976  25.836  1.00  0.00    -0.084 Cl
BRANCH  10  16
ATOM     16  N   UNL A   1      33.017  22.072  25.030  1.00  0.00    -0.317 N 
ATOM     17  C   UNL A   1      33.979  21.454  27.323  1.00  0.00     0.065 C 
ATOM     18  C   UNL A   1      33.428  21.083  25.965  1.00  0.00     0.024 A 
ATOM     19  C   UNL A   1      33.315  19.766  25.711  1.00  0.00     0.073 A 
ATOM     20  C   UNL A   1      32.733  19.307  24.441  1.00  0.00     0.182 A 
ATOM     21  C   UNL A   1      32.418  21.642  23.809  1.00  0.00     0.024 A 
ATOM     22  O   UNL A   1      32.628  18.114  24.181  1.00  0.00    -0.290 OA
ATOM     23  C   UNL A   1      32.268  20.339  23.503  1.00  0.00     0.073 A 
ATOM     24  C   UNL A   1      31.950  22.618  22.749  1.00  0.00     0.065 C 
ENDBRANCH  10  16
ENDBRANCH   7   9
ENDBRANCH   6   7
ENDBRANCH   5   6
ENDBRANCH   4   5
ENDBRANCH   3   4
ENDBRANCH   2   3
ENDBRANCH   1   2
BRANCH   1  25
ATOM     25  O   UNL A   1      42.044  20.265  25.745  1.00  0.00    -0.376 OA
BRANCH  25  26
ATOM     26  C   UNL A   1      43.082  21.182  26.054  1.00  0.00     0.202 C 
BRANCH  26  27
ATOM     27  C   UNL A   1      43.614  22.172  25.003  1.00  0.00     0.261 C 
BRANCH  27  28
ATOM     28  O   UNL A   1      43.002  23.473  25.007  1.00  0.00    -0.460 OA
BRANCH  28  29
ATOM     29  C   UNL A   1      43.837  24.519  25.255  1.00  0.00     0.338 C 
ATOM     30  O   UNL A   1      44.814  24.853  24.620  1.00  0.00    -0.246 OA
BRANCH  29  31
ATOM     31  C   UNL A   1      43.241  25.356  26.321  1.00  0.00     0.060 A 
ATOM     32  C   UNL A   1      43.738  26.655  26.506  1.00  0.00     0.016 A 
ATOM     33  C   UNL A   1      42.208  24.873  27.124  1.00  0.00     0.016 A 
ATOM     34  C   UNL A   1      43.192  27.482  27.487  1.00  0.00     0.010 A 
ATOM     35  C   UNL A   1      41.691  25.688  28.138  1.00  0.00     0.010 A 
ATOM     36  C   UNL A   1      42.192  26.988  28.335  1.00  0.00    -0.014 A 
BRANCH  36  37
ATOM     37  C   UNL A   1      41.841  27.763  29.551  1.00  0.00     0.031 A 
ATOM     38  C   UNL A   1      40.648  28.674  29.488  1.00  0.00     0.074 A 
ATOM     39  C   UNL A   1      42.517  27.616  30.703  1.00  0.00     0.049 A 
ATOM     40  N   UNL A   1      40.111  29.409  30.427  1.00  0.00    -0.248 NA
ATOM     41  C   UNL A   1      39.963  28.764  28.187  1.00  0.00     0.031 C 
ATOM     42  C   UNL A   1      43.662  26.733  30.905  1.00  0.00     0.029 A 
ATOM     43  N   UNL A   1      42.326  28.207  31.929  1.00  0.00    -0.354 N 
ATOM     44  C   UNL A   1      39.020  30.031  29.837  1.00  0.00     0.074 A 
ATOM     45  C   UNL A   1      38.999  29.633  28.447  1.00  0.00     0.031 C 
ATOM     46  C   UNL A   1      44.070  26.834  32.182  1.00  0.00     0.029 A 
ATOM     47  C   UNL A   1      43.229  27.806  32.884  1.00  0.00     0.049 A 
ATOM     48  H   UNL A   1      41.608  28.857  32.107  1.00  0.00     0.167 HD
ATOM     49  C   UNL A   1      38.102  30.844  30.408  1.00  0.00     0.037 A 
ATOM     50  C   UNL A   1      43.361  28.185  34.171  1.00  0.00     0.037 A 
ATOM     51  C   UNL A   1      38.127  31.248  31.787  1.00  0.00     0.049 A 
ATOM     52  C   UNL A   1      42.390  29.182  34.758  1.00  0.00     0.074 A 
ATOM     53  C   UNL A   1      37.232  32.060  32.459  1.00  0.00     0.029 A 
ATOM     54  N   UNL A   1      39.103  30.881  32.701  1.00  0.00    -0.354 N 
ATOM     55  N   UNL A   1      41.334  29.730  34.208  1.00  0.00    -0.248 NA
ATOM     56  C   UNL A   1      42.631  29.615  36.144  1.00  0.00     0.031 C 
ATOM     57  C   UNL A   1      37.697  32.234  33.764  1.00  0.00     0.029 A 
ATOM     58  C   UNL A   1      38.852  31.483  33.922  1.00  0.00     0.049 A 
ATOM     59  H   UNL A   1      39.859  30.281  32.510  1.00  0.00     0.167 HD
ATOM     60  C   UNL A   1      40.774  30.550  35.180  1.00  0.00     0.074 A 
ATOM     61  C   UNL A   1      41.598  30.421  36.362  1.00  0.00     0.031 C 
ATOM     62  C   UNL A   1      39.677  31.342  35.096  1.00  0.00     0.037 A 
BRANCH  49  63
ATOM     63  C   UNL A   1      36.993  31.357  29.539  1.00  0.00     0.064 A 
ATOM     64  C   UNL A   1      35.920  30.535  29.162  1.00  0.00     0.173 A 
ATOM     65  C   UNL A   1      36.976  32.695  29.120  1.00  0.00     0.173 A 
ATOM     66  F   UNL A   1      35.897  29.244  29.527  1.00  0.00    -0.203 F 
ATOM     67  C   UNL A   1      34.881  31.030  28.382  1.00  0.00     0.198 A 
ATOM     68  C   UNL A   1      35.919  33.195  28.365  1.00  0.00     0.198 A 
ATOM     69  F   UNL A   1      37.977  33.523  29.457  1.00  0.00    -0.203 F 
ATOM     70  F   UNL A   1      33.886  30.217  27.998  1.00  0.00    -0.200 F 
ATOM     71  C   UNL A   1      34.875  32.361  27.991  1.00  0.00     0.200 A 
ATOM     72  F   UNL A   1      35.909  34.484  28.001  1.00  0.00    -0.200 F 
ATOM     73  F   UNL A   1      33.866  32.840  27.252  1.00  0.00    -0.200 F 
ENDBRANCH  49  63
BRANCH  50  74
ATOM     74  C   UNL A   1      44.451  27.608  35.004  1.00  0.00     0.064 A 
ATOM     75  C   UNL A   1      45.698  28.241  35.099  1.00  0.00     0.173 A 
ATOM     76  C   UNL A   1      44.268  26.418  35.723  1.00  0.00     0.173 A 
ATOM     77  F   UNL A   1      45.933  29.364  34.404  1.00  0.00    -0.203 F 
ATOM     78  C   UNL A   1      46.721  27.705  35.878  1.00  0.00     0.198 A 
ATOM     79  C   UNL A   1      45.282  25.896  36.524  1.00  0.00     0.198 A 
ATOM     80  F   UNL A   1      43.098  25.766  35.659  1.00  0.00    -0.203 F 
ATOM     81  F   UNL A   1      47.915  28.311  35.924  1.00  0.00    -0.200 F 
ATOM     82  C   UNL A   1      46.510  26.538  36.599  1.00  0.00     0.200 A 
ATOM     83  F   UNL A   1      45.072  24.774  37.224  1.00  0.00    -0.200 F 
ATOM     84  F   UNL A   1      47.489  26.029  37.358  1.00  0.00    -0.200 F 
ENDBRANCH  50  74
BRANCH  62  85
ATOM     85  C   UNL A   1      39.279  32.142  36.302  1.00  0.00     0.064 A 
ATOM     86  C   UNL A   1      39.784  33.433  36.517  1.00  0.00     0.173 A 
ATOM     87  C   UNL A   1      38.278  31.677  37.170  1.00  0.00     0.173 A 
ATOM     88  F   UNL A   1      40.748  33.922  35.722  1.00  0.00    -0.203 F 
ATOM     89  C   UNL A   1      39.296  34.230  37.550  1.00  0.00     0.198 A 
ATOM     90  C   UNL A   1      37.773  32.486  38.184  1.00  0.00     0.198 A 
ATOM     91  F   UNL A   1      37.753  30.453  37.001  1.00  0.00    -0.203 F 
ATOM     92  F   UNL A   1      39.801  35.456  37.742  1.00  0.00    -0.200 F 
ATOM     93  C   UNL A   1      38.282  33.763  38.371  1.00  0.00     0.200 A 
ATOM     94  F   UNL A   1      36.777  32.042  38.962  1.00  0.00    -0.200 F 
ATOM     95  F   UNL A   1      37.788  34.545  39.341  1.00  0.00    -0.200 F 
ENDBRANCH  62  85
ENDBRANCH  36  37
ENDBRANCH  29  31
ENDBRANCH  28  29
ENDBRANCH  27  28
ENDBRANCH  26  27
ENDBRANCH  25  26
ENDBRANCH   1  25
TORSDOF 18
ENDMDL
