MODEL 1
REMARK VINA RESULT:     -10.6      0.000      0.000
REMARK SMILES C[C@@H](Sc1nc2c(cc1C#N)CCC2)C(=O)OCCOCCOCCOC(=O)c1ccc(-c2c3nc(c(-c4c(F)c(F)c(F)c(F)c4F)c4ccc([nH]4)c(-c4c(F)c(F)c(F)c(F)c4F)c4nc(c(-c5c(F)c(F)c(F)c(F)c5F)c5ccc2[nH]5)C=C4)C=C3)cc1
REMARK SMILES IDX 21 1 20 2 19 3 18 4 17 5 15 6 16 7 2 8 1 9 3 10 4 11 5 12
REMARK SMILES IDX 9 13 6 14 8 15 7 16 14 17 12 18 13 19 10 20 11 21 22 22
REMARK SMILES IDX 23 23 24 24 25 25 26 26 27 27 28 28 29 29 30 30 91 31 31 32
REMARK SMILES IDX 90 33 32 34 33 35 34 36 84 37 35 38 89 39 83 40 85 41 36 42
REMARK SMILES IDX 88 43 82 44 81 45 37 47 69 48 49 49 68 50 50 51 53 52 67 53
REMARK SMILES IDX 86 54 51 55 52 56 66 58 87 59 54 60 38 61 39 62 47 63 40 64
REMARK SMILES IDX 41 65 45 66 48 67 42 68 43 69 46 70 44 71 70 72 71 73 79 74
REMARK SMILES IDX 72 75 73 76 77 77 80 78 74 79 75 80 78 81 76 82 55 83 56 84
REMARK SMILES IDX 64 85 57 86 58 87 62 88 65 89 59 90 60 91 63 92 61 93
REMARK H PARENT 85 46 53 57
REMARK Flexibility Score: inf
ROOT
ATOM      1  C   UNL A   1      40.809  21.907  27.303  1.00  0.00     0.188 C 
ENDROOT
BRANCH   1   2
ATOM      2  O   UNL A   1      39.948  22.226  26.225  1.00  0.00    -0.376 OA
BRANCH   2   3
ATOM      3  C   UNL A   1      38.718  22.886  26.504  1.00  0.00     0.202 C 
BRANCH   3   4
ATOM      4  C   UNL A   1      37.804  23.367  25.359  1.00  0.00     0.261 C 
BRANCH   4   5
ATOM      5  O   UNL A   1      36.482  22.792  25.341  1.00  0.00    -0.462 OA
BRANCH   5   6
ATOM      6  C   UNL A   1      35.722  23.069  24.251  1.00  0.00     0.319 C 
ATOM      7  O   UNL A   1      36.203  23.321  23.147  1.00  0.00    -0.251 OA
BRANCH   6   8
ATOM      8  C   UNL A   1      34.208  22.858  24.470  1.00  0.00     0.160 C 
ATOM      9  C   UNL A   1      33.618  21.478  24.165  1.00  0.00     0.032 C 
BRANCH   8  10
ATOM     10  S   UNL A   1      33.883  23.423  26.189  1.00  0.00    -0.090 SA
BRANCH  10  11
ATOM     11  C   UNL A   1      32.932  24.912  26.075  1.00  0.00     0.115 A 
ATOM     12  N   UNL A   1      33.725  25.903  25.589  1.00  0.00    -0.245 NA
ATOM     13  C   UNL A   1      31.557  25.099  26.293  1.00  0.00     0.085 A 
ATOM     14  C   UNL A   1      33.143  27.064  25.288  1.00  0.00     0.045 A 
ATOM     15  C   UNL A   1      30.982  26.342  25.971  1.00  0.00     0.028 A 
ATOM     16  C   UNL A   1      31.797  27.327  25.448  1.00  0.00    -0.025 A 
ATOM     17  C   UNL A   1      33.855  28.197  24.613  1.00  0.00     0.057 C 
ATOM     18  C   UNL A   1      31.450  28.672  24.904  1.00  0.00     0.038 C 
ATOM     19  C   UNL A   1      32.838  29.328  24.804  1.00  0.00     0.011 C 
BRANCH  13  20
ATOM     20  C   UNL A   1      30.693  24.081  26.795  1.00  0.00     0.102 C 
ATOM     21  N   UNL A   1      30.009  23.255  27.250  1.00  0.00    -0.192 NA
ENDBRANCH  13  20
ENDBRANCH  10  11
ENDBRANCH   8  10
ENDBRANCH   6   8
ENDBRANCH   5   6
ENDBRANCH   4   5
ENDBRANCH   3   4
ENDBRANCH   2   3
ENDBRANCH   1   2
BRANCH   1  22
ATOM     22  C   UNL A   1      41.937  20.889  27.090  1.00  0.00     0.188 C 
BRANCH  22  23
ATOM     23  O   UNL A   1      42.395  20.709  25.775  1.00  0.00    -0.376 OA
BRANCH  23  24
ATOM     24  C   UNL A   1      43.707  21.098  25.397  1.00  0.00     0.202 C 
BRANCH  24  25
ATOM     25  C   UNL A   1      44.111  22.417  24.687  1.00  0.00     0.261 C 
BRANCH  25  26
ATOM     26  O   UNL A   1      43.439  23.638  25.022  1.00  0.00    -0.460 OA
BRANCH  26  27
ATOM     27  C   UNL A   1      44.220  24.722  25.278  1.00  0.00     0.338 C 
ATOM     28  O   UNL A   1      45.167  25.113  24.622  1.00  0.00    -0.246 OA
BRANCH  27  29
ATOM     29  C   UNL A   1      43.524  25.524  26.319  1.00  0.00     0.060 A 
ATOM     30  C   UNL A   1      43.906  26.862  26.520  1.00  0.00     0.016 A 
ATOM     31  C   UNL A   1      42.453  24.989  27.033  1.00  0.00     0.016 A 
ATOM     32  C   UNL A   1      43.213  27.667  27.426  1.00  0.00     0.010 A 
ATOM     33  C   UNL A   1      41.783  25.787  27.969  1.00  0.00     0.010 A 
ATOM     34  C   UNL A   1      42.171  27.123  28.185  1.00  0.00    -0.014 A 
BRANCH  34  35
ATOM     35  C   UNL A   1      41.606  27.897  29.321  1.00  0.00     0.031 A 
ATOM     36  C   UNL A   1      42.290  27.815  30.656  1.00  0.00     0.074 A 
ATOM     37  C   UNL A   1      40.519  28.677  29.178  1.00  0.00     0.049 A 
ATOM     38  N   UNL A   1      41.991  28.406  31.785  1.00  0.00    -0.248 NA
ATOM     39  C   UNL A   1      43.471  26.940  30.730  1.00  0.00     0.031 C 
ATOM     40  C   UNL A   1      39.776  28.862  27.936  1.00  0.00     0.029 A 
ATOM     41  N   UNL A   1      39.854  29.458  30.093  1.00  0.00    -0.354 N 
ATOM     42  C   UNL A   1      42.940  27.970  32.699  1.00  0.00     0.074 A 
ATOM     43  C   UNL A   1      43.794  27.030  32.010  1.00  0.00     0.031 C 
ATOM     44  C   UNL A   1      38.755  29.706  28.164  1.00  0.00     0.029 A 
ATOM     45  C   UNL A   1      38.755  30.100  29.575  1.00  0.00     0.049 A 
ATOM     46  H   UNL A   1      40.137  29.548  31.031  1.00  0.00     0.167 HD
ATOM     47  C   UNL A   1      43.095  28.335  33.994  1.00  0.00     0.037 A 
ATOM     48  C   UNL A   1      37.849  30.904  30.168  1.00  0.00     0.037 A 
ATOM     49  C   UNL A   1      42.244  29.272  34.677  1.00  0.00     0.049 A 
ATOM     50  C   UNL A   1      37.995  31.251  31.629  1.00  0.00     0.074 A 
ATOM     51  C   UNL A   1      42.349  29.737  35.975  1.00  0.00     0.029 A 
ATOM     52  N   UNL A   1      41.118  29.870  34.126  1.00  0.00    -0.354 N 
ATOM     53  N   UNL A   1      38.930  30.885  32.472  1.00  0.00    -0.248 NA
ATOM     54  C   UNL A   1      36.968  32.122  32.221  1.00  0.00     0.031 C 
ATOM     55  C   UNL A   1      41.243  30.548  36.238  1.00  0.00     0.029 A 
ATOM     56  C   UNL A   1      40.493  30.660  35.077  1.00  0.00     0.049 A 
ATOM     57  H   UNL A   1      40.811  29.751  33.198  1.00  0.00     0.167 HD
ATOM     58  C   UNL A   1      38.621  31.496  33.682  1.00  0.00     0.074 A 
ATOM     59  C   UNL A   1      37.411  32.262  33.465  1.00  0.00     0.031 C 
ATOM     60  C   UNL A   1      39.290  31.428  34.859  1.00  0.00     0.037 A 
BRANCH  47  61
ATOM     61  C   UNL A   1      44.213  27.695  34.768  1.00  0.00     0.064 A 
ATOM     62  C   UNL A   1      45.471  28.303  34.896  1.00  0.00     0.173 A 
ATOM     63  C   UNL A   1      44.010  26.470  35.423  1.00  0.00     0.173 A 
ATOM     64  F   UNL A   1      45.723  29.473  34.286  1.00  0.00    -0.203 F 
ATOM     65  C   UNL A   1      46.495  27.691  35.615  1.00  0.00     0.198 A 
ATOM     66  C   UNL A   1      45.022  25.881  36.174  1.00  0.00     0.198 A 
ATOM     67  F   UNL A   1      42.824  25.848  35.345  1.00  0.00    -0.203 F 
ATOM     68  F   UNL A   1      47.706  28.262  35.669  1.00  0.00    -0.200 F 
ATOM     69  C   UNL A   1      46.267  26.486  36.260  1.00  0.00     0.200 A 
ATOM     70  F   UNL A   1      44.793  24.727  36.815  1.00  0.00    -0.200 F 
ATOM     71  F   UNL A   1      47.249  25.902  36.959  1.00  0.00    -0.200 F 
ENDBRANCH  47  61
BRANCH  48  72
ATOM     72  C   UNL A   1      36.735  31.454  29.350  1.00  0.00     0.064 A 
ATOM     73  C   UNL A   1      35.665  30.645  28.948  1.00  0.00     0.173 A 
ATOM     74  C   UNL A   1      36.679  32.819  29.024  1.00  0.00     0.173 A 
ATOM     75  F   UNL A   1      35.685  29.329  29.207  1.00  0.00    -0.203 F 
ATOM     76  C   UNL A   1      34.572  31.183  28.269  1.00  0.00     0.198 A 
ATOM     77  C   UNL A   1      35.575  33.360  28.370  1.00  0.00     0.198 A 
ATOM     78  F   UNL A   1      37.683  33.635  29.380  1.00  0.00    -0.203 F 
ATOM     79  F   UNL A   1      33.567  30.384  27.884  1.00  0.00    -0.200 F 
ATOM     80  C   UNL A   1      34.520  32.542  27.996  1.00  0.00     0.200 A 
ATOM     81  F   UNL A   1      35.524  34.675  28.120  1.00  0.00    -0.200 F 
ATOM     82  F   UNL A   1      33.453  33.062  27.372  1.00  0.00    -0.200 F 
ENDBRANCH  48  72
BRANCH  60  83
ATOM     83  C   UNL A   1      38.765  32.205  36.035  1.00  0.00     0.064 A 
ATOM     84  C   UNL A   1      38.042  31.582  37.062  1.00  0.00     0.173 A 
ATOM     85  C   UNL A   1      39.131  33.549  36.213  1.00  0.00     0.173 A 
ATOM     86  F   UNL A   1      37.659  30.303  36.938  1.00  0.00    -0.203 F 
ATOM     87  C   UNL A   1      37.717  32.272  38.228  1.00  0.00     0.198 A 
ATOM     88  C   UNL A   1      38.833  34.226  37.392  1.00  0.00     0.198 A 
ATOM     89  F   UNL A   1      39.834  34.189  35.265  1.00  0.00    -0.203 F 
ATOM     90  F   UNL A   1      37.021  31.659  39.195  1.00  0.00    -0.200 F 
ATOM     91  C   UNL A   1      38.129  33.586  38.400  1.00  0.00     0.200 A 
ATOM     92  F   UNL A   1      39.255  35.487  37.566  1.00  0.00    -0.200 F 
ATOM     93  F   UNL A   1      37.855  34.233  39.542  1.00  0.00    -0.200 F 
ENDBRANCH  60  83
ENDBRANCH  34  35
ENDBRANCH  27  29
ENDBRANCH  26  27
ENDBRANCH  25  26
ENDBRANCH  24  25
ENDBRANCH  23  24
ENDBRANCH  22  23
ENDBRANCH   1  22
TORSDOF 20
ENDMDL
MODEL 2
REMARK VINA RESULT:     -10.5      1.152      7.464
REMARK SMILES C[C@@H](Sc1nc2c(cc1C#N)CCC2)C(=O)OCCOCCOCCOC(=O)c1ccc(-c2c3nc(c(-c4c(F)c(F)c(F)c(F)c4F)c4ccc([nH]4)c(-c4c(F)c(F)c(F)c(F)c4F)c4nc(c(-c5c(F)c(F)c(F)c(F)c5F)c5ccc2[nH]5)C=C4)C=C3)cc1
REMARK SMILES IDX 21 1 20 2 19 3 18 4 17 5 15 6 16 7 2 8 1 9 3 10 4 11 5 12
REMARK SMILES IDX 9 13 6 14 8 15 7 16 14 17 12 18 13 19 10 20 11 21 22 22
REMARK SMILES IDX 23 23 24 24 25 25 26 26 27 27 28 28 29 29 30 30 91 31 31 32
REMARK SMILES IDX 90 33 32 34 33 35 34 36 84 37 35 38 89 39 83 40 85 41 36 42
REMARK SMILES IDX 88 43 82 44 81 45 37 47 69 48 49 49 68 50 50 51 53 52 67 53
REMARK SMILES IDX 86 54 51 55 52 56 66 58 87 59 54 60 38 61 39 62 47 63 40 64
REMARK SMILES IDX 41 65 45 66 48 67 42 68 43 69 46 70 44 71 70 72 71 73 79 74
REMARK SMILES IDX 72 75 73 76 77 77 80 78 74 79 75 80 78 81 76 82 55 83 56 84
REMARK SMILES IDX 64 85 57 86 58 87 62 88 65 89 59 90 60 91 63 92 61 93
REMARK H PARENT 85 46 53 57
REMARK Flexibility Score: inf
ROOT
ATOM      1  C   UNL A   1      43.774  18.820  25.367  1.00  0.00     0.188 C 
ENDROOT
BRANCH   1   2
ATOM      2  O   UNL A   1      42.440  19.235  25.138  1.00  0.00    -0.376 OA
BRANCH   2   3
ATOM      3  C   UNL A   1      41.709  19.813  26.215  1.00  0.00     0.202 C 
BRANCH   3   4
ATOM      4  C   UNL A   1      40.179  19.985  26.126  1.00  0.00     0.261 C 
BRANCH   4   5
ATOM      5  O   UNL A   1      39.724  21.325  25.851  1.00  0.00    -0.462 OA
BRANCH   5   6
ATOM      6  C   UNL A   1      38.426  21.452  25.473  1.00  0.00     0.319 C 
ATOM      7  O   UNL A   1      37.793  20.542  24.940  1.00  0.00    -0.251 OA
BRANCH   6   8
ATOM      8  C   UNL A   1      37.763  22.768  25.936  1.00  0.00     0.160 C 
ATOM      9  C   UNL A   1      38.663  23.878  26.485  1.00  0.00     0.032 C 
BRANCH   8  10
ATOM     10  S   UNL A   1      36.721  23.311  24.523  1.00  0.00    -0.090 SA
BRANCH  10  11
ATOM     11  C   UNL A   1      35.101  23.626  25.163  1.00  0.00     0.115 A 
ATOM     12  N   UNL A   1      34.961  24.963  25.364  1.00  0.00    -0.245 NA
ATOM     13  C   UNL A   1      34.031  22.732  25.333  1.00  0.00     0.085 A 
ATOM     14  C   UNL A   1      33.750  25.411  25.698  1.00  0.00     0.045 A 
ATOM     15  C   UNL A   1      32.771  23.243  25.696  1.00  0.00     0.028 A 
ATOM     16  C   UNL A   1      32.639  24.608  25.865  1.00  0.00    -0.025 A 
ATOM     17  C   UNL A   1      33.407  26.865  25.812  1.00  0.00     0.057 C 
ATOM     18  C   UNL A   1      31.421  25.431  26.117  1.00  0.00     0.038 C 
ATOM     19  C   UNL A   1      32.042  26.784  26.505  1.00  0.00     0.011 C 
BRANCH  13  20
ATOM     20  C   UNL A   1      34.139  21.325  25.125  1.00  0.00     0.102 C 
ATOM     21  N   UNL A   1      34.192  20.179  24.921  1.00  0.00    -0.192 NA
ENDBRANCH  13  20
ENDBRANCH  10  11
ENDBRANCH   8  10
ENDBRANCH   6   8
ENDBRANCH   5   6
ENDBRANCH   4   5
ENDBRANCH   3   4
ENDBRANCH   2   3
ENDBRANCH   1   2
BRANCH   1  22
ATOM     22  C   UNL A   1      44.926  19.587  24.705  1.00  0.00     0.188 C 
BRANCH  22  23
ATOM     23  O   UNL A   1      44.580  20.627  23.829  1.00  0.00    -0.376 OA
BRANCH  23  24
ATOM     24  C   UNL A   1      44.545  21.976  24.271  1.00  0.00     0.202 C 
BRANCH  24  25
ATOM     25  C   UNL A   1      43.382  22.669  25.029  1.00  0.00     0.261 C 
BRANCH  25  26
ATOM     26  O   UNL A   1      43.091  24.049  24.773  1.00  0.00    -0.460 OA
BRANCH  26  27
ATOM     27  C   UNL A   1      44.006  24.962  25.197  1.00  0.00     0.338 C 
ATOM     28  O   UNL A   1      45.029  25.293  24.627  1.00  0.00    -0.246 OA
BRANCH  27  29
ATOM     29  C   UNL A   1      43.385  25.713  26.321  1.00  0.00     0.060 A 
ATOM     30  C   UNL A   1      43.858  27.000  26.627  1.00  0.00     0.016 A 
ATOM     31  C   UNL A   1      42.295  25.187  27.011  1.00  0.00     0.016 A 
ATOM     32  C   UNL A   1      43.238  27.765  27.616  1.00  0.00     0.010 A 
ATOM     33  C   UNL A   1      41.697  25.941  28.029  1.00  0.00     0.010 A 
ATOM     34  C   UNL A   1      42.176  27.225  28.351  1.00  0.00    -0.014 A 
BRANCH  34  35
ATOM     35  C   UNL A   1      41.686  27.930  29.563  1.00  0.00     0.031 A 
ATOM     36  C   UNL A   1      40.413  28.722  29.468  1.00  0.00     0.074 A 
ATOM     37  C   UNL A   1      42.339  27.859  30.738  1.00  0.00     0.049 A 
ATOM     38  N   UNL A   1      39.786  29.407  30.390  1.00  0.00    -0.248 NA
ATOM     39  C   UNL A   1      39.761  28.750  28.150  1.00  0.00     0.031 C 
ATOM     40  C   UNL A   1      43.568  27.110  30.972  1.00  0.00     0.029 A 
ATOM     41  N   UNL A   1      42.052  28.431  31.955  1.00  0.00    -0.354 N 
ATOM     42  C   UNL A   1      38.673  29.950  29.762  1.00  0.00     0.074 A 
ATOM     43  C   UNL A   1      38.735  29.556  28.373  1.00  0.00     0.031 C 
ATOM     44  C   UNL A   1      43.933  27.265  32.256  1.00  0.00     0.029 A 
ATOM     45  C   UNL A   1      42.977  28.147  32.929  1.00  0.00     0.049 A 
ATOM     46  H   UNL A   1      41.258  28.991  32.113  1.00  0.00     0.167 HD
ATOM     47  C   UNL A   1      37.680  30.695  30.300  1.00  0.00     0.037 A 
ATOM     48  C   UNL A   1      43.053  28.557  34.213  1.00  0.00     0.037 A 
ATOM     49  C   UNL A   1      37.620  31.085  31.683  1.00  0.00     0.049 A 
ATOM     50  C   UNL A   1      41.974  29.443  34.783  1.00  0.00     0.074 A 
ATOM     51  C   UNL A   1      36.630  31.803  32.330  1.00  0.00     0.029 A 
ATOM     52  N   UNL A   1      38.599  30.809  32.629  1.00  0.00    -0.354 N 
ATOM     53  N   UNL A   1      40.892  29.901  34.201  1.00  0.00    -0.248 NA
ATOM     54  C   UNL A   1      42.118  29.866  36.185  1.00  0.00     0.031 C 
ATOM     55  C   UNL A   1      37.048  32.035  33.642  1.00  0.00     0.029 A 
ATOM     56  C   UNL A   1      38.258  31.389  33.841  1.00  0.00     0.049 A 
ATOM     57  H   UNL A   1      39.413  30.281  32.463  1.00  0.00     0.167 HD
ATOM     58  C   UNL A   1      40.218  30.642  35.164  1.00  0.00     0.074 A 
ATOM     59  C   UNL A   1      41.010  30.571  36.374  1.00  0.00     0.031 C 
ATOM     60  C   UNL A   1      39.045  31.312  35.049  1.00  0.00     0.037 A 
BRANCH  47  61
ATOM     61  C   UNL A   1      36.587  31.167  29.381  1.00  0.00     0.064 A 
ATOM     62  C   UNL A   1      35.589  30.302  28.910  1.00  0.00     0.173 A 
ATOM     63  C   UNL A   1      36.519  32.515  28.995  1.00  0.00     0.173 A 
ATOM     64  F   UNL A   1      35.608  29.001  29.242  1.00  0.00    -0.203 F 
ATOM     65  C   UNL A   1      34.588  30.758  28.056  1.00  0.00     0.198 A 
ATOM     66  C   UNL A   1      35.495  32.977  28.175  1.00  0.00     0.198 A 
ATOM     67  F   UNL A   1      37.442  33.390  29.425  1.00  0.00    -0.203 F 
ATOM     68  F   UNL A   1      33.682  29.899  27.569  1.00  0.00    -0.200 F 
ATOM     69  C   UNL A   1      34.537  32.096  27.696  1.00  0.00     0.200 A 
ATOM     70  F   UNL A   1      35.435  34.275  27.847  1.00  0.00    -0.200 F 
ATOM     71  F   UNL A   1      33.568  32.536  26.882  1.00  0.00    -0.200 F 
ENDBRANCH  47  61
BRANCH  48  72
ATOM     72  C   UNL A   1      44.195  28.096  35.046  1.00  0.00     0.064 A 
ATOM     73  C   UNL A   1      44.197  26.823  35.632  1.00  0.00     0.173 A 
ATOM     74  C   UNL A   1      45.343  28.888  35.206  1.00  0.00     0.173 A 
ATOM     75  F   UNL A   1      43.112  26.040  35.535  1.00  0.00    -0.203 F 
ATOM     76  C   UNL A   1      45.310  26.353  36.327  1.00  0.00     0.198 A 
ATOM     77  C   UNL A   1      46.465  28.407  35.878  1.00  0.00     0.198 A 
ATOM     78  F   UNL A   1      45.389  30.118  34.672  1.00  0.00    -0.203 F 
ATOM     79  F   UNL A   1      45.281  25.136  36.889  1.00  0.00    -0.200 F 
ATOM     80  C   UNL A   1      46.449  27.138  36.435  1.00  0.00     0.200 A 
ATOM     81  F   UNL A   1      47.567  29.164  35.967  1.00  0.00    -0.200 F 
ATOM     82  F   UNL A   1      47.529  26.670  37.075  1.00  0.00    -0.200 F 
ENDBRANCH  48  72
BRANCH  60  83
ATOM     83  C   UNL A   1      38.500  32.030  36.252  1.00  0.00     0.064 A 
ATOM     84  C   UNL A   1      37.775  31.355  37.244  1.00  0.00     0.173 A 
ATOM     85  C   UNL A   1      38.849  33.370  36.493  1.00  0.00     0.173 A 
ATOM     86  F   UNL A   1      37.409  30.078  37.061  1.00  0.00    -0.203 F 
ATOM     87  C   UNL A   1      37.432  31.989  38.436  1.00  0.00     0.198 A 
ATOM     88  C   UNL A   1      38.532  33.990  37.698  1.00  0.00     0.198 A 
ATOM     89  F   UNL A   1      39.553  34.059  35.581  1.00  0.00    -0.203 F 
ATOM     90  F   UNL A   1      36.734  31.326  39.369  1.00  0.00    -0.200 F 
ATOM     91  C   UNL A   1      37.827  33.299  38.670  1.00  0.00     0.200 A 
ATOM     92  F   UNL A   1      38.937  35.247  37.931  1.00  0.00    -0.200 F 
ATOM     93  F   UNL A   1      37.535  33.891  39.837  1.00  0.00    -0.200 F 
ENDBRANCH  60  83
ENDBRANCH  34  35
ENDBRANCH  27  29
ENDBRANCH  26  27
ENDBRANCH  25  26
ENDBRANCH  24  25
ENDBRANCH  23  24
ENDBRANCH  22  23
ENDBRANCH   1  22
TORSDOF 20
ENDMDL
MODEL 3
REMARK VINA RESULT:     -10.4      3.241      8.520
REMARK SMILES C[C@@H](Sc1nc2c(cc1C#N)CCC2)C(=O)OCCOCCOCCOC(=O)c1ccc(-c2c3nc(c(-c4c(F)c(F)c(F)c(F)c4F)c4ccc([nH]4)c(-c4c(F)c(F)c(F)c(F)c4F)c4nc(c(-c5c(F)c(F)c(F)c(F)c5F)c5ccc2[nH]5)C=C4)C=C3)cc1
REMARK SMILES IDX 21 1 20 2 19 3 18 4 17 5 15 6 16 7 2 8 1 9 3 10 4 11 5 12
REMARK SMILES IDX 9 13 6 14 8 15 7 16 14 17 12 18 13 19 10 20 11 21 22 22
REMARK SMILES IDX 23 23 24 24 25 25 26 26 27 27 28 28 29 29 30 30 91 31 31 32
REMARK SMILES IDX 90 33 32 34 33 35 34 36 84 37 35 38 89 39 83 40 85 41 36 42
REMARK SMILES IDX 88 43 82 44 81 45 37 47 69 48 49 49 68 50 50 51 53 52 67 53
REMARK SMILES IDX 86 54 51 55 52 56 66 58 87 59 54 60 38 61 39 62 47 63 40 64
REMARK SMILES IDX 41 65 45 66 48 67 42 68 43 69 46 70 44 71 70 72 71 73 79 74
REMARK SMILES IDX 72 75 73 76 77 77 80 78 74 79 75 80 78 81 76 82 55 83 56 84
REMARK SMILES IDX 64 85 57 86 58 87 62 88 65 89 59 90 60 91 63 92 61 93
REMARK H PARENT 85 46 53 57
REMARK Flexibility Score: inf
ROOT
ATOM      1  C   UNL A   1      33.596  27.437  24.645  1.00  0.00     0.188 C 
ENDROOT
BRANCH   1   2
ATOM      2  O   UNL A   1      34.014  26.348  23.842  1.00  0.00    -0.376 OA
BRANCH   2   3
ATOM      3  C   UNL A   1      33.608  26.310  22.477  1.00  0.00     0.202 C 
BRANCH   3   4
ATOM      4  C   UNL A   1      32.586  25.264  21.989  1.00  0.00     0.261 C 
BRANCH   4   5
ATOM      5  O   UNL A   1      32.503  24.064  22.784  1.00  0.00    -0.462 OA
BRANCH   5   6
ATOM      6  C   UNL A   1      31.458  23.988  23.647  1.00  0.00     0.319 C 
ATOM      7  O   UNL A   1      30.285  24.077  23.287  1.00  0.00    -0.251 OA
BRANCH   6   8
ATOM      8  C   UNL A   1      31.859  23.594  25.086  1.00  0.00     0.160 C 
ATOM      9  C   UNL A   1      30.941  24.021  26.235  1.00  0.00     0.032 C 
BRANCH   8  10
ATOM     10  S   UNL A   1      32.155  21.781  25.029  1.00  0.00    -0.090 SA
BRANCH  10  11
ATOM     11  C   UNL A   1      33.909  21.542  25.004  1.00  0.00     0.115 A 
ATOM     12  N   UNL A   1      34.518  22.725  25.286  1.00  0.00    -0.245 NA
ATOM     13  C   UNL A   1      34.635  20.347  24.867  1.00  0.00     0.085 A 
ATOM     14  C   UNL A   1      35.839  22.709  25.466  1.00  0.00     0.045 A 
ATOM     15  C   UNL A   1      36.029  20.374  25.054  1.00  0.00     0.028 A 
ATOM     16  C   UNL A   1      36.626  21.578  25.371  1.00  0.00    -0.025 A 
ATOM     17  C   UNL A   1      36.627  23.899  25.920  1.00  0.00     0.057 C 
ATOM     18  C   UNL A   1      38.038  21.881  25.747  1.00  0.00     0.038 C 
ATOM     19  C   UNL A   1      38.057  23.417  25.650  1.00  0.00     0.011 C 
BRANCH  13  20
ATOM     20  C   UNL A   1      34.030  19.087  24.578  1.00  0.00     0.102 C 
ATOM     21  N   UNL A   1      33.498  18.072  24.370  1.00  0.00    -0.192 NA
ENDBRANCH  13  20
ENDBRANCH  10  11
ENDBRANCH   8  10
ENDBRANCH   6   8
ENDBRANCH   5   6
ENDBRANCH   4   5
ENDBRANCH   3   4
ENDBRANCH   2   3
ENDBRANCH   1   2
BRANCH   1  22
ATOM     22  C   UNL A   1      33.245  27.194  26.119  1.00  0.00     0.188 C 
BRANCH  22  23
ATOM     23  O   UNL A   1      31.942  27.518  26.527  1.00  0.00    -0.376 OA
BRANCH  23  24
ATOM     24  C   UNL A   1      31.678  28.702  27.264  1.00  0.00     0.202 C 
BRANCH  24  25
ATOM     25  C   UNL A   1      31.823  30.159  26.753  1.00  0.00     0.261 C 
BRANCH  25  26
ATOM     26  O   UNL A   1      33.125  30.683  26.461  1.00  0.00    -0.460 OA
BRANCH  26  27
ATOM     27  C   UNL A   1      33.583  31.682  27.263  1.00  0.00     0.338 C 
ATOM     28  O   UNL A   1      32.964  32.661  27.638  1.00  0.00    -0.246 OA
BRANCH  27  29
ATOM     29  C   UNL A   1      34.863  31.214  27.856  1.00  0.00     0.060 A 
ATOM     30  C   UNL A   1      35.018  29.850  28.156  1.00  0.00     0.016 A 
ATOM     31  C   UNL A   1      35.928  32.094  28.038  1.00  0.00     0.016 A 
ATOM     32  C   UNL A   1      36.238  29.364  28.630  1.00  0.00     0.010 A 
ATOM     33  C   UNL A   1      37.140  31.612  28.548  1.00  0.00     0.010 A 
ATOM     34  C   UNL A   1      37.296  30.249  28.866  1.00  0.00    -0.014 A 
BRANCH  34  35
ATOM     35  C   UNL A   1      38.498  29.781  29.603  1.00  0.00     0.031 A 
ATOM     36  C   UNL A   1      38.748  30.318  30.984  1.00  0.00     0.074 A 
ATOM     37  C   UNL A   1      39.348  28.881  29.076  1.00  0.00     0.049 A 
ATOM     38  N   UNL A   1      39.717  30.049  31.821  1.00  0.00    -0.248 NA
ATOM     39  C   UNL A   1      37.773  31.298  31.487  1.00  0.00     0.031 C 
ATOM     40  C   UNL A   1      39.211  28.267  27.760  1.00  0.00     0.029 A 
ATOM     41  N   UNL A   1      40.499  28.332  29.590  1.00  0.00    -0.354 N 
ATOM     42  C   UNL A   1      39.472  30.829  32.943  1.00  0.00     0.074 A 
ATOM     43  C   UNL A   1      38.292  31.616  32.662  1.00  0.00     0.031 C 
ATOM     44  C   UNL A   1      40.238  27.421  27.568  1.00  0.00     0.029 A 
ATOM     45  C   UNL A   1      41.120  27.453  28.737  1.00  0.00     0.049 A 
ATOM     46  H   UNL A   1      40.845  28.547  30.486  1.00  0.00     0.167 HD
ATOM     47  C   UNL A   1      40.158  30.873  34.108  1.00  0.00     0.037 A 
ATOM     48  C   UNL A   1      42.272  26.763  28.874  1.00  0.00     0.037 A 
ATOM     49  C   UNL A   1      41.332  30.088  34.385  1.00  0.00     0.049 A 
ATOM     50  C   UNL A   1      43.064  26.870  30.152  1.00  0.00     0.074 A 
ATOM     51  C   UNL A   1      42.069  30.031  35.553  1.00  0.00     0.029 A 
ATOM     52  N   UNL A   1      41.951  29.239  33.477  1.00  0.00    -0.354 N 
ATOM     53  N   UNL A   1      42.792  27.561  31.233  1.00  0.00    -0.248 NA
ATOM     54  C   UNL A   1      44.316  26.103  30.237  1.00  0.00     0.031 C 
ATOM     55  C   UNL A   1      43.182  29.217  35.326  1.00  0.00     0.029 A 
ATOM     56  C   UNL A   1      43.092  28.696  34.045  1.00  0.00     0.049 A 
ATOM     57  H   UNL A   1      41.628  29.052  32.566  1.00  0.00     0.167 HD
ATOM     58  C   UNL A   1      43.819  27.297  32.131  1.00  0.00     0.074 A 
ATOM     59  C   UNL A   1      44.722  26.376  31.471  1.00  0.00     0.031 C 
ATOM     60  C   UNL A   1      43.988  27.773  33.389  1.00  0.00     0.037 A 
BRANCH  47  61
ATOM     61  C   UNL A   1      39.675  31.825  35.166  1.00  0.00     0.064 A 
ATOM     62  C   UNL A   1      40.141  33.146  35.245  1.00  0.00     0.173 A 
ATOM     63  C   UNL A   1      38.704  31.418  36.095  1.00  0.00     0.173 A 
ATOM     64  F   UNL A   1      41.074  33.587  34.386  1.00  0.00    -0.203 F 
ATOM     65  C   UNL A   1      39.684  34.011  36.236  1.00  0.00     0.198 A 
ATOM     66  C   UNL A   1      38.219  32.296  37.058  1.00  0.00     0.198 A 
ATOM     67  F   UNL A   1      38.214  30.169  36.060  1.00  0.00    -0.203 F 
ATOM     68  F   UNL A   1      40.190  35.248  36.329  1.00  0.00    -0.200 F 
ATOM     69  C   UNL A   1      38.717  33.588  37.136  1.00  0.00     0.200 A 
ATOM     70  F   UNL A   1      37.269  31.893  37.913  1.00  0.00    -0.200 F 
ATOM     71  F   UNL A   1      38.271  34.424  38.083  1.00  0.00    -0.200 F 
ENDBRANCH  47  61
BRANCH  48  72
ATOM     72  C   UNL A   1      42.717  25.884  27.760  1.00  0.00     0.064 A 
ATOM     73  C   UNL A   1      42.142  24.623  27.558  1.00  0.00     0.173 A 
ATOM     74  C   UNL A   1      43.671  26.322  26.826  1.00  0.00     0.173 A 
ATOM     75  F   UNL A   1      41.250  24.145  28.439  1.00  0.00    -0.203 F 
ATOM     76  C   UNL A   1      42.487  23.843  26.456  1.00  0.00     0.198 A 
ATOM     77  C   UNL A   1      43.995  25.553  25.711  1.00  0.00     0.198 A 
ATOM     78  F   UNL A   1      44.258  27.519  26.979  1.00  0.00    -0.203 F 
ATOM     79  F   UNL A   1      41.930  22.634  26.293  1.00  0.00    -0.200 F 
ATOM     80  C   UNL A   1      43.399  24.315  25.524  1.00  0.00     0.200 A 
ATOM     81  F   UNL A   1      44.867  26.020  24.807  1.00  0.00    -0.200 F 
ATOM     82  F   UNL A   1      43.704  23.578  24.447  1.00  0.00    -0.200 F 
ENDBRANCH  48  72
BRANCH  60  83
ATOM     83  C   UNL A   1      45.182  27.318  34.181  1.00  0.00     0.064 A 
ATOM     84  C   UNL A   1      46.359  28.077  34.236  1.00  0.00     0.173 A 
ATOM     85  C   UNL A   1      45.087  26.195  35.020  1.00  0.00     0.173 A 
ATOM     86  F   UNL A   1      46.506  29.153  33.450  1.00  0.00    -0.203 F 
ATOM     87  C   UNL A   1      47.389  27.738  35.112  1.00  0.00     0.198 A 
ATOM     88  C   UNL A   1      46.104  25.878  35.916  1.00  0.00     0.198 A 
ATOM     89  F   UNL A   1      43.977  25.440  35.014  1.00  0.00    -0.203 F 
ATOM     90  F   UNL A   1      48.507  28.475  35.145  1.00  0.00    -0.200 F 
ATOM     91  C   UNL A   1      47.252  26.651  35.964  1.00  0.00     0.200 A 
ATOM     92  F   UNL A   1      45.958  24.842  36.755  1.00  0.00    -0.200 F 
ATOM     93  F   UNL A   1      48.226  26.355  36.837  1.00  0.00    -0.200 F 
ENDBRANCH  60  83
ENDBRANCH  34  35
ENDBRANCH  27  29
ENDBRANCH  26  27
ENDBRANCH  25  26
ENDBRANCH  24  25
ENDBRANCH  23  24
ENDBRANCH  22  23
ENDBRANCH   1  22
TORSDOF 20
ENDMDL
