MODEL 1
REMARK VINA RESULT:     -11.2      0.000      0.000
REMARK SMILES C[C@@H](C(=O)OCCOCCOCCOC(=O)c1ccc(-c2c3nc(c(-c4c(F)c(F)c(F)c(F)c4F)c4ccc([nH]4)c(-c4c(F)c(F)c(F)c(F)c4F)c4nc(c(-c5c(F)c(F)c(F)c(F)c5F)c5ccc2[nH]5)C=C4)C=C3)cc1)c1ccc(-c2cccc(OC(=O)NC3CC3)c2)c(F)c1
REMARK SMILES IDX 8 1 7 2 6 3 5 4 3 5 4 6 2 7 1 8 80 9 81 10 99 11 82 12 97 13
REMARK SMILES IDX 83 14 98 15 84 16 85 17 96 18 86 19 88 20 87 21 89 22 90 23
REMARK SMILES IDX 91 24 92 25 93 27 94 28 95 29 9 30 10 31 11 32 12 33 13 34
REMARK SMILES IDX 14 35 15 36 16 37 17 38 18 39 79 40 19 41 78 42 20 43 21 44
REMARK SMILES IDX 22 45 72 46 23 47 77 48 71 49 73 50 24 51 76 52 70 53 69 54
REMARK SMILES IDX 25 56 57 57 37 58 56 59 38 60 41 61 55 62 74 63 39 64 40 65
REMARK SMILES IDX 54 67 75 68 42 69 26 70 27 71 35 72 28 73 29 74 33 75 36 76
REMARK SMILES IDX 30 77 31 78 34 79 32 80 58 81 59 82 67 83 60 84 61 85 65 86
REMARK SMILES IDX 68 87 62 88 63 89 66 90 64 91 43 92 44 93 52 94 45 95 46 96
REMARK SMILES IDX 50 97 53 98 47 99 48 100 51 101 49 102
REMARK H PARENT 92 26 73 55 41 66
REMARK Flexibility Score: inf
ROOT
ATOM      1  O   UNL A   1      35.401  30.837  27.609  1.00  0.00    -0.376 OA
ENDROOT
BRANCH   1   2
ATOM      2  C   UNL A   1      33.980  30.963  27.519  1.00  0.00     0.202 C 
BRANCH   2   3
ATOM      3  C   UNL A   1      33.155  29.763  27.021  1.00  0.00     0.261 C 
BRANCH   3   4
ATOM      4  O   UNL A   1      33.091  29.666  25.581  1.00  0.00    -0.463 OA
BRANCH   4   5
ATOM      5  C   UNL A   1      31.842  29.691  25.046  1.00  0.00     0.313 C 
ATOM      6  O   UNL A   1      31.008  30.552  25.316  1.00  0.00    -0.252 OA
BRANCH   5   7
ATOM      7  C   UNL A   1      31.599  28.616  23.964  1.00  0.00     0.126 C 
ATOM      8  C   UNL A   1      30.145  28.515  23.504  1.00  0.00     0.025 C 
BRANCH   7   9
ATOM      9  C   UNL A   1      32.302  27.310  24.330  1.00  0.00    -0.031 A 
ATOM     10  C   UNL A   1      33.384  26.738  23.637  1.00  0.00     0.005 A 
ATOM     11  C   UNL A   1      31.801  26.615  25.436  1.00  0.00     0.044 A 
ATOM     12  C   UNL A   1      33.841  25.443  23.954  1.00  0.00     0.012 A 
ATOM     13  C   UNL A   1      32.251  25.345  25.741  1.00  0.00     0.131 A 
ATOM     14  C   UNL A   1      33.221  24.701  24.967  1.00  0.00     0.018 A 
ATOM     15  F   UNL A   1      31.724  24.736  26.815  1.00  0.00    -0.206 F 
BRANCH  14  16
ATOM     16  C   UNL A   1      33.564  23.324  25.329  1.00  0.00    -0.012 A 
ATOM     17  C   UNL A   1      34.537  23.097  26.314  1.00  0.00     0.009 A 
ATOM     18  C   UNL A   1      32.759  22.242  24.849  1.00  0.00     0.056 A 
ATOM     19  C   UNL A   1      34.552  21.883  26.976  1.00  0.00     0.004 A 
ATOM     20  C   UNL A   1      32.787  21.026  25.502  1.00  0.00     0.133 A 
ATOM     21  C   UNL A   1      33.607  20.909  26.632  1.00  0.00     0.047 A 
BRANCH  20  22
ATOM     22  O   UNL A   1      32.148  19.794  25.000  1.00  0.00    -0.410 OA
BRANCH  22  23
ATOM     23  C   UNL A   1      32.247  18.969  23.811  1.00  0.00     0.412 C 
ATOM     24  O   UNL A   1      32.168  19.463  22.688  1.00  0.00    -0.224 OA
ATOM     25  N   UNL A   1      32.221  17.559  23.980  1.00  0.00    -0.318 N 
ATOM     26  H   UNL A   1      31.320  17.169  23.937  1.00  0.00     0.167 HD
BRANCH  25  27
ATOM     27  C   UNL A   1      33.312  16.549  24.213  1.00  0.00     0.085 C 
ATOM     28  C   UNL A   1      34.190  16.098  25.396  1.00  0.00     0.027 C 
ATOM     29  C   UNL A   1      32.883  15.447  25.203  1.00  0.00     0.027 C 
ENDBRANCH  25  27
ENDBRANCH  22  23
ENDBRANCH  20  22
ENDBRANCH  14  16
ENDBRANCH   7   9
ENDBRANCH   5   7
ENDBRANCH   4   5
ENDBRANCH   3   4
ENDBRANCH   2   3
ENDBRANCH   1   2
BRANCH   1  30
ATOM     30  C   UNL A   1      36.103  31.796  28.388  1.00  0.00     0.188 C 
BRANCH  30  31
ATOM     31  C   UNL A   1      35.917  33.279  28.035  1.00  0.00     0.188 C 
BRANCH  31  32
ATOM     32  O   UNL A   1      35.176  34.037  28.957  1.00  0.00    -0.376 OA
BRANCH  32  33
ATOM     33  C   UNL A   1      34.303  35.060  28.510  1.00  0.00     0.202 C 
BRANCH  33  34
ATOM     34  C   UNL A   1      33.106  35.615  29.314  1.00  0.00     0.261 C 
BRANCH  34  35
ATOM     35  O   UNL A   1      32.635  34.881  30.455  1.00  0.00    -0.460 OA
BRANCH  35  36
ATOM     36  C   UNL A   1      32.736  35.496  31.661  1.00  0.00     0.338 C 
ATOM     37  O   UNL A   1      31.946  36.278  32.150  1.00  0.00    -0.246 OA
BRANCH  36  38
ATOM     38  C   UNL A   1      33.879  34.900  32.406  1.00  0.00     0.060 A 
ATOM     39  C   UNL A   1      35.044  35.659  32.580  1.00  0.00     0.016 A 
ATOM     40  C   UNL A   1      33.836  33.587  32.877  1.00  0.00     0.016 A 
ATOM     41  C   UNL A   1      36.169  35.102  33.204  1.00  0.00     0.010 A 
ATOM     42  C   UNL A   1      34.978  33.020  33.475  1.00  0.00     0.010 A 
ATOM     43  C   UNL A   1      36.167  33.761  33.621  1.00  0.00    -0.014 A 
BRANCH  43  44
ATOM     44  C   UNL A   1      37.467  33.109  33.993  1.00  0.00     0.031 A 
ATOM     45  C   UNL A   1      38.088  32.149  33.037  1.00  0.00     0.074 A 
ATOM     46  C   UNL A   1      38.132  33.338  35.143  1.00  0.00     0.049 A 
ATOM     47  N   UNL A   1      39.131  31.385  33.227  1.00  0.00    -0.248 NA
ATOM     48  C   UNL A   1      37.428  31.977  31.738  1.00  0.00     0.031 C 
ATOM     49  C   UNL A   1      37.563  34.093  36.230  1.00  0.00     0.029 A 
ATOM     50  N   UNL A   1      39.380  32.943  35.619  1.00  0.00    -0.354 N 
ATOM     51  C   UNL A   1      39.231  30.606  32.094  1.00  0.00     0.074 A 
ATOM     52  C   UNL A   1      38.141  30.990  31.217  1.00  0.00     0.031 C 
ATOM     53  C   UNL A   1      38.478  34.139  37.207  1.00  0.00     0.029 A 
ATOM     54  C   UNL A   1      39.740  33.523  36.832  1.00  0.00     0.049 A 
ATOM     55  H   UNL A   1      39.958  32.308  35.139  1.00  0.00     0.167 HD
ATOM     56  C   UNL A   1      40.143  29.646  31.830  1.00  0.00     0.037 A 
ATOM     57  C   UNL A   1      40.927  33.532  37.518  1.00  0.00     0.037 A 
ATOM     58  C   UNL A   1      41.208  29.249  32.715  1.00  0.00     0.049 A 
ATOM     59  C   UNL A   1      41.783  32.335  37.258  1.00  0.00     0.074 A 
ATOM     60  C   UNL A   1      42.194  28.300  32.499  1.00  0.00     0.029 A 
ATOM     61  N   UNL A   1      41.425  29.762  33.984  1.00  0.00    -0.354 N 
ATOM     62  N   UNL A   1      41.789  31.520  36.242  1.00  0.00    -0.248 NA
ATOM     63  C   UNL A   1      42.696  31.960  38.351  1.00  0.00     0.031 C 
ATOM     64  C   UNL A   1      42.981  28.206  33.650  1.00  0.00     0.029 A 
ATOM     65  C   UNL A   1      42.531  29.147  34.555  1.00  0.00     0.049 A 
ATOM     66  H   UNL A   1      40.877  30.457  34.415  1.00  0.00     0.167 HD
ATOM     67  C   UNL A   1      42.714  30.548  36.565  1.00  0.00     0.074 A 
ATOM     68  C   UNL A   1      43.273  30.883  37.855  1.00  0.00     0.031 C 
ATOM     69  C   UNL A   1      43.067  29.465  35.844  1.00  0.00     0.037 A 
BRANCH  56  70
ATOM     70  C   UNL A   1      40.000  28.930  30.528  1.00  0.00     0.064 A 
ATOM     71  C   UNL A   1      40.480  29.482  29.333  1.00  0.00     0.173 A 
ATOM     72  C   UNL A   1      39.399  27.665  30.484  1.00  0.00     0.173 A 
ATOM     73  F   UNL A   1      41.040  30.702  29.328  1.00  0.00    -0.203 F 
ATOM     74  C   UNL A   1      40.343  28.798  28.131  1.00  0.00     0.198 A 
ATOM     75  C   UNL A   1      39.294  26.969  29.286  1.00  0.00     0.198 A 
ATOM     76  F   UNL A   1      38.920  27.102  31.604  1.00  0.00    -0.203 F 
ATOM     77  F   UNL A   1      40.762  29.364  26.991  1.00  0.00    -0.200 F 
ATOM     78  C   UNL A   1      39.760  27.539  28.111  1.00  0.00     0.200 A 
ATOM     79  F   UNL A   1      38.742  25.749  29.268  1.00  0.00    -0.200 F 
ATOM     80  F   UNL A   1      39.640  26.876  26.953  1.00  0.00    -0.200 F 
ENDBRANCH  56  70
BRANCH  57  81
ATOM     81  C   UNL A   1      41.402  34.404  38.678  1.00  0.00     0.064 A 
ATOM     82  C   UNL A   1      41.006  34.285  40.022  1.00  0.00     0.173 A 
ATOM     83  C   UNL A   1      42.231  35.479  38.443  1.00  0.00     0.173 A 
ATOM     84  F   UNL A   1      40.159  33.312  40.382  1.00  0.00    -0.203 F 
ATOM     85  C   UNL A   1      41.477  35.164  41.026  1.00  0.00     0.198 A 
ATOM     86  C   UNL A   1      42.726  36.358  39.413  1.00  0.00     0.198 A 
ATOM     87  F   UNL A   1      42.624  35.599  37.197  1.00  0.00    -0.203 F 
ATOM     88  F   UNL A   1      41.086  35.003  42.297  1.00  0.00    -0.200 F 
ATOM     89  C   UNL A   1      42.354  36.190  40.720  1.00  0.00     0.200 A 
ATOM     90  F   UNL A   1      43.589  37.330  39.087  1.00  0.00    -0.200 F 
ATOM     91  F   UNL A   1      42.847  36.998  41.668  1.00  0.00    -0.200 F 
ENDBRANCH  57  81
BRANCH  69  92
ATOM     92  C   UNL A   1      44.204  28.679  36.406  1.00  0.00     0.064 A 
ATOM     93  C   UNL A   1      45.542  29.039  36.194  1.00  0.00     0.173 A 
ATOM     94  C   UNL A   1      43.934  27.458  37.039  1.00  0.00     0.173 A 
ATOM     95  F   UNL A   1      45.843  30.161  35.521  1.00  0.00    -0.203 F 
ATOM     96  C   UNL A   1      46.572  28.183  36.572  1.00  0.00     0.198 A 
ATOM     97  C   UNL A   1      44.964  26.620  37.439  1.00  0.00     0.198 A 
ATOM     98  F   UNL A   1      42.665  27.058  37.218  1.00  0.00    -0.203 F 
ATOM     99  F   UNL A   1      47.843  28.498  36.281  1.00  0.00    -0.200 F 
ATOM    100  C   UNL A   1      46.282  26.978  37.196  1.00  0.00     0.200 A 
ATOM    101  F   UNL A   1      44.681  25.449  38.025  1.00  0.00    -0.200 F 
ATOM    102  F   UNL A   1      47.274  26.143  37.537  1.00  0.00    -0.200 F 
ENDBRANCH  69  92
ENDBRANCH  43  44
ENDBRANCH  36  38
ENDBRANCH  35  36
ENDBRANCH  34  35
ENDBRANCH  33  34
ENDBRANCH  32  33
ENDBRANCH  31  32
ENDBRANCH  30  31
ENDBRANCH   1  30
TORSDOF 22
ENDMDL
MODEL 2
REMARK VINA RESULT:     -11.1      1.162      6.902
REMARK SMILES C[C@@H](C(=O)OCCOCCOCCOC(=O)c1ccc(-c2c3nc(c(-c4c(F)c(F)c(F)c(F)c4F)c4ccc([nH]4)c(-c4c(F)c(F)c(F)c(F)c4F)c4nc(c(-c5c(F)c(F)c(F)c(F)c5F)c5ccc2[nH]5)C=C4)C=C3)cc1)c1ccc(-c2cccc(OC(=O)NC3CC3)c2)c(F)c1
REMARK SMILES IDX 8 1 7 2 6 3 5 4 3 5 4 6 2 7 1 8 80 9 81 10 99 11 82 12 97 13
REMARK SMILES IDX 83 14 98 15 84 16 85 17 96 18 86 19 88 20 87 21 89 22 90 23
REMARK SMILES IDX 91 24 92 25 93 27 94 28 95 29 9 30 10 31 11 32 12 33 13 34
REMARK SMILES IDX 14 35 15 36 16 37 17 38 18 39 79 40 19 41 78 42 20 43 21 44
REMARK SMILES IDX 22 45 72 46 23 47 77 48 71 49 73 50 24 51 76 52 70 53 69 54
REMARK SMILES IDX 25 56 57 57 37 58 56 59 38 60 41 61 55 62 74 63 39 64 40 65
REMARK SMILES IDX 54 67 75 68 42 69 26 70 27 71 35 72 28 73 29 74 33 75 36 76
REMARK SMILES IDX 30 77 31 78 34 79 32 80 58 81 59 82 67 83 60 84 61 85 65 86
REMARK SMILES IDX 68 87 62 88 63 89 66 90 64 91 43 92 44 93 52 94 45 95 46 96
REMARK SMILES IDX 50 97 53 98 47 99 48 100 51 101 49 102
REMARK H PARENT 92 26 73 55 41 66
REMARK Flexibility Score: inf
ROOT
ATOM      1  O   UNL A   1      33.981  30.527  27.359  1.00  0.00    -0.376 OA
ENDROOT
BRANCH   1   2
ATOM      2  C   UNL A   1      32.663  30.815  26.884  1.00  0.00     0.202 C 
BRANCH   2   3
ATOM      3  C   UNL A   1      31.801  29.663  26.338  1.00  0.00     0.261 C 
BRANCH   3   4
ATOM      4  O   UNL A   1      31.917  29.482  24.909  1.00  0.00    -0.463 OA
BRANCH   4   5
ATOM      5  C   UNL A   1      30.745  29.480  24.221  1.00  0.00     0.313 C 
ATOM      6  O   UNL A   1      30.022  30.467  24.113  1.00  0.00    -0.252 OA
BRANCH   5   7
ATOM      7  C   UNL A   1      30.460  28.162  23.469  1.00  0.00     0.126 C 
ATOM      8  C   UNL A   1      28.973  27.857  23.289  1.00  0.00     0.025 C 
BRANCH   7   9
ATOM      9  C   UNL A   1      31.339  27.032  24.002  1.00  0.00    -0.031 A 
ATOM     10  C   UNL A   1      32.619  26.694  23.530  1.00  0.00     0.005 A 
ATOM     11  C   UNL A   1      30.804  26.252  25.034  1.00  0.00     0.044 A 
ATOM     12  C   UNL A   1      33.268  25.524  23.973  1.00  0.00     0.012 A 
ATOM     13  C   UNL A   1      31.442  25.106  25.463  1.00  0.00     0.131 A 
ATOM     14  C   UNL A   1      32.644  24.673  24.894  1.00  0.00     0.018 A 
ATOM     15  F   UNL A   1      30.870  24.404  26.455  1.00  0.00    -0.206 F 
BRANCH  14  16
ATOM     16  C   UNL A   1      33.191  23.399  25.366  1.00  0.00    -0.012 A 
ATOM     17  C   UNL A   1      34.150  23.403  26.389  1.00  0.00     0.009 A 
ATOM     18  C   UNL A   1      32.590  22.170  24.945  1.00  0.00     0.056 A 
ATOM     19  C   UNL A   1      34.337  22.256  27.139  1.00  0.00     0.004 A 
ATOM     20  C   UNL A   1      32.789  21.022  25.687  1.00  0.00     0.133 A 
ATOM     21  C   UNL A   1      33.575  21.120  26.843  1.00  0.00     0.047 A 
BRANCH  20  22
ATOM     22  O   UNL A   1      32.376  19.671  25.262  1.00  0.00    -0.410 OA
BRANCH  22  23
ATOM     23  C   UNL A   1      32.371  18.915  24.023  1.00  0.00     0.412 C 
ATOM     24  O   UNL A   1      32.266  19.481  22.937  1.00  0.00    -0.224 OA
ATOM     25  N   UNL A   1      32.273  17.502  24.111  1.00  0.00    -0.318 N 
ATOM     26  H   UNL A   1      31.350  17.164  24.091  1.00  0.00     0.167 HD
BRANCH  25  27
ATOM     27  C   UNL A   1      33.315  16.423  24.228  1.00  0.00     0.085 C 
ATOM     28  C   UNL A   1      34.291  15.917  25.308  1.00  0.00     0.027 C 
ATOM     29  C   UNL A   1      32.930  15.353  25.271  1.00  0.00     0.027 C 
ENDBRANCH  25  27
ENDBRANCH  22  23
ENDBRANCH  20  22
ENDBRANCH  14  16
ENDBRANCH   7   9
ENDBRANCH   5   7
ENDBRANCH   4   5
ENDBRANCH   3   4
ENDBRANCH   2   3
ENDBRANCH   1   2
BRANCH   1  30
ATOM     30  C   UNL A   1      34.523  31.377  28.361  1.00  0.00     0.188 C 
BRANCH  30  31
ATOM     31  C   UNL A   1      34.547  32.887  28.083  1.00  0.00     0.188 C 
BRANCH  31  32
ATOM     32  O   UNL A   1      33.903  33.693  29.036  1.00  0.00    -0.376 OA
BRANCH  32  33
ATOM     33  C   UNL A   1      33.803  35.094  28.845  1.00  0.00     0.202 C 
BRANCH  33  34
ATOM     34  C   UNL A   1      32.889  36.035  29.661  1.00  0.00     0.261 C 
BRANCH  34  35
ATOM     35  O   UNL A   1      32.113  35.488  30.738  1.00  0.00    -0.460 OA
BRANCH  35  36
ATOM     36  C   UNL A   1      32.341  35.998  31.975  1.00  0.00     0.338 C 
ATOM     37  O   UNL A   1      31.644  36.790  32.578  1.00  0.00    -0.246 OA
BRANCH  36  38
ATOM     38  C   UNL A   1      33.488  35.272  32.587  1.00  0.00     0.060 A 
ATOM     39  C   UNL A   1      34.721  35.927  32.702  1.00  0.00     0.016 A 
ATOM     40  C   UNL A   1      33.375  33.940  32.988  1.00  0.00     0.016 A 
ATOM     41  C   UNL A   1      35.842  35.247  33.198  1.00  0.00     0.010 A 
ATOM     42  C   UNL A   1      34.511  33.251  33.455  1.00  0.00     0.010 A 
ATOM     43  C   UNL A   1      35.764  33.888  33.540  1.00  0.00    -0.014 A 
BRANCH  43  44
ATOM     44  C   UNL A   1      37.033  33.116  33.763  1.00  0.00     0.031 A 
ATOM     45  C   UNL A   1      37.680  33.170  35.104  1.00  0.00     0.074 A 
ATOM     46  C   UNL A   1      37.637  32.358  32.827  1.00  0.00     0.049 A 
ATOM     47  N   UNL A   1      38.842  32.687  35.458  1.00  0.00    -0.248 NA
ATOM     48  C   UNL A   1      36.971  33.905  36.160  1.00  0.00     0.031 C 
ATOM     49  C   UNL A   1      37.230  32.362  31.445  1.00  0.00     0.029 A 
ATOM     50  N   UNL A   1      38.724  31.487  32.859  1.00  0.00    -0.354 N 
ATOM     51  C   UNL A   1      39.031  33.095  36.761  1.00  0.00     0.074 A 
ATOM     52  C   UNL A   1      37.862  33.866  37.140  1.00  0.00     0.031 C 
ATOM     53  C   UNL A   1      38.022  31.502  30.792  1.00  0.00     0.029 A 
ATOM     54  C   UNL A   1      38.937  30.794  31.672  1.00  0.00     0.049 A 
ATOM     55  H   UNL A   1      39.292  31.372  33.654  1.00  0.00     0.167 HD
ATOM     56  C   UNL A   1      40.098  32.858  37.554  1.00  0.00     0.037 A 
ATOM     57  C   UNL A   1      39.765  29.743  31.369  1.00  0.00     0.037 A 
ATOM     58  C   UNL A   1      41.269  32.114  37.166  1.00  0.00     0.049 A 
ATOM     59  C   UNL A   1      40.993  29.679  32.218  1.00  0.00     0.074 A 
ATOM     60  C   UNL A   1      42.382  31.806  37.932  1.00  0.00     0.029 A 
ATOM     61  N   UNL A   1      41.492  31.573  35.910  1.00  0.00    -0.354 N 
ATOM     62  N   UNL A   1      41.215  30.177  33.400  1.00  0.00    -0.248 NA
ATOM     63  C   UNL A   1      42.162  29.039  31.591  1.00  0.00     0.031 C 
ATOM     64  C   UNL A   1      43.296  31.117  37.130  1.00  0.00     0.029 A 
ATOM     65  C   UNL A   1      42.724  30.933  35.887  1.00  0.00     0.049 A 
ATOM     66  H   UNL A   1      40.870  31.634  35.148  1.00  0.00     0.167 HD
ATOM     67  C   UNL A   1      42.539  29.897  33.666  1.00  0.00     0.074 A 
ATOM     68  C   UNL A   1      43.070  29.162  32.541  1.00  0.00     0.031 C 
ATOM     69  C   UNL A   1      43.255  30.226  34.760  1.00  0.00     0.037 A 
BRANCH  56  70
ATOM     70  C   UNL A   1      40.055  33.448  38.925  1.00  0.00     0.064 A 
ATOM     71  C   UNL A   1      40.802  34.587  39.254  1.00  0.00     0.173 A 
ATOM     72  C   UNL A   1      39.236  32.880  39.909  1.00  0.00     0.173 A 
ATOM     73  F   UNL A   1      41.618  35.147  38.347  1.00  0.00    -0.203 F 
ATOM     74  C   UNL A   1      40.745  35.126  40.533  1.00  0.00     0.198 A 
ATOM     75  C   UNL A   1      39.156  33.442  41.177  1.00  0.00     0.198 A 
ATOM     76  F   UNL A   1      38.510  31.785  39.638  1.00  0.00    -0.203 F 
ATOM     77  F   UNL A   1      41.505  36.186  40.845  1.00  0.00    -0.200 F 
ATOM     78  C   UNL A   1      39.915  34.560  41.490  1.00  0.00     0.200 A 
ATOM     79  F   UNL A   1      38.346  32.901  42.097  1.00  0.00    -0.200 F 
ATOM     80  F   UNL A   1      39.852  35.088  42.719  1.00  0.00    -0.200 F 
ENDBRANCH  56  70
BRANCH  57  81
ATOM     81  C   UNL A   1      39.781  28.800  30.169  1.00  0.00     0.064 A 
ATOM     82  C   UNL A   1      39.318  27.471  30.150  1.00  0.00     0.173 A 
ATOM     83  C   UNL A   1      40.368  29.193  28.986  1.00  0.00     0.173 A 
ATOM     84  F   UNL A   1      38.771  26.942  31.252  1.00  0.00    -0.203 F 
ATOM     85  C   UNL A   1      39.406  26.660  28.994  1.00  0.00     0.198 A 
ATOM     86  C   UNL A   1      40.458  28.422  27.821  1.00  0.00     0.198 A 
ATOM     87  F   UNL A   1      40.794  30.434  28.977  1.00  0.00    -0.203 F 
ATOM     88  F   UNL A   1      38.936  25.406  29.017  1.00  0.00    -0.200 F 
ATOM     89  C   UNL A   1      39.960  27.146  27.823  1.00  0.00     0.200 A 
ATOM     90  F   UNL A   1      40.984  28.929  26.697  1.00  0.00    -0.200 F 
ATOM     91  F   UNL A   1      40.004  26.406  26.707  1.00  0.00    -0.200 F 
ENDBRANCH  57  81
BRANCH  69  92
ATOM     92  C   UNL A   1      44.631  29.652  34.809  1.00  0.00     0.064 A 
ATOM     93  C   UNL A   1      45.739  30.312  34.258  1.00  0.00     0.173 A 
ATOM     94  C   UNL A   1      44.803  28.346  35.288  1.00  0.00     0.173 A 
ATOM     95  F   UNL A   1      45.600  31.533  33.717  1.00  0.00    -0.203 F 
ATOM     96  C   UNL A   1      46.967  29.666  34.158  1.00  0.00     0.198 A 
ATOM     97  C   UNL A   1      46.036  27.716  35.211  1.00  0.00     0.198 A 
ATOM     98  F   UNL A   1      43.756  27.666  35.781  1.00  0.00    -0.203 F 
ATOM     99  F   UNL A   1      47.994  30.274  33.546  1.00  0.00    -0.200 F 
ATOM    100  C   UNL A   1      47.115  28.371  34.636  1.00  0.00     0.200 A 
ATOM    101  F   UNL A   1      46.171  26.460  35.656  1.00  0.00    -0.200 F 
ATOM    102  F   UNL A   1      48.291  27.741  34.515  1.00  0.00    -0.200 F 
ENDBRANCH  69  92
ENDBRANCH  43  44
ENDBRANCH  36  38
ENDBRANCH  35  36
ENDBRANCH  34  35
ENDBRANCH  33  34
ENDBRANCH  32  33
ENDBRANCH  31  32
ENDBRANCH  30  31
ENDBRANCH   1  30
TORSDOF 22
ENDMDL
MODEL 3
REMARK VINA RESULT:     -10.8      2.117      3.098
REMARK SMILES C[C@@H](C(=O)OCCOCCOCCOC(=O)c1ccc(-c2c3nc(c(-c4c(F)c(F)c(F)c(F)c4F)c4ccc([nH]4)c(-c4c(F)c(F)c(F)c(F)c4F)c4nc(c(-c5c(F)c(F)c(F)c(F)c5F)c5ccc2[nH]5)C=C4)C=C3)cc1)c1ccc(-c2cccc(OC(=O)NC3CC3)c2)c(F)c1
REMARK SMILES IDX 8 1 7 2 6 3 5 4 3 5 4 6 2 7 1 8 80 9 81 10 99 11 82 12 97 13
REMARK SMILES IDX 83 14 98 15 84 16 85 17 96 18 86 19 88 20 87 21 89 22 90 23
REMARK SMILES IDX 91 24 92 25 93 27 94 28 95 29 9 30 10 31 11 32 12 33 13 34
REMARK SMILES IDX 14 35 15 36 16 37 17 38 18 39 79 40 19 41 78 42 20 43 21 44
REMARK SMILES IDX 22 45 72 46 23 47 77 48 71 49 73 50 24 51 76 52 70 53 69 54
REMARK SMILES IDX 25 56 57 57 37 58 56 59 38 60 41 61 55 62 74 63 39 64 40 65
REMARK SMILES IDX 54 67 75 68 42 69 26 70 27 71 35 72 28 73 29 74 33 75 36 76
REMARK SMILES IDX 30 77 31 78 34 79 32 80 58 81 59 82 67 83 60 84 61 85 65 86
REMARK SMILES IDX 68 87 62 88 63 89 66 90 64 91 43 92 44 93 52 94 45 95 46 96
REMARK SMILES IDX 50 97 53 98 47 99 48 100 51 101 49 102
REMARK H PARENT 92 26 73 55 41 66
REMARK Flexibility Score: inf
ROOT
ATOM      1  O   UNL A   1      34.354  30.588  27.378  1.00  0.00    -0.376 OA
ENDROOT
BRANCH   1   2
ATOM      2  C   UNL A   1      32.946  30.465  27.164  1.00  0.00     0.202 C 
BRANCH   2   3
ATOM      3  C   UNL A   1      32.297  29.073  27.257  1.00  0.00     0.261 C 
BRANCH   3   4
ATOM      4  O   UNL A   1      32.694  28.179  26.193  1.00  0.00    -0.463 OA
BRANCH   4   5
ATOM      5  C   UNL A   1      31.749  27.935  25.249  1.00  0.00     0.313 C 
ATOM      6  O   UNL A   1      31.270  28.807  24.528  1.00  0.00    -0.252 OA
BRANCH   5   7
ATOM      7  C   UNL A   1      31.418  26.438  25.063  1.00  0.00     0.126 C 
ATOM      8  C   UNL A   1      30.194  25.969  25.849  1.00  0.00     0.025 C 
BRANCH   7   9
ATOM      9  C   UNL A   1      32.681  25.585  25.173  1.00  0.00    -0.031 A 
ATOM     10  C   UNL A   1      33.750  25.578  24.260  1.00  0.00     0.005 A 
ATOM     11  C   UNL A   1      32.760  24.718  26.269  1.00  0.00     0.044 A 
ATOM     12  C   UNL A   1      34.783  24.625  24.364  1.00  0.00     0.012 A 
ATOM     13  C   UNL A   1      33.773  23.784  26.365  1.00  0.00     0.131 A 
ATOM     14  C   UNL A   1      34.760  23.663  25.382  1.00  0.00     0.018 A 
ATOM     15  F   UNL A   1      33.785  22.982  27.440  1.00  0.00    -0.206 F 
BRANCH  14  16
ATOM     16  C   UNL A   1      35.738  22.584  25.540  1.00  0.00    -0.012 A 
ATOM     17  C   UNL A   1      35.411  21.293  25.099  1.00  0.00     0.009 A 
ATOM     18  C   UNL A   1      37.080  22.896  25.928  1.00  0.00     0.056 A 
ATOM     19  C   UNL A   1      36.430  20.400  24.824  1.00  0.00     0.004 A 
ATOM     20  C   UNL A   1      38.095  21.996  25.666  1.00  0.00     0.133 A 
ATOM     21  C   UNL A   1      37.757  20.804  25.010  1.00  0.00     0.047 A 
BRANCH  20  22
ATOM     22  O   UNL A   1      39.473  22.121  26.174  1.00  0.00    -0.410 OA
BRANCH  22  23
ATOM     23  C   UNL A   1      40.435  21.252  26.828  1.00  0.00     0.412 C 
ATOM     24  O   UNL A   1      40.566  20.080  26.484  1.00  0.00    -0.224 OA
ATOM     25  N   UNL A   1      41.062  21.731  28.009  1.00  0.00    -0.318 N 
ATOM     26  H   UNL A   1      40.584  21.497  28.837  1.00  0.00     0.167 HD
BRANCH  25  27
ATOM     27  C   UNL A   1      42.318  22.526  28.236  1.00  0.00     0.085 C 
ATOM     28  C   UNL A   1      43.119  23.600  27.473  1.00  0.00     0.027 C 
ATOM     29  C   UNL A   1      42.035  24.037  28.369  1.00  0.00     0.027 C 
ENDBRANCH  25  27
ENDBRANCH  22  23
ENDBRANCH  20  22
ENDBRANCH  14  16
ENDBRANCH   7   9
ENDBRANCH   5   7
ENDBRANCH   4   5
ENDBRANCH   3   4
ENDBRANCH   2   3
ENDBRANCH   1   2
BRANCH   1  30
ATOM     30  C   UNL A   1      34.793  31.455  28.415  1.00  0.00     0.188 C 
BRANCH  30  31
ATOM     31  C   UNL A   1      35.566  32.719  28.013  1.00  0.00     0.188 C 
BRANCH  31  32
ATOM     32  O   UNL A   1      34.788  33.865  27.787  1.00  0.00    -0.376 OA
BRANCH  32  33
ATOM     33  C   UNL A   1      33.544  34.033  28.445  1.00  0.00     0.202 C 
BRANCH  33  34
ATOM     34  C   UNL A   1      32.979  35.383  28.939  1.00  0.00     0.261 C 
BRANCH  34  35
ATOM     35  O   UNL A   1      33.478  35.939  30.166  1.00  0.00    -0.460 OA
BRANCH  35  36
ATOM     36  C   UNL A   1      32.975  35.426  31.317  1.00  0.00     0.338 C 
ATOM     37  O   UNL A   1      31.804  35.352  31.633  1.00  0.00    -0.246 OA
BRANCH  36  38
ATOM     38  C   UNL A   1      34.077  34.763  32.066  1.00  0.00     0.060 A 
ATOM     39  C   UNL A   1      35.159  35.537  32.506  1.00  0.00     0.016 A 
ATOM     40  C   UNL A   1      34.082  33.384  32.284  1.00  0.00     0.016 A 
ATOM     41  C   UNL A   1      36.252  34.932  33.142  1.00  0.00     0.010 A 
ATOM     42  C   UNL A   1      35.196  32.776  32.894  1.00  0.00     0.010 A 
ATOM     43  C   UNL A   1      36.307  33.539  33.306  1.00  0.00    -0.014 A 
BRANCH  43  44
ATOM     44  C   UNL A   1      37.607  32.899  33.698  1.00  0.00     0.031 A 
ATOM     45  C   UNL A   1      38.274  31.979  32.734  1.00  0.00     0.074 A 
ATOM     46  C   UNL A   1      38.231  33.104  34.874  1.00  0.00     0.049 A 
ATOM     47  N   UNL A   1      39.325  31.228  32.933  1.00  0.00    -0.248 NA
ATOM     48  C   UNL A   1      37.657  31.835  31.409  1.00  0.00     0.031 C 
ATOM     49  C   UNL A   1      37.616  33.815  35.965  1.00  0.00     0.029 A 
ATOM     50  N   UNL A   1      39.472  32.716  35.377  1.00  0.00    -0.354 N 
ATOM     51  C   UNL A   1      39.474  30.487  31.781  1.00  0.00     0.074 A 
ATOM     52  C   UNL A   1      38.405  30.877  30.882  1.00  0.00     0.031 C 
ATOM     53  C   UNL A   1      38.499  33.847  36.972  1.00  0.00     0.029 A 
ATOM     54  C   UNL A   1      39.783  33.265  36.618  1.00  0.00     0.049 A 
ATOM     55  H   UNL A   1      40.076  32.106  34.897  1.00  0.00     0.167 HD
ATOM     56  C   UNL A   1      40.412  29.551  31.516  1.00  0.00     0.037 A 
ATOM     57  C   UNL A   1      40.949  33.274  37.340  1.00  0.00     0.037 A 
ATOM     58  C   UNL A   1      41.456  29.146  32.421  1.00  0.00     0.049 A 
ATOM     59  C   UNL A   1      41.834  32.101  37.071  1.00  0.00     0.074 A 
ATOM     60  C   UNL A   1      42.465  28.221  32.207  1.00  0.00     0.029 A 
ATOM     61  N   UNL A   1      41.625  29.624  33.712  1.00  0.00    -0.354 N 
ATOM     62  N   UNL A   1      41.887  31.318  36.032  1.00  0.00    -0.248 NA
ATOM     63  C   UNL A   1      42.720  31.708  38.181  1.00  0.00     0.031 C 
ATOM     64  C   UNL A   1      43.218  28.107  33.379  1.00  0.00     0.029 A 
ATOM     65  C   UNL A   1      42.724  29.011  34.298  1.00  0.00     0.049 A 
ATOM     66  H   UNL A   1      41.051  30.296  34.146  1.00  0.00     0.167 HD
ATOM     67  C   UNL A   1      42.819  30.353  36.354  1.00  0.00     0.074 A 
ATOM     68  C   UNL A   1      43.332  30.657  37.670  1.00  0.00     0.031 C 
ATOM     69  C   UNL A   1      43.214  29.299  35.612  1.00  0.00     0.037 A 
BRANCH  56  70
ATOM     70  C   UNL A   1      40.321  28.873  30.189  1.00  0.00     0.064 A 
ATOM     71  C   UNL A   1      40.953  29.400  29.054  1.00  0.00     0.173 A 
ATOM     72  C   UNL A   1      39.617  27.668  30.062  1.00  0.00     0.173 A 
ATOM     73  F   UNL A   1      41.617  30.563  29.129  1.00  0.00    -0.203 F 
ATOM     74  C   UNL A   1      40.863  28.751  27.829  1.00  0.00     0.198 A 
ATOM     75  C   UNL A   1      39.558  27.006  28.843  1.00  0.00     0.198 A 
ATOM     76  F   UNL A   1      38.993  27.133  31.122  1.00  0.00    -0.203 F 
ATOM     77  F   UNL A   1      41.431  29.295  26.744  1.00  0.00    -0.200 F 
ATOM     78  C   UNL A   1      40.175  27.551  27.727  1.00  0.00     0.200 A 
ATOM     79  F   UNL A   1      38.903  25.841  28.747  1.00  0.00    -0.200 F 
ATOM     80  F   UNL A   1      40.100  26.921  26.547  1.00  0.00    -0.200 F 
ENDBRANCH  56  70
BRANCH  57  81
ATOM     81  C   UNL A   1      41.372  34.118  38.540  1.00  0.00     0.064 A 
ATOM     82  C   UNL A   1      40.933  33.953  39.867  1.00  0.00     0.173 A 
ATOM     83  C   UNL A   1      42.191  35.211  38.365  1.00  0.00     0.173 A 
ATOM     84  F   UNL A   1      40.090  32.959  40.170  1.00  0.00    -0.203 F 
ATOM     85  C   UNL A   1      41.357  34.810  40.911  1.00  0.00     0.198 A 
ATOM     86  C   UNL A   1      42.641  36.068  39.375  1.00  0.00     0.198 A 
ATOM     87  F   UNL A   1      42.624  35.374  37.136  1.00  0.00    -0.203 F 
ATOM     88  F   UNL A   1      40.927  34.605  42.163  1.00  0.00    -0.200 F 
ATOM     89  C   UNL A   1      42.229  35.856  40.664  1.00  0.00     0.200 A 
ATOM     90  F   UNL A   1      43.499  37.062  39.107  1.00  0.00    -0.200 F 
ATOM     91  F   UNL A   1      42.677  36.643  41.651  1.00  0.00    -0.200 F 
ENDBRANCH  57  81
BRANCH  69  92
ATOM     92  C   UNL A   1      44.348  28.515  36.185  1.00  0.00     0.064 A 
ATOM     93  C   UNL A   1      45.687  28.825  35.911  1.00  0.00     0.173 A 
ATOM     94  C   UNL A   1      44.066  27.342  36.898  1.00  0.00     0.173 A 
ATOM     95  F   UNL A   1      45.996  29.897  35.163  1.00  0.00    -0.203 F 
ATOM     96  C   UNL A   1      46.706  27.965  36.308  1.00  0.00     0.198 A 
ATOM     97  C   UNL A   1      45.087  26.501  37.316  1.00  0.00     0.198 A 
ATOM     98  F   UNL A   1      42.794  26.989  37.140  1.00  0.00    -0.203 F 
ATOM     99  F   UNL A   1      47.974  28.226  35.960  1.00  0.00    -0.200 F 
ATOM    100  C   UNL A   1      46.405  26.807  37.012  1.00  0.00     0.200 A 
ATOM    101  F   UNL A   1      44.793  25.375  37.979  1.00  0.00    -0.200 F 
ATOM    102  F   UNL A   1      47.385  25.967  37.372  1.00  0.00    -0.200 F 
ENDBRANCH  69  92
ENDBRANCH  43  44
ENDBRANCH  36  38
ENDBRANCH  35  36
ENDBRANCH  34  35
ENDBRANCH  33  34
ENDBRANCH  32  33
ENDBRANCH  31  32
ENDBRANCH  30  31
ENDBRANCH   1  30
TORSDOF 22
ENDMDL
