MODEL 1
REMARK VINA RESULT:     -11.0      0.000      0.000
REMARK SMILES C[C@H](Sc1ccccn1)C(=O)N[C@H](C(=O)OCCOCCOCCOC(=O)c1ccc(-c2c3nc(c(-c4c(F)c(F)c(F)c(F)c4F)c4ccc([nH]4)c(-c4c(F)c(F)c(F)c(F)c4F)c4nc(c(-c5c(F)c(F)c(F)c(F)c5F)c5ccc2[nH]5)C=C4)C=C3)cc1)c1ccc(F)cc1
REMARK SMILES IDX 20 1 19 2 18 3 17 4 16 5 14 6 15 7 13 8 12 9 10 10 11 11
REMARK SMILES IDX 2 13 1 14 3 15 4 16 5 17 9 18 6 19 8 20 7 21 91 22 92 23
REMARK SMILES IDX 97 24 93 25 96 26 94 27 95 28 21 29 22 30 23 31 24 32 25 33
REMARK SMILES IDX 26 34 27 35 28 36 29 37 90 38 30 39 89 40 31 41 32 42 33 43
REMARK SMILES IDX 83 44 34 45 88 46 82 47 84 48 35 49 87 50 81 51 80 52 36 54
REMARK SMILES IDX 68 55 48 56 67 57 49 58 52 59 66 60 85 61 50 62 51 63 65 65
REMARK SMILES IDX 86 66 53 67 37 68 38 69 46 70 39 71 40 72 44 73 47 74 41 75
REMARK SMILES IDX 42 76 45 77 43 78 69 79 70 80 78 81 71 82 72 83 76 84 79 85
REMARK SMILES IDX 73 86 74 87 77 88 75 89 54 90 55 91 63 92 56 93 57 94 61 95
REMARK SMILES IDX 64 96 58 97 59 98 62 99 60 100
REMARK H PARENT 12 12 84 53 52 64
REMARK Flexibility Score: inf
ROOT
ATOM      1  C   UNL A   1      40.865  21.792  26.315  1.00  0.00     0.188 C 
ENDROOT
BRANCH   1   2
ATOM      2  O   UNL A   1      39.499  21.537  26.593  1.00  0.00    -0.376 OA
BRANCH   2   3
ATOM      3  C   UNL A   1      38.592  22.542  26.127  1.00  0.00     0.202 C 
BRANCH   3   4
ATOM      4  C   UNL A   1      37.280  22.001  25.521  1.00  0.00     0.261 C 
BRANCH   4   5
ATOM      5  O   UNL A   1      36.097  22.782  25.866  1.00  0.00    -0.461 OA
BRANCH   5   6
ATOM      6  C   UNL A   1      34.948  22.080  26.084  1.00  0.00     0.333 C 
ATOM      7  O   UNL A   1      34.766  21.422  27.107  1.00  0.00    -0.249 OA
BRANCH   6   8
ATOM      8  C   UNL A   1      33.964  21.979  24.848  1.00  0.00     0.223 C 
BRANCH   8   9
ATOM      9  N   UNL A   1      34.086  22.739  23.572  1.00  0.00    -0.338 N 
ATOM     10  C   UNL A   1      33.189  23.552  22.925  1.00  0.00     0.234 C 
ATOM     11  O   UNL A   1      33.298  23.696  21.706  1.00  0.00    -0.274 OA
ATOM     12  H   UNL A   1      34.953  22.641  23.118  1.00  0.00     0.164 HD
BRANCH  10  13
ATOM     13  C   UNL A   1      32.165  24.344  23.737  1.00  0.00     0.139 C 
ATOM     14  C   UNL A   1      30.880  23.618  23.328  1.00  0.00     0.030 C 
BRANCH  13  15
ATOM     15  S   UNL A   1      32.948  26.065  23.684  1.00  0.00    -0.093 SA
BRANCH  15  16
ATOM     16  C   UNL A   1      32.724  27.212  25.006  1.00  0.00     0.097 A 
ATOM     17  C   UNL A   1      31.673  27.213  25.906  1.00  0.00     0.035 A 
ATOM     18  N   UNL A   1      33.855  27.892  25.306  1.00  0.00    -0.250 NA
ATOM     19  C   UNL A   1      31.722  27.990  27.073  1.00  0.00     0.004 A 
ATOM     20  C   UNL A   1      33.913  28.603  26.460  1.00  0.00     0.112 A 
ATOM     21  C   UNL A   1      32.874  28.697  27.364  1.00  0.00     0.020 A 
ENDBRANCH  15  16
ENDBRANCH  13  15
ENDBRANCH  10  13
ENDBRANCH   8   9
BRANCH   8  22
ATOM     22  C   UNL A   1      33.800  20.475  24.528  1.00  0.00    -0.014 A 
ATOM     23  C   UNL A   1      34.829  19.529  24.708  1.00  0.00     0.009 A 
ATOM     24  C   UNL A   1      32.555  20.016  24.051  1.00  0.00     0.009 A 
ATOM     25  C   UNL A   1      34.633  18.188  24.378  1.00  0.00     0.039 A 
ATOM     26  C   UNL A   1      32.348  18.667  23.768  1.00  0.00     0.039 A 
ATOM     27  C   UNL A   1      33.393  17.767  23.920  1.00  0.00     0.123 A 
ATOM     28  F   UNL A   1      33.201  16.475  23.629  1.00  0.00    -0.207 F 
ENDBRANCH   8  22
ENDBRANCH   6   8
ENDBRANCH   5   6
ENDBRANCH   4   5
ENDBRANCH   3   4
ENDBRANCH   2   3
ENDBRANCH   1   2
BRANCH   1  29
ATOM     29  C   UNL A   1      41.848  21.162  27.323  1.00  0.00     0.188 C 
BRANCH  29  30
ATOM     30  O   UNL A   1      41.864  19.736  27.355  1.00  0.00    -0.376 OA
BRANCH  30  31
ATOM     31  C   UNL A   1      41.958  19.143  26.062  1.00  0.00     0.202 C 
BRANCH  31  32
ATOM     32  C   UNL A   1      43.325  18.622  25.562  1.00  0.00     0.261 C 
BRANCH  32  33
ATOM     33  O   UNL A   1      43.716  18.982  24.225  1.00  0.00    -0.460 OA
BRANCH  33  34
ATOM     34  C   UNL A   1      44.936  19.577  24.118  1.00  0.00     0.338 C 
ATOM     35  O   UNL A   1      45.907  19.122  23.529  1.00  0.00    -0.246 OA
BRANCH  34  36
ATOM     36  C   UNL A   1      44.950  20.930  24.742  1.00  0.00     0.060 A 
ATOM     37  C   UNL A   1      44.481  22.010  23.979  1.00  0.00     0.016 A 
ATOM     38  C   UNL A   1      45.354  21.157  26.065  1.00  0.00     0.016 A 
ATOM     39  C   UNL A   1      44.389  23.293  24.530  1.00  0.00     0.010 A 
ATOM     40  C   UNL A   1      45.267  22.448  26.617  1.00  0.00     0.010 A 
ATOM     41  C   UNL A   1      44.795  23.529  25.849  1.00  0.00    -0.014 A 
BRANCH  41  42
ATOM     42  C   UNL A   1      44.907  24.928  26.343  1.00  0.00     0.031 A 
ATOM     43  C   UNL A   1      46.254  25.594  26.283  1.00  0.00     0.074 A 
ATOM     44  C   UNL A   1      43.845  25.626  26.789  1.00  0.00     0.049 A 
ATOM     45  N   UNL A   1      46.593  26.822  26.585  1.00  0.00    -0.248 NA
ATOM     46  C   UNL A   1      47.368  24.760  25.806  1.00  0.00     0.031 C 
ATOM     47  C   UNL A   1      42.475  25.131  26.852  1.00  0.00     0.029 A 
ATOM     48  N   UNL A   1      43.757  26.911  27.275  1.00  0.00    -0.354 N 
ATOM     49  C   UNL A   1      47.947  26.916  26.301  1.00  0.00     0.074 A 
ATOM     50  C   UNL A   1      48.383  25.606  25.865  1.00  0.00     0.031 C 
ATOM     51  C   UNL A   1      41.683  26.087  27.369  1.00  0.00     0.029 A 
ATOM     52  C   UNL A   1      42.491  27.267  27.677  1.00  0.00     0.049 A 
ATOM     53  H   UNL A   1      44.529  27.520  27.328  1.00  0.00     0.167 HD
ATOM     54  C   UNL A   1      48.757  28.000  26.373  1.00  0.00     0.037 A 
ATOM     55  C   UNL A   1      42.036  28.411  28.227  1.00  0.00     0.037 A 
ATOM     56  C   UNL A   1      48.342  29.294  26.844  1.00  0.00     0.049 A 
ATOM     57  C   UNL A   1      42.983  29.575  28.403  1.00  0.00     0.074 A 
ATOM     58  C   UNL A   1      49.092  30.450  26.966  1.00  0.00     0.029 A 
ATOM     59  N   UNL A   1      47.063  29.599  27.290  1.00  0.00    -0.354 N 
ATOM     60  N   UNL A   1      44.251  29.669  28.084  1.00  0.00    -0.248 NA
ATOM     61  C   UNL A   1      42.424  30.802  28.990  1.00  0.00     0.031 C 
ATOM     62  C   UNL A   1      48.286  31.437  27.543  1.00  0.00     0.029 A 
ATOM     63  C   UNL A   1      47.013  30.917  27.716  1.00  0.00     0.049 A 
ATOM     64  H   UNL A   1      46.304  28.972  27.301  1.00  0.00     0.167 HD
ATOM     65  C   UNL A   1      44.626  30.974  28.383  1.00  0.00     0.074 A 
ATOM     66  C   UNL A   1      43.450  31.636  28.905  1.00  0.00     0.031 C 
ATOM     67  C   UNL A   1      45.835  31.572  28.228  1.00  0.00     0.037 A 
BRANCH  54  68
ATOM     68  C   UNL A   1      50.185  27.808  25.959  1.00  0.00     0.064 A 
ATOM     69  C   UNL A   1      50.563  27.787  24.606  1.00  0.00     0.173 A 
ATOM     70  C   UNL A   1      51.188  27.634  26.923  1.00  0.00     0.173 A 
ATOM     71  F   UNL A   1      49.639  27.927  23.645  1.00  0.00    -0.203 F 
ATOM     72  C   UNL A   1      51.887  27.566  24.236  1.00  0.00     0.198 A 
ATOM     73  C   UNL A   1      52.515  27.445  26.550  1.00  0.00     0.198 A 
ATOM     74  F   UNL A   1      50.880  27.642  28.229  1.00  0.00    -0.203 F 
ATOM     75  F   UNL A   1      52.215  27.489  22.939  1.00  0.00    -0.200 F 
ATOM     76  C   UNL A   1      52.862  27.400  25.208  1.00  0.00     0.200 A 
ATOM     77  F   UNL A   1      53.459  27.292  27.489  1.00  0.00    -0.200 F 
ATOM     78  F   UNL A   1      54.135  27.184  24.851  1.00  0.00    -0.200 F 
ENDBRANCH  54  68
BRANCH  55  79
ATOM     79  C   UNL A   1      40.613  28.530  28.646  1.00  0.00     0.064 A 
ATOM     80  C   UNL A   1      39.628  29.009  27.769  1.00  0.00     0.173 A 
ATOM     81  C   UNL A   1      40.214  28.211  29.954  1.00  0.00     0.173 A 
ATOM     82  F   UNL A   1      39.960  29.359  26.517  1.00  0.00    -0.203 F 
ATOM     83  C   UNL A   1      38.311  29.189  28.189  1.00  0.00     0.198 A 
ATOM     84  C   UNL A   1      38.891  28.363  30.364  1.00  0.00     0.198 A 
ATOM     85  F   UNL A   1      41.115  27.756  30.838  1.00  0.00    -0.203 F 
ATOM     86  F   UNL A   1      37.405  29.706  27.348  1.00  0.00    -0.200 F 
ATOM     87  C   UNL A   1      37.942  28.862  29.485  1.00  0.00     0.200 A 
ATOM     88  F   UNL A   1      38.539  28.038  31.616  1.00  0.00    -0.200 F 
ATOM     89  F   UNL A   1      36.678  29.039  29.891  1.00  0.00    -0.200 F 
ENDBRANCH  55  79
BRANCH  67  90
ATOM     90  C   UNL A   1      45.935  33.033  28.574  1.00  0.00     0.064 A 
ATOM     91  C   UNL A   1      46.339  33.473  29.843  1.00  0.00     0.173 A 
ATOM     92  C   UNL A   1      45.639  34.008  27.608  1.00  0.00     0.173 A 
ATOM     93  F   UNL A   1      46.623  32.585  30.807  1.00  0.00    -0.203 F 
ATOM     94  C   UNL A   1      46.401  34.832  30.145  1.00  0.00     0.198 A 
ATOM     95  C   UNL A   1      45.739  35.365  27.901  1.00  0.00     0.198 A 
ATOM     96  F   UNL A   1      45.260  33.646  26.373  1.00  0.00    -0.203 F 
ATOM     97  F   UNL A   1      46.727  35.227  31.384  1.00  0.00    -0.200 F 
ATOM     98  C   UNL A   1      46.107  35.776  29.173  1.00  0.00     0.200 A 
ATOM     99  F   UNL A   1      45.472  36.276  26.955  1.00  0.00    -0.200 F 
ATOM    100  F   UNL A   1      46.169  37.082  29.465  1.00  0.00    -0.200 F 
ENDBRANCH  67  90
ENDBRANCH  41  42
ENDBRANCH  34  36
ENDBRANCH  33  34
ENDBRANCH  32  33
ENDBRANCH  31  32
ENDBRANCH  30  31
ENDBRANCH  29  30
ENDBRANCH   1  29
TORSDOF 22
ENDMDL
MODEL 2
REMARK VINA RESULT:     -10.6      5.000      7.886
REMARK SMILES C[C@H](Sc1ccccn1)C(=O)N[C@H](C(=O)OCCOCCOCCOC(=O)c1ccc(-c2c3nc(c(-c4c(F)c(F)c(F)c(F)c4F)c4ccc([nH]4)c(-c4c(F)c(F)c(F)c(F)c4F)c4nc(c(-c5c(F)c(F)c(F)c(F)c5F)c5ccc2[nH]5)C=C4)C=C3)cc1)c1ccc(F)cc1
REMARK SMILES IDX 20 1 19 2 18 3 17 4 16 5 14 6 15 7 13 8 12 9 10 10 11 11
REMARK SMILES IDX 2 13 1 14 3 15 4 16 5 17 9 18 6 19 8 20 7 21 91 22 92 23
REMARK SMILES IDX 97 24 93 25 96 26 94 27 95 28 21 29 22 30 23 31 24 32 25 33
REMARK SMILES IDX 26 34 27 35 28 36 29 37 90 38 30 39 89 40 31 41 32 42 33 43
REMARK SMILES IDX 83 44 34 45 88 46 82 47 84 48 35 49 87 50 81 51 80 52 36 54
REMARK SMILES IDX 68 55 48 56 67 57 49 58 52 59 66 60 85 61 50 62 51 63 65 65
REMARK SMILES IDX 86 66 53 67 37 68 38 69 46 70 39 71 40 72 44 73 47 74 41 75
REMARK SMILES IDX 42 76 45 77 43 78 69 79 70 80 78 81 71 82 72 83 76 84 79 85
REMARK SMILES IDX 73 86 74 87 77 88 75 89 54 90 55 91 63 92 56 93 57 94 61 95
REMARK SMILES IDX 64 96 58 97 59 98 62 99 60 100
REMARK H PARENT 12 12 84 53 52 64
REMARK Flexibility Score: inf
ROOT
ATOM      1  C   UNL A   1      39.472  19.686  25.761  1.00  0.00     0.188 C 
ENDROOT
BRANCH   1   2
ATOM      2  O   UNL A   1      38.867  20.967  25.714  1.00  0.00    -0.376 OA
BRANCH   2   3
ATOM      3  C   UNL A   1      37.739  21.068  24.839  1.00  0.00     0.202 C 
BRANCH   3   4
ATOM      4  C   UNL A   1      36.419  21.476  25.527  1.00  0.00     0.261 C 
BRANCH   4   5
ATOM      5  O   UNL A   1      35.507  22.226  24.670  1.00  0.00    -0.461 OA
BRANCH   5   6
ATOM      6  C   UNL A   1      35.244  23.511  25.042  1.00  0.00     0.333 C 
ATOM      7  O   UNL A   1      36.094  24.231  25.562  1.00  0.00    -0.249 OA
BRANCH   6   8
ATOM      8  C   UNL A   1      33.723  23.944  24.973  1.00  0.00     0.223 C 
BRANCH   8   9
ATOM      9  N   UNL A   1      32.777  23.993  26.123  1.00  0.00    -0.338 N 
ATOM     10  C   UNL A   1      32.164  22.984  26.822  1.00  0.00     0.234 C 
ATOM     11  O   UNL A   1      31.101  23.226  27.396  1.00  0.00    -0.274 OA
ATOM     12  H   UNL A   1      32.555  24.900  26.433  1.00  0.00     0.164 HD
BRANCH  10  13
ATOM     13  C   UNL A   1      32.863  21.633  26.969  1.00  0.00     0.139 C 
ATOM     14  C   UNL A   1      34.044  22.039  27.856  1.00  0.00     0.030 C 
BRANCH  13  15
ATOM     15  S   UNL A   1      32.504  20.878  25.272  1.00  0.00    -0.093 SA
BRANCH  15  16
ATOM     16  C   UNL A   1      33.000  19.231  24.881  1.00  0.00     0.097 A 
ATOM     17  C   UNL A   1      34.256  18.847  24.443  1.00  0.00     0.035 A 
ATOM     18  N   UNL A   1      32.159  18.298  25.384  1.00  0.00    -0.250 NA
ATOM     19  C   UNL A   1      34.630  17.495  24.417  1.00  0.00     0.004 A 
ATOM     20  C   UNL A   1      32.546  16.998  25.400  1.00  0.00     0.112 A 
ATOM     21  C   UNL A   1      33.757  16.545  24.915  1.00  0.00     0.020 A 
ENDBRANCH  15  16
ENDBRANCH  13  15
ENDBRANCH  10  13
ENDBRANCH   8   9
BRANCH   8  22
ATOM     22  C   UNL A   1      33.675  25.295  24.221  1.00  0.00    -0.014 A 
ATOM     23  C   UNL A   1      33.662  26.544  24.874  1.00  0.00     0.009 A 
ATOM     24  C   UNL A   1      33.665  25.285  22.812  1.00  0.00     0.009 A 
ATOM     25  C   UNL A   1      33.592  27.732  24.145  1.00  0.00     0.039 A 
ATOM     26  C   UNL A   1      33.644  26.476  22.086  1.00  0.00     0.039 A 
ATOM     27  C   UNL A   1      33.593  27.688  22.759  1.00  0.00     0.123 A 
ATOM     28  F   UNL A   1      33.553  28.830  22.062  1.00  0.00    -0.207 F 
ENDBRANCH   8  22
ENDBRANCH   6   8
ENDBRANCH   5   6
ENDBRANCH   4   5
ENDBRANCH   3   4
ENDBRANCH   2   3
ENDBRANCH   1   2
BRANCH   1  29
ATOM     29  C   UNL A   1      40.970  19.702  26.130  1.00  0.00     0.188 C 
BRANCH  29  30
ATOM     30  O   UNL A   1      41.680  20.883  25.762  1.00  0.00    -0.376 OA
BRANCH  30  31
ATOM     31  C   UNL A   1      43.041  20.880  26.186  1.00  0.00     0.202 C 
BRANCH  31  32
ATOM     32  C   UNL A   1      44.103  21.618  25.339  1.00  0.00     0.261 C 
BRANCH  32  33
ATOM     33  O   UNL A   1      44.842  22.671  25.984  1.00  0.00    -0.460 OA
BRANCH  33  34
ATOM     34  C   UNL A   1      44.584  23.926  25.524  1.00  0.00     0.338 C 
ATOM     35  O   UNL A   1      44.826  24.342  24.399  1.00  0.00    -0.246 OA
BRANCH  34  36
ATOM     36  C   UNL A   1      43.874  24.754  26.539  1.00  0.00     0.060 A 
ATOM     37  C   UNL A   1      44.363  26.046  26.791  1.00  0.00     0.016 A 
ATOM     38  C   UNL A   1      42.718  24.323  27.204  1.00  0.00     0.016 A 
ATOM     39  C   UNL A   1      43.697  26.907  27.670  1.00  0.00     0.010 A 
ATOM     40  C   UNL A   1      42.052  25.188  28.093  1.00  0.00     0.010 A 
ATOM     41  C   UNL A   1      42.544  26.483  28.341  1.00  0.00    -0.014 A 
BRANCH  41  42
ATOM     42  C   UNL A   1      41.983  27.320  29.437  1.00  0.00     0.031 A 
ATOM     43  C   UNL A   1      42.657  27.271  30.780  1.00  0.00     0.074 A 
ATOM     44  C   UNL A   1      40.937  28.146  29.253  1.00  0.00     0.049 A 
ATOM     45  N   UNL A   1      42.404  27.954  31.868  1.00  0.00    -0.248 NA
ATOM     46  C   UNL A   1      43.779  26.327  30.908  1.00  0.00     0.031 C 
ATOM     47  C   UNL A   1      40.222  28.338  27.997  1.00  0.00     0.029 A 
ATOM     48  N   UNL A   1      40.292  28.985  30.134  1.00  0.00    -0.354 N 
ATOM     49  C   UNL A   1      43.354  27.550  32.793  1.00  0.00     0.074 A 
ATOM     50  C   UNL A   1      44.148  26.516  32.164  1.00  0.00     0.031 C 
ATOM     51  C   UNL A   1      39.222  29.218  28.187  1.00  0.00     0.029 A 
ATOM     52  C   UNL A   1      39.224  29.653  29.584  1.00  0.00     0.049 A 
ATOM     53  H   UNL A   1      40.571  29.098  31.071  1.00  0.00     0.167 HD
ATOM     54  C   UNL A   1      43.566  28.011  34.049  1.00  0.00     0.037 A 
ATOM     55  C   UNL A   1      38.350  30.517  30.141  1.00  0.00     0.037 A 
ATOM     56  C   UNL A   1      42.757  29.009  34.695  1.00  0.00     0.049 A 
ATOM     57  C   UNL A   1      38.538  30.935  31.579  1.00  0.00     0.074 A 
ATOM     58  C   UNL A   1      42.885  29.532  35.970  1.00  0.00     0.029 A 
ATOM     59  N   UNL A   1      41.653  29.623  34.121  1.00  0.00    -0.354 N 
ATOM     60  N   UNL A   1      39.470  30.584  32.431  1.00  0.00    -0.248 NA
ATOM     61  C   UNL A   1      37.565  31.894  32.124  1.00  0.00     0.031 C 
ATOM     62  C   UNL A   1      41.824  30.416  36.190  1.00  0.00     0.029 A 
ATOM     63  C   UNL A   1      41.073  30.498  35.028  1.00  0.00     0.049 A 
ATOM     64  H   UNL A   1      41.330  29.463  33.206  1.00  0.00     0.167 HD
ATOM     65  C   UNL A   1      39.227  31.314  33.589  1.00  0.00     0.074 A 
ATOM     66  C   UNL A   1      38.062  32.131  33.330  1.00  0.00     0.031 C 
ATOM     67  C   UNL A   1      39.916  31.314  34.759  1.00  0.00     0.037 A 
BRANCH  54  68
ATOM     68  C   UNL A   1      44.708  27.405  34.810  1.00  0.00     0.064 A 
ATOM     69  C   UNL A   1      44.518  26.318  35.679  1.00  0.00     0.173 A 
ATOM     70  C   UNL A   1      46.005  27.920  34.677  1.00  0.00     0.173 A 
ATOM     71  F   UNL A   1      43.293  25.803  35.859  1.00  0.00    -0.203 F 
ATOM     72  C   UNL A   1      45.580  25.793  36.412  1.00  0.00     0.198 A 
ATOM     73  C   UNL A   1      47.069  27.372  35.386  1.00  0.00     0.198 A 
ATOM     74  F   UNL A   1      46.239  28.960  33.862  1.00  0.00    -0.203 F 
ATOM     75  F   UNL A   1      45.364  24.797  37.281  1.00  0.00    -0.200 F 
ATOM     76  C   UNL A   1      46.855  26.318  36.261  1.00  0.00     0.200 A 
ATOM     77  F   UNL A   1      48.303  27.874  35.234  1.00  0.00    -0.200 F 
ATOM     78  F   UNL A   1      47.875  25.814  36.968  1.00  0.00    -0.200 F 
ENDBRANCH  54  68
BRANCH  55  79
ATOM     79  C   UNL A   1      37.218  31.061  29.341  1.00  0.00     0.064 A 
ATOM     80  C   UNL A   1      37.187  32.403  28.933  1.00  0.00     0.173 A 
ATOM     81  C   UNL A   1      36.116  30.259  29.007  1.00  0.00     0.173 A 
ATOM     82  F   UNL A   1      38.200  33.223  29.252  1.00  0.00    -0.203 F 
ATOM     83  C   UNL A   1      36.091  32.927  28.249  1.00  0.00     0.198 A 
ATOM     84  C   UNL A   1      35.033  30.775  28.298  1.00  0.00     0.198 A 
ATOM     85  F   UNL A   1      36.087  28.969  29.378  1.00  0.00    -0.203 F 
ATOM     86  F   UNL A   1      36.062  34.226  27.926  1.00  0.00    -0.200 F 
ATOM     87  C   UNL A   1      35.016  32.111  27.928  1.00  0.00     0.200 A 
ATOM     88  F   UNL A   1      34.000  29.980  27.984  1.00  0.00    -0.200 F 
ATOM     89  F   UNL A   1      33.960  32.614  27.275  1.00  0.00    -0.200 F 
ENDBRANCH  55  79
BRANCH  67  90
ATOM     90  C   UNL A   1      39.462  32.269  35.830  1.00  0.00     0.064 A 
ATOM     91  C   UNL A   1      38.453  31.937  36.746  1.00  0.00     0.173 A 
ATOM     92  C   UNL A   1      40.065  33.531  35.952  1.00  0.00     0.173 A 
ATOM     93  F   UNL A   1      37.835  30.749  36.669  1.00  0.00    -0.203 F 
ATOM     94  C   UNL A   1      38.034  32.847  37.714  1.00  0.00     0.198 A 
ATOM     95  C   UNL A   1      39.672  34.424  36.944  1.00  0.00     0.198 A 
ATOM     96  F   UNL A   1      41.045  33.898  35.112  1.00  0.00    -0.203 F 
ATOM     97  F   UNL A   1      37.024  32.532  38.536  1.00  0.00    -0.200 F 
ATOM     98  C   UNL A   1      38.648  34.087  37.816  1.00  0.00     0.200 A 
ATOM     99  F   UNL A   1      40.278  35.614  37.053  1.00  0.00    -0.200 F 
ATOM    100  F   UNL A   1      38.245  34.960  38.749  1.00  0.00    -0.200 F 
ENDBRANCH  67  90
ENDBRANCH  41  42
ENDBRANCH  34  36
ENDBRANCH  33  34
ENDBRANCH  32  33
ENDBRANCH  31  32
ENDBRANCH  30  31
ENDBRANCH  29  30
ENDBRANCH   1  29
TORSDOF 22
ENDMDL
MODEL 3
REMARK VINA RESULT:     -10.1      4.980      7.351
REMARK SMILES C[C@H](Sc1ccccn1)C(=O)N[C@H](C(=O)OCCOCCOCCOC(=O)c1ccc(-c2c3nc(c(-c4c(F)c(F)c(F)c(F)c4F)c4ccc([nH]4)c(-c4c(F)c(F)c(F)c(F)c4F)c4nc(c(-c5c(F)c(F)c(F)c(F)c5F)c5ccc2[nH]5)C=C4)C=C3)cc1)c1ccc(F)cc1
REMARK SMILES IDX 20 1 19 2 18 3 17 4 16 5 14 6 15 7 13 8 12 9 10 10 11 11
REMARK SMILES IDX 2 13 1 14 3 15 4 16 5 17 9 18 6 19 8 20 7 21 91 22 92 23
REMARK SMILES IDX 97 24 93 25 96 26 94 27 95 28 21 29 22 30 23 31 24 32 25 33
REMARK SMILES IDX 26 34 27 35 28 36 29 37 90 38 30 39 89 40 31 41 32 42 33 43
REMARK SMILES IDX 83 44 34 45 88 46 82 47 84 48 35 49 87 50 81 51 80 52 36 54
REMARK SMILES IDX 68 55 48 56 67 57 49 58 52 59 66 60 85 61 50 62 51 63 65 65
REMARK SMILES IDX 86 66 53 67 37 68 38 69 46 70 39 71 40 72 44 73 47 74 41 75
REMARK SMILES IDX 42 76 45 77 43 78 69 79 70 80 78 81 71 82 72 83 76 84 79 85
REMARK SMILES IDX 73 86 74 87 77 88 75 89 54 90 55 91 63 92 56 93 57 94 61 95
REMARK SMILES IDX 64 96 58 97 59 98 62 99 60 100
REMARK H PARENT 12 12 84 53 52 64
REMARK Flexibility Score: inf
ROOT
ATOM      1  C   UNL A   1      37.776  21.864  25.026  1.00  0.00     0.188 C 
ENDROOT
BRANCH   1   2
ATOM      2  O   UNL A   1      36.501  21.249  24.950  1.00  0.00    -0.376 OA
BRANCH   2   3
ATOM      3  C   UNL A   1      35.623  21.550  26.040  1.00  0.00     0.202 C 
BRANCH   3   4
ATOM      4  C   UNL A   1      35.242  23.040  26.173  1.00  0.00     0.261 C 
BRANCH   4   5
ATOM      5  O   UNL A   1      34.391  23.337  27.321  1.00  0.00    -0.461 OA
BRANCH   5   6
ATOM      6  C   UNL A   1      33.047  23.367  27.088  1.00  0.00     0.333 C 
ATOM      7  O   UNL A   1      32.242  22.787  27.814  1.00  0.00    -0.249 OA
BRANCH   6   8
ATOM      8  C   UNL A   1      32.608  24.001  25.705  1.00  0.00     0.223 C 
BRANCH   8   9
ATOM      9  N   UNL A   1      31.482  23.531  24.849  1.00  0.00    -0.338 N 
ATOM     10  C   UNL A   1      31.433  23.258  23.505  1.00  0.00     0.234 C 
ATOM     11  O   UNL A   1      30.348  23.339  22.927  1.00  0.00    -0.274 OA
ATOM     12  H   UNL A   1      30.633  23.394  25.327  1.00  0.00     0.164 HD
BRANCH  10  13
ATOM     13  C   UNL A   1      32.685  22.750  22.791  1.00  0.00     0.139 C 
ATOM     14  C   UNL A   1      33.227  24.069  22.231  1.00  0.00     0.030 C 
BRANCH  13  15
ATOM     15  S   UNL A   1      32.079  21.056  22.206  1.00  0.00    -0.093 SA
BRANCH  15  16
ATOM     16  C   UNL A   1      32.249  19.624  23.222  1.00  0.00     0.097 A 
ATOM     17  C   UNL A   1      32.482  18.336  22.772  1.00  0.00     0.035 A 
ATOM     18  N   UNL A   1      32.494  19.928  24.518  1.00  0.00    -0.250 NA
ATOM     19  C   UNL A   1      32.867  17.319  23.658  1.00  0.00     0.004 A 
ATOM     20  C   UNL A   1      32.913  18.949  25.359  1.00  0.00     0.112 A 
ATOM     21  C   UNL A   1      33.097  17.633  24.984  1.00  0.00     0.020 A 
ENDBRANCH  15  16
ENDBRANCH  13  15
ENDBRANCH  10  13
ENDBRANCH   8   9
BRANCH   8  22
ATOM     22  C   UNL A   1      32.467  25.524  25.935  1.00  0.00    -0.014 A 
ATOM     23  C   UNL A   1      31.242  26.149  26.246  1.00  0.00     0.009 A 
ATOM     24  C   UNL A   1      33.619  26.331  25.851  1.00  0.00     0.009 A 
ATOM     25  C   UNL A   1      31.169  27.532  26.418  1.00  0.00     0.039 A 
ATOM     26  C   UNL A   1      33.550  27.706  26.071  1.00  0.00     0.039 A 
ATOM     27  C   UNL A   1      32.324  28.296  26.338  1.00  0.00     0.123 A 
ATOM     28  F   UNL A   1      32.254  29.619  26.528  1.00  0.00    -0.207 F 
ENDBRANCH   8  22
ENDBRANCH   6   8
ENDBRANCH   5   6
ENDBRANCH   4   5
ENDBRANCH   3   4
ENDBRANCH   2   3
ENDBRANCH   1   2
BRANCH   1  29
ATOM     29  C   UNL A   1      38.875  20.977  25.646  1.00  0.00     0.188 C 
BRANCH  29  30
ATOM     30  O   UNL A   1      39.525  21.517  26.795  1.00  0.00    -0.376 OA
BRANCH  30  31
ATOM     31  C   UNL A   1      40.855  21.035  26.971  1.00  0.00     0.202 C 
BRANCH  31  32
ATOM     32  C   UNL A   1      41.895  21.245  25.847  1.00  0.00     0.261 C 
BRANCH  32  33
ATOM     33  O   UNL A   1      42.026  22.575  25.312  1.00  0.00    -0.460 OA
BRANCH  33  34
ATOM     34  C   UNL A   1      43.173  23.226  25.649  1.00  0.00     0.338 C 
ATOM     35  O   UNL A   1      44.281  23.019  25.174  1.00  0.00    -0.246 OA
BRANCH  34  36
ATOM     36  C   UNL A   1      42.923  24.317  26.633  1.00  0.00     0.060 A 
ATOM     37  C   UNL A   1      42.182  24.006  27.784  1.00  0.00     0.016 A 
ATOM     38  C   UNL A   1      43.441  25.612  26.487  1.00  0.00     0.016 A 
ATOM     39  C   UNL A   1      41.981  24.960  28.788  1.00  0.00     0.010 A 
ATOM     40  C   UNL A   1      43.233  26.572  27.494  1.00  0.00     0.010 A 
ATOM     41  C   UNL A   1      42.491  26.256  28.647  1.00  0.00    -0.014 A 
BRANCH  41  42
ATOM     42  C   UNL A   1      42.076  27.315  29.607  1.00  0.00     0.031 A 
ATOM     43  C   UNL A   1      42.914  27.521  30.839  1.00  0.00     0.074 A 
ATOM     44  C   UNL A   1      41.019  28.119  29.387  1.00  0.00     0.049 A 
ATOM     45  N   UNL A   1      42.803  28.419  31.785  1.00  0.00    -0.248 NA
ATOM     46  C   UNL A   1      44.038  26.589  31.020  1.00  0.00     0.031 C 
ATOM     47  C   UNL A   1      40.153  28.073  28.215  1.00  0.00     0.029 A 
ATOM     48  N   UNL A   1      40.495  29.139  30.148  1.00  0.00    -0.354 N 
ATOM     49  C   UNL A   1      43.861  28.182  32.651  1.00  0.00     0.074 A 
ATOM     50  C   UNL A   1      44.564  27.018  32.156  1.00  0.00     0.031 C 
ATOM     51  C   UNL A   1      39.189  29.003  28.341  1.00  0.00     0.029 A 
ATOM     52  C   UNL A   1      39.369  29.713  29.607  1.00  0.00     0.049 A 
ATOM     53  H   UNL A   1      40.890  29.432  31.000  1.00  0.00     0.167 HD
ATOM     54  C   UNL A   1      44.231  28.883  33.749  1.00  0.00     0.037 A 
ATOM     55  C   UNL A   1      38.576  30.699  30.076  1.00  0.00     0.037 A 
ATOM     56  C   UNL A   1      43.515  30.016  34.270  1.00  0.00     0.049 A 
ATOM     57  C   UNL A   1      38.946  31.396  31.364  1.00  0.00     0.074 A 
ATOM     58  C   UNL A   1      43.806  30.783  35.384  1.00  0.00     0.029 A 
ATOM     59  N   UNL A   1      42.351  30.534  33.721  1.00  0.00    -0.354 N 
ATOM     60  N   UNL A   1      39.977  31.197  32.149  1.00  0.00    -0.248 NA
ATOM     61  C   UNL A   1      38.054  32.475  31.814  1.00  0.00     0.031 C 
ATOM     62  C   UNL A   1      42.784  31.726  35.546  1.00  0.00     0.029 A 
ATOM     63  C   UNL A   1      41.894  31.592  34.492  1.00  0.00     0.049 A 
ATOM     64  H   UNL A   1      41.914  30.201  32.905  1.00  0.00     0.167 HD
ATOM     65  C   UNL A   1      39.885  32.154  33.153  1.00  0.00     0.074 A 
ATOM     66  C   UNL A   1      38.700  32.937  32.876  1.00  0.00     0.031 C 
ATOM     67  C   UNL A   1      40.716  32.372  34.205  1.00  0.00     0.037 A 
BRANCH  54  68
ATOM     68  C   UNL A   1      45.457  28.410  34.473  1.00  0.00     0.064 A 
ATOM     69  C   UNL A   1      46.735  28.893  34.149  1.00  0.00     0.173 A 
ATOM     70  C   UNL A   1      45.355  27.457  35.496  1.00  0.00     0.173 A 
ATOM     71  F   UNL A   1      46.889  29.789  33.164  1.00  0.00    -0.203 F 
ATOM     72  C   UNL A   1      47.868  28.413  34.802  1.00  0.00     0.198 A 
ATOM     73  C   UNL A   1      46.486  27.004  36.168  1.00  0.00     0.198 A 
ATOM     74  F   UNL A   1      44.157  26.961  35.842  1.00  0.00    -0.203 F 
ATOM     75  F   UNL A   1      49.083  28.842  34.435  1.00  0.00    -0.200 F 
ATOM     76  C   UNL A   1      47.742  27.473  35.813  1.00  0.00     0.200 A 
ATOM     77  F   UNL A   1      46.363  26.101  37.150  1.00  0.00    -0.200 F 
ATOM     78  F   UNL A   1      48.833  27.010  36.438  1.00  0.00    -0.200 F 
ENDBRANCH  54  68
BRANCH  55  79
ATOM     79  C   UNL A   1      37.355  31.104  29.326  1.00  0.00     0.064 A 
ATOM     80  C   UNL A   1      37.259  32.357  28.703  1.00  0.00     0.173 A 
ATOM     81  C   UNL A   1      36.236  30.260  29.257  1.00  0.00     0.173 A 
ATOM     82  F   UNL A   1      38.288  33.216  28.766  1.00  0.00    -0.203 F 
ATOM     83  C   UNL A   1      36.087  32.761  28.067  1.00  0.00     0.198 A 
ATOM     84  C   UNL A   1      35.074  30.652  28.595  1.00  0.00     0.198 A 
ATOM     85  F   UNL A   1      36.268  29.052  29.841  1.00  0.00    -0.203 F 
ATOM     86  F   UNL A   1      36.003  33.987  27.534  1.00  0.00    -0.200 F 
ATOM     87  C   UNL A   1      34.996  31.906  28.008  1.00  0.00     0.200 A 
ATOM     88  F   UNL A   1      34.026  29.819  28.535  1.00  0.00    -0.200 F 
ATOM     89  F   UNL A   1      33.867  32.294  27.401  1.00  0.00    -0.200 F 
ENDBRANCH  55  79
BRANCH  67  90
ATOM     90  C   UNL A   1      40.405  33.538  35.103  1.00  0.00     0.064 A 
ATOM     91  C   UNL A   1      39.649  33.395  36.276  1.00  0.00     0.173 A 
ATOM     92  C   UNL A   1      40.893  34.817  34.793  1.00  0.00     0.173 A 
ATOM     93  F   UNL A   1      39.150  32.197  36.616  1.00  0.00    -0.203 F 
ATOM     94  C   UNL A   1      39.356  34.495  37.080  1.00  0.00     0.198 A 
ATOM     95  C   UNL A   1      40.631  35.908  35.618  1.00  0.00     0.198 A 
ATOM     96  F   UNL A   1      41.633  35.012  33.691  1.00  0.00    -0.203 F 
ATOM     97  F   UNL A   1      38.577  34.345  38.160  1.00  0.00    -0.200 F 
ATOM     98  C   UNL A   1      39.852  35.748  36.753  1.00  0.00     0.200 A 
ATOM     99  F   UNL A   1      41.126  37.114  35.310  1.00  0.00    -0.200 F 
ATOM    100  F   UNL A   1      39.570  36.804  37.528  1.00  0.00    -0.200 F 
ENDBRANCH  67  90
ENDBRANCH  41  42
ENDBRANCH  34  36
ENDBRANCH  33  34
ENDBRANCH  32  33
ENDBRANCH  31  32
ENDBRANCH  30  31
ENDBRANCH  29  30
ENDBRANCH   1  29
TORSDOF 22
ENDMDL
