MODEL 1
REMARK VINA RESULT:     -10.7      0.000      0.000
REMARK SMILES [NH3+]C1(C(=O)N2[C@@H](C(=O)OCCOCCOCCOC(=O)c3ccc(-c4c5nc(c(-c6c(F)c(F)c(F)c(F)c6F)c6ccc([nH]6)c(-c6c(F)c(F)c(F)c(F)c6F)c6nc(c(-c7c(F)c(F)c(F)c(F)c7F)c7ccc4[nH]7)C=C6)C=C5)cc3)CC[C@@H]3CCCC[C@@H]32)CC1
REMARK SMILES IDX 13 1 12 2 11 3 10 4 9 5 7 6 8 7 6 8 5 9 91 10 84 11 86 12
REMARK SMILES IDX 90 13 85 14 87 15 89 16 88 17 3 18 4 19 2 20 92 21 93 22
REMARK SMILES IDX 1 23 14 27 15 28 16 29 17 30 18 31 19 32 20 33 21 34 22 35
REMARK SMILES IDX 83 36 23 37 82 38 24 39 25 40 26 41 76 42 27 43 81 44 75 45
REMARK SMILES IDX 77 46 28 47 80 48 74 49 73 50 29 52 61 53 41 54 60 55 42 56
REMARK SMILES IDX 45 57 59 58 78 59 43 60 44 61 58 63 79 64 46 65 30 66 31 67
REMARK SMILES IDX 39 68 32 69 33 70 37 71 40 72 34 73 35 74 38 75 36 76 62 77
REMARK SMILES IDX 63 78 71 79 64 80 65 81 69 82 72 83 66 84 67 85 70 86 68 87
REMARK SMILES IDX 47 88 48 89 56 90 49 91 50 92 54 93 57 94 51 95 52 96 55 97
REMARK SMILES IDX 53 98
REMARK H PARENT 1 24 1 25 1 26 77 51 45 62
REMARK Flexibility Score: inf
ROOT
ATOM      1  C   UNL A   1      36.427  23.486  25.293  1.00  0.00     0.188 C 
ENDROOT
BRANCH   1   2
ATOM      2  O   UNL A   1      36.028  23.741  23.963  1.00  0.00    -0.376 OA
BRANCH   2   3
ATOM      3  C   UNL A   1      34.911  23.076  23.389  1.00  0.00     0.202 C 
BRANCH   3   4
ATOM      4  C   UNL A   1      33.642  23.810  22.932  1.00  0.00     0.261 C 
BRANCH   4   5
ATOM      5  O   UNL A   1      33.614  25.240  23.091  1.00  0.00    -0.462 OA
BRANCH   5   6
ATOM      6  C   UNL A   1      32.379  25.795  23.159  1.00  0.00     0.328 C 
ATOM      7  O   UNL A   1      31.415  25.449  22.479  1.00  0.00    -0.250 OA
BRANCH   6   8
ATOM      8  C   UNL A   1      32.251  26.920  24.166  1.00  0.00     0.195 C 
ATOM      9  N   UNL A   1      32.183  26.534  25.582  1.00  0.00    -0.320 N 
ATOM     10  C   UNL A   1      32.455  27.651  26.524  1.00  0.00     0.089 C 
ATOM     11  C   UNL A   1      31.307  28.082  23.836  1.00  0.00     0.037 C 
ATOM     12  C   UNL A   1      31.667  28.938  26.169  1.00  0.00     0.012 C 
ATOM     13  C   UNL A   1      33.974  27.840  26.675  1.00  0.00     0.025 C 
ATOM     14  C   UNL A   1      31.737  29.291  24.676  1.00  0.00     0.008 C 
ATOM     15  C   UNL A   1      32.112  30.105  27.054  1.00  0.00     0.006 C 
ATOM     16  C   UNL A   1      34.488  29.196  27.151  1.00  0.00     0.002 C 
ATOM     17  C   UNL A   1      33.596  30.407  26.921  1.00  0.00     0.000 C 
BRANCH   9  18
ATOM     18  C   UNL A   1      31.243  25.581  25.993  1.00  0.00     0.284 C 
ATOM     19  O   UNL A   1      30.112  25.922  26.346  1.00  0.00    -0.268 OA
BRANCH  18  20
ATOM     20  C   UNL A   1      31.653  24.118  26.275  1.00  0.00     0.174 C 
ATOM     21  C   UNL A   1      30.993  23.113  25.330  1.00  0.00     0.086 C 
ATOM     22  C   UNL A   1      30.901  22.912  26.797  1.00  0.00     0.086 C 
BRANCH  20  23
ATOM     23  N   UNL A   1      33.128  24.009  26.485  1.00  0.00    -0.345 N 
ATOM     24  H   UNL A   1      33.591  24.815  26.064  1.00  0.00     0.345 HD
ATOM     25  H   UNL A   1      33.471  23.153  26.049  1.00  0.00     0.345 HD
ATOM     26  H   UNL A   1      33.328  23.985  27.485  1.00  0.00     0.345 HD
ENDBRANCH  20  23
ENDBRANCH  18  20
ENDBRANCH   9  18
ENDBRANCH   6   8
ENDBRANCH   5   6
ENDBRANCH   4   5
ENDBRANCH   3   4
ENDBRANCH   2   3
ENDBRANCH   1   2
BRANCH   1  27
ATOM     27  C   UNL A   1      36.876  22.072  25.667  1.00  0.00     0.188 C 
BRANCH  27  28
ATOM     28  O   UNL A   1      37.624  21.337  24.736  1.00  0.00    -0.376 OA
BRANCH  28  29
ATOM     29  C   UNL A   1      37.828  19.950  24.950  1.00  0.00     0.202 C 
BRANCH  29  30
ATOM     30  C   UNL A   1      39.128  19.306  25.494  1.00  0.00     0.261 C 
BRANCH  30  31
ATOM     31  O   UNL A   1      39.745  19.847  26.672  1.00  0.00    -0.460 OA
BRANCH  31  32
ATOM     32  C   UNL A   1      41.064  20.151  26.603  1.00  0.00     0.338 C 
ATOM     33  O   UNL A   1      41.946  19.474  26.094  1.00  0.00    -0.246 OA
BRANCH  32  34
ATOM     34  C   UNL A   1      41.232  21.577  26.995  1.00  0.00     0.060 A 
ATOM     35  C   UNL A   1      40.558  22.566  26.259  1.00  0.00     0.016 A 
ATOM     36  C   UNL A   1      42.006  21.939  28.098  1.00  0.00     0.016 A 
ATOM     37  C   UNL A   1      40.674  23.915  26.603  1.00  0.00     0.010 A 
ATOM     38  C   UNL A   1      42.155  23.296  28.419  1.00  0.00     0.010 A 
ATOM     39  C   UNL A   1      41.517  24.292  27.654  1.00  0.00    -0.014 A 
BRANCH  39  40
ATOM     40  C   UNL A   1      41.915  25.717  27.808  1.00  0.00     0.031 A 
ATOM     41  C   UNL A   1      43.260  26.134  27.272  1.00  0.00     0.074 A 
ATOM     42  C   UNL A   1      41.117  26.629  28.391  1.00  0.00     0.049 A 
ATOM     43  N   UNL A   1      43.875  27.286  27.359  1.00  0.00    -0.248 NA
ATOM     44  C   UNL A   1      44.013  25.103  26.540  1.00  0.00     0.031 C 
ATOM     45  C   UNL A   1      39.773  26.379  28.900  1.00  0.00     0.029 A 
ATOM     46  N   UNL A   1      41.340  27.959  28.663  1.00  0.00    -0.354 N 
ATOM     47  C   UNL A   1      45.090  27.113  26.710  1.00  0.00     0.074 A 
ATOM     48  C   UNL A   1      45.139  25.739  26.258  1.00  0.00     0.031 C 
ATOM     49  C   UNL A   1      39.296  27.513  29.444  1.00  0.00     0.029 A 
ATOM     50  C   UNL A   1      40.316  28.558  29.355  1.00  0.00     0.049 A 
ATOM     51  H   UNL A   1      42.157  28.435  28.388  1.00  0.00     0.167 HD
ATOM     52  C   UNL A   1      46.077  28.017  26.501  1.00  0.00     0.037 A 
ATOM     53  C   UNL A   1      40.229  29.797  29.881  1.00  0.00     0.037 A 
ATOM     54  C   UNL A   1      46.033  29.384  26.950  1.00  0.00     0.049 A 
ATOM     55  C   UNL A   1      41.378  30.763  29.714  1.00  0.00     0.074 A 
ATOM     56  C   UNL A   1      46.975  30.381  26.772  1.00  0.00     0.029 A 
ATOM     57  N   UNL A   1      44.993  29.943  27.678  1.00  0.00    -0.354 N 
ATOM     58  N   UNL A   1      42.515  30.601  29.082  1.00  0.00    -0.248 NA
ATOM     59  C   UNL A   1      41.227  32.088  30.333  1.00  0.00     0.031 C 
ATOM     60  C   UNL A   1      46.536  31.524  27.448  1.00  0.00     0.029 A 
ATOM     61  C   UNL A   1      45.286  31.262  27.985  1.00  0.00     0.049 A 
ATOM     62  H   UNL A   1      44.168  29.472  27.938  1.00  0.00     0.167 HD
ATOM     63  C   UNL A   1      43.197  31.807  29.200  1.00  0.00     0.074 A 
ATOM     64  C   UNL A   1      42.340  32.698  29.950  1.00  0.00     0.031 C 
ATOM     65  C   UNL A   1      44.423  32.146  28.726  1.00  0.00     0.037 A 
BRANCH  52  66
ATOM     66  C   UNL A   1      47.310  27.544  25.786  1.00  0.00     0.064 A 
ATOM     67  C   UNL A   1      47.449  27.656  24.393  1.00  0.00     0.173 A 
ATOM     68  C   UNL A   1      48.379  26.993  26.508  1.00  0.00     0.173 A 
ATOM     69  F   UNL A   1      46.450  28.160  23.653  1.00  0.00    -0.203 F 
ATOM     70  C   UNL A   1      48.599  27.205  23.749  1.00  0.00     0.198 A 
ATOM     71  C   UNL A   1      49.542  26.577  25.865  1.00  0.00     0.198 A 
ATOM     72  F   UNL A   1      48.301  26.866  27.841  1.00  0.00    -0.203 F 
ATOM     73  F   UNL A   1      48.685  27.271  22.414  1.00  0.00    -0.200 F 
ATOM     74  C   UNL A   1      49.647  26.675  24.486  1.00  0.00     0.200 A 
ATOM     75  F   UNL A   1      50.560  26.079  26.580  1.00  0.00    -0.200 F 
ATOM     76  F   UNL A   1      50.755  26.249  23.866  1.00  0.00    -0.200 F 
ENDBRANCH  52  66
BRANCH  53  77
ATOM     77  C   UNL A   1      39.013  30.202  30.640  1.00  0.00     0.064 A 
ATOM     78  C   UNL A   1      38.951  30.064  32.035  1.00  0.00     0.173 A 
ATOM     79  C   UNL A   1      37.877  30.697  29.985  1.00  0.00     0.173 A 
ATOM     80  F   UNL A   1      39.998  29.563  32.706  1.00  0.00    -0.203 F 
ATOM     81  C   UNL A   1      37.793  30.388  32.741  1.00  0.00     0.198 A 
ATOM     82  C   UNL A   1      36.731  31.053  30.696  1.00  0.00     0.198 A 
ATOM     83  F   UNL A   1      37.878  30.840  28.652  1.00  0.00    -0.203 F 
ATOM     84  F   UNL A   1      37.742  30.193  34.065  1.00  0.00    -0.200 F 
ATOM     85  C   UNL A   1      36.687  30.888  32.071  1.00  0.00     0.200 A 
ATOM     86  F   UNL A   1      35.668  31.545  30.045  1.00  0.00    -0.200 F 
ATOM     87  F   UNL A   1      35.575  31.202  32.750  1.00  0.00    -0.200 F 
ENDBRANCH  53  77
BRANCH  65  88
ATOM     88  C   UNL A   1      44.897  33.555  28.962  1.00  0.00     0.064 A 
ATOM     89  C   UNL A   1      45.705  33.893  30.058  1.00  0.00     0.173 A 
ATOM     90  C   UNL A   1      44.572  34.573  28.052  1.00  0.00     0.173 A 
ATOM     91  F   UNL A   1      46.037  32.962  30.965  1.00  0.00    -0.203 F 
ATOM     92  C   UNL A   1      46.141  35.203  30.250  1.00  0.00     0.198 A 
ATOM     93  C   UNL A   1      45.039  35.873  28.227  1.00  0.00     0.198 A 
ATOM     94  F   UNL A   1      43.811  34.305  26.980  1.00  0.00    -0.203 F 
ATOM     95  F   UNL A   1      46.866  35.513  31.335  1.00  0.00    -0.200 F 
ATOM     96  C   UNL A   1      45.815  36.189  29.332  1.00  0.00     0.200 A 
ATOM     97  F   UNL A   1      44.740  36.819  27.327  1.00  0.00    -0.200 F 
ATOM     98  F   UNL A   1      46.243  37.445  29.514  1.00  0.00    -0.200 F 
ENDBRANCH  65  88
ENDBRANCH  39  40
ENDBRANCH  32  34
ENDBRANCH  31  32
ENDBRANCH  30  31
ENDBRANCH  29  30
ENDBRANCH  28  29
ENDBRANCH  27  28
ENDBRANCH   1  27
TORSDOF 20
ENDMDL
MODEL 2
REMARK VINA RESULT:     -10.6      4.425     10.258
REMARK SMILES [NH3+]C1(C(=O)N2[C@@H](C(=O)OCCOCCOCCOC(=O)c3ccc(-c4c5nc(c(-c6c(F)c(F)c(F)c(F)c6F)c6ccc([nH]6)c(-c6c(F)c(F)c(F)c(F)c6F)c6nc(c(-c7c(F)c(F)c(F)c(F)c7F)c7ccc4[nH]7)C=C6)C=C5)cc3)CC[C@@H]3CCCC[C@@H]32)CC1
REMARK SMILES IDX 13 1 12 2 11 3 10 4 9 5 7 6 8 7 6 8 5 9 91 10 84 11 86 12
REMARK SMILES IDX 90 13 85 14 87 15 89 16 88 17 3 18 4 19 2 20 92 21 93 22
REMARK SMILES IDX 1 23 14 27 15 28 16 29 17 30 18 31 19 32 20 33 21 34 22 35
REMARK SMILES IDX 83 36 23 37 82 38 24 39 25 40 26 41 76 42 27 43 81 44 75 45
REMARK SMILES IDX 77 46 28 47 80 48 74 49 73 50 29 52 61 53 41 54 60 55 42 56
REMARK SMILES IDX 45 57 59 58 78 59 43 60 44 61 58 63 79 64 46 65 30 66 31 67
REMARK SMILES IDX 39 68 32 69 33 70 37 71 40 72 34 73 35 74 38 75 36 76 62 77
REMARK SMILES IDX 63 78 71 79 64 80 65 81 69 82 72 83 66 84 67 85 70 86 68 87
REMARK SMILES IDX 47 88 48 89 56 90 49 91 50 92 54 93 57 94 51 95 52 96 55 97
REMARK SMILES IDX 53 98
REMARK H PARENT 1 24 1 25 1 26 77 51 45 62
REMARK Flexibility Score: inf
ROOT
ATOM      1  C   UNL A   1      31.279  28.619  24.689  1.00  0.00     0.188 C 
ENDROOT
BRANCH   1   2
ATOM      2  O   UNL A   1      31.522  27.308  25.153  1.00  0.00    -0.376 OA
BRANCH   2   3
ATOM      3  C   UNL A   1      30.757  26.748  26.211  1.00  0.00     0.202 C 
BRANCH   3   4
ATOM      4  C   UNL A   1      30.282  25.288  26.222  1.00  0.00     0.261 C 
BRANCH   4   5
ATOM      5  O   UNL A   1      31.127  24.325  26.877  1.00  0.00    -0.462 OA
BRANCH   5   6
ATOM      6  C   UNL A   1      31.178  23.102  26.294  1.00  0.00     0.328 C 
ATOM      7  O   UNL A   1      30.228  22.327  26.204  1.00  0.00    -0.250 OA
BRANCH   6   8
ATOM      8  C   UNL A   1      32.538  22.726  25.740  1.00  0.00     0.195 C 
ATOM      9  N   UNL A   1      33.036  23.529  24.614  1.00  0.00    -0.320 N 
ATOM     10  C   UNL A   1      34.496  23.388  24.375  1.00  0.00     0.089 C 
ATOM     11  C   UNL A   1      32.869  21.239  25.583  1.00  0.00     0.037 C 
ATOM     12  C   UNL A   1      34.961  21.909  24.368  1.00  0.00     0.012 C 
ATOM     13  C   UNL A   1      35.267  24.308  25.338  1.00  0.00     0.025 C 
ATOM     14  C   UNL A   1      34.395  21.097  25.542  1.00  0.00     0.008 C 
ATOM     15  C   UNL A   1      36.488  21.824  24.296  1.00  0.00     0.006 C 
ATOM     16  C   UNL A   1      36.726  23.973  25.642  1.00  0.00     0.002 C 
ATOM     17  C   UNL A   1      37.168  22.528  25.459  1.00  0.00     0.000 C 
BRANCH   9  18
ATOM     18  C   UNL A   1      32.229  23.707  23.484  1.00  0.00     0.284 C 
ATOM     19  O   UNL A   1      31.661  22.749  22.956  1.00  0.00    -0.268 OA
BRANCH  18  20
ATOM     20  C   UNL A   1      32.227  25.041  22.702  1.00  0.00     0.174 C 
ATOM     21  C   UNL A   1      33.003  24.969  21.386  1.00  0.00     0.086 C 
ATOM     22  C   UNL A   1      33.307  26.045  22.361  1.00  0.00     0.086 C 
BRANCH  20  23
ATOM     23  N   UNL A   1      30.858  25.637  22.670  1.00  0.00    -0.345 N 
ATOM     24  H   UNL A   1      30.921  26.641  22.840  1.00  0.00     0.345 HD
ATOM     25  H   UNL A   1      30.282  25.205  23.393  1.00  0.00     0.345 HD
ATOM     26  H   UNL A   1      30.436  25.472  21.756  1.00  0.00     0.345 HD
ENDBRANCH  20  23
ENDBRANCH  18  20
ENDBRANCH   9  18
ENDBRANCH   6   8
ENDBRANCH   5   6
ENDBRANCH   4   5
ENDBRANCH   3   4
ENDBRANCH   2   3
ENDBRANCH   1   2
BRANCH   1  27
ATOM     27  C   UNL A   1      32.087  29.772  25.287  1.00  0.00     0.188 C 
BRANCH  27  28
ATOM     28  O   UNL A   1      31.401  30.907  25.743  1.00  0.00    -0.376 OA
BRANCH  28  29
ATOM     29  C   UNL A   1      31.860  31.573  26.908  1.00  0.00     0.202 C 
BRANCH  29  30
ATOM     30  C   UNL A   1      32.153  33.090  27.020  1.00  0.00     0.261 C 
BRANCH  30  31
ATOM     31  O   UNL A   1      32.730  33.612  28.225  1.00  0.00    -0.460 OA
BRANCH  31  32
ATOM     32  C   UNL A   1      33.893  34.299  28.116  1.00  0.00     0.338 C 
ATOM     33  O   UNL A   1      34.018  35.503  27.937  1.00  0.00    -0.246 OA
BRANCH  32  34
ATOM     34  C   UNL A   1      35.004  33.402  28.531  1.00  0.00     0.060 A 
ATOM     35  C   UNL A   1      34.692  32.153  29.096  1.00  0.00     0.016 A 
ATOM     36  C   UNL A   1      36.338  33.758  28.331  1.00  0.00     0.016 A 
ATOM     37  C   UNL A   1      35.703  31.272  29.483  1.00  0.00     0.010 A 
ATOM     38  C   UNL A   1      37.354  32.891  28.756  1.00  0.00     0.010 A 
ATOM     39  C   UNL A   1      37.044  31.658  29.364  1.00  0.00    -0.014 A 
BRANCH  39  40
ATOM     40  C   UNL A   1      38.100  30.894  30.078  1.00  0.00     0.031 A 
ATOM     41  C   UNL A   1      38.339  31.209  31.531  1.00  0.00     0.074 A 
ATOM     42  C   UNL A   1      38.827  29.936  29.476  1.00  0.00     0.049 A 
ATOM     43  N   UNL A   1      39.254  30.753  32.348  1.00  0.00    -0.248 NA
ATOM     44  C   UNL A   1      37.416  32.180  32.143  1.00  0.00     0.031 C 
ATOM     45  C   UNL A   1      38.664  29.488  28.096  1.00  0.00     0.029 A 
ATOM     46  N   UNL A   1      39.867  29.175  29.957  1.00  0.00    -0.354 N 
ATOM     47  C   UNL A   1      39.028  31.391  33.560  1.00  0.00     0.074 A 
ATOM     48  C   UNL A   1      37.908  32.287  33.367  1.00  0.00     0.031 C 
ATOM     49  C   UNL A   1      39.587  28.544  27.834  1.00  0.00     0.029 A 
ATOM     50  C   UNL A   1      40.429  28.350  29.014  1.00  0.00     0.049 A 
ATOM     51  H   UNL A   1      40.179  29.219  30.890  1.00  0.00     0.167 HD
ATOM     52  C   UNL A   1      39.688  31.242  34.734  1.00  0.00     0.037 A 
ATOM     53  C   UNL A   1      41.516  27.554  29.090  1.00  0.00     0.037 A 
ATOM     54  C   UNL A   1      40.802  30.352  34.930  1.00  0.00     0.049 A 
ATOM     55  C   UNL A   1      42.291  27.469  30.382  1.00  0.00     0.074 A 
ATOM     56  C   UNL A   1      41.526  30.118  36.086  1.00  0.00     0.029 A 
ATOM     57  N   UNL A   1      41.363  29.559  33.940  1.00  0.00    -0.354 N 
ATOM     58  N   UNL A   1      42.061  28.059  31.531  1.00  0.00    -0.248 NA
ATOM     59  C   UNL A   1      43.480  26.602  30.389  1.00  0.00     0.031 C 
ATOM     60  C   UNL A   1      42.564  29.233  35.780  1.00  0.00     0.029 A 
ATOM     61  C   UNL A   1      42.444  28.859  34.452  1.00  0.00     0.049 A 
ATOM     62  H   UNL A   1      41.041  29.501  33.012  1.00  0.00     0.167 HD
ATOM     63  C   UNL A   1      43.051  27.611  32.399  1.00  0.00     0.074 A 
ATOM     64  C   UNL A   1      43.875  26.688  31.651  1.00  0.00     0.031 C 
ATOM     65  C   UNL A   1      43.256  27.934  33.701  1.00  0.00     0.037 A 
BRANCH  52  66
ATOM     66  C   UNL A   1      39.244  32.090  35.891  1.00  0.00     0.064 A 
ATOM     67  C   UNL A   1      39.735  33.389  36.091  1.00  0.00     0.173 A 
ATOM     68  C   UNL A   1      38.293  31.602  36.800  1.00  0.00     0.173 A 
ATOM     69  F   UNL A   1      40.658  33.897  35.261  1.00  0.00    -0.203 F 
ATOM     70  C   UNL A   1      39.314  34.155  37.176  1.00  0.00     0.198 A 
ATOM     71  C   UNL A   1      37.847  32.384  37.863  1.00  0.00     0.198 A 
ATOM     72  F   UNL A   1      37.788  30.368  36.655  1.00  0.00    -0.203 F 
ATOM     73  F   UNL A   1      39.839  35.371  37.378  1.00  0.00    -0.200 F 
ATOM     74  C   UNL A   1      38.365  33.656  38.055  1.00  0.00     0.200 A 
ATOM     75  F   UNL A   1      36.918  31.905  38.702  1.00  0.00    -0.200 F 
ATOM     76  F   UNL A   1      37.955  34.397  39.092  1.00  0.00    -0.200 F 
ENDBRANCH  52  66
BRANCH  53  77
ATOM     77  C   UNL A   1      41.958  26.781  27.897  1.00  0.00     0.064 A 
ATOM     78  C   UNL A   1      42.920  27.296  27.015  1.00  0.00     0.173 A 
ATOM     79  C   UNL A   1      41.403  25.530  27.592  1.00  0.00     0.173 A 
ATOM     80  F   UNL A   1      43.457  28.503  27.242  1.00  0.00    -0.203 F 
ATOM     81  C   UNL A   1      43.293  26.599  25.867  1.00  0.00     0.198 A 
ATOM     82  C   UNL A   1      41.802  24.818  26.462  1.00  0.00     0.198 A 
ATOM     83  F   UNL A   1      40.472  24.994  28.395  1.00  0.00    -0.203 F 
ATOM     84  F   UNL A   1      44.172  27.141  25.013  1.00  0.00    -0.200 F 
ATOM     85  C   UNL A   1      42.739  25.358  25.595  1.00  0.00     0.200 A 
ATOM     86  F   UNL A   1      41.270  23.615  26.208  1.00  0.00    -0.200 F 
ATOM     87  F   UNL A   1      43.099  24.687  24.493  1.00  0.00    -0.200 F 
ENDBRANCH  53  77
BRANCH  65  88
ATOM     88  C   UNL A   1      44.390  27.253  34.420  1.00  0.00     0.064 A 
ATOM     89  C   UNL A   1      45.664  27.831  34.514  1.00  0.00     0.173 A 
ATOM     90  C   UNL A   1      44.183  26.020  35.060  1.00  0.00     0.173 A 
ATOM     91  F   UNL A   1      45.921  29.001  33.911  1.00  0.00    -0.203 F 
ATOM     92  C   UNL A   1      46.696  27.186  35.193  1.00  0.00     0.198 A 
ATOM     93  C   UNL A   1      45.205  25.396  35.769  1.00  0.00     0.198 A 
ATOM     94  F   UNL A   1      42.981  25.426  35.012  1.00  0.00    -0.203 F 
ATOM     95  F   UNL A   1      47.920  27.732  35.222  1.00  0.00    -0.200 F 
ATOM     96  C   UNL A   1      46.464  25.974  35.827  1.00  0.00     0.200 A 
ATOM     97  F   UNL A   1      44.972  24.235  36.397  1.00  0.00    -0.200 F 
ATOM     98  F   UNL A   1      47.455  25.360  36.487  1.00  0.00    -0.200 F 
ENDBRANCH  65  88
ENDBRANCH  39  40
ENDBRANCH  32  34
ENDBRANCH  31  32
ENDBRANCH  30  31
ENDBRANCH  29  30
ENDBRANCH  28  29
ENDBRANCH  27  28
ENDBRANCH   1  27
TORSDOF 20
ENDMDL
MODEL 3
REMARK VINA RESULT:     -10.6      1.941      7.483
REMARK SMILES [NH3+]C1(C(=O)N2[C@@H](C(=O)OCCOCCOCCOC(=O)c3ccc(-c4c5nc(c(-c6c(F)c(F)c(F)c(F)c6F)c6ccc([nH]6)c(-c6c(F)c(F)c(F)c(F)c6F)c6nc(c(-c7c(F)c(F)c(F)c(F)c7F)c7ccc4[nH]7)C=C6)C=C5)cc3)CC[C@@H]3CCCC[C@@H]32)CC1
REMARK SMILES IDX 13 1 12 2 11 3 10 4 9 5 7 6 8 7 6 8 5 9 91 10 84 11 86 12
REMARK SMILES IDX 90 13 85 14 87 15 89 16 88 17 3 18 4 19 2 20 92 21 93 22
REMARK SMILES IDX 1 23 14 27 15 28 16 29 17 30 18 31 19 32 20 33 21 34 22 35
REMARK SMILES IDX 83 36 23 37 82 38 24 39 25 40 26 41 76 42 27 43 81 44 75 45
REMARK SMILES IDX 77 46 28 47 80 48 74 49 73 50 29 52 61 53 41 54 60 55 42 56
REMARK SMILES IDX 45 57 59 58 78 59 43 60 44 61 58 63 79 64 46 65 30 66 31 67
REMARK SMILES IDX 39 68 32 69 33 70 37 71 40 72 34 73 35 74 38 75 36 76 62 77
REMARK SMILES IDX 63 78 71 79 64 80 65 81 69 82 72 83 66 84 67 85 70 86 68 87
REMARK SMILES IDX 47 88 48 89 56 90 49 91 50 92 54 93 57 94 51 95 52 96 55 97
REMARK SMILES IDX 53 98
REMARK H PARENT 1 24 1 25 1 26 77 51 45 62
REMARK Flexibility Score: inf
ROOT
ATOM      1  C   UNL A   1      35.886  23.674  25.250  1.00  0.00     0.188 C 
ENDROOT
BRANCH   1   2
ATOM      2  O   UNL A   1      34.867  23.692  26.227  1.00  0.00    -0.376 OA
BRANCH   2   3
ATOM      3  C   UNL A   1      33.584  23.142  25.963  1.00  0.00     0.202 C 
BRANCH   3   4
ATOM      4  C   UNL A   1      32.273  23.859  26.320  1.00  0.00     0.261 C 
BRANCH   4   5
ATOM      5  O   UNL A   1      32.173  25.255  25.985  1.00  0.00    -0.462 OA
BRANCH   5   6
ATOM      6  C   UNL A   1      30.917  25.764  25.976  1.00  0.00     0.328 C 
ATOM      7  O   UNL A   1      29.994  25.369  26.685  1.00  0.00    -0.250 OA
BRANCH   6   8
ATOM      8  C   UNL A   1      30.706  26.895  24.990  1.00  0.00     0.195 C 
ATOM      9  N   UNL A   1      30.260  26.520  23.641  1.00  0.00    -0.320 N 
ATOM     10  C   UNL A   1      29.696  27.650  22.858  1.00  0.00     0.089 C 
ATOM     11  C   UNL A   1      31.730  28.034  24.966  1.00  0.00     0.037 C 
ATOM     12  C   UNL A   1      30.588  28.918  22.912  1.00  0.00     0.012 C 
ATOM     13  C   UNL A   1      28.227  27.871  23.254  1.00  0.00     0.025 C 
ATOM     14  C   UNL A   1      31.058  29.259  24.334  1.00  0.00     0.008 C 
ATOM     15  C   UNL A   1      29.884  30.101  22.243  1.00  0.00     0.006 C 
ATOM     16  C   UNL A   1      27.607  29.242  22.992  1.00  0.00     0.002 C 
ATOM     17  C   UNL A   1      28.550  30.433  22.892  1.00  0.00     0.000 C 
BRANCH   9  18
ATOM     18  C   UNL A   1      30.972  25.552  22.923  1.00  0.00     0.284 C 
ATOM     19  O   UNL A   1      30.752  24.351  23.093  1.00  0.00    -0.268 OA
BRANCH  18  20
ATOM     20  C   UNL A   1      32.226  25.925  22.099  1.00  0.00     0.174 C 
ATOM     21  C   UNL A   1      33.513  25.307  22.647  1.00  0.00     0.086 C 
ATOM     22  C   UNL A   1      33.448  26.767  22.395  1.00  0.00     0.086 C 
BRANCH  20  23
ATOM     23  N   UNL A   1      31.960  25.792  20.636  1.00  0.00    -0.345 N 
ATOM     24  H   UNL A   1      32.833  25.906  20.120  1.00  0.00     0.345 HD
ATOM     25  H   UNL A   1      31.296  26.510  20.344  1.00  0.00     0.345 HD
ATOM     26  H   UNL A   1      31.568  24.870  20.443  1.00  0.00     0.345 HD
ENDBRANCH  20  23
ENDBRANCH  18  20
ENDBRANCH   9  18
ENDBRANCH   6   8
ENDBRANCH   5   6
ENDBRANCH   4   5
ENDBRANCH   3   4
ENDBRANCH   2   3
ENDBRANCH   1   2
BRANCH   1  27
ATOM     27  C   UNL A   1      37.057  22.705  25.429  1.00  0.00     0.188 C 
BRANCH  27  28
ATOM     28  O   UNL A   1      36.794  21.328  25.427  1.00  0.00    -0.376 OA
BRANCH  28  29
ATOM     29  C   UNL A   1      37.633  20.463  24.679  1.00  0.00     0.202 C 
BRANCH  29  30
ATOM     30  C   UNL A   1      38.766  19.582  25.263  1.00  0.00     0.261 C 
BRANCH  30  31
ATOM     31  O   UNL A   1      39.650  20.131  26.252  1.00  0.00    -0.460 OA
BRANCH  31  32
ATOM     32  C   UNL A   1      40.966  19.822  26.155  1.00  0.00     0.338 C 
ATOM     33  O   UNL A   1      41.447  18.825  25.635  1.00  0.00    -0.246 OA
BRANCH  32  34
ATOM     34  C   UNL A   1      41.755  21.027  26.529  1.00  0.00     0.060 A 
ATOM     35  C   UNL A   1      41.979  21.294  27.891  1.00  0.00     0.016 A 
ATOM     36  C   UNL A   1      42.306  21.863  25.558  1.00  0.00     0.016 A 
ATOM     37  C   UNL A   1      42.729  22.403  28.286  1.00  0.00     0.010 A 
ATOM     38  C   UNL A   1      43.025  22.999  25.955  1.00  0.00     0.010 A 
ATOM     39  C   UNL A   1      43.213  23.294  27.320  1.00  0.00    -0.014 A 
BRANCH  39  40
ATOM     40  C   UNL A   1      43.703  24.636  27.730  1.00  0.00     0.031 A 
ATOM     41  C   UNL A   1      42.679  25.685  28.076  1.00  0.00     0.074 A 
ATOM     42  C   UNL A   1      45.013  24.930  27.813  1.00  0.00     0.049 A 
ATOM     43  N   UNL A   1      42.842  26.949  28.372  1.00  0.00    -0.248 NA
ATOM     44  C   UNL A   1      41.275  25.242  28.080  1.00  0.00     0.031 C 
ATOM     45  C   UNL A   1      46.109  23.999  27.565  1.00  0.00     0.029 A 
ATOM     46  N   UNL A   1      45.639  26.117  28.118  1.00  0.00    -0.354 N 
ATOM     47  C   UNL A   1      41.566  27.454  28.583  1.00  0.00     0.074 A 
ATOM     48  C   UNL A   1      40.636  26.369  28.351  1.00  0.00     0.031 C 
ATOM     49  C   UNL A   1      47.276  24.654  27.707  1.00  0.00     0.029 A 
ATOM     50  C   UNL A   1      47.007  26.059  28.017  1.00  0.00     0.049 A 
ATOM     51  H   UNL A   1      45.151  26.930  28.382  1.00  0.00     0.167 HD
ATOM     52  C   UNL A   1      41.197  28.707  28.941  1.00  0.00     0.037 A 
ATOM     53  C   UNL A   1      47.932  27.035  28.133  1.00  0.00     0.037 A 
ATOM     54  C   UNL A   1      42.119  29.788  29.171  1.00  0.00     0.049 A 
ATOM     55  C   UNL A   1      47.493  28.445  28.447  1.00  0.00     0.074 A 
ATOM     56  C   UNL A   1      41.844  31.089  29.555  1.00  0.00     0.029 A 
ATOM     57  N   UNL A   1      43.495  29.698  29.025  1.00  0.00    -0.354 N 
ATOM     58  N   UNL A   1      46.287  28.912  28.664  1.00  0.00    -0.248 NA
ATOM     59  C   UNL A   1      48.549  29.465  28.534  1.00  0.00     0.031 C 
ATOM     60  C   UNL A   1      43.046  31.802  29.578  1.00  0.00     0.029 A 
ATOM     61  C   UNL A   1      44.079  30.929  29.280  1.00  0.00     0.049 A 
ATOM     62  H   UNL A   1      43.985  28.881  28.778  1.00  0.00     0.167 HD
ATOM     63  C   UNL A   1      46.442  30.266  28.944  1.00  0.00     0.074 A 
ATOM     64  C   UNL A   1      47.861  30.543  28.886  1.00  0.00     0.031 C 
ATOM     65  C   UNL A   1      45.495  31.195  29.228  1.00  0.00     0.037 A 
BRANCH  52  66
ATOM     66  C   UNL A   1      39.728  28.986  29.071  1.00  0.00     0.064 A 
ATOM     67  C   UNL A   1      38.941  29.355  27.969  1.00  0.00     0.173 A 
ATOM     68  C   UNL A   1      39.092  28.860  30.316  1.00  0.00     0.173 A 
ATOM     69  F   UNL A   1      39.502  29.506  26.760  1.00  0.00    -0.203 F 
ATOM     70  C   UNL A   1      37.580  29.615  28.114  1.00  0.00     0.198 A 
ATOM     71  C   UNL A   1      37.724  29.086  30.451  1.00  0.00     0.198 A 
ATOM     72  F   UNL A   1      39.795  28.508  31.402  1.00  0.00    -0.203 F 
ATOM     73  F   UNL A   1      36.862  30.020  27.058  1.00  0.00    -0.200 F 
ATOM     74  C   UNL A   1      36.972  29.473  29.352  1.00  0.00     0.200 A 
ATOM     75  F   UNL A   1      37.136  28.933  31.645  1.00  0.00    -0.200 F 
ATOM     76  F   UNL A   1      35.662  29.716  29.488  1.00  0.00    -0.200 F 
ENDBRANCH  52  66
BRANCH  53  77
ATOM     77  C   UNL A   1      49.374  26.725  27.931  1.00  0.00     0.064 A 
ATOM     78  C   UNL A   1      50.217  26.456  29.020  1.00  0.00     0.173 A 
ATOM     79  C   UNL A   1      49.947  26.728  26.651  1.00  0.00     0.173 A 
ATOM     80  F   UNL A   1      49.726  26.474  30.267  1.00  0.00    -0.203 F 
ATOM     81  C   UNL A   1      51.579  26.223  28.837  1.00  0.00     0.198 A 
ATOM     82  C   UNL A   1      51.303  26.461  26.466  1.00  0.00     0.198 A 
ATOM     83  F   UNL A   1      49.190  26.989  25.576  1.00  0.00    -0.203 F 
ATOM     84  F   UNL A   1      52.371  26.026  29.899  1.00  0.00    -0.200 F 
ATOM     85  C   UNL A   1      52.119  26.219  27.560  1.00  0.00     0.200 A 
ATOM     86  F   UNL A   1      51.818  26.449  25.230  1.00  0.00    -0.200 F 
ATOM     87  F   UNL A   1      53.428  25.992  27.384  1.00  0.00    -0.200 F 
ENDBRANCH  53  77
BRANCH  65  88
ATOM     88  C   UNL A   1      45.958  32.592  29.542  1.00  0.00     0.064 A 
ATOM     89  C   UNL A   1      46.046  33.585  28.556  1.00  0.00     0.173 A 
ATOM     90  C   UNL A   1      46.279  32.951  30.861  1.00  0.00     0.173 A 
ATOM     91  F   UNL A   1      45.763  33.295  27.278  1.00  0.00    -0.203 F 
ATOM     92  C   UNL A   1      46.468  34.875  28.873  1.00  0.00     0.198 A 
ATOM     93  C   UNL A   1      46.665  34.249  31.181  1.00  0.00     0.198 A 
ATOM     94  F   UNL A   1      46.202  32.044  31.847  1.00  0.00    -0.203 F 
ATOM     95  F   UNL A   1      46.597  35.793  27.904  1.00  0.00    -0.200 F 
ATOM     96  C   UNL A   1      46.769  35.208  30.185  1.00  0.00     0.200 A 
ATOM     97  F   UNL A   1      46.935  34.573  32.453  1.00  0.00    -0.200 F 
ATOM     98  F   UNL A   1      47.166  36.451  30.489  1.00  0.00    -0.200 F 
ENDBRANCH  65  88
ENDBRANCH  39  40
ENDBRANCH  32  34
ENDBRANCH  31  32
ENDBRANCH  30  31
ENDBRANCH  29  30
ENDBRANCH  28  29
ENDBRANCH  27  28
ENDBRANCH   1  27
TORSDOF 20
ENDMDL
