MODEL 1
REMARK VINA RESULT:     -12.3      0.000      0.000
REMARK SMILES O=C(OCCOCCOCCOC(=O)c1ccc(S(=O)(=O)[O-])cc1N1C(=O)/C(=C\C=C\c2ccccc2)[NH+]=C1c1ccccc1)c1ccc(-c2c3nc(c(-c4c(F)c(F)c(F)c(F)c4F)c4ccc([nH]4)c(-c4c(F)c(F)c(F)c(F)c4F)c4nc(c(-c5c(F)c(F)c(F)c(F)c5F)c5ccc2[nH]5)C=C4)C=C3)cc1
REMARK SMILES IDX 8 1 7 2 6 3 5 4 4 5 3 6 2 7 1 8 46 9 47 10 108 11 48 12
REMARK SMILES IDX 107 13 49 14 50 15 51 16 101 17 52 18 106 19 100 20 102 21
REMARK SMILES IDX 53 22 105 23 99 24 98 25 54 27 86 28 66 29 85 30 67 31 70 32
REMARK SMILES IDX 84 33 103 34 68 35 69 36 83 38 104 39 71 40 55 41 56 42
REMARK SMILES IDX 64 43 57 44 58 45 62 46 65 47 59 48 60 49 63 50 61 51 87 52
REMARK SMILES IDX 88 53 96 54 89 55 90 56 94 57 97 58 91 59 92 60 95 61 93 62
REMARK SMILES IDX 72 63 73 64 81 65 74 66 75 67 79 68 82 69 76 70 77 71 80 72
REMARK SMILES IDX 78 73 9 74 10 75 11 76 12 77 13 78 14 79 15 80 16 81 24 82
REMARK SMILES IDX 17 83 23 84 18 85 25 86 26 87 39 88 27 89 28 90 38 91 29 92
REMARK SMILES IDX 40 94 41 95 45 96 42 97 44 98 43 99 30 100 31 101 32 102
REMARK SMILES IDX 33 103 37 104 34 105 36 106 35 107 19 108 20 109 21 110
REMARK SMILES IDX 22 111
REMARK H PARENT 102 26 70 37 38 93
REMARK Flexibility Score: inf
ROOT
ATOM      1  C   UNL A   1      31.049  27.047  26.131  1.00  0.00     0.188 C 
ENDROOT
BRANCH   1   2
ATOM      2  C   UNL A   1      31.986  27.710  27.133  1.00  0.00     0.188 C 
BRANCH   2   3
ATOM      3  O   UNL A   1      33.265  28.059  26.628  1.00  0.00    -0.376 OA
BRANCH   3   4
ATOM      4  C   UNL A   1      33.377  29.206  25.780  1.00  0.00     0.202 C 
BRANCH   4   5
ATOM      5  C   UNL A   1      32.490  30.452  26.028  1.00  0.00     0.261 C 
BRANCH   5   6
ATOM      6  O   UNL A   1      32.689  31.218  27.252  1.00  0.00    -0.460 OA
BRANCH   6   7
ATOM      7  C   UNL A   1      33.616  32.138  27.626  1.00  0.00     0.338 C 
ATOM      8  O   UNL A   1      33.387  33.337  27.502  1.00  0.00    -0.246 OA
BRANCH   7   9
ATOM      9  C   UNL A   1      34.918  31.716  28.181  1.00  0.00     0.060 A 
ATOM     10  C   UNL A   1      35.099  30.423  28.611  1.00  0.00     0.016 A 
ATOM     11  C   UNL A   1      36.027  32.562  28.208  1.00  0.00     0.016 A 
ATOM     12  C   UNL A   1      36.159  30.028  29.363  1.00  0.00     0.010 A 
ATOM     13  C   UNL A   1      37.227  32.110  28.778  1.00  0.00     0.010 A 
ATOM     14  C   UNL A   1      37.264  30.853  29.405  1.00  0.00    -0.014 A 
BRANCH  14  15
ATOM     15  C   UNL A   1      38.383  30.251  30.129  1.00  0.00     0.031 A 
ATOM     16  C   UNL A   1      38.616  30.645  31.519  1.00  0.00     0.074 A 
ATOM     17  C   UNL A   1      39.010  29.260  29.462  1.00  0.00     0.049 A 
ATOM     18  N   UNL A   1      39.634  30.358  32.268  1.00  0.00    -0.248 NA
ATOM     19  C   UNL A   1      37.631  31.566  32.109  1.00  0.00     0.031 C 
ATOM     20  C   UNL A   1      38.924  29.386  27.554  1.00  0.00     0.029 A 
ATOM     21  N   UNL A   1      40.289  28.053  29.933  1.00  0.00    -0.354 N 
ATOM     22  C   UNL A   1      39.413  31.062  33.432  1.00  0.00     0.074 A 
ATOM     23  C   UNL A   1      38.214  31.852  33.259  1.00  0.00     0.031 C 
ATOM     24  C   UNL A   1      40.114  28.425  26.878  1.00  0.00     0.029 A 
ATOM     25  C   UNL A   1      41.203  27.404  28.414  1.00  0.00     0.049 A 
ATOM     26  H   UNL A   1      40.478  27.775  30.858  1.00  0.00     0.167 HD
ATOM     27  C   UNL A   1      40.155  31.027  34.553  1.00  0.00     0.037 A 
ATOM     28  C   UNL A   1      42.373  26.690  28.727  1.00  0.00     0.037 A 
ATOM     29  C   UNL A   1      41.368  30.275  34.665  1.00  0.00     0.049 A 
ATOM     30  C   UNL A   1      42.974  26.840  30.161  1.00  0.00     0.074 A 
ATOM     31  C   UNL A   1      42.217  30.196  35.748  1.00  0.00     0.029 A 
ATOM     32  N   UNL A   1      41.912  29.486  33.652  1.00  0.00    -0.354 N 
ATOM     33  N   UNL A   1      42.688  27.635  31.178  1.00  0.00    -0.248 NA
ATOM     34  C   UNL A   1      44.182  26.025  30.398  1.00  0.00     0.031 C 
ATOM     35  C   UNL A   1      43.309  29.415  35.373  1.00  0.00     0.029 A 
ATOM     36  C   UNL A   1      43.101  28.927  34.087  1.00  0.00     0.049 A 
ATOM     37  H   UNL A   1      41.511  29.347  32.764  1.00  0.00     0.167 HD
ATOM     38  C   UNL A   1      43.695  27.440  32.136  1.00  0.00     0.074 A 
ATOM     39  C   UNL A   1      44.584  26.441  31.583  1.00  0.00     0.031 C 
ATOM     40  C   UNL A   1      43.929  27.998  33.358  1.00  0.00     0.037 A 
BRANCH  27  41
ATOM     41  C   UNL A   1      39.659  31.846  35.696  1.00  0.00     0.064 A 
ATOM     42  C   UNL A   1      38.670  31.356  36.564  1.00  0.00     0.173 A 
ATOM     43  C   UNL A   1      40.133  33.148  35.895  1.00  0.00     0.173 A 
ATOM     44  F   UNL A   1      38.152  30.132  36.377  1.00  0.00    -0.203 F 
ATOM     45  C   UNL A   1      38.155  32.154  37.578  1.00  0.00     0.198 A 
ATOM     46  C   UNL A   1      39.641  33.930  36.935  1.00  0.00     0.198 A 
ATOM     47  F   UNL A   1      41.052  33.668  35.069  1.00  0.00    -0.203 F 
ATOM     48  F   UNL A   1      37.159  31.694  38.348  1.00  0.00    -0.200 F 
ATOM     49  C   UNL A   1      38.648  33.435  37.769  1.00  0.00     0.200 A 
ATOM     50  F   UNL A   1      40.115  35.170  37.117  1.00  0.00    -0.200 F 
ATOM     51  F   UNL A   1      38.153  34.203  38.749  1.00  0.00    -0.200 F 
ENDBRANCH  27  41
BRANCH  28  52
ATOM     52  C   UNL A   1      43.270  25.908  27.797  1.00  0.00     0.064 A 
ATOM     53  C   UNL A   1      43.118  24.521  27.674  1.00  0.00     0.173 A 
ATOM     54  C   UNL A   1      44.281  26.501  27.021  1.00  0.00     0.173 A 
ATOM     55  F   UNL A   1      42.374  23.851  28.566  1.00  0.00    -0.203 F 
ATOM     56  C   UNL A   1      43.765  23.815  26.662  1.00  0.00     0.198 A 
ATOM     57  C   UNL A   1      44.809  25.833  25.919  1.00  0.00     0.198 A 
ATOM     58  F   UNL A   1      44.624  27.784  27.215  1.00  0.00    -0.203 F 
ATOM     59  F   UNL A   1      43.627  22.487  26.574  1.00  0.00    -0.200 F 
ATOM     60  C   UNL A   1      44.530  24.493  25.725  1.00  0.00     0.200 A 
ATOM     61  F   UNL A   1      45.496  26.521  24.995  1.00  0.00    -0.200 F 
ATOM     62  F   UNL A   1      44.995  23.860  24.641  1.00  0.00    -0.200 F 
ENDBRANCH  28  52
BRANCH  40  63
ATOM     63  C   UNL A   1      45.179  27.528  34.072  1.00  0.00     0.064 A 
ATOM     64  C   UNL A   1      45.170  26.421  34.936  1.00  0.00     0.173 A 
ATOM     65  C   UNL A   1      46.393  28.212  33.898  1.00  0.00     0.173 A 
ATOM     66  F   UNL A   1      44.034  25.737  35.144  1.00  0.00    -0.203 F 
ATOM     67  C   UNL A   1      46.310  26.060  35.649  1.00  0.00     0.198 A 
ATOM     68  C   UNL A   1      47.543  27.820  34.578  1.00  0.00     0.198 A 
ATOM     69  F   UNL A   1      46.466  29.261  33.065  1.00  0.00    -0.203 F 
ATOM     70  F   UNL A   1      46.254  25.062  36.540  1.00  0.00    -0.200 F 
ATOM     71  C   UNL A   1      47.495  26.760  35.469  1.00  0.00     0.200 A 
ATOM     72  F   UNL A   1      48.692  28.481  34.384  1.00  0.00    -0.200 F 
ATOM     73  F   UNL A   1      48.587  26.423  36.170  1.00  0.00    -0.200 F 
ENDBRANCH  40  63
ENDBRANCH  14  15
ENDBRANCH   7   9
ENDBRANCH   6   7
ENDBRANCH   5   6
ENDBRANCH   4   5
ENDBRANCH   3   4
ENDBRANCH   2   3
ENDBRANCH   1   2
BRANCH   1  74
ATOM     74  O   UNL A   1      30.432  25.830  26.509  1.00  0.00    -0.376 OA
BRANCH  74  75
ATOM     75  C   UNL A   1      30.921  24.619  25.947  1.00  0.00     0.202 C 
BRANCH  75  76
ATOM     76  C   UNL A   1      31.811  23.686  26.789  1.00  0.00     0.261 C 
BRANCH  76  77
ATOM     77  O   UNL A   1      31.788  22.274  26.502  1.00  0.00    -0.460 OA
BRANCH  77  78
ATOM     78  C   UNL A   1      33.005  21.690  26.561  1.00  0.00     0.342 C 
ATOM     79  O   UNL A   1      33.910  21.949  27.339  1.00  0.00    -0.246 OA
BRANCH  78  80
ATOM     80  C   UNL A   1      33.185  20.642  25.542  1.00  0.00     0.107 A 
ATOM     81  C   UNL A   1      32.153  19.690  25.446  1.00  0.00     0.021 A 
ATOM     82  C   UNL A   1      34.462  20.395  25.001  1.00  0.00     0.152 A 
ATOM     83  C   UNL A   1      32.407  18.445  24.885  1.00  0.00     0.020 A 
ATOM     84  C   UNL A   1      34.757  19.060  24.694  1.00  0.00     0.072 A 
ATOM     85  C   UNL A   1      33.723  18.114  24.569  1.00  0.00     0.059 A 
BRANCH  82  86
ATOM     86  N   UNL A   1      35.435  21.429  24.920  1.00  0.00    -0.153 N 
ATOM     87  C   UNL A   1      36.747  21.110  25.114  1.00  0.00     0.385 C 
ATOM     88  C   UNL A   1      35.350  22.820  24.776  1.00  0.00     0.295 C 
ATOM     89  O   UNL A   1      37.276  20.019  25.001  1.00  0.00    -0.236 OA
ATOM     90  C   UNL A   1      37.382  22.431  25.352  1.00  0.00     0.215 C 
ATOM     91  N   UNL A   1      36.473  23.443  25.038  1.00  0.00    -0.233 N 
ATOM     92  C   UNL A   1      38.643  22.556  25.800  1.00  0.00     0.060 C 
ATOM     93  H   UNL A   1      36.641  24.413  25.017  1.00  0.00     0.312 HD
BRANCH  88  94
ATOM     94  C   UNL A   1      34.158  23.495  24.112  1.00  0.00     0.065 A 
ATOM     95  C   UNL A   1      34.206  25.128  24.528  1.00  0.00     0.017 A 
ATOM     96  C   UNL A   1      33.474  23.108  22.528  1.00  0.00     0.017 A 
ATOM     97  C   UNL A   1      33.772  26.451  23.499  1.00  0.00     0.001 A 
ATOM     98  C   UNL A   1      32.920  24.713  21.288  1.00  0.00     0.001 A 
ATOM     99  C   UNL A   1      33.116  26.326  21.931  1.00  0.00     0.000 A 
ENDBRANCH  88  94
BRANCH  92 100
ATOM    100  C   UNL A   1      39.501  21.453  26.229  1.00  0.00     0.005 C 
ATOM    101  C   UNL A   1      40.692  21.138  25.695  1.00  0.00     0.008 C 
BRANCH 101 102
ATOM    102  C   UNL A   1      41.571  20.081  26.240  1.00  0.00    -0.026 A 
ATOM    103  C   UNL A   1      42.580  19.565  25.416  1.00  0.00     0.008 A 
ATOM    104  C   UNL A   1      41.439  19.559  27.536  1.00  0.00     0.008 A 
ATOM    105  C   UNL A   1      43.453  18.576  25.880  1.00  0.00     0.001 A 
ATOM    106  C   UNL A   1      42.312  18.567  28.001  1.00  0.00     0.001 A 
ATOM    107  C   UNL A   1      43.319  18.078  27.174  1.00  0.00     0.000 A 
ENDBRANCH 101 102
ENDBRANCH  92 100
ENDBRANCH  82  86
BRANCH  85 108
ATOM    108  S   UNL A   1      34.020  16.505  23.878  1.00  0.00     0.124 S 
ATOM    109  O   UNL A   1      32.920  15.648  24.252  1.00  0.00    -0.237 OA
ATOM    110  O   UNL A   1      34.403  16.696  22.497  1.00  0.00    -0.237 OA
ATOM    111  O   UNL A   1      35.325  15.923  24.625  1.00  0.00    -0.744 OA
ENDBRANCH  85 108
ENDBRANCH  78  80
ENDBRANCH  77  78
ENDBRANCH  76  77
ENDBRANCH  75  76
ENDBRANCH  74  75
ENDBRANCH   1  74
TORSDOF 22
ENDMDL
MODEL 2
REMARK VINA RESULT:     -12.2      1.740      7.195
REMARK SMILES O=C(OCCOCCOCCOC(=O)c1ccc(S(=O)(=O)[O-])cc1N1C(=O)/C(=C\C=C\c2ccccc2)[NH+]=C1c1ccccc1)c1ccc(-c2c3nc(c(-c4c(F)c(F)c(F)c(F)c4F)c4ccc([nH]4)c(-c4c(F)c(F)c(F)c(F)c4F)c4nc(c(-c5c(F)c(F)c(F)c(F)c5F)c5ccc2[nH]5)C=C4)C=C3)cc1
REMARK SMILES IDX 8 1 7 2 6 3 5 4 4 5 3 6 2 7 1 8 46 9 47 10 108 11 48 12
REMARK SMILES IDX 107 13 49 14 50 15 51 16 101 17 52 18 106 19 100 20 102 21
REMARK SMILES IDX 53 22 105 23 99 24 98 25 54 27 86 28 66 29 85 30 67 31 70 32
REMARK SMILES IDX 84 33 103 34 68 35 69 36 83 38 104 39 71 40 55 41 56 42
REMARK SMILES IDX 64 43 57 44 58 45 62 46 65 47 59 48 60 49 63 50 61 51 87 52
REMARK SMILES IDX 88 53 96 54 89 55 90 56 94 57 97 58 91 59 92 60 95 61 93 62
REMARK SMILES IDX 72 63 73 64 81 65 74 66 75 67 79 68 82 69 76 70 77 71 80 72
REMARK SMILES IDX 78 73 9 74 10 75 11 76 12 77 13 78 14 79 15 80 16 81 24 82
REMARK SMILES IDX 17 83 23 84 18 85 25 86 26 87 39 88 27 89 28 90 38 91 29 92
REMARK SMILES IDX 40 94 41 95 45 96 42 97 44 98 43 99 30 100 31 101 32 102
REMARK SMILES IDX 33 103 37 104 34 105 36 106 35 107 19 108 20 109 21 110
REMARK SMILES IDX 22 111
REMARK H PARENT 102 26 70 37 38 93
REMARK Flexibility Score: inf
ROOT
ATOM      1  C   UNL A   1      31.341  27.317  26.429  1.00  0.00     0.188 C 
ENDROOT
BRANCH   1   2
ATOM      2  C   UNL A   1      31.768  28.602  27.129  1.00  0.00     0.188 C 
BRANCH   2   3
ATOM      3  O   UNL A   1      31.779  29.762  26.313  1.00  0.00    -0.376 OA
BRANCH   3   4
ATOM      4  C   UNL A   1      32.434  30.936  26.802  1.00  0.00     0.202 C 
BRANCH   4   5
ATOM      5  C   UNL A   1      31.620  32.221  27.098  1.00  0.00     0.261 C 
BRANCH   5   6
ATOM      6  O   UNL A   1      32.322  33.498  27.136  1.00  0.00    -0.460 OA
BRANCH   6   7
ATOM      7  C   UNL A   1      32.896  34.207  28.142  1.00  0.00     0.338 C 
ATOM      8  O   UNL A   1      32.359  35.221  28.574  1.00  0.00    -0.246 OA
BRANCH   7   9
ATOM      9  C   UNL A   1      34.182  33.778  28.730  1.00  0.00     0.060 A 
ATOM     10  C   UNL A   1      34.262  32.599  29.431  1.00  0.00     0.016 A 
ATOM     11  C   UNL A   1      35.368  34.485  28.527  1.00  0.00     0.016 A 
ATOM     12  C   UNL A   1      35.321  32.266  30.214  1.00  0.00     0.010 A 
ATOM     13  C   UNL A   1      36.550  34.041  29.140  1.00  0.00     0.010 A 
ATOM     14  C   UNL A   1      36.501  32.956  30.030  1.00  0.00    -0.014 A 
BRANCH  14  15
ATOM     15  C   UNL A   1      37.597  32.409  30.829  1.00  0.00     0.031 A 
ATOM     16  C   UNL A   1      38.429  31.351  30.255  1.00  0.00     0.074 A 
ATOM     17  C   UNL A   1      37.821  33.062  31.990  1.00  0.00     0.049 A 
ATOM     18  N   UNL A   1      39.327  30.632  30.851  1.00  0.00    -0.248 NA
ATOM     19  C   UNL A   1      38.140  30.981  28.860  1.00  0.00     0.031 C 
ATOM     20  C   UNL A   1      36.288  33.929  32.739  1.00  0.00     0.029 A 
ATOM     21  N   UNL A   1      39.136  32.964  33.244  1.00  0.00    -0.354 N 
ATOM     22  C   UNL A   1      39.723  29.717  29.899  1.00  0.00     0.074 A 
ATOM     23  C   UNL A   1      38.910  29.917  28.719  1.00  0.00     0.031 C 
ATOM     24  C   UNL A   1      36.567  34.254  34.356  1.00  0.00     0.029 A 
ATOM     25  C   UNL A   1      38.539  33.627  34.907  1.00  0.00     0.049 A 
ATOM     26  H   UNL A   1      40.040  32.611  33.076  1.00  0.00     0.167 HD
ATOM     27  C   UNL A   1      40.700  28.801  30.014  1.00  0.00     0.037 A 
ATOM     28  C   UNL A   1      39.404  33.325  35.974  1.00  0.00     0.037 A 
ATOM     29  C   UNL A   1      41.444  28.597  31.220  1.00  0.00     0.049 A 
ATOM     30  C   UNL A   1      40.479  32.211  35.767  1.00  0.00     0.074 A 
ATOM     31  C   UNL A   1      42.437  27.670  31.453  1.00  0.00     0.029 A 
ATOM     32  N   UNL A   1      41.265  29.320  32.398  1.00  0.00    -0.354 N 
ATOM     33  N   UNL A   1      40.696  31.339  34.796  1.00  0.00    -0.248 NA
ATOM     34  C   UNL A   1      41.357  31.993  36.933  1.00  0.00     0.031 C 
ATOM     35  C   UNL A   1      42.814  27.783  32.791  1.00  0.00     0.029 A 
ATOM     36  C   UNL A   1      42.125  28.843  33.371  1.00  0.00     0.049 A 
ATOM     37  H   UNL A   1      40.624  30.058  32.519  1.00  0.00     0.167 HD
ATOM     38  C   UNL A   1      41.691  30.464  35.257  1.00  0.00     0.074 A 
ATOM     39  C   UNL A   1      42.044  30.923  36.584  1.00  0.00     0.031 C 
ATOM     40  C   UNL A   1      42.291  29.372  34.703  1.00  0.00     0.037 A 
BRANCH  27  41
ATOM     41  C   UNL A   1      40.966  27.968  28.805  1.00  0.00     0.064 A 
ATOM     42  C   UNL A   1      41.869  28.392  27.817  1.00  0.00     0.173 A 
ATOM     43  C   UNL A   1      40.275  26.768  28.604  1.00  0.00     0.173 A 
ATOM     44  F   UNL A   1      42.513  29.563  27.947  1.00  0.00    -0.203 F 
ATOM     45  C   UNL A   1      42.052  27.651  26.656  1.00  0.00     0.198 A 
ATOM     46  C   UNL A   1      40.489  26.011  27.457  1.00  0.00     0.198 A 
ATOM     47  F   UNL A   1      39.378  26.343  29.506  1.00  0.00    -0.203 F 
ATOM     48  F   UNL A   1      42.862  28.111  25.692  1.00  0.00    -0.200 F 
ATOM     49  C   UNL A   1      41.371  26.457  26.482  1.00  0.00     0.200 A 
ATOM     50  F   UNL A   1      39.828  24.858  27.288  1.00  0.00    -0.200 F 
ATOM     51  F   UNL A   1      41.550  25.742  25.364  1.00  0.00    -0.200 F 
ENDBRANCH  27  41
BRANCH  28  52
ATOM     52  C   UNL A   1      39.335  33.810  37.403  1.00  0.00     0.064 A 
ATOM     53  C   UNL A   1      38.613  33.083  38.358  1.00  0.00     0.173 A 
ATOM     54  C   UNL A   1      39.968  34.982  37.850  1.00  0.00     0.173 A 
ATOM     55  F   UNL A   1      37.769  32.119  37.964  1.00  0.00    -0.203 F 
ATOM     56  C   UNL A   1      38.724  33.376  39.716  1.00  0.00     0.198 A 
ATOM     57  C   UNL A   1      40.203  35.184  39.208  1.00  0.00     0.198 A 
ATOM     58  F   UNL A   1      40.517  35.837  36.973  1.00  0.00    -0.203 F 
ATOM     59  F   UNL A   1      38.009  32.687  40.613  1.00  0.00    -0.200 F 
ATOM     60  C   UNL A   1      39.599  34.363  40.142  1.00  0.00     0.200 A 
ATOM     61  F   UNL A   1      41.098  36.104  39.595  1.00  0.00    -0.200 F 
ATOM     62  F   UNL A   1      39.861  34.522  41.445  1.00  0.00    -0.200 F 
ENDBRANCH  28  52
BRANCH  40  63
ATOM     63  C   UNL A   1      43.314  28.667  35.569  1.00  0.00     0.064 A 
ATOM     64  C   UNL A   1      44.676  29.010  35.538  1.00  0.00     0.173 A 
ATOM     65  C   UNL A   1      42.920  27.625  36.424  1.00  0.00     0.173 A 
ATOM     66  F   UNL A   1      45.106  29.993  34.733  1.00  0.00    -0.203 F 
ATOM     67  C   UNL A   1      45.612  28.290  36.278  1.00  0.00     0.198 A 
ATOM     68  C   UNL A   1      43.853  26.938  37.197  1.00  0.00     0.198 A 
ATOM     69  F   UNL A   1      41.630  27.273  36.512  1.00  0.00    -0.203 F 
ATOM     70  F   UNL A   1      46.916  28.571  36.159  1.00  0.00    -0.200 F 
ATOM     71  C   UNL A   1      45.199  27.256  37.106  1.00  0.00     0.200 A 
ATOM     72  F   UNL A   1      43.450  25.957  38.015  1.00  0.00    -0.200 F 
ATOM     73  F   UNL A   1      46.103  26.553  37.803  1.00  0.00    -0.200 F 
ENDBRANCH  40  63
ENDBRANCH  14  15
ENDBRANCH   7   9
ENDBRANCH   6   7
ENDBRANCH   5   6
ENDBRANCH   4   5
ENDBRANCH   3   4
ENDBRANCH   2   3
ENDBRANCH   1   2
BRANCH   1  74
ATOM     74  O   UNL A   1      31.768  26.088  26.986  1.00  0.00    -0.376 OA
BRANCH  74  75
ATOM     75  C   UNL A   1      31.229  24.882  26.460  1.00  0.00     0.202 C 
BRANCH  75  76
ATOM     76  C   UNL A   1      31.694  23.524  27.019  1.00  0.00     0.261 C 
BRANCH  76  77
ATOM     77  O   UNL A   1      31.910  22.440  26.095  1.00  0.00    -0.460 OA
BRANCH  77  78
ATOM     78  C   UNL A   1      32.982  21.675  26.399  1.00  0.00     0.342 C 
ATOM     79  O   UNL A   1      33.734  21.808  27.352  1.00  0.00    -0.246 OA
BRANCH  78  80
ATOM     80  C   UNL A   1      33.203  20.592  25.427  1.00  0.00     0.107 A 
ATOM     81  C   UNL A   1      32.173  19.640  25.318  1.00  0.00     0.021 A 
ATOM     82  C   UNL A   1      34.503  20.322  24.955  1.00  0.00     0.152 A 
ATOM     83  C   UNL A   1      32.447  18.374  24.814  1.00  0.00     0.020 A 
ATOM     84  C   UNL A   1      34.806  18.977  24.709  1.00  0.00     0.072 A 
ATOM     85  C   UNL A   1      33.774  18.029  24.570  1.00  0.00     0.059 A 
BRANCH  82  86
ATOM     86  N   UNL A   1      35.483  21.350  24.881  1.00  0.00    -0.153 N 
ATOM     87  C   UNL A   1      36.793  21.021  25.071  1.00  0.00     0.385 C 
ATOM     88  C   UNL A   1      35.408  22.743  24.750  1.00  0.00     0.295 C 
ATOM     89  O   UNL A   1      37.315  19.927  24.948  1.00  0.00    -0.236 OA
ATOM     90  C   UNL A   1      37.437  22.334  25.321  1.00  0.00     0.215 C 
ATOM     91  N   UNL A   1      36.536  23.356  25.016  1.00  0.00    -0.233 N 
ATOM     92  C   UNL A   1      38.700  22.447  25.768  1.00  0.00     0.060 C 
ATOM     93  H   UNL A   1      36.709  24.325  25.003  1.00  0.00     0.312 HD
BRANCH  88  94
ATOM     94  C   UNL A   1      34.220  23.432  24.092  1.00  0.00     0.065 A 
ATOM     95  C   UNL A   1      34.215  25.036  24.612  1.00  0.00     0.017 A 
ATOM     96  C   UNL A   1      33.593  23.131  22.467  1.00  0.00     0.017 A 
ATOM     97  C   UNL A   1      33.780  26.411  23.655  1.00  0.00     0.001 A 
ATOM     98  C   UNL A   1      33.036  24.799  21.314  1.00  0.00     0.001 A 
ATOM     99  C   UNL A   1      33.175  26.372  22.062  1.00  0.00     0.000 A 
ENDBRANCH  88  94
BRANCH  92 100
ATOM    100  C   UNL A   1      39.550  21.335  26.187  1.00  0.00     0.005 C 
ATOM    101  C   UNL A   1      40.779  21.071  25.714  1.00  0.00     0.008 C 
BRANCH 101 102
ATOM    102  C   UNL A   1      41.642  19.999  26.252  1.00  0.00    -0.026 A 
ATOM    103  C   UNL A   1      42.648  19.477  25.427  1.00  0.00     0.008 A 
ATOM    104  C   UNL A   1      41.498  19.466  27.543  1.00  0.00     0.008 A 
ATOM    105  C   UNL A   1      43.506  18.473  25.885  1.00  0.00     0.001 A 
ATOM    106  C   UNL A   1      42.357  18.458  28.002  1.00  0.00     0.001 A 
ATOM    107  C   UNL A   1      43.361  17.964  27.174  1.00  0.00     0.000 A 
ENDBRANCH 101 102
ENDBRANCH  92 100
ENDBRANCH  82  86
BRANCH  85 108
ATOM    108  S   UNL A   1      34.096  16.396  23.951  1.00  0.00     0.124 S 
ATOM    109  O   UNL A   1      33.020  15.535  24.380  1.00  0.00    -0.237 OA
ATOM    110  O   UNL A   1      34.457  16.530  22.557  1.00  0.00    -0.237 OA
ATOM    111  O   UNL A   1      35.423  15.876  24.705  1.00  0.00    -0.744 OA
ENDBRANCH  85 108
ENDBRANCH  78  80
ENDBRANCH  77  78
ENDBRANCH  76  77
ENDBRANCH  75  76
ENDBRANCH  74  75
ENDBRANCH   1  74
TORSDOF 22
ENDMDL
MODEL 3
REMARK VINA RESULT:     -10.6      1.264      7.102
REMARK SMILES O=C(OCCOCCOCCOC(=O)c1ccc(S(=O)(=O)[O-])cc1N1C(=O)/C(=C\C=C\c2ccccc2)[NH+]=C1c1ccccc1)c1ccc(-c2c3nc(c(-c4c(F)c(F)c(F)c(F)c4F)c4ccc([nH]4)c(-c4c(F)c(F)c(F)c(F)c4F)c4nc(c(-c5c(F)c(F)c(F)c(F)c5F)c5ccc2[nH]5)C=C4)C=C3)cc1
REMARK SMILES IDX 8 1 7 2 6 3 5 4 4 5 3 6 2 7 1 8 46 9 47 10 108 11 48 12
REMARK SMILES IDX 107 13 49 14 50 15 51 16 101 17 52 18 106 19 100 20 102 21
REMARK SMILES IDX 53 22 105 23 99 24 98 25 54 27 86 28 66 29 85 30 67 31 70 32
REMARK SMILES IDX 84 33 103 34 68 35 69 36 83 38 104 39 71 40 55 41 56 42
REMARK SMILES IDX 64 43 57 44 58 45 62 46 65 47 59 48 60 49 63 50 61 51 87 52
REMARK SMILES IDX 88 53 96 54 89 55 90 56 94 57 97 58 91 59 92 60 95 61 93 62
REMARK SMILES IDX 72 63 73 64 81 65 74 66 75 67 79 68 82 69 76 70 77 71 80 72
REMARK SMILES IDX 78 73 9 74 10 75 11 76 12 77 13 78 14 79 15 80 16 81 24 82
REMARK SMILES IDX 17 83 23 84 18 85 25 86 26 87 39 88 27 89 28 90 38 91 29 92
REMARK SMILES IDX 40 94 41 95 45 96 42 97 44 98 43 99 30 100 31 101 32 102
REMARK SMILES IDX 33 103 37 104 34 105 36 106 35 107 19 108 20 109 21 110
REMARK SMILES IDX 22 111
REMARK H PARENT 102 26 70 37 38 93
REMARK Flexibility Score: inf
ROOT
ATOM      1  C   UNL A   1      30.309  24.879  26.277  1.00  0.00     0.188 C 
ENDROOT
BRANCH   1   2
ATOM      2  C   UNL A   1      31.244  26.081  26.219  1.00  0.00     0.188 C 
BRANCH   2   3
ATOM      3  O   UNL A   1      30.939  27.040  25.219  1.00  0.00    -0.376 OA
BRANCH   3   4
ATOM      4  C   UNL A   1      31.751  28.213  25.125  1.00  0.00     0.202 C 
BRANCH   4   5
ATOM      5  C   UNL A   1      31.686  29.301  26.227  1.00  0.00     0.261 C 
BRANCH   5   6
ATOM      6  O   UNL A   1      32.368  30.568  25.997  1.00  0.00    -0.460 OA
BRANCH   6   7
ATOM      7  C   UNL A   1      32.774  31.563  26.828  1.00  0.00     0.338 C 
ATOM      8  O   UNL A   1      32.076  32.558  26.994  1.00  0.00    -0.246 OA
BRANCH   7   9
ATOM      9  C   UNL A   1      34.064  31.472  27.542  1.00  0.00     0.060 A 
ATOM     10  C   UNL A   1      34.589  30.243  27.867  1.00  0.00     0.016 A 
ATOM     11  C   UNL A   1      34.838  32.597  27.829  1.00  0.00     0.016 A 
ATOM     12  C   UNL A   1      35.618  30.079  28.738  1.00  0.00     0.010 A 
ATOM     13  C   UNL A   1      36.040  32.445  28.539  1.00  0.00     0.010 A 
ATOM     14  C   UNL A   1      36.393  31.180  29.037  1.00  0.00    -0.014 A 
BRANCH  14  15
ATOM     15  C   UNL A   1      37.547  30.841  29.870  1.00  0.00     0.031 A 
ATOM     16  C   UNL A   1      38.602  30.001  29.303  1.00  0.00     0.074 A 
ATOM     17  C   UNL A   1      37.583  31.479  31.059  1.00  0.00     0.049 A 
ATOM     18  N   UNL A   1      39.606  29.460  29.918  1.00  0.00    -0.248 NA
ATOM     19  C   UNL A   1      38.451  29.634  27.886  1.00  0.00     0.031 C 
ATOM     20  C   UNL A   1      35.876  31.980  31.762  1.00  0.00     0.029 A 
ATOM     21  N   UNL A   1      38.841  31.605  32.369  1.00  0.00    -0.354 N 
ATOM     22  C   UNL A   1      40.221  28.685  28.958  1.00  0.00     0.074 A 
ATOM     23  C   UNL A   1      39.431  28.759  27.748  1.00  0.00     0.031 C 
ATOM     24  C   UNL A   1      36.017  32.292  33.399  1.00  0.00     0.029 A 
ATOM     25  C   UNL A   1      38.053  32.065  34.022  1.00  0.00     0.049 A 
ATOM     26  H   UNL A   1      39.803  31.453  32.233  1.00  0.00     0.167 HD
ATOM     27  C   UNL A   1      41.362  27.986  29.090  1.00  0.00     0.037 A 
ATOM     28  C   UNL A   1      38.920  31.906  35.118  1.00  0.00     0.037 A 
ATOM     29  C   UNL A   1      42.084  27.892  30.323  1.00  0.00     0.049 A 
ATOM     30  C   UNL A   1      40.211  31.047  34.928  1.00  0.00     0.074 A 
ATOM     31  C   UNL A   1      43.238  27.182  30.574  1.00  0.00     0.029 A 
ATOM     32  N   UNL A   1      41.712  28.516  31.513  1.00  0.00    -0.354 N 
ATOM     33  N   UNL A   1      40.642  30.278  33.942  1.00  0.00    -0.248 NA
ATOM     34  C   UNL A   1      41.068  30.970  36.127  1.00  0.00     0.031 C 
ATOM     35  C   UNL A   1      43.530  27.318  31.931  1.00  0.00     0.029 A 
ATOM     36  C   UNL A   1      42.614  28.189  32.510  1.00  0.00     0.049 A 
ATOM     37  H   UNL A   1      40.928  29.101  31.626  1.00  0.00     0.167 HD
ATOM     38  C   UNL A   1      41.779  29.610  34.422  1.00  0.00     0.074 A 
ATOM     39  C   UNL A   1      41.976  30.080  35.777  1.00  0.00     0.031 C 
ATOM     40  C   UNL A   1      42.614  28.688  33.863  1.00  0.00     0.037 A 
BRANCH  27  41
ATOM     41  C   UNL A   1      41.842  27.275  27.870  1.00  0.00     0.064 A 
ATOM     42  C   UNL A   1      41.337  26.012  27.521  1.00  0.00     0.173 A 
ATOM     43  C   UNL A   1      42.851  27.830  27.075  1.00  0.00     0.173 A 
ATOM     44  F   UNL A   1      40.405  25.421  28.285  1.00  0.00    -0.203 F 
ATOM     45  C   UNL A   1      41.846  25.320  26.429  1.00  0.00     0.198 A 
ATOM     46  C   UNL A   1      43.331  27.151  25.961  1.00  0.00     0.198 A 
ATOM     47  F   UNL A   1      43.386  29.019  27.393  1.00  0.00    -0.203 F 
ATOM     48  F   UNL A   1      41.402  24.085  26.156  1.00  0.00    -0.200 F 
ATOM     49  C   UNL A   1      42.834  25.894  25.644  1.00  0.00     0.200 A 
ATOM     50  F   UNL A   1      44.288  27.704  25.206  1.00  0.00    -0.200 F 
ATOM     51  F   UNL A   1      43.321  25.227  24.590  1.00  0.00    -0.200 F 
ENDBRANCH  27  41
BRANCH  28  52
ATOM     52  C   UNL A   1      38.695  32.310  36.556  1.00  0.00     0.064 A 
ATOM     53  C   UNL A   1      39.207  33.523  37.035  1.00  0.00     0.173 A 
ATOM     54  C   UNL A   1      37.982  31.521  37.476  1.00  0.00     0.173 A 
ATOM     55  F   UNL A   1      40.115  34.194  36.312  1.00  0.00    -0.203 F 
ATOM     56  C   UNL A   1      38.819  34.025  38.276  1.00  0.00     0.198 A 
ATOM     57  C   UNL A   1      37.473  32.084  38.644  1.00  0.00     0.198 A 
ATOM     58  F   UNL A   1      37.623  30.267  37.163  1.00  0.00    -0.203 F 
ATOM     59  F   UNL A   1      39.337  35.174  38.727  1.00  0.00    -0.200 F 
ATOM     60  C   UNL A   1      37.874  33.349  39.032  1.00  0.00     0.200 A 
ATOM     61  F   UNL A   1      36.516  31.439  39.327  1.00  0.00    -0.200 F 
ATOM     62  F   UNL A   1      37.350  33.913  40.127  1.00  0.00    -0.200 F 
ENDBRANCH  28  52
BRANCH  40  63
ATOM     63  C   UNL A   1      43.726  28.177  34.755  1.00  0.00     0.064 A 
ATOM     64  C   UNL A   1      45.008  28.750  34.746  1.00  0.00     0.173 A 
ATOM     65  C   UNL A   1      43.503  27.086  35.611  1.00  0.00     0.173 A 
ATOM     66  F   UNL A   1      45.277  29.789  33.941  1.00  0.00    -0.203 F 
ATOM     67  C   UNL A   1      46.040  28.208  35.509  1.00  0.00     0.198 A 
ATOM     68  C   UNL A   1      44.525  26.576  36.407  1.00  0.00     0.198 A 
ATOM     69  F   UNL A   1      42.291  26.515  35.678  1.00  0.00    -0.203 F 
ATOM     70  F   UNL A   1      47.278  28.711  35.413  1.00  0.00    -0.200 F 
ATOM     71  C   UNL A   1      45.797  27.122  36.338  1.00  0.00     0.200 A 
ATOM     72  F   UNL A   1      44.282  25.543  37.225  1.00  0.00    -0.200 F 
ATOM     73  F   UNL A   1      46.795  26.590  37.058  1.00  0.00    -0.200 F 
ENDBRANCH  40  63
ENDBRANCH  14  15
ENDBRANCH   7   9
ENDBRANCH   6   7
ENDBRANCH   5   6
ENDBRANCH   4   5
ENDBRANCH   3   4
ENDBRANCH   2   3
ENDBRANCH   1   2
BRANCH   1  74
ATOM     74  O   UNL A   1      30.667  23.803  27.124  1.00  0.00    -0.376 OA
BRANCH  74  75
ATOM     75  C   UNL A   1      31.942  23.833  27.755  1.00  0.00     0.202 C 
BRANCH  75  76
ATOM     76  C   UNL A   1      33.151  23.165  27.073  1.00  0.00     0.261 C 
BRANCH  76  77
ATOM     77  O   UNL A   1      33.026  21.794  26.646  1.00  0.00    -0.460 OA
BRANCH  77  78
ATOM     78  C   UNL A   1      32.497  21.659  25.410  1.00  0.00     0.342 C 
ATOM     79  O   UNL A   1      31.700  22.405  24.865  1.00  0.00    -0.246 OA
BRANCH  78  80
ATOM     80  C   UNL A   1      32.981  20.456  24.712  1.00  0.00     0.107 A 
ATOM     81  C   UNL A   1      32.043  19.420  24.546  1.00  0.00     0.021 A 
ATOM     82  C   UNL A   1      34.364  20.218  24.590  1.00  0.00     0.152 A 
ATOM     83  C   UNL A   1      32.478  18.116  24.340  1.00  0.00     0.020 A 
ATOM     84  C   UNL A   1      34.771  18.879  24.653  1.00  0.00     0.072 A 
ATOM     85  C   UNL A   1      33.839  17.843  24.457  1.00  0.00     0.059 A 
BRANCH  82  86
ATOM     86  N   UNL A   1      35.291  21.296  24.558  1.00  0.00    -0.153 N 
ATOM     87  C   UNL A   1      36.595  21.048  24.874  1.00  0.00     0.385 C 
ATOM     88  C   UNL A   1      35.155  22.676  24.360  1.00  0.00     0.295 C 
ATOM     89  O   UNL A   1      37.182  19.981  24.844  1.00  0.00    -0.236 OA
ATOM     90  C   UNL A   1      37.144  22.405  25.121  1.00  0.00     0.215 C 
ATOM     91  N   UNL A   1      36.221  23.361  24.696  1.00  0.00    -0.233 N 
ATOM     92  C   UNL A   1      38.355  22.605  25.671  1.00  0.00     0.060 C 
ATOM     93  H   UNL A   1      36.344  24.337  24.656  1.00  0.00     0.312 HD
BRANCH  88  94
ATOM     94  C   UNL A   1      33.995  23.272  23.573  1.00  0.00     0.065 A 
ATOM     95  C   UNL A   1      33.924  24.915  23.945  1.00  0.00     0.017 A 
ATOM     96  C   UNL A   1      33.478  22.812  21.947  1.00  0.00     0.017 A 
ATOM     97  C   UNL A   1      33.519  26.188  22.844  1.00  0.00     0.001 A 
ATOM     98  C   UNL A   1      32.958  24.355  20.617  1.00  0.00     0.001 A 
ATOM     99  C   UNL A   1      33.015  25.991  21.228  1.00  0.00     0.000 A 
ENDBRANCH  88  94
BRANCH  92 100
ATOM    100  C   UNL A   1      39.222  21.559  26.210  1.00  0.00     0.005 C 
ATOM    101  C   UNL A   1      40.338  21.095  25.626  1.00  0.00     0.008 C 
BRANCH 101 102
ATOM    102  C   UNL A   1      41.241  20.114  26.267  1.00  0.00    -0.026 A 
ATOM    103  C   UNL A   1      42.231  19.508  25.481  1.00  0.00     0.008 A 
ATOM    104  C   UNL A   1      41.149  19.749  27.619  1.00  0.00     0.008 A 
ATOM    105  C   UNL A   1      43.123  18.585  26.035  1.00  0.00     0.001 A 
ATOM    106  C   UNL A   1      42.042  18.822  28.174  1.00  0.00     0.001 A 
ATOM    107  C   UNL A   1      43.030  18.244  27.382  1.00  0.00     0.000 A 
ENDBRANCH 101 102
ENDBRANCH  92 100
ENDBRANCH  82  86
BRANCH  85 108
ATOM    108  S   UNL A   1      34.361  16.163  24.215  1.00  0.00     0.124 S 
ATOM    109  O   UNL A   1      34.528  15.946  22.798  1.00  0.00    -0.237 OA
ATOM    110  O   UNL A   1      35.427  15.906  25.158  1.00  0.00    -0.237 OA
ATOM    111  O   UNL A   1      33.128  15.231  24.675  1.00  0.00    -0.744 OA
ENDBRANCH  85 108
ENDBRANCH  78  80
ENDBRANCH  77  78
ENDBRANCH  76  77
ENDBRANCH  75  76
ENDBRANCH  74  75
ENDBRANCH   1  74
TORSDOF 22
ENDMDL
