MODEL 1
REMARK VINA RESULT:     -11.4      0.000      0.000
REMARK SMILES CC(C)(C)OC(=O)N[C@@H](Cc1c[nH]c2cccc(Cl)c12)C(=O)OCCOCCOCCOC(=O)c1ccc(-c2c3nc(c(-c4c(F)c(F)c(F)c(F)c4F)c4ccc([nH]4)c(-c4c(F)c(F)c(F)c(F)c4F)c4nc(c(-c5c(F)c(F)c(F)c(F)c5F)c5ccc2[nH]5)C=C4)C=C3)cc1
REMARK SMILES IDX 27 1 26 2 25 3 24 4 23 5 21 6 22 7 9 8 8 9 6 10 7 11 5 13
REMARK SMILES IDX 2 14 1 15 3 16 4 17 10 18 11 19 12 20 20 21 13 22 14 23
REMARK SMILES IDX 18 24 15 26 17 27 19 28 16 29 28 30 29 31 30 32 31 33 32 34
REMARK SMILES IDX 33 35 34 36 35 37 36 38 97 39 37 40 96 41 38 42 39 43 40 44
REMARK SMILES IDX 90 45 41 46 95 47 89 48 91 49 42 50 94 51 88 52 87 53 43 55
REMARK SMILES IDX 75 56 55 57 74 58 56 59 59 60 73 61 92 62 57 63 58 64 72 66
REMARK SMILES IDX 93 67 60 68 44 69 45 70 53 71 46 72 47 73 51 74 54 75 48 76
REMARK SMILES IDX 49 77 52 78 50 79 76 80 77 81 85 82 78 83 79 84 83 85 86 86
REMARK SMILES IDX 80 87 81 88 84 89 82 90 61 91 62 92 70 93 63 94 64 95 68 96
REMARK SMILES IDX 71 97 65 98 66 99 69 100 67 101
REMARK H PARENT 8 12 13 25 91 54 59 65
REMARK Flexibility Score: inf
ROOT
ATOM      1  C   UNL A   1      38.967  21.802  25.794  1.00  0.00     0.188 C 
ENDROOT
BRANCH   1   2
ATOM      2  O   UNL A   1      37.826  21.703  24.954  1.00  0.00    -0.376 OA
BRANCH   2   3
ATOM      3  C   UNL A   1      36.556  22.071  25.481  1.00  0.00     0.202 C 
BRANCH   3   4
ATOM      4  C   UNL A   1      35.620  23.008  24.685  1.00  0.00     0.261 C 
BRANCH   4   5
ATOM      5  O   UNL A   1      34.869  22.399  23.613  1.00  0.00    -0.462 OA
BRANCH   5   6
ATOM      6  C   UNL A   1      33.885  23.135  23.034  1.00  0.00     0.329 C 
ATOM      7  O   UNL A   1      34.094  24.051  22.244  1.00  0.00    -0.250 OA
BRANCH   6   8
ATOM      8  C   UNL A   1      32.464  22.791  23.543  1.00  0.00     0.200 C 
BRANCH   8   9
ATOM      9  N   UNL A   1      31.350  23.667  23.154  1.00  0.00    -0.308 N 
ATOM     10  C   UNL A   1      30.912  24.814  23.743  1.00  0.00     0.408 C 
ATOM     11  O   UNL A   1      29.864  25.347  23.360  1.00  0.00    -0.225 OA
ATOM     12  H   UNL A   1      30.851  23.386  22.353  1.00  0.00     0.168 HD
BRANCH  10  13
ATOM     13  O   UNL A   1      31.731  25.315  24.694  1.00  0.00    -0.444 OA
BRANCH  13  14
ATOM     14  C   UNL A   1      32.264  26.669  24.574  1.00  0.00     0.106 C 
ATOM     15  C   UNL A   1      33.578  26.665  25.376  1.00  0.00     0.056 C 
ATOM     16  C   UNL A   1      31.308  27.685  25.209  1.00  0.00     0.056 C 
ATOM     17  C   UNL A   1      32.615  27.061  23.130  1.00  0.00     0.056 C 
ENDBRANCH  13  14
ENDBRANCH  10  13
ENDBRANCH   8   9
BRANCH   8  18
ATOM     18  C   UNL A   1      32.172  21.345  23.083  1.00  0.00     0.075 C 
BRANCH  18  19
ATOM     19  C   UNL A   1      32.416  20.327  24.174  1.00  0.00    -0.018 A 
ATOM     20  C   UNL A   1      32.464  20.638  25.522  1.00  0.00     0.087 A 
ATOM     21  C   UNL A   1      32.720  18.919  24.058  1.00  0.00     0.021 A 
ATOM     22  N   UNL A   1      32.833  19.523  26.215  1.00  0.00    -0.361 N 
ATOM     23  C   UNL A   1      33.014  18.469  25.354  1.00  0.00     0.047 A 
ATOM     24  C   UNL A   1      32.824  17.955  23.025  1.00  0.00     0.050 A 
ATOM     25  H   UNL A   1      32.953  19.481  27.191  1.00  0.00     0.166 HD
ATOM     26  C   UNL A   1      33.418  17.155  25.639  1.00  0.00     0.027 A 
ATOM     27  C   UNL A   1      33.235  16.644  23.283  1.00  0.00     0.021 A 
ATOM     28  Cl  UNL A   1      32.390  18.407  21.434  1.00  0.00    -0.084 Cl
ATOM     29  C   UNL A   1      33.532  16.253  24.581  1.00  0.00     0.004 A 
ENDBRANCH  18  19
ENDBRANCH   8  18
ENDBRANCH   6   8
ENDBRANCH   5   6
ENDBRANCH   4   5
ENDBRANCH   3   4
ENDBRANCH   2   3
ENDBRANCH   1   2
BRANCH   1  30
ATOM     30  C   UNL A   1      39.662  20.518  26.287  1.00  0.00     0.188 C 
BRANCH  30  31
ATOM     31  O   UNL A   1      40.471  20.667  27.434  1.00  0.00    -0.376 OA
BRANCH  31  32
ATOM     32  C   UNL A   1      41.885  20.626  27.356  1.00  0.00     0.202 C 
BRANCH  32  33
ATOM     33  C   UNL A   1      42.615  20.897  26.035  1.00  0.00     0.261 C 
BRANCH  33  34
ATOM     34  O   UNL A   1      43.858  20.236  25.889  1.00  0.00    -0.460 OA
BRANCH  34  35
ATOM     35  C   UNL A   1      44.425  20.476  24.696  1.00  0.00     0.338 C 
ATOM     36  O   UNL A   1      44.462  19.734  23.723  1.00  0.00    -0.246 OA
BRANCH  35  37
ATOM     37  C   UNL A   1      44.989  21.818  24.699  1.00  0.00     0.060 A 
ATOM     38  C   UNL A   1      45.896  22.083  25.725  1.00  0.00     0.016 A 
ATOM     39  C   UNL A   1      44.250  22.808  24.047  1.00  0.00     0.016 A 
ATOM     40  C   UNL A   1      45.808  23.303  26.334  1.00  0.00     0.010 A 
ATOM     41  C   UNL A   1      44.146  24.023  24.671  1.00  0.00     0.010 A 
ATOM     42  C   UNL A   1      44.835  24.198  25.870  1.00  0.00    -0.014 A 
BRANCH  42  43
ATOM     43  C   UNL A   1      44.574  25.350  26.697  1.00  0.00     0.031 A 
ATOM     44  C   UNL A   1      45.617  26.381  26.563  1.00  0.00     0.074 A 
ATOM     45  C   UNL A   1      43.476  25.439  27.469  1.00  0.00     0.049 A 
ATOM     46  N   UNL A   1      46.434  26.799  27.470  1.00  0.00    -0.248 NA
ATOM     47  C   UNL A   1      45.905  26.874  25.207  1.00  0.00     0.031 C 
ATOM     48  C   UNL A   1      42.297  24.569  27.485  1.00  0.00     0.029 A 
ATOM     49  N   UNL A   1      43.151  26.410  28.360  1.00  0.00    -0.354 N 
ATOM     50  C   UNL A   1      47.221  27.753  26.840  1.00  0.00     0.074 A 
ATOM     51  C   UNL A   1      46.976  27.633  25.428  1.00  0.00     0.031 C 
ATOM     52  C   UNL A   1      41.301  25.186  28.164  1.00  0.00     0.029 A 
ATOM     53  C   UNL A   1      41.815  26.421  28.733  1.00  0.00     0.049 A 
ATOM     54  H   UNL A   1      43.808  27.054  28.713  1.00  0.00     0.167 HD
ATOM     55  C   UNL A   1      47.797  28.750  27.558  1.00  0.00     0.037 A 
ATOM     56  C   UNL A   1      41.183  27.425  29.389  1.00  0.00     0.037 A 
ATOM     57  C   UNL A   1      47.934  28.384  28.944  1.00  0.00     0.049 A 
ATOM     58  C   UNL A   1      42.231  28.256  30.036  1.00  0.00     0.074 A 
ATOM     59  C   UNL A   1      48.611  27.386  29.618  1.00  0.00     0.029 A 
ATOM     60  N   UNL A   1      47.019  28.886  29.835  1.00  0.00    -0.354 N 
ATOM     61  N   UNL A   1      42.956  27.861  31.044  1.00  0.00    -0.248 NA
ATOM     62  C   UNL A   1      42.774  29.375  29.278  1.00  0.00     0.031 C 
ATOM     63  C   UNL A   1      47.772  27.039  30.715  1.00  0.00     0.029 A 
ATOM     64  C   UNL A   1      46.653  27.871  30.678  1.00  0.00     0.049 A 
ATOM     65  H   UNL A   1      46.685  29.812  29.864  1.00  0.00     0.167 HD
ATOM     66  C   UNL A   1      44.218  28.379  30.796  1.00  0.00     0.074 A 
ATOM     67  C   UNL A   1      44.023  29.381  29.753  1.00  0.00     0.031 C 
ATOM     68  C   UNL A   1      45.334  27.743  31.252  1.00  0.00     0.037 A 
BRANCH  55  69
ATOM     69  C   UNL A   1      47.831  30.179  27.082  1.00  0.00     0.064 A 
ATOM     70  C   UNL A   1      49.040  30.893  27.174  1.00  0.00     0.173 A 
ATOM     71  C   UNL A   1      46.677  30.959  26.837  1.00  0.00     0.173 A 
ATOM     72  F   UNL A   1      50.192  30.256  27.428  1.00  0.00    -0.203 F 
ATOM     73  C   UNL A   1      49.074  32.289  27.113  1.00  0.00     0.198 A 
ATOM     74  C   UNL A   1      46.725  32.344  26.719  1.00  0.00     0.198 A 
ATOM     75  F   UNL A   1      45.446  30.438  26.818  1.00  0.00    -0.203 F 
ATOM     76  F   UNL A   1      50.226  32.933  27.345  1.00  0.00    -0.200 F 
ATOM     77  C   UNL A   1      47.917  33.012  26.893  1.00  0.00     0.200 A 
ATOM     78  F   UNL A   1      45.588  33.026  26.526  1.00  0.00    -0.200 F 
ATOM     79  F   UNL A   1      47.938  34.351  26.899  1.00  0.00    -0.200 F 
ENDBRANCH  55  69
BRANCH  56  80
ATOM     80  C   UNL A   1      39.786  27.897  29.241  1.00  0.00     0.064 A 
ATOM     81  C   UNL A   1      38.938  27.994  30.358  1.00  0.00     0.173 A 
ATOM     82  C   UNL A   1      39.344  28.531  28.064  1.00  0.00     0.173 A 
ATOM     83  F   UNL A   1      39.303  27.457  31.531  1.00  0.00    -0.203 F 
ATOM     84  C   UNL A   1      37.737  28.711  30.308  1.00  0.00     0.198 A 
ATOM     85  C   UNL A   1      38.142  29.239  28.013  1.00  0.00     0.198 A 
ATOM     86  F   UNL A   1      40.115  28.564  26.968  1.00  0.00    -0.203 F 
ATOM     87  F   UNL A   1      36.990  28.839  31.413  1.00  0.00    -0.200 F 
ATOM     88  C   UNL A   1      37.346  29.340  29.139  1.00  0.00     0.200 A 
ATOM     89  F   UNL A   1      37.792  29.875  26.886  1.00  0.00    -0.200 F 
ATOM     90  F   UNL A   1      36.228  30.081  29.108  1.00  0.00    -0.200 F 
ENDBRANCH  56  80
BRANCH  68  91
ATOM     91  C   UNL A   1      45.151  26.645  32.260  1.00  0.00     0.064 A 
ATOM     92  C   UNL A   1      45.050  26.862  33.646  1.00  0.00     0.173 A 
ATOM     93  C   UNL A   1      44.896  25.351  31.787  1.00  0.00     0.173 A 
ATOM     94  F   UNL A   1      45.193  28.090  34.163  1.00  0.00    -0.203 F 
ATOM     95  C   UNL A   1      44.728  25.822  34.516  1.00  0.00     0.198 A 
ATOM     96  C   UNL A   1      44.539  24.323  32.654  1.00  0.00     0.198 A 
ATOM     97  F   UNL A   1      44.930  25.100  30.468  1.00  0.00    -0.203 F 
ATOM     98  F   UNL A   1      44.636  26.051  35.834  1.00  0.00    -0.200 F 
ATOM     99  C   UNL A   1      44.461  24.557  34.018  1.00  0.00     0.200 A 
ATOM    100  F   UNL A   1      44.235  23.115  32.163  1.00  0.00    -0.200 F 
ATOM    101  F   UNL A   1      44.099  23.569  34.848  1.00  0.00    -0.200 F 
ENDBRANCH  68  91
ENDBRANCH  42  43
ENDBRANCH  35  37
ENDBRANCH  34  35
ENDBRANCH  33  34
ENDBRANCH  32  33
ENDBRANCH  31  32
ENDBRANCH  30  31
ENDBRANCH   1  30
TORSDOF 22
ENDMDL
MODEL 2
REMARK VINA RESULT:     -11.3      2.879      4.517
REMARK SMILES CC(C)(C)OC(=O)N[C@@H](Cc1c[nH]c2cccc(Cl)c12)C(=O)OCCOCCOCCOC(=O)c1ccc(-c2c3nc(c(-c4c(F)c(F)c(F)c(F)c4F)c4ccc([nH]4)c(-c4c(F)c(F)c(F)c(F)c4F)c4nc(c(-c5c(F)c(F)c(F)c(F)c5F)c5ccc2[nH]5)C=C4)C=C3)cc1
REMARK SMILES IDX 27 1 26 2 25 3 24 4 23 5 21 6 22 7 9 8 8 9 6 10 7 11 5 13
REMARK SMILES IDX 2 14 1 15 3 16 4 17 10 18 11 19 12 20 20 21 13 22 14 23
REMARK SMILES IDX 18 24 15 26 17 27 19 28 16 29 28 30 29 31 30 32 31 33 32 34
REMARK SMILES IDX 33 35 34 36 35 37 36 38 97 39 37 40 96 41 38 42 39 43 40 44
REMARK SMILES IDX 90 45 41 46 95 47 89 48 91 49 42 50 94 51 88 52 87 53 43 55
REMARK SMILES IDX 75 56 55 57 74 58 56 59 59 60 73 61 92 62 57 63 58 64 72 66
REMARK SMILES IDX 93 67 60 68 44 69 45 70 53 71 46 72 47 73 51 74 54 75 48 76
REMARK SMILES IDX 49 77 52 78 50 79 76 80 77 81 85 82 78 83 79 84 83 85 86 86
REMARK SMILES IDX 80 87 81 88 84 89 82 90 61 91 62 92 70 93 63 94 64 95 68 96
REMARK SMILES IDX 71 97 65 98 66 99 69 100 67 101
REMARK H PARENT 8 12 13 25 91 54 59 65
REMARK Flexibility Score: inf
ROOT
ATOM      1  C   UNL A   1      40.618  20.736  26.649  1.00  0.00     0.188 C 
ENDROOT
BRANCH   1   2
ATOM      2  O   UNL A   1      39.573  21.277  25.853  1.00  0.00    -0.376 OA
BRANCH   2   3
ATOM      3  C   UNL A   1      38.631  20.386  25.267  1.00  0.00     0.202 C 
BRANCH   3   4
ATOM      4  C   UNL A   1      37.179  20.844  25.005  1.00  0.00     0.261 C 
BRANCH   4   5
ATOM      5  O   UNL A   1      37.013  21.951  24.093  1.00  0.00    -0.462 OA
BRANCH   5   6
ATOM      6  C   UNL A   1      36.747  23.172  24.625  1.00  0.00     0.329 C 
ATOM      7  O   UNL A   1      37.603  23.905  25.114  1.00  0.00    -0.250 OA
BRANCH   6   8
ATOM      8  C   UNL A   1      35.239  23.524  24.661  1.00  0.00     0.200 C 
BRANCH   8   9
ATOM      9  N   UNL A   1      34.310  22.698  23.875  1.00  0.00    -0.308 N 
ATOM     10  C   UNL A   1      33.595  23.028  22.765  1.00  0.00     0.408 C 
ATOM     11  O   UNL A   1      32.748  22.247  22.316  1.00  0.00    -0.225 OA
ATOM     12  H   UNL A   1      34.188  21.776  24.198  1.00  0.00     0.168 HD
BRANCH  10  13
ATOM     13  O   UNL A   1      33.936  24.208  22.198  1.00  0.00    -0.444 OA
BRANCH  13  14
ATOM     14  C   UNL A   1      32.923  25.233  21.956  1.00  0.00     0.106 C 
ATOM     15  C   UNL A   1      33.512  26.534  22.529  1.00  0.00     0.056 C 
ATOM     16  C   UNL A   1      31.631  24.907  22.715  1.00  0.00     0.056 C 
ATOM     17  C   UNL A   1      32.647  25.477  20.464  1.00  0.00     0.056 C 
ENDBRANCH  13  14
ENDBRANCH  10  13
ENDBRANCH   8   9
BRANCH   8  18
ATOM     18  C   UNL A   1      34.821  23.505  26.148  1.00  0.00     0.075 C 
BRANCH  18  19
ATOM     19  C   UNL A   1      33.320  23.457  26.328  1.00  0.00    -0.018 A 
ATOM     20  C   UNL A   1      32.605  22.291  26.535  1.00  0.00     0.087 A 
ATOM     21  C   UNL A   1      32.356  24.532  26.243  1.00  0.00     0.021 A 
ATOM     22  N   UNL A   1      31.273  22.587  26.522  1.00  0.00    -0.361 N 
ATOM     23  C   UNL A   1      31.090  23.934  26.328  1.00  0.00     0.047 A 
ATOM     24  C   UNL A   1      32.372  25.938  26.072  1.00  0.00     0.050 A 
ATOM     25  H   UNL A   1      30.550  21.929  26.633  1.00  0.00     0.166 HD
ATOM     26  C   UNL A   1      29.890  24.655  26.223  1.00  0.00     0.027 A 
ATOM     27  C   UNL A   1      31.191  26.676  25.952  1.00  0.00     0.021 A 
ATOM     28  Cl  UNL A   1      33.878  26.745  26.054  1.00  0.00    -0.084 Cl
ATOM     29  C   UNL A   1      29.962  26.034  26.024  1.00  0.00     0.004 A 
ENDBRANCH  18  19
ENDBRANCH   8  18
ENDBRANCH   6   8
ENDBRANCH   5   6
ENDBRANCH   4   5
ENDBRANCH   3   4
ENDBRANCH   2   3
ENDBRANCH   1   2
BRANCH   1  30
ATOM     30  C   UNL A   1      41.313  19.434  26.207  1.00  0.00     0.188 C 
BRANCH  30  31
ATOM     31  O   UNL A   1      42.260  19.573  25.169  1.00  0.00    -0.376 OA
BRANCH  31  32
ATOM     32  C   UNL A   1      43.629  19.814  25.440  1.00  0.00     0.202 C 
BRANCH  32  33
ATOM     33  C   UNL A   1      44.235  21.213  25.279  1.00  0.00     0.261 C 
BRANCH  33  34
ATOM     34  O   UNL A   1      43.849  22.153  26.264  1.00  0.00    -0.460 OA
BRANCH  34  35
ATOM     35  C   UNL A   1      43.398  23.297  25.726  1.00  0.00     0.338 C 
ATOM     36  O   UNL A   1      43.714  23.795  24.654  1.00  0.00    -0.246 OA
BRANCH  35  37
ATOM     37  C   UNL A   1      42.406  23.882  26.618  1.00  0.00     0.060 A 
ATOM     38  C   UNL A   1      41.523  24.782  26.021  1.00  0.00     0.016 A 
ATOM     39  C   UNL A   1      42.720  23.895  27.979  1.00  0.00     0.016 A 
ATOM     40  C   UNL A   1      41.219  25.914  26.724  1.00  0.00     0.010 A 
ATOM     41  C   UNL A   1      42.433  25.040  28.675  1.00  0.00     0.010 A 
ATOM     42  C   UNL A   1      41.795  26.073  27.990  1.00  0.00    -0.014 A 
BRANCH  42  43
ATOM     43  C   UNL A   1      41.689  27.382  28.586  1.00  0.00     0.031 A 
ATOM     44  C   UNL A   1      42.851  28.232  28.278  1.00  0.00     0.074 A 
ATOM     45  C   UNL A   1      40.618  27.747  29.314  1.00  0.00     0.049 A 
ATOM     46  N   UNL A   1      43.722  28.706  29.103  1.00  0.00    -0.248 NA
ATOM     47  C   UNL A   1      43.184  28.426  26.858  1.00  0.00     0.031 C 
ATOM     48  C   UNL A   1      39.340  27.049  29.475  1.00  0.00     0.029 A 
ATOM     49  N   UNL A   1      40.426  28.900  30.006  1.00  0.00    -0.354 N 
ATOM     50  C   UNL A   1      44.616  29.422  28.319  1.00  0.00     0.074 A 
ATOM     51  C   UNL A   1      44.344  29.074  26.950  1.00  0.00     0.031 C 
ATOM     52  C   UNL A   1      38.436  27.900  30.015  1.00  0.00     0.029 A 
ATOM     53  C   UNL A   1      39.105  29.145  30.352  1.00  0.00     0.049 A 
ATOM     54  H   UNL A   1      41.161  29.511  30.242  1.00  0.00     0.167 HD
ATOM     55  C   UNL A   1      45.318  30.455  28.848  1.00  0.00     0.037 A 
ATOM     56  C   UNL A   1      38.610  30.324  30.803  1.00  0.00     0.037 A 
ATOM     57  C   UNL A   1      45.423  30.338  30.279  1.00  0.00     0.049 A 
ATOM     58  C   UNL A   1      39.759  31.124  31.299  1.00  0.00     0.074 A 
ATOM     59  C   UNL A   1      45.977  29.405  31.134  1.00  0.00     0.029 A 
ATOM     60  N   UNL A   1      44.586  31.105  31.049  1.00  0.00    -0.354 N 
ATOM     61  N   UNL A   1      40.439  30.835  32.373  1.00  0.00    -0.248 NA
ATOM     62  C   UNL A   1      40.430  32.006  30.354  1.00  0.00     0.031 C 
ATOM     63  C   UNL A   1      45.112  29.374  32.266  1.00  0.00     0.029 A 
ATOM     64  C   UNL A   1      44.105  30.317  32.060  1.00  0.00     0.049 A 
ATOM     65  H   UNL A   1      44.371  32.055  30.902  1.00  0.00     0.167 HD
ATOM     66  C   UNL A   1      41.754  31.137  32.050  1.00  0.00     0.074 A 
ATOM     67  C   UNL A   1      41.674  31.946  30.837  1.00  0.00     0.031 C 
ATOM     68  C   UNL A   1      42.786  30.463  32.631  1.00  0.00     0.037 A 
BRANCH  55  69
ATOM     69  C   UNL A   1      45.526  31.756  28.116  1.00  0.00     0.064 A 
ATOM     70  C   UNL A   1      44.397  32.472  27.678  1.00  0.00     0.173 A 
ATOM     71  C   UNL A   1      46.761  32.162  27.560  1.00  0.00     0.173 A 
ATOM     72  F   UNL A   1      43.172  32.155  28.122  1.00  0.00    -0.203 F 
ATOM     73  C   UNL A   1      44.490  33.460  26.695  1.00  0.00     0.198 A 
ATOM     74  C   UNL A   1      46.855  33.186  26.623  1.00  0.00     0.198 A 
ATOM     75  F   UNL A   1      47.907  31.518  27.803  1.00  0.00    -0.203 F 
ATOM     76  F   UNL A   1      43.373  34.019  26.210  1.00  0.00    -0.200 F 
ATOM     77  C   UNL A   1      45.717  33.811  26.164  1.00  0.00     0.200 A 
ATOM     78  F   UNL A   1      48.053  33.495  26.107  1.00  0.00    -0.200 F 
ATOM     79  F   UNL A   1      45.801  34.711  25.176  1.00  0.00    -0.200 F 
ENDBRANCH  55  69
BRANCH  56  80
ATOM     80  C   UNL A   1      37.281  30.931  30.552  1.00  0.00     0.064 A 
ATOM     81  C   UNL A   1      36.439  31.285  31.620  1.00  0.00     0.173 A 
ATOM     82  C   UNL A   1      36.931  31.437  29.285  1.00  0.00     0.173 A 
ATOM     83  F   UNL A   1      36.724  30.882  32.867  1.00  0.00    -0.203 F 
ATOM     84  C   UNL A   1      35.333  32.123  31.437  1.00  0.00     0.198 A 
ATOM     85  C   UNL A   1      35.822  32.266  29.103  1.00  0.00     0.198 A 
ATOM     86  F   UNL A   1      37.711  31.222  28.217  1.00  0.00    -0.203 F 
ATOM     87  F   UNL A   1      34.595  32.494  32.491  1.00  0.00    -0.200 F 
ATOM     88  C   UNL A   1      35.033  32.620  30.180  1.00  0.00     0.200 A 
ATOM     89  F   UNL A   1      35.563  32.771  27.888  1.00  0.00    -0.200 F 
ATOM     90  F   UNL A   1      34.012  33.474  30.015  1.00  0.00    -0.200 F 
ENDBRANCH  56  80
BRANCH  68  91
ATOM     91  C   UNL A   1      42.478  29.601  33.822  1.00  0.00     0.064 A 
ATOM     92  C   UNL A   1      41.949  28.302  33.733  1.00  0.00     0.173 A 
ATOM     93  C   UNL A   1      42.898  30.046  35.083  1.00  0.00     0.173 A 
ATOM     94  F   UNL A   1      41.609  27.776  32.549  1.00  0.00    -0.203 F 
ATOM     95  C   UNL A   1      41.828  27.495  34.863  1.00  0.00     0.198 A 
ATOM     96  C   UNL A   1      42.809  29.225  36.203  1.00  0.00     0.198 A 
ATOM     97  F   UNL A   1      43.456  31.260  35.215  1.00  0.00    -0.203 F 
ATOM     98  F   UNL A   1      41.321  26.258  34.756  1.00  0.00    -0.200 F 
ATOM     99  C   UNL A   1      42.269  27.953  36.094  1.00  0.00     0.200 A 
ATOM    100  F   UNL A   1      43.281  29.654  37.381  1.00  0.00    -0.200 F 
ATOM    101  F   UNL A   1      42.203  27.159  37.171  1.00  0.00    -0.200 F 
ENDBRANCH  68  91
ENDBRANCH  42  43
ENDBRANCH  35  37
ENDBRANCH  34  35
ENDBRANCH  33  34
ENDBRANCH  32  33
ENDBRANCH  31  32
ENDBRANCH  30  31
ENDBRANCH   1  30
TORSDOF 22
ENDMDL
MODEL 3
REMARK VINA RESULT:     -11.1      1.453      3.774
REMARK SMILES CC(C)(C)OC(=O)N[C@@H](Cc1c[nH]c2cccc(Cl)c12)C(=O)OCCOCCOCCOC(=O)c1ccc(-c2c3nc(c(-c4c(F)c(F)c(F)c(F)c4F)c4ccc([nH]4)c(-c4c(F)c(F)c(F)c(F)c4F)c4nc(c(-c5c(F)c(F)c(F)c(F)c5F)c5ccc2[nH]5)C=C4)C=C3)cc1
REMARK SMILES IDX 27 1 26 2 25 3 24 4 23 5 21 6 22 7 9 8 8 9 6 10 7 11 5 13
REMARK SMILES IDX 2 14 1 15 3 16 4 17 10 18 11 19 12 20 20 21 13 22 14 23
REMARK SMILES IDX 18 24 15 26 17 27 19 28 16 29 28 30 29 31 30 32 31 33 32 34
REMARK SMILES IDX 33 35 34 36 35 37 36 38 97 39 37 40 96 41 38 42 39 43 40 44
REMARK SMILES IDX 90 45 41 46 95 47 89 48 91 49 42 50 94 51 88 52 87 53 43 55
REMARK SMILES IDX 75 56 55 57 74 58 56 59 59 60 73 61 92 62 57 63 58 64 72 66
REMARK SMILES IDX 93 67 60 68 44 69 45 70 53 71 46 72 47 73 51 74 54 75 48 76
REMARK SMILES IDX 49 77 52 78 50 79 76 80 77 81 85 82 78 83 79 84 83 85 86 86
REMARK SMILES IDX 80 87 81 88 84 89 82 90 61 91 62 92 70 93 63 94 64 95 68 96
REMARK SMILES IDX 71 97 65 98 66 99 69 100 67 101
REMARK H PARENT 8 12 13 25 91 54 59 65
REMARK Flexibility Score: inf
ROOT
ATOM      1  C   UNL A   1      39.098  21.614  26.071  1.00  0.00     0.188 C 
ENDROOT
BRANCH   1   2
ATOM      2  O   UNL A   1      37.879  21.741  25.351  1.00  0.00    -0.376 OA
BRANCH   2   3
ATOM      3  C   UNL A   1      37.346  23.042  25.136  1.00  0.00     0.202 C 
BRANCH   3   4
ATOM      4  C   UNL A   1      36.609  23.379  23.821  1.00  0.00     0.261 C 
BRANCH   4   5
ATOM      5  O   UNL A   1      35.350  22.707  23.606  1.00  0.00    -0.462 OA
BRANCH   5   6
ATOM      6  C   UNL A   1      34.240  23.478  23.462  1.00  0.00     0.329 C 
ATOM      7  O   UNL A   1      33.992  24.136  22.455  1.00  0.00    -0.250 OA
BRANCH   6   8
ATOM      8  C   UNL A   1      33.356  23.545  24.732  1.00  0.00     0.200 C 
BRANCH   8   9
ATOM      9  N   UNL A   1      33.786  22.799  25.923  1.00  0.00    -0.308 N 
ATOM     10  C   UNL A   1      33.386  21.574  26.362  1.00  0.00     0.408 C 
ATOM     11  O   UNL A   1      33.751  21.161  27.469  1.00  0.00    -0.225 OA
ATOM     12  H   UNL A   1      34.459  23.249  26.483  1.00  0.00     0.168 HD
BRANCH  10  13
ATOM     13  O   UNL A   1      32.642  20.869  25.481  1.00  0.00    -0.444 OA
BRANCH  13  14
ATOM     14  C   UNL A   1      33.143  19.614  24.926  1.00  0.00     0.106 C 
ATOM     15  C   UNL A   1      32.498  19.494  23.534  1.00  0.00     0.056 C 
ATOM     16  C   UNL A   1      32.687  18.424  25.779  1.00  0.00     0.056 C 
ATOM     17  C   UNL A   1      34.666  19.601  24.723  1.00  0.00     0.056 C 
ENDBRANCH  13  14
ENDBRANCH  10  13
ENDBRANCH   8   9
BRANCH   8  18
ATOM     18  C   UNL A   1      33.205  25.041  25.082  1.00  0.00     0.075 C 
BRANCH  18  19
ATOM     19  C   UNL A   1      31.788  25.539  24.907  1.00  0.00    -0.018 A 
ATOM     20  C   UNL A   1      30.679  24.915  25.450  1.00  0.00     0.087 A 
ATOM     21  C   UNL A   1      31.301  26.649  24.117  1.00  0.00     0.021 A 
ATOM     22  N   UNL A   1      29.557  25.541  24.991  1.00  0.00    -0.361 N 
ATOM     23  C   UNL A   1      29.901  26.584  24.166  1.00  0.00     0.047 A 
ATOM     24  C   UNL A   1      31.850  27.691  23.331  1.00  0.00     0.050 A 
ATOM     25  H   UNL A   1      28.636  25.282  25.217  1.00  0.00     0.166 HD
ATOM     26  C   UNL A   1      29.065  27.467  23.465  1.00  0.00     0.027 A 
ATOM     27  C   UNL A   1      31.039  28.575  22.614  1.00  0.00     0.021 A 
ATOM     28  Cl  UNL A   1      33.548  27.888  23.300  1.00  0.00    -0.084 Cl
ATOM     29  C   UNL A   1      29.658  28.458  22.681  1.00  0.00     0.004 A 
ENDBRANCH  18  19
ENDBRANCH   8  18
ENDBRANCH   6   8
ENDBRANCH   5   6
ENDBRANCH   4   5
ENDBRANCH   3   4
ENDBRANCH   2   3
ENDBRANCH   1   2
BRANCH   1  30
ATOM     30  C   UNL A   1      39.796  20.243  26.147  1.00  0.00     0.188 C 
BRANCH  30  31
ATOM     31  O   UNL A   1      40.565  20.017  27.310  1.00  0.00    -0.376 OA
BRANCH  31  32
ATOM     32  C   UNL A   1      41.979  20.086  27.291  1.00  0.00     0.202 C 
BRANCH  32  33
ATOM     33  C   UNL A   1      42.727  20.710  26.107  1.00  0.00     0.261 C 
BRANCH  33  34
ATOM     34  O   UNL A   1      44.046  20.235  25.912  1.00  0.00    -0.460 OA
BRANCH  34  35
ATOM     35  C   UNL A   1      44.509  20.507  24.682  1.00  0.00     0.338 C 
ATOM     36  O   UNL A   1      44.492  19.779  23.699  1.00  0.00    -0.246 OA
BRANCH  35  37
ATOM     37  C   UNL A   1      45.030  21.867  24.661  1.00  0.00     0.060 A 
ATOM     38  C   UNL A   1      45.971  22.163  25.647  1.00  0.00     0.016 A 
ATOM     39  C   UNL A   1      44.232  22.832  24.040  1.00  0.00     0.016 A 
ATOM     40  C   UNL A   1      45.869  23.381  26.258  1.00  0.00     0.010 A 
ATOM     41  C   UNL A   1      44.116  24.044  24.667  1.00  0.00     0.010 A 
ATOM     42  C   UNL A   1      44.849  24.243  25.836  1.00  0.00    -0.014 A 
BRANCH  42  43
ATOM     43  C   UNL A   1      44.587  25.388  26.671  1.00  0.00     0.031 A 
ATOM     44  C   UNL A   1      45.625  26.424  26.541  1.00  0.00     0.074 A 
ATOM     45  C   UNL A   1      43.492  25.466  27.450  1.00  0.00     0.049 A 
ATOM     46  N   UNL A   1      46.443  26.839  27.447  1.00  0.00    -0.248 NA
ATOM     47  C   UNL A   1      45.904  26.929  25.187  1.00  0.00     0.031 C 
ATOM     48  C   UNL A   1      42.317  24.591  27.464  1.00  0.00     0.029 A 
ATOM     49  N   UNL A   1      43.166  26.430  28.349  1.00  0.00    -0.354 N 
ATOM     50  C   UNL A   1      47.223  27.802  26.821  1.00  0.00     0.074 A 
ATOM     51  C   UNL A   1      46.972  27.691  25.409  1.00  0.00     0.031 C 
ATOM     52  C   UNL A   1      41.321  25.198  28.152  1.00  0.00     0.029 A 
ATOM     53  C   UNL A   1      41.831  26.431  28.727  1.00  0.00     0.049 A 
ATOM     54  H   UNL A   1      43.822  27.074  28.703  1.00  0.00     0.167 HD
ATOM     55  C   UNL A   1      47.797  28.796  27.544  1.00  0.00     0.037 A 
ATOM     56  C   UNL A   1      41.198  27.427  29.394  1.00  0.00     0.037 A 
ATOM     57  C   UNL A   1      47.943  28.421  28.926  1.00  0.00     0.049 A 
ATOM     58  C   UNL A   1      42.244  28.259  30.042  1.00  0.00     0.074 A 
ATOM     59  C   UNL A   1      48.627  27.421  29.590  1.00  0.00     0.029 A 
ATOM     60  N   UNL A   1      47.029  28.912  29.825  1.00  0.00    -0.354 N 
ATOM     61  N   UNL A   1      42.976  27.859  31.044  1.00  0.00    -0.248 NA
ATOM     62  C   UNL A   1      42.780  29.385  29.289  1.00  0.00     0.031 C 
ATOM     63  C   UNL A   1      47.795  27.062  30.688  1.00  0.00     0.029 A 
ATOM     64  C   UNL A   1      46.671  27.889  30.662  1.00  0.00     0.049 A 
ATOM     65  H   UNL A   1      46.691  29.836  29.862  1.00  0.00     0.167 HD
ATOM     66  C   UNL A   1      44.235  28.385  30.794  1.00  0.00     0.074 A 
ATOM     67  C   UNL A   1      44.030  29.394  29.760  1.00  0.00     0.031 C 
ATOM     68  C   UNL A   1      45.356  27.751  31.241  1.00  0.00     0.037 A 
BRANCH  55  69
ATOM     69  C   UNL A   1      47.823  30.229  27.078  1.00  0.00     0.064 A 
ATOM     70  C   UNL A   1      49.031  30.945  27.161  1.00  0.00     0.173 A 
ATOM     71  C   UNL A   1      46.665  31.008  26.853  1.00  0.00     0.173 A 
ATOM     72  F   UNL A   1      50.188  30.308  27.395  1.00  0.00    -0.203 F 
ATOM     73  C   UNL A   1      49.062  32.341  27.110  1.00  0.00     0.198 A 
ATOM     74  C   UNL A   1      46.709  32.394  26.745  1.00  0.00     0.198 A 
ATOM     75  F   UNL A   1      45.434  30.485  26.846  1.00  0.00    -0.203 F 
ATOM     76  F   UNL A   1      50.215  32.986  27.332  1.00  0.00    -0.200 F 
ATOM     77  C   UNL A   1      47.901  33.064  26.909  1.00  0.00     0.200 A 
ATOM     78  F   UNL A   1      45.568  33.076  26.571  1.00  0.00    -0.200 F 
ATOM     79  F   UNL A   1      47.920  34.403  26.925  1.00  0.00    -0.200 F 
ENDBRANCH  55  69
BRANCH  56  80
ATOM     80  C   UNL A   1      39.798  27.894  29.255  1.00  0.00     0.064 A 
ATOM     81  C   UNL A   1      38.955  27.980  30.377  1.00  0.00     0.173 A 
ATOM     82  C   UNL A   1      39.348  28.535  28.085  1.00  0.00     0.173 A 
ATOM     83  F   UNL A   1      39.327  27.435  31.544  1.00  0.00    -0.203 F 
ATOM     84  C   UNL A   1      37.750  28.691  30.337  1.00  0.00     0.198 A 
ATOM     85  C   UNL A   1      38.142  29.237  28.044  1.00  0.00     0.198 A 
ATOM     86  F   UNL A   1      40.114  28.580  26.985  1.00  0.00    -0.203 F 
ATOM     87  F   UNL A   1      37.007  28.807  31.446  1.00  0.00    -0.200 F 
ATOM     88  C   UNL A   1      37.351  29.327  29.174  1.00  0.00     0.200 A 
ATOM     89  F   UNL A   1      37.785  29.880  26.924  1.00  0.00    -0.200 F 
ATOM     90  F   UNL A   1      36.230  30.062  29.154  1.00  0.00    -0.200 F 
ENDBRANCH  56  80
BRANCH  68  91
ATOM     91  C   UNL A   1      45.182  26.645  32.242  1.00  0.00     0.064 A 
ATOM     92  C   UNL A   1      44.913  25.309  31.894  1.00  0.00     0.173 A 
ATOM     93  C   UNL A   1      45.473  26.919  33.585  1.00  0.00     0.173 A 
ATOM     94  F   UNL A   1      44.713  24.956  30.618  1.00  0.00    -0.203 F 
ATOM     95  C   UNL A   1      44.914  24.301  32.857  1.00  0.00     0.198 A 
ATOM     96  C   UNL A   1      45.509  25.905  34.537  1.00  0.00     0.198 A 
ATOM     97  F   UNL A   1      45.786  28.169  33.962  1.00  0.00    -0.203 F 
ATOM     98  F   UNL A   1      44.655  23.033  32.504  1.00  0.00    -0.200 F 
ATOM     99  C   UNL A   1      45.224  24.598  34.174  1.00  0.00     0.200 A 
ATOM    100  F   UNL A   1      45.857  26.190  35.798  1.00  0.00    -0.200 F 
ATOM    101  F   UNL A   1      45.279  23.621  35.090  1.00  0.00    -0.200 F 
ENDBRANCH  68  91
ENDBRANCH  42  43
ENDBRANCH  35  37
ENDBRANCH  34  35
ENDBRANCH  33  34
ENDBRANCH  32  33
ENDBRANCH  31  32
ENDBRANCH  30  31
ENDBRANCH   1  30
TORSDOF 22
ENDMDL
