MODEL 1
REMARK VINA RESULT:     -13.4      0.000      0.000
REMARK SMILES Cc1ccc(Nc2c(Cl)cc(Cl)cc2Cl)c(CC(=O)OCCOCCOCCOC(=O)c2ccc(-c3c4nc(c(-c5c(F)c(F)c(F)c(F)c5F)c5ccc([nH]5)c(-c5c(F)c(F)c(F)c(F)c5F)c5nc(c(-c6c(F)c(F)c(F)c(F)c6F)c6ccc3[nH]6)C=C5)C=C4)cc2)c1
REMARK SMILES IDX 24 1 23 2 22 3 21 4 20 5 18 6 19 7 17 8 16 9 1 10 2 11 3 12
REMARK SMILES IDX 95 13 4 14 5 15 6 16 7 18 8 19 14 20 9 21 10 22 13 23 15 24
REMARK SMILES IDX 11 25 12 26 25 27 26 28 27 29 28 30 29 31 30 32 31 33 32 34
REMARK SMILES IDX 33 35 94 36 34 37 93 38 35 39 36 40 37 41 87 42 38 43 92 44
REMARK SMILES IDX 86 45 88 46 39 47 91 48 85 49 84 50 40 52 72 53 52 54 71 55
REMARK SMILES IDX 53 56 56 57 70 58 89 59 54 60 55 61 69 63 90 64 57 65 41 66
REMARK SMILES IDX 42 67 50 68 43 69 44 70 48 71 51 72 45 73 46 74 49 75 47 76
REMARK SMILES IDX 73 77 74 78 82 79 75 80 76 81 80 82 83 83 77 84 78 85 81 86
REMARK SMILES IDX 79 87 58 88 59 89 67 90 60 91 61 92 65 93 68 94 62 95 63 96
REMARK SMILES IDX 66 97 64 98
REMARK H PARENT 6 17 88 51 56 62
REMARK Flexibility Score: inf
ROOT
ATOM      1  C   UNL A   1      41.109  19.562  25.750  1.00  0.00     0.188 C 
ENDROOT
BRANCH   1   2
ATOM      2  O   UNL A   1      39.764  19.159  25.734  1.00  0.00    -0.376 OA
BRANCH   2   3
ATOM      3  C   UNL A   1      38.742  20.053  25.355  1.00  0.00     0.202 C 
BRANCH   3   4
ATOM      4  C   UNL A   1      38.433  21.621  25.671  1.00  0.00     0.261 C 
BRANCH   4   5
ATOM      5  O   UNL A   1      37.006  22.744  25.871  1.00  0.00    -0.463 OA
BRANCH   5   6
ATOM      6  C   UNL A   1      35.376  22.839  26.166  1.00  0.00     0.310 C 
ATOM      7  O   UNL A   1      34.522  23.730  26.037  1.00  0.00    -0.252 OA
BRANCH   6   8
ATOM      8  C   UNL A   1      34.763  21.564  26.323  1.00  0.00     0.160 C 
BRANCH   8   9
ATOM      9  C   UNL A   1      34.395  21.244  24.925  1.00  0.00    -0.013 A 
ATOM     10  C   UNL A   1      35.088  17.469  24.563  1.00  0.00     0.044 C 
ATOM     11  C   UNL A   1      34.386  18.786  24.513  1.00  0.00    -0.051 A 
ATOM     12  C   UNL A   1      33.035  18.913  24.330  1.00  0.00     0.005 A 
ATOM     13  C   UNL A   1      35.066  19.950  24.775  1.00  0.00     0.009 A 
ATOM     14  C   UNL A   1      32.431  20.199  24.373  1.00  0.00     0.026 A 
ATOM     15  C   UNL A   1      33.122  21.650  24.464  1.00  0.00     0.042 A 
BRANCH  15  16
ATOM     16  N   UNL A   1      32.303  23.341  23.674  1.00  0.00    -0.353 N 
ATOM     17  H   UNL A   1      32.061  23.252  22.723  1.00  0.00     0.167 HD
BRANCH  16  18
ATOM     18  C   UNL A   1      31.922  24.997  24.372  1.00  0.00     0.076 A 
ATOM     19  C   UNL A   1      32.509  26.375  23.911  1.00  0.00     0.067 A 
ATOM     20  C   UNL A   1      31.386  25.077  25.684  1.00  0.00     0.067 A 
ATOM     21  Cl  UNL A   1      33.297  26.988  22.421  1.00  0.00    -0.082 Cl
ATOM     22  C   UNL A   1      32.605  27.495  24.769  1.00  0.00     0.043 A 
ATOM     23  C   UNL A   1      31.549  26.252  26.495  1.00  0.00     0.043 A 
ATOM     24  Cl  UNL A   1      30.378  23.953  26.451  1.00  0.00    -0.082 Cl
ATOM     25  C   UNL A   1      32.191  27.405  26.066  1.00  0.00     0.044 A 
ATOM     26  Cl  UNL A   1      32.539  28.701  27.143  1.00  0.00    -0.084 Cl
ENDBRANCH  16  18
ENDBRANCH  15  16
ENDBRANCH   8   9
ENDBRANCH   6   8
ENDBRANCH   5   6
ENDBRANCH   4   5
ENDBRANCH   3   4
ENDBRANCH   2   3
ENDBRANCH   1   2
BRANCH   1  27
ATOM     27  C   UNL A   1      42.182  18.634  26.290  1.00  0.00     0.188 C 
BRANCH  27  28
ATOM     28  O   UNL A   1      43.078  18.169  25.310  1.00  0.00    -0.376 OA
BRANCH  28  29
ATOM     29  C   UNL A   1      44.393  18.700  25.402  1.00  0.00     0.202 C 
BRANCH  29  30
ATOM     30  C   UNL A   1      44.792  19.929  24.487  1.00  0.00     0.261 C 
BRANCH  30  31
ATOM     31  O   UNL A   1      44.918  21.238  25.177  1.00  0.00    -0.460 OA
BRANCH  31  32
ATOM     32  C   UNL A   1      43.875  22.187  25.282  1.00  0.00     0.338 C 
ATOM     33  O   UNL A   1      43.662  22.893  24.315  1.00  0.00    -0.246 OA
BRANCH  32  34
ATOM     34  C   UNL A   1      43.116  22.203  26.830  1.00  0.00     0.060 A 
ATOM     35  C   UNL A   1      41.355  22.577  27.644  1.00  0.00     0.016 A 
ATOM     36  C   UNL A   1      44.343  23.470  27.213  1.00  0.00     0.016 A 
ATOM     37  C   UNL A   1      41.079  24.273  28.458  1.00  0.00     0.010 A 
ATOM     38  C   UNL A   1      43.915  25.008  27.894  1.00  0.00     0.010 A 
ATOM     39  C   UNL A   1      42.359  25.581  28.554  1.00  0.00    -0.014 A 
BRANCH  39  40
ATOM     40  C   UNL A   1      42.544  27.241  29.464  1.00  0.00     0.031 A 
ATOM     41  C   UNL A   1      41.202  28.607  29.688  1.00  0.00     0.074 A 
ATOM     42  C   UNL A   1      43.561  27.502  30.318  1.00  0.00     0.049 A 
ATOM     43  N   UNL A   1      41.184  29.833  29.187  1.00  0.00    -0.248 NA
ATOM     44  C   UNL A   1      39.560  28.405  30.008  1.00  0.00     0.031 C 
ATOM     45  C   UNL A   1      43.598  28.530  31.378  1.00  0.00     0.029 A 
ATOM     46  N   UNL A   1      44.763  26.823  30.528  1.00  0.00    -0.354 N 
ATOM     47  C   UNL A   1      39.848  30.353  29.311  1.00  0.00     0.074 A 
ATOM     48  C   UNL A   1      38.944  29.283  29.249  1.00  0.00     0.031 C 
ATOM     49  C   UNL A   1      44.858  28.640  31.847  1.00  0.00     0.029 A 
ATOM     50  C   UNL A   1      45.678  27.779  31.013  1.00  0.00     0.049 A 
ATOM     51  H   UNL A   1      44.936  25.867  30.368  1.00  0.00     0.167 HD
ATOM     52  C   UNL A   1      39.537  31.431  30.101  1.00  0.00     0.037 A 
ATOM     53  C   UNL A   1      46.653  28.172  30.152  1.00  0.00     0.037 A 
ATOM     54  C   UNL A   1      40.777  31.842  30.709  1.00  0.00     0.049 A 
ATOM     55  C   UNL A   1      46.338  29.580  29.696  1.00  0.00     0.074 A 
ATOM     56  C   UNL A   1      41.367  31.600  31.937  1.00  0.00     0.029 A 
ATOM     57  N   UNL A   1      41.801  32.113  29.828  1.00  0.00    -0.354 N 
ATOM     58  N   UNL A   1      45.134  30.101  29.686  1.00  0.00    -0.248 NA
ATOM     59  C   UNL A   1      47.374  30.565  29.419  1.00  0.00     0.031 C 
ATOM     60  C   UNL A   1      42.782  31.721  31.752  1.00  0.00     0.029 A 
ATOM     61  C   UNL A   1      43.034  32.005  30.418  1.00  0.00     0.049 A 
ATOM     62  H   UNL A   1      41.663  32.354  28.884  1.00  0.00     0.167 HD
ATOM     63  C   UNL A   1      45.224  31.451  29.517  1.00  0.00     0.074 A 
ATOM     64  C   UNL A   1      46.643  31.688  29.331  1.00  0.00     0.031 C 
ATOM     65  C   UNL A   1      44.179  32.327  29.585  1.00  0.00     0.037 A 
BRANCH  52  66
ATOM     66  C   UNL A   1      38.123  31.824  30.582  1.00  0.00     0.064 A 
ATOM     67  C   UNL A   1      37.259  32.530  29.720  1.00  0.00     0.173 A 
ATOM     68  C   UNL A   1      37.537  31.509  31.840  1.00  0.00     0.173 A 
ATOM     69  F   UNL A   1      37.644  32.864  28.482  1.00  0.00    -0.203 F 
ATOM     70  C   UNL A   1      35.957  32.908  30.081  1.00  0.00     0.198 A 
ATOM     71  C   UNL A   1      36.257  31.947  32.226  1.00  0.00     0.198 A 
ATOM     72  F   UNL A   1      38.149  30.717  32.731  1.00  0.00    -0.203 F 
ATOM     73  F   UNL A   1      35.180  33.538  29.189  1.00  0.00    -0.200 F 
ATOM     74  C   UNL A   1      35.459  32.632  31.337  1.00  0.00     0.200 A 
ATOM     75  F   UNL A   1      35.797  31.675  33.458  1.00  0.00    -0.200 F 
ATOM     76  F   UNL A   1      34.214  32.994  31.677  1.00  0.00    -0.200 F 
ENDBRANCH  52  66
BRANCH  53  77
ATOM     77  C   UNL A   1      47.139  26.972  29.389  1.00  0.00     0.064 A 
ATOM     78  C   UNL A   1      46.829  26.936  28.001  1.00  0.00     0.173 A 
ATOM     79  C   UNL A   1      48.234  26.199  29.806  1.00  0.00     0.173 A 
ATOM     80  F   UNL A   1      45.870  27.739  27.507  1.00  0.00    -0.203 F 
ATOM     81  C   UNL A   1      47.591  26.206  27.089  1.00  0.00     0.198 A 
ATOM     82  C   UNL A   1      48.991  25.462  28.885  1.00  0.00     0.198 A 
ATOM     83  F   UNL A   1      48.653  26.251  31.077  1.00  0.00    -0.203 F 
ATOM     84  F   UNL A   1      47.364  26.331  25.771  1.00  0.00    -0.200 F 
ATOM     85  C   UNL A   1      48.656  25.447  27.539  1.00  0.00     0.200 A 
ATOM     86  F   UNL A   1      50.105  24.828  29.280  1.00  0.00    -0.200 F 
ATOM     87  F   UNL A   1      49.404  24.751  26.668  1.00  0.00    -0.200 F 
ENDBRANCH  53  77
BRANCH  65  88
ATOM     88  C   UNL A   1      44.144  33.624  28.798  1.00  0.00     0.064 A 
ATOM     89  C   UNL A   1      44.045  33.659  27.400  1.00  0.00     0.173 A 
ATOM     90  C   UNL A   1      44.020  34.886  29.439  1.00  0.00     0.173 A 
ATOM     91  F   UNL A   1      43.940  32.544  26.667  1.00  0.00    -0.203 F 
ATOM     92  C   UNL A   1      43.997  34.859  26.697  1.00  0.00     0.198 A 
ATOM     93  C   UNL A   1      43.818  36.066  28.736  1.00  0.00     0.198 A 
ATOM     94  F   UNL A   1      44.061  35.033  30.772  1.00  0.00    -0.203 F 
ATOM     95  F   UNL A   1      44.058  34.836  25.360  1.00  0.00    -0.200 F 
ATOM     96  C   UNL A   1      43.867  36.061  27.363  1.00  0.00     0.200 A 
ATOM     97  F   UNL A   1      43.576  37.203  29.404  1.00  0.00    -0.200 F 
ATOM     98  F   UNL A   1      43.779  37.208  26.682  1.00  0.00    -0.200 F 
ENDBRANCH  65  88
ENDBRANCH  39  40
ENDBRANCH  32  34
ENDBRANCH  31  32
ENDBRANCH  30  31
ENDBRANCH  29  30
ENDBRANCH  28  29
ENDBRANCH  27  28
ENDBRANCH   1  27
TORSDOF 20
ENDMDL
MODEL 2
REMARK VINA RESULT:     -12.5      5.374     10.539
REMARK SMILES Cc1ccc(Nc2c(Cl)cc(Cl)cc2Cl)c(CC(=O)OCCOCCOCCOC(=O)c2ccc(-c3c4nc(c(-c5c(F)c(F)c(F)c(F)c5F)c5ccc([nH]5)c(-c5c(F)c(F)c(F)c(F)c5F)c5nc(c(-c6c(F)c(F)c(F)c(F)c6F)c6ccc3[nH]6)C=C5)C=C4)cc2)c1
REMARK SMILES IDX 24 1 23 2 22 3 21 4 20 5 18 6 19 7 17 8 16 9 1 10 2 11 3 12
REMARK SMILES IDX 95 13 4 14 5 15 6 16 7 18 8 19 14 20 9 21 10 22 13 23 15 24
REMARK SMILES IDX 11 25 12 26 25 27 26 28 27 29 28 30 29 31 30 32 31 33 32 34
REMARK SMILES IDX 33 35 94 36 34 37 93 38 35 39 36 40 37 41 87 42 38 43 92 44
REMARK SMILES IDX 86 45 88 46 39 47 91 48 85 49 84 50 40 52 72 53 52 54 71 55
REMARK SMILES IDX 53 56 56 57 70 58 89 59 54 60 55 61 69 63 90 64 57 65 41 66
REMARK SMILES IDX 42 67 50 68 43 69 44 70 48 71 51 72 45 73 46 74 49 75 47 76
REMARK SMILES IDX 73 77 74 78 82 79 75 80 76 81 80 82 83 83 77 84 78 85 81 86
REMARK SMILES IDX 79 87 58 88 59 89 67 90 60 91 61 92 65 93 68 94 62 95 63 96
REMARK SMILES IDX 66 97 64 98
REMARK H PARENT 6 17 88 51 56 62
REMARK Flexibility Score: inf
ROOT
ATOM      1  C   UNL A   1      36.313  31.934  29.097  1.00  0.00     0.188 C 
ENDROOT
BRANCH   1   2
ATOM      2  O   UNL A   1      36.173  31.070  27.999  1.00  0.00    -0.376 OA
BRANCH   2   3
ATOM      3  C   UNL A   1      35.018  30.274  27.844  1.00  0.00     0.202 C 
BRANCH   3   4
ATOM      4  C   UNL A   1      33.650  30.420  26.973  1.00  0.00     0.261 C 
BRANCH   4   5
ATOM      5  O   UNL A   1      32.918  29.801  25.418  1.00  0.00    -0.463 OA
BRANCH   5   6
ATOM      6  C   UNL A   1      33.170  28.870  24.068  1.00  0.00     0.310 C 
ATOM      7  O   UNL A   1      34.028  28.036  23.739  1.00  0.00    -0.252 OA
BRANCH   6   8
ATOM      8  C   UNL A   1      32.024  28.782  23.230  1.00  0.00     0.160 C 
BRANCH   8   9
ATOM      9  C   UNL A   1      30.976  28.413  24.209  1.00  0.00    -0.013 A 
ATOM     10  C   UNL A   1      27.694  29.740  22.684  1.00  0.00     0.044 C 
ATOM     11  C   UNL A   1      28.688  28.816  23.306  1.00  0.00    -0.051 A 
ATOM     12  C   UNL A   1      28.528  27.458  23.351  1.00  0.00     0.005 A 
ATOM     13  C   UNL A   1      29.892  29.293  23.764  1.00  0.00     0.009 A 
ATOM     14  C   UNL A   1      29.558  26.640  23.892  1.00  0.00     0.026 A 
ATOM     15  C   UNL A   1      30.916  27.069  24.643  1.00  0.00     0.042 A 
BRANCH  15  16
ATOM     16  N   UNL A   1      31.823  25.932  26.070  1.00  0.00    -0.353 N 
ATOM     17  H   UNL A   1      31.968  26.410  26.919  1.00  0.00     0.167 HD
BRANCH  16  18
ATOM     18  C   UNL A   1      32.425  24.196  26.099  1.00  0.00     0.076 A 
ATOM     19  C   UNL A   1      33.827  23.674  25.633  1.00  0.00     0.067 A 
ATOM     20  C   UNL A   1      31.471  23.144  26.144  1.00  0.00     0.067 A 
ATOM     21  Cl  UNL A   1      35.439  24.415  25.377  1.00  0.00    -0.082 Cl
ATOM     22  C   UNL A   1      34.045  22.350  25.188  1.00  0.00     0.043 A 
ATOM     23  C   UNL A   1      31.774  21.831  25.649  1.00  0.00     0.043 A 
ATOM     24  Cl  UNL A   1      29.948  23.172  26.884  1.00  0.00    -0.082 Cl
ATOM     25  C   UNL A   1      33.009  21.463  25.134  1.00  0.00     0.044 A 
ATOM     26  Cl  UNL A   1      33.255  19.942  24.368  1.00  0.00    -0.084 Cl
ENDBRANCH  16  18
ENDBRANCH  15  16
ENDBRANCH   8   9
ENDBRANCH   6   8
ENDBRANCH   5   6
ENDBRANCH   4   5
ENDBRANCH   3   4
ENDBRANCH   2   3
ENDBRANCH   1   2
BRANCH   1  27
ATOM     27  C   UNL A   1      35.889  31.486  30.484  1.00  0.00     0.188 C 
BRANCH  27  28
ATOM     28  O   UNL A   1      34.947  32.336  31.093  1.00  0.00    -0.376 OA
BRANCH  28  29
ATOM     29  C   UNL A   1      35.163  32.575  32.477  1.00  0.00     0.202 C 
BRANCH  29  30
ATOM     30  C   UNL A   1      36.440  31.949  33.175  1.00  0.00     0.261 C 
BRANCH  30  31
ATOM     31  O   UNL A   1      36.660  32.335  34.591  1.00  0.00    -0.460 OA
BRANCH  31  32
ATOM     32  C   UNL A   1      37.257  33.549  35.002  1.00  0.00     0.338 C 
ATOM     33  O   UNL A   1      36.600  34.566  34.877  1.00  0.00    -0.246 OA
BRANCH  32  34
ATOM     34  C   UNL A   1      38.875  33.362  35.568  1.00  0.00     0.060 A 
ATOM     35  C   UNL A   1      40.165  34.249  36.773  1.00  0.00     0.016 A 
ATOM     36  C   UNL A   1      39.308  33.548  33.826  1.00  0.00     0.016 A 
ATOM     37  C   UNL A   1      41.489  35.376  36.005  1.00  0.00     0.010 A 
ATOM     38  C   UNL A   1      40.500  34.684  33.276  1.00  0.00     0.010 A 
ATOM     39  C   UNL A   1      41.658  35.676  34.204  1.00  0.00    -0.014 A 
BRANCH  39  40
ATOM     40  C   UNL A   1      42.948  36.499  33.076  1.00  0.00     0.031 A 
ATOM     41  C   UNL A   1      43.486  38.351  33.073  1.00  0.00     0.074 A 
ATOM     42  C   UNL A   1      43.850  35.794  32.354  1.00  0.00     0.049 A 
ATOM     43  N   UNL A   1      43.300  39.261  32.128  1.00  0.00    -0.248 NA
ATOM     44  C   UNL A   1      43.729  39.363  34.398  1.00  0.00     0.031 C 
ATOM     45  C   UNL A   1      45.130  36.282  31.800  1.00  0.00     0.029 A 
ATOM     46  N   UNL A   1      43.900  34.433  32.049  1.00  0.00    -0.354 N 
ATOM     47  C   UNL A   1      43.534  40.561  32.699  1.00  0.00     0.074 A 
ATOM     48  C   UNL A   1      43.203  40.517  34.060  1.00  0.00     0.031 C 
ATOM     49  C   UNL A   1      45.625  35.362  30.947  1.00  0.00     0.029 A 
ATOM     50  C   UNL A   1      44.614  34.325  30.838  1.00  0.00     0.049 A 
ATOM     51  H   UNL A   1      43.513  33.697  32.575  1.00  0.00     0.167 HD
ATOM     52  C   UNL A   1      44.560  41.378  32.297  1.00  0.00     0.037 A 
ATOM     53  C   UNL A   1      43.884  34.013  29.734  1.00  0.00     0.037 A 
ATOM     54  C   UNL A   1      45.263  40.650  31.271  1.00  0.00     0.049 A 
ATOM     55  C   UNL A   1      43.784  35.253  28.872  1.00  0.00     0.074 A 
ATOM     56  C   UNL A   1      46.400  39.863  31.265  1.00  0.00     0.029 A 
ATOM     57  N   UNL A   1      44.485  40.225  30.216  1.00  0.00    -0.354 N 
ATOM     58  N   UNL A   1      43.889  36.479  29.327  1.00  0.00    -0.248 NA
ATOM     59  C   UNL A   1      43.767  35.198  27.417  1.00  0.00     0.031 C 
ATOM     60  C   UNL A   1      46.265  38.940  30.177  1.00  0.00     0.029 A 
ATOM     61  C   UNL A   1      45.043  39.160  29.557  1.00  0.00     0.049 A 
ATOM     62  H   UNL A   1      43.627  40.638  29.965  1.00  0.00     0.167 HD
ATOM     63  C   UNL A   1      44.056  37.339  28.283  1.00  0.00     0.074 A 
ATOM     64  C   UNL A   1      43.949  36.492  27.109  1.00  0.00     0.031 C 
ATOM     65  C   UNL A   1      44.326  38.673  28.393  1.00  0.00     0.037 A 
BRANCH  52  66
ATOM     66  C   UNL A   1      45.108  42.593  33.077  1.00  0.00     0.064 A 
ATOM     67  C   UNL A   1      44.432  43.829  33.017  1.00  0.00     0.173 A 
ATOM     68  C   UNL A   1      46.249  42.611  33.928  1.00  0.00     0.173 A 
ATOM     69  F   UNL A   1      43.314  43.967  32.294  1.00  0.00    -0.203 F 
ATOM     70  C   UNL A   1      44.861  44.972  33.709  1.00  0.00     0.198 A 
ATOM     71  C   UNL A   1      46.716  43.774  34.566  1.00  0.00     0.198 A 
ATOM     72  F   UNL A   1      46.930  41.496  34.226  1.00  0.00    -0.203 F 
ATOM     73  F   UNL A   1      44.139  46.099  33.636  1.00  0.00    -0.200 F 
ATOM     74  C   UNL A   1      46.010  44.952  34.471  1.00  0.00     0.200 A 
ATOM     75  F   UNL A   1      47.843  43.732  35.296  1.00  0.00    -0.200 F 
ATOM     76  F   UNL A   1      46.415  46.045  35.131  1.00  0.00    -0.200 F 
ENDBRANCH  52  66
BRANCH  53  77
ATOM     77  C   UNL A   1      42.856  32.983  30.106  1.00  0.00     0.064 A 
ATOM     78  C   UNL A   1      41.510  33.434  30.192  1.00  0.00     0.173 A 
ATOM     79  C   UNL A   1      43.044  31.609  29.886  1.00  0.00     0.173 A 
ATOM     80  F   UNL A   1      41.248  34.749  30.283  1.00  0.00    -0.203 F 
ATOM     81  C   UNL A   1      40.427  32.571  30.027  1.00  0.00     0.198 A 
ATOM     82  C   UNL A   1      41.950  30.747  29.730  1.00  0.00     0.198 A 
ATOM     83  F   UNL A   1      44.275  31.116  29.698  1.00  0.00    -0.203 F 
ATOM     84  F   UNL A   1      39.180  33.064  29.952  1.00  0.00    -0.200 F 
ATOM     85  C   UNL A   1      40.650  31.222  29.824  1.00  0.00     0.200 A 
ATOM     86  F   UNL A   1      42.146  29.461  29.399  1.00  0.00    -0.200 F 
ATOM     87  F   UNL A   1      39.614  30.385  29.652  1.00  0.00    -0.200 F 
ENDBRANCH  53  77
BRANCH  65  88
ATOM     88  C   UNL A   1      43.880  39.688  27.357  1.00  0.00     0.064 A 
ATOM     89  C   UNL A   1      44.761  40.259  26.428  1.00  0.00     0.173 A 
ATOM     90  C   UNL A   1      42.507  39.983  27.139  1.00  0.00     0.173 A 
ATOM     91  F   UNL A   1      46.054  39.919  26.373  1.00  0.00    -0.203 F 
ATOM     92  C   UNL A   1      44.329  41.175  25.473  1.00  0.00     0.198 A 
ATOM     93  C   UNL A   1      42.069  40.777  26.089  1.00  0.00     0.198 A 
ATOM     94  F   UNL A   1      41.526  39.495  27.915  1.00  0.00    -0.203 F 
ATOM     95  F   UNL A   1      45.235  41.804  24.714  1.00  0.00    -0.200 F 
ATOM     96  C   UNL A   1      42.983  41.423  25.293  1.00  0.00     0.200 A 
ATOM     97  F   UNL A   1      40.754  40.909  25.860  1.00  0.00    -0.200 F 
ATOM     98  F   UNL A   1      42.572  42.273  24.347  1.00  0.00    -0.200 F 
ENDBRANCH  65  88
ENDBRANCH  39  40
ENDBRANCH  32  34
ENDBRANCH  31  32
ENDBRANCH  30  31
ENDBRANCH  29  30
ENDBRANCH  28  29
ENDBRANCH  27  28
ENDBRANCH   1  27
TORSDOF 20
ENDMDL
MODEL 3
REMARK VINA RESULT:     -12.5      2.184      3.506
REMARK SMILES Cc1ccc(Nc2c(Cl)cc(Cl)cc2Cl)c(CC(=O)OCCOCCOCCOC(=O)c2ccc(-c3c4nc(c(-c5c(F)c(F)c(F)c(F)c5F)c5ccc([nH]5)c(-c5c(F)c(F)c(F)c(F)c5F)c5nc(c(-c6c(F)c(F)c(F)c(F)c6F)c6ccc3[nH]6)C=C5)C=C4)cc2)c1
REMARK SMILES IDX 24 1 23 2 22 3 21 4 20 5 18 6 19 7 17 8 16 9 1 10 2 11 3 12
REMARK SMILES IDX 95 13 4 14 5 15 6 16 7 18 8 19 14 20 9 21 10 22 13 23 15 24
REMARK SMILES IDX 11 25 12 26 25 27 26 28 27 29 28 30 29 31 30 32 31 33 32 34
REMARK SMILES IDX 33 35 94 36 34 37 93 38 35 39 36 40 37 41 87 42 38 43 92 44
REMARK SMILES IDX 86 45 88 46 39 47 91 48 85 49 84 50 40 52 72 53 52 54 71 55
REMARK SMILES IDX 53 56 56 57 70 58 89 59 54 60 55 61 69 63 90 64 57 65 41 66
REMARK SMILES IDX 42 67 50 68 43 69 44 70 48 71 51 72 45 73 46 74 49 75 47 76
REMARK SMILES IDX 73 77 74 78 82 79 75 80 76 81 80 82 83 83 77 84 78 85 81 86
REMARK SMILES IDX 79 87 58 88 59 89 67 90 60 91 61 92 65 93 68 94 62 95 63 96
REMARK SMILES IDX 66 97 64 98
REMARK H PARENT 6 17 88 51 56 62
REMARK Flexibility Score: inf
ROOT
ATOM      1  C   UNL A   1      38.824  22.641  25.907  1.00  0.00     0.188 C 
ENDROOT
BRANCH   1   2
ATOM      2  O   UNL A   1      37.436  22.460  25.799  1.00  0.00    -0.376 OA
BRANCH   2   3
ATOM      3  C   UNL A   1      36.850  22.046  24.585  1.00  0.00     0.202 C 
BRANCH   3   4
ATOM      4  C   UNL A   1      35.975  22.797  23.435  1.00  0.00     0.261 C 
BRANCH   4   5
ATOM      5  O   UNL A   1      34.319  22.709  22.668  1.00  0.00    -0.463 OA
BRANCH   5   6
ATOM      6  C   UNL A   1      32.718  22.352  22.917  1.00  0.00     0.310 C 
ATOM      7  O   UNL A   1      31.711  23.027  23.185  1.00  0.00    -0.252 OA
BRANCH   6   8
ATOM      8  C   UNL A   1      32.355  21.059  22.447  1.00  0.00     0.160 C 
BRANCH   8   9
ATOM      9  C   UNL A   1      32.204  20.319  23.722  1.00  0.00    -0.013 A 
ATOM     10  C   UNL A   1      33.999  16.959  23.127  1.00  0.00     0.044 C 
ATOM     11  C   UNL A   1      33.597  18.252  23.757  1.00  0.00    -0.051 A 
ATOM     12  C   UNL A   1      34.313  18.859  24.753  1.00  0.00     0.005 A 
ATOM     13  C   UNL A   1      32.528  18.964  23.268  1.00  0.00     0.009 A 
ATOM     14  C   UNL A   1      33.905  20.129  25.247  1.00  0.00     0.026 A 
ATOM     15  C   UNL A   1      32.575  20.975  24.918  1.00  0.00     0.042 A 
BRANCH  15  16
ATOM     16  N   UNL A   1      31.698  22.256  26.238  1.00  0.00    -0.353 N 
ATOM     17  H   UNL A   1      31.130  21.805  26.904  1.00  0.00     0.167 HD
BRANCH  16  18
ATOM     18  C   UNL A   1      31.751  24.082  26.441  1.00  0.00     0.076 A 
ATOM     19  C   UNL A   1      30.530  25.061  26.500  1.00  0.00     0.067 A 
ATOM     20  C   UNL A   1      32.950  24.769  26.115  1.00  0.00     0.067 A 
ATOM     21  Cl  UNL A   1      28.781  24.894  26.860  1.00  0.00    -0.082 Cl
ATOM     22  C   UNL A   1      30.618  26.423  26.133  1.00  0.00     0.043 A 
ATOM     23  C   UNL A   1      32.943  26.154  25.732  1.00  0.00     0.043 A 
ATOM     24  Cl  UNL A   1      34.536  24.192  26.256  1.00  0.00    -0.082 Cl
ATOM     25  C   UNL A   1      31.801  26.941  25.689  1.00  0.00     0.044 A 
ATOM     26  Cl  UNL A   1      31.819  28.529  25.027  1.00  0.00    -0.084 Cl
ENDBRANCH  16  18
ENDBRANCH  15  16
ENDBRANCH   8   9
ENDBRANCH   6   8
ENDBRANCH   5   6
ENDBRANCH   4   5
ENDBRANCH   3   4
ENDBRANCH   2   3
ENDBRANCH   1   2
BRANCH   1  27
ATOM     27  C   UNL A   1      39.679  21.610  26.621  1.00  0.00     0.188 C 
BRANCH  27  28
ATOM     28  O   UNL A   1      40.406  20.775  25.753  1.00  0.00    -0.376 OA
BRANCH  28  29
ATOM     29  C   UNL A   1      41.669  20.351  26.249  1.00  0.00     0.202 C 
BRANCH  29  30
ATOM     30  C   UNL A   1      42.912  21.324  26.118  1.00  0.00     0.261 C 
BRANCH  30  31
ATOM     31  O   UNL A   1      42.939  22.472  27.059  1.00  0.00    -0.460 OA
BRANCH  31  32
ATOM     32  C   UNL A   1      42.924  23.828  26.660  1.00  0.00     0.338 C 
ATOM     33  O   UNL A   1      43.883  24.239  26.035  1.00  0.00    -0.246 OA
BRANCH  32  34
ATOM     34  C   UNL A   1      41.530  24.687  27.202  1.00  0.00     0.060 A 
ATOM     35  C   UNL A   1      40.288  26.092  26.582  1.00  0.00     0.016 A 
ATOM     36  C   UNL A   1      42.622  25.256  28.522  1.00  0.00     0.016 A 
ATOM     37  C   UNL A   1      40.550  27.869  27.207  1.00  0.00     0.010 A 
ATOM     38  C   UNL A   1      42.805  26.935  28.923  1.00  0.00     0.010 A 
ATOM     39  C   UNL A   1      41.879  28.357  28.371  1.00  0.00    -0.014 A 
BRANCH  39  40
ATOM     40  C   UNL A   1      42.301  29.912  29.382  1.00  0.00     0.031 A 
ATOM     41  C   UNL A   1      41.070  31.076  30.303  1.00  0.00     0.074 A 
ATOM     42  C   UNL A   1      43.553  30.191  29.815  1.00  0.00     0.049 A 
ATOM     43  N   UNL A   1      40.778  32.341  30.038  1.00  0.00    -0.248 NA
ATOM     44  C   UNL A   1      39.701  30.647  31.188  1.00  0.00     0.031 C 
ATOM     45  C   UNL A   1      43.937  31.088  30.923  1.00  0.00     0.029 A 
ATOM     46  N   UNL A   1      44.780  29.639  29.447  1.00  0.00    -0.354 N 
ATOM     47  C   UNL A   1      39.568  32.682  30.738  1.00  0.00     0.074 A 
ATOM     48  C   UNL A   1      38.783  31.528  30.863  1.00  0.00     0.031 C 
ATOM     49  C   UNL A   1      45.270  31.291  30.890  1.00  0.00     0.029 A 
ATOM     50  C   UNL A   1      45.750  30.634  29.687  1.00  0.00     0.049 A 
ATOM     51  H   UNL A   1      44.937  28.735  29.091  1.00  0.00     0.167 HD
ATOM     52  C   UNL A   1      39.524  33.619  31.739  1.00  0.00     0.037 A 
ATOM     53  C   UNL A   1      46.281  31.235  28.590  1.00  0.00     0.037 A 
ATOM     54  C   UNL A   1      40.875  34.100  31.886  1.00  0.00     0.049 A 
ATOM     55  C   UNL A   1      45.724  32.639  28.507  1.00  0.00     0.074 A 
ATOM     56  C   UNL A   1      41.913  33.791  32.746  1.00  0.00     0.029 A 
ATOM     57  N   UNL A   1      41.451  34.589  30.733  1.00  0.00    -0.354 N 
ATOM     58  N   UNL A   1      44.581  33.012  29.034  1.00  0.00    -0.248 NA
ATOM     59  C   UNL A   1      46.503  33.764  28.009  1.00  0.00     0.031 C 
ATOM     60  C   UNL A   1      43.132  34.097  32.057  1.00  0.00     0.029 A 
ATOM     61  C   UNL A   1      42.821  34.560  30.787  1.00  0.00     0.049 A 
ATOM     62  H   UNL A   1      40.938  34.919  29.961  1.00  0.00     0.167 HD
ATOM     63  C   UNL A   1      44.512  34.374  29.049  1.00  0.00     0.074 A 
ATOM     64  C   UNL A   1      45.726  34.796  28.376  1.00  0.00     0.031 C 
ATOM     65  C   UNL A   1      43.524  35.107  29.641  1.00  0.00     0.037 A 
BRANCH  52  66
ATOM     66  C   UNL A   1      38.390  33.785  32.775  1.00  0.00     0.064 A 
ATOM     67  C   UNL A   1      37.130  34.266  32.365  1.00  0.00     0.173 A 
ATOM     68  C   UNL A   1      38.450  33.455  34.158  1.00  0.00     0.173 A 
ATOM     69  F   UNL A   1      36.897  34.580  31.085  1.00  0.00    -0.203 F 
ATOM     70  C   UNL A   1      36.049  34.430  33.245  1.00  0.00     0.198 A 
ATOM     71  C   UNL A   1      37.388  33.684  35.052  1.00  0.00     0.198 A 
ATOM     72  F   UNL A   1      39.515  32.847  34.699  1.00  0.00    -0.203 F 
ATOM     73  F   UNL A   1      34.868  34.851  32.770  1.00  0.00    -0.200 F 
ATOM     74  C   UNL A   1      36.179  34.155  34.590  1.00  0.00     0.200 A 
ATOM     75  F   UNL A   1      37.540  33.417  36.359  1.00  0.00    -0.200 F 
ATOM     76  F   UNL A   1      35.143  34.310  35.426  1.00  0.00    -0.200 F 
ENDBRANCH  52  66
BRANCH  53  77
ATOM     77  C   UNL A   1      46.505  30.196  27.527  1.00  0.00     0.064 A 
ATOM     78  C   UNL A   1      47.615  29.327  27.715  1.00  0.00     0.173 A 
ATOM     79  C   UNL A   1      45.477  29.728  26.694  1.00  0.00     0.173 A 
ATOM     80  F   UNL A   1      48.582  29.654  28.590  1.00  0.00    -0.203 F 
ATOM     81  C   UNL A   1      47.669  28.057  27.139  1.00  0.00     0.198 A 
ATOM     82  C   UNL A   1      45.542  28.454  26.113  1.00  0.00     0.198 A 
ATOM     83  F   UNL A   1      44.354  30.441  26.540  1.00  0.00    -0.203 F 
ATOM     84  F   UNL A   1      48.654  27.209  27.475  1.00  0.00    -0.200 F 
ATOM     85  C   UNL A   1      46.642  27.635  26.315  1.00  0.00     0.200 A 
ATOM     86  F   UNL A   1      44.497  27.974  25.420  1.00  0.00    -0.200 F 
ATOM     87  F   UNL A   1      46.679  26.410  25.766  1.00  0.00    -0.200 F 
ENDBRANCH  53  77
BRANCH  65  88
ATOM     88  C   UNL A   1      43.100  36.473  29.132  1.00  0.00     0.064 A 
ATOM     89  C   UNL A   1      43.554  37.669  29.705  1.00  0.00     0.173 A 
ATOM     90  C   UNL A   1      42.364  36.628  27.926  1.00  0.00     0.173 A 
ATOM     91  F   UNL A   1      44.424  37.684  30.722  1.00  0.00    -0.203 F 
ATOM     92  C   UNL A   1      43.168  38.912  29.213  1.00  0.00     0.198 A 
ATOM     93  C   UNL A   1      42.112  37.868  27.357  1.00  0.00     0.198 A 
ATOM     94  F   UNL A   1      41.880  35.588  27.230  1.00  0.00    -0.203 F 
ATOM     95  F   UNL A   1      43.507  40.016  29.889  1.00  0.00    -0.200 F 
ATOM     96  C   UNL A   1      42.462  39.013  28.032  1.00  0.00     0.200 A 
ATOM     97  F   UNL A   1      41.529  37.940  26.152  1.00  0.00    -0.200 F 
ATOM     98  F   UNL A   1      42.128  40.212  27.542  1.00  0.00    -0.200 F 
ENDBRANCH  65  88
ENDBRANCH  39  40
ENDBRANCH  32  34
ENDBRANCH  31  32
ENDBRANCH  30  31
ENDBRANCH  29  30
ENDBRANCH  28  29
ENDBRANCH  27  28
ENDBRANCH   1  27
TORSDOF 20
ENDMDL
