MODEL 1
REMARK VINA RESULT:      -9.4      0.000      0.000
REMARK SMILES C[C@H](Cc1ccco1)[NH2+]Cc1cc(C(=O)OCCOCCOCCOC(=O)c2ccc(-c3c4nc(c(-c5c(F)c(F)c(F)c(F)c5F)c5ccc([nH]5)c(-c5c(F)c(F)c(F)c(F)c5F)c5nc(c(-c6c(F)c(F)c(F)c(F)c6F)c6ccc3[nH]6)C=C5)C=C4)cc2)cs1
REMARK SMILES IDX 19 1 18 2 17 3 16 4 14 5 15 6 13 7 11 8 12 9 92 10 91 11
REMARK SMILES IDX 10 12 9 13 2 16 1 17 3 18 4 19 5 20 8 21 6 22 7 23 20 24
REMARK SMILES IDX 21 25 22 26 23 27 24 28 25 29 26 30 27 31 28 32 29 33 90 34
REMARK SMILES IDX 30 35 89 36 31 37 32 38 33 39 83 40 34 41 88 42 82 43 84 44
REMARK SMILES IDX 35 45 87 46 81 47 80 48 36 50 68 51 48 52 67 53 49 54 52 55
REMARK SMILES IDX 66 56 85 57 50 58 51 59 65 61 86 62 53 63 37 64 38 65 46 66
REMARK SMILES IDX 39 67 40 68 44 69 47 70 41 71 42 72 45 73 43 74 69 75 70 76
REMARK SMILES IDX 78 77 71 78 72 79 76 80 79 81 73 82 74 83 77 84 75 85 54 86
REMARK SMILES IDX 55 87 63 88 56 89 57 90 61 91 64 92 58 93 59 94 62 95 60 96
REMARK H PARENT 9 14 9 15 84 49 52 60
REMARK Flexibility Score: inf
ROOT
ATOM      1  O   UNL A   1      40.404  20.807  27.252  1.00  0.00    -0.376 OA
ENDROOT
BRANCH   1   2
ATOM      2  C   UNL A   1      40.489  19.756  26.295  1.00  0.00     0.202 C 
BRANCH   2   3
ATOM      3  C   UNL A   1      39.222  19.456  25.490  1.00  0.00     0.261 C 
BRANCH   3   4
ATOM      4  O   UNL A   1      38.364  20.605  25.398  1.00  0.00    -0.460 OA
BRANCH   4   5
ATOM      5  C   UNL A   1      37.082  20.340  25.019  1.00  0.00     0.339 C 
ATOM      6  O   UNL A   1      36.676  19.252  24.628  1.00  0.00    -0.246 OA
BRANCH   5   7
ATOM      7  C   UNL A   1      36.185  21.445  25.331  1.00  0.00     0.071 A 
ATOM      8  C   UNL A   1      34.366  22.678  26.177  1.00  0.00     0.060 A 
ATOM      9  C   UNL A   1      35.020  21.455  26.175  1.00  0.00     0.037 A 
ATOM     10  S   UNL A   1      35.110  23.760  25.075  1.00  0.00    -0.142 S 
ATOM     11  C   UNL A   1      36.371  22.679  24.739  1.00  0.00     0.081 A 
BRANCH   8  12
ATOM     12  C   UNL A   1      33.148  23.098  26.968  1.00  0.00     0.308 C 
BRANCH  12  13
ATOM     13  N   UNL A   1      32.603  24.368  26.499  1.00  0.00    -0.339 N 
ATOM     14  H   UNL A   1      32.965  25.098  27.114  1.00  0.00     0.346 HD
ATOM     15  H   UNL A   1      32.892  24.421  25.523  1.00  0.00     0.346 HD
BRANCH  13  16
ATOM     16  C   UNL A   1      31.139  24.525  26.452  1.00  0.00     0.187 C 
ATOM     17  C   UNL A   1      30.268  23.330  26.864  1.00  0.00     0.075 C 
BRANCH  16  18
ATOM     18  C   UNL A   1      30.686  25.065  25.068  1.00  0.00     0.140 C 
BRANCH  18  19
ATOM     19  C   UNL A   1      30.857  26.534  24.833  1.00  0.00     0.109 A 
ATOM     20  C   UNL A   1      30.314  27.468  23.972  1.00  0.00     0.046 A 
ATOM     21  O   UNL A   1      31.804  27.142  25.612  1.00  0.00    -0.469 OA
ATOM     22  C   UNL A   1      30.953  28.702  24.244  1.00  0.00     0.042 A 
ATOM     23  C   UNL A   1      31.857  28.448  25.245  1.00  0.00     0.195 A 
ENDBRANCH  18  19
ENDBRANCH  16  18
ENDBRANCH  13  16
ENDBRANCH  12  13
ENDBRANCH   8  12
ENDBRANCH   5   7
ENDBRANCH   4   5
ENDBRANCH   3   4
ENDBRANCH   2   3
ENDBRANCH   1   2
BRANCH   1  24
ATOM     24  C   UNL A   1      41.195  21.978  27.086  1.00  0.00     0.188 C 
BRANCH  24  25
ATOM     25  C   UNL A   1      42.101  22.125  25.847  1.00  0.00     0.188 C 
BRANCH  25  26
ATOM     26  O   UNL A   1      43.397  21.568  26.001  1.00  0.00    -0.376 OA
BRANCH  26  27
ATOM     27  C   UNL A   1      44.485  22.437  25.716  1.00  0.00     0.202 C 
BRANCH  27  28
ATOM     28  C   UNL A   1      44.282  23.239  24.429  1.00  0.00     0.261 C 
BRANCH  28  29
ATOM     29  O   UNL A   1      43.729  24.552  24.627  1.00  0.00    -0.460 OA
BRANCH  29  30
ATOM     30  C   UNL A   1      44.538  25.470  25.200  1.00  0.00     0.338 C 
ATOM     31  O   UNL A   1      45.664  25.782  24.859  1.00  0.00    -0.246 OA
BRANCH  30  32
ATOM     32  C   UNL A   1      43.774  26.154  26.259  1.00  0.00     0.060 A 
ATOM     33  C   UNL A   1      44.017  27.510  26.500  1.00  0.00     0.016 A 
ATOM     34  C   UNL A   1      42.842  25.450  27.026  1.00  0.00     0.016 A 
ATOM     35  C   UNL A   1      43.344  28.162  27.537  1.00  0.00     0.010 A 
ATOM     36  C   UNL A   1      42.181  26.099  28.070  1.00  0.00     0.010 A 
ATOM     37  C   UNL A   1      42.448  27.450  28.347  1.00  0.00    -0.014 A 
BRANCH  37  38
ATOM     38  C   UNL A   1      41.897  28.068  29.576  1.00  0.00     0.031 A 
ATOM     39  C   UNL A   1      40.610  28.839  29.485  1.00  0.00     0.074 A 
ATOM     40  C   UNL A   1      42.537  27.963  30.753  1.00  0.00     0.049 A 
ATOM     41  N   UNL A   1      39.966  29.496  30.417  1.00  0.00    -0.248 NA
ATOM     42  C   UNL A   1      39.963  28.876  28.163  1.00  0.00     0.031 C 
ATOM     43  C   UNL A   1      43.780  27.232  30.978  1.00  0.00     0.029 A 
ATOM     44  N   UNL A   1      42.225  28.488  31.983  1.00  0.00    -0.354 N 
ATOM     45  C   UNL A   1      38.839  30.018  29.796  1.00  0.00     0.074 A 
ATOM     46  C   UNL A   1      38.901  29.629  28.404  1.00  0.00     0.031 C 
ATOM     47  C   UNL A   1      44.136  27.365  32.268  1.00  0.00     0.029 A 
ATOM     48  C   UNL A   1      43.157  28.210  32.951  1.00  0.00     0.049 A 
ATOM     49  H   UNL A   1      41.411  29.015  32.154  1.00  0.00     0.167 HD
ATOM     50  C   UNL A   1      37.839  30.750  30.341  1.00  0.00     0.037 A 
ATOM     51  C   UNL A   1      43.218  28.607  34.237  1.00  0.00     0.037 A 
ATOM     52  C   UNL A   1      37.778  31.150  31.720  1.00  0.00     0.049 A 
ATOM     53  C   UNL A   1      42.126  29.479  34.802  1.00  0.00     0.074 A 
ATOM     54  C   UNL A   1      36.791  31.876  32.366  1.00  0.00     0.029 A 
ATOM     55  N   UNL A   1      38.752  30.869  32.665  1.00  0.00    -0.354 N 
ATOM     56  N   UNL A   1      41.044  29.935  34.220  1.00  0.00    -0.248 NA
ATOM     57  C   UNL A   1      42.268  29.892  36.206  1.00  0.00     0.031 C 
ATOM     58  C   UNL A   1      37.188  32.067  33.694  1.00  0.00     0.029 A 
ATOM     59  C   UNL A   1      38.402  31.427  33.884  1.00  0.00     0.049 A 
ATOM     60  H   UNL A   1      39.570  30.350  32.495  1.00  0.00     0.167 HD
ATOM     61  C   UNL A   1      40.365  30.663  35.188  1.00  0.00     0.074 A 
ATOM     62  C   UNL A   1      41.153  30.584  36.401  1.00  0.00     0.031 C 
ATOM     63  C   UNL A   1      39.193  31.335  35.084  1.00  0.00     0.037 A 
BRANCH  50  64
ATOM     64  C   UNL A   1      36.730  31.178  29.428  1.00  0.00     0.064 A 
ATOM     65  C   UNL A   1      36.632  32.500  28.968  1.00  0.00     0.173 A 
ATOM     66  C   UNL A   1      35.770  30.254  28.992  1.00  0.00     0.173 A 
ATOM     67  F   UNL A   1      37.518  33.422  29.372  1.00  0.00    -0.203 F 
ATOM     68  C   UNL A   1      35.598  32.885  28.119  1.00  0.00     0.198 A 
ATOM     69  C   UNL A   1      34.750  30.638  28.125  1.00  0.00     0.198 A 
ATOM     70  F   UNL A   1      35.823  28.979  29.405  1.00  0.00    -0.203 F 
ATOM     71  F   UNL A   1      35.500  34.162  27.723  1.00  0.00    -0.200 F 
ATOM     72  C   UNL A   1      34.662  31.954  27.695  1.00  0.00     0.200 A 
ATOM     73  F   UNL A   1      33.850  29.736  27.710  1.00  0.00    -0.200 F 
ATOM     74  F   UNL A   1      33.669  32.326  26.875  1.00  0.00    -0.200 F 
ENDBRANCH  50  64
BRANCH  51  75
ATOM     75  C   UNL A   1      44.361  28.189  35.088  1.00  0.00     0.064 A 
ATOM     76  C   UNL A   1      45.534  28.953  35.143  1.00  0.00     0.173 A 
ATOM     77  C   UNL A   1      44.309  27.009  35.843  1.00  0.00     0.173 A 
ATOM     78  F   UNL A   1      45.640  30.073  34.414  1.00  0.00    -0.203 F 
ATOM     79  C   UNL A   1      46.621  28.543  35.912  1.00  0.00     0.198 A 
ATOM     80  C   UNL A   1      45.388  26.612  36.629  1.00  0.00     0.198 A 
ATOM     81  F   UNL A   1      43.210  26.242  35.815  1.00  0.00    -0.203 F 
ATOM     82  F   UNL A   1      47.749  29.267  35.916  1.00  0.00    -0.200 F 
ATOM     83  C   UNL A   1      46.545  27.375  36.659  1.00  0.00     0.200 A 
ATOM     84  F   UNL A   1      45.310  25.487  37.351  1.00  0.00    -0.200 F 
ATOM     85  F   UNL A   1      47.592  26.982  37.397  1.00  0.00    -0.200 F 
ENDBRANCH  51  75
BRANCH  63  86
ATOM     86  C   UNL A   1      38.672  32.014  36.315  1.00  0.00     0.064 A 
ATOM     87  C   UNL A   1      37.860  31.340  37.237  1.00  0.00     0.173 A 
ATOM     88  C   UNL A   1      39.031  33.340  36.600  1.00  0.00     0.173 A 
ATOM     89  F   UNL A   1      37.478  30.075  37.003  1.00  0.00    -0.203 F 
ATOM     90  C   UNL A   1      37.411  31.975  38.393  1.00  0.00     0.198 A 
ATOM     91  C   UNL A   1      38.601  33.964  37.767  1.00  0.00     0.198 A 
ATOM     92  F   UNL A   1      39.812  34.026  35.752  1.00  0.00    -0.203 F 
ATOM     93  F   UNL A   1      36.606  31.323  39.244  1.00  0.00    -0.200 F 
ATOM     94  C   UNL A   1      37.787  33.283  38.660  1.00  0.00     0.200 A 
ATOM     95  F   UNL A   1      38.973  35.224  38.029  1.00  0.00    -0.200 F 
ATOM     96  F   UNL A   1      37.361  33.889  39.777  1.00  0.00    -0.200 F 
ENDBRANCH  63  86
ENDBRANCH  37  38
ENDBRANCH  30  32
ENDBRANCH  29  30
ENDBRANCH  28  29
ENDBRANCH  27  28
ENDBRANCH  26  27
ENDBRANCH  25  26
ENDBRANCH  24  25
ENDBRANCH   1  24
TORSDOF 22
ENDMDL
MODEL 2
REMARK VINA RESULT:      -9.3      3.182      8.571
REMARK SMILES C[C@H](Cc1ccco1)[NH2+]Cc1cc(C(=O)OCCOCCOCCOC(=O)c2ccc(-c3c4nc(c(-c5c(F)c(F)c(F)c(F)c5F)c5ccc([nH]5)c(-c5c(F)c(F)c(F)c(F)c5F)c5nc(c(-c6c(F)c(F)c(F)c(F)c6F)c6ccc3[nH]6)C=C5)C=C4)cc2)cs1
REMARK SMILES IDX 19 1 18 2 17 3 16 4 14 5 15 6 13 7 11 8 12 9 92 10 91 11
REMARK SMILES IDX 10 12 9 13 2 16 1 17 3 18 4 19 5 20 8 21 6 22 7 23 20 24
REMARK SMILES IDX 21 25 22 26 23 27 24 28 25 29 26 30 27 31 28 32 29 33 90 34
REMARK SMILES IDX 30 35 89 36 31 37 32 38 33 39 83 40 34 41 88 42 82 43 84 44
REMARK SMILES IDX 35 45 87 46 81 47 80 48 36 50 68 51 48 52 67 53 49 54 52 55
REMARK SMILES IDX 66 56 85 57 50 58 51 59 65 61 86 62 53 63 37 64 38 65 46 66
REMARK SMILES IDX 39 67 40 68 44 69 47 70 41 71 42 72 45 73 43 74 69 75 70 76
REMARK SMILES IDX 78 77 71 78 72 79 76 80 79 81 73 82 74 83 77 84 75 85 54 86
REMARK SMILES IDX 55 87 63 88 56 89 57 90 61 91 64 92 58 93 59 94 62 95 60 96
REMARK H PARENT 9 14 9 15 84 49 52 60
REMARK Flexibility Score: inf
ROOT
ATOM      1  O   UNL A   1      32.541  28.187  25.760  1.00  0.00    -0.376 OA
ENDROOT
BRANCH   1   2
ATOM      2  C   UNL A   1      32.836  29.117  24.723  1.00  0.00     0.202 C 
BRANCH   2   3
ATOM      3  C   UNL A   1      33.184  28.531  23.352  1.00  0.00     0.261 C 
BRANCH   3   4
ATOM      4  O   UNL A   1      32.159  28.796  22.382  1.00  0.00    -0.460 OA
BRANCH   4   5
ATOM      5  C   UNL A   1      31.097  27.941  22.414  1.00  0.00     0.339 C 
ATOM      6  O   UNL A   1      29.932  28.261  22.209  1.00  0.00    -0.246 OA
BRANCH   5   7
ATOM      7  C   UNL A   1      31.523  26.552  22.511  1.00  0.00     0.071 A 
ATOM      8  C   UNL A   1      31.807  24.349  23.294  1.00  0.00     0.060 A 
ATOM      9  C   UNL A   1      31.136  25.550  23.469  1.00  0.00     0.037 A 
ATOM     10  S   UNL A   1      32.970  24.486  22.042  1.00  0.00    -0.142 S 
ATOM     11  C   UNL A   1      32.467  26.052  21.635  1.00  0.00     0.081 A 
BRANCH   8  12
ATOM     12  C   UNL A   1      31.643  23.054  24.056  1.00  0.00     0.308 C 
BRANCH  12  13
ATOM     13  N   UNL A   1      32.833  22.722  24.833  1.00  0.00    -0.339 N 
ATOM     14  H   UNL A   1      33.198  21.842  24.468  1.00  0.00     0.346 HD
ATOM     15  H   UNL A   1      33.438  23.536  24.727  1.00  0.00     0.346 HD
BRANCH  13  16
ATOM     16  C   UNL A   1      32.693  22.562  26.291  1.00  0.00     0.187 C 
ATOM     17  C   UNL A   1      31.479  23.204  26.977  1.00  0.00     0.075 C 
BRANCH  16  18
ATOM     18  C   UNL A   1      34.001  22.978  27.020  1.00  0.00     0.140 C 
BRANCH  18  19
ATOM     19  C   UNL A   1      35.228  23.107  26.172  1.00  0.00     0.109 A 
ATOM     20  C   UNL A   1      35.802  24.106  25.408  1.00  0.00     0.046 A 
ATOM     21  O   UNL A   1      35.980  21.969  26.058  1.00  0.00    -0.469 OA
ATOM     22  C   UNL A   1      36.961  23.553  24.810  1.00  0.00     0.042 A 
ATOM     23  C   UNL A   1      37.020  22.248  25.232  1.00  0.00     0.195 A 
ENDBRANCH  18  19
ENDBRANCH  16  18
ENDBRANCH  13  16
ENDBRANCH  12  13
ENDBRANCH   8  12
ENDBRANCH   5   7
ENDBRANCH   4   5
ENDBRANCH   3   4
ENDBRANCH   2   3
ENDBRANCH   1   2
BRANCH   1  24
ATOM     24  C   UNL A   1      33.229  28.276  27.003  1.00  0.00     0.188 C 
BRANCH  24  25
ATOM     25  C   UNL A   1      34.475  29.175  27.131  1.00  0.00     0.188 C 
BRANCH  25  26
ATOM     26  O   UNL A   1      34.257  30.376  27.854  1.00  0.00    -0.376 OA
BRANCH  26  27
ATOM     27  C   UNL A   1      33.661  31.441  27.127  1.00  0.00     0.202 C 
BRANCH  27  28
ATOM     28  C   UNL A   1      32.932  32.441  28.027  1.00  0.00     0.261 C 
BRANCH  28  29
ATOM     29  O   UNL A   1      33.101  33.817  27.647  1.00  0.00    -0.460 OA
BRANCH  29  30
ATOM     30  C   UNL A   1      33.294  34.704  28.648  1.00  0.00     0.338 C 
ATOM     31  O   UNL A   1      32.549  35.600  28.997  1.00  0.00    -0.246 OA
BRANCH  30  32
ATOM     32  C   UNL A   1      34.527  34.325  29.362  1.00  0.00     0.060 A 
ATOM     33  C   UNL A   1      35.746  34.371  28.678  1.00  0.00     0.016 A 
ATOM     34  C   UNL A   1      34.471  33.899  30.692  1.00  0.00     0.016 A 
ATOM     35  C   UNL A   1      36.917  33.962  29.320  1.00  0.00     0.010 A 
ATOM     36  C   UNL A   1      35.640  33.478  31.328  1.00  0.00     0.010 A 
ATOM     37  C   UNL A   1      36.864  33.482  30.638  1.00  0.00    -0.014 A 
BRANCH  37  38
ATOM     38  C   UNL A   1      38.053  32.845  31.251  1.00  0.00     0.031 A 
ATOM     39  C   UNL A   1      38.597  31.585  30.639  1.00  0.00     0.074 A 
ATOM     40  C   UNL A   1      38.632  33.366  32.346  1.00  0.00     0.049 A 
ATOM     41  N   UNL A   1      39.597  30.836  31.027  1.00  0.00    -0.248 NA
ATOM     42  C   UNL A   1      37.918  31.104  29.424  1.00  0.00     0.031 C 
ATOM     43  C   UNL A   1      38.212  34.588  33.025  1.00  0.00     0.029 A 
ATOM     44  N   UNL A   1      39.699  32.916  33.085  1.00  0.00    -0.354 N 
ATOM     45  C   UNL A   1      39.671  29.801  30.105  1.00  0.00     0.074 A 
ATOM     46  C   UNL A   1      38.598  29.999  29.155  1.00  0.00     0.031 C 
ATOM     47  C   UNL A   1      39.005  34.787  34.093  1.00  0.00     0.029 A 
ATOM     48  C   UNL A   1      39.972  33.693  34.183  1.00  0.00     0.049 A 
ATOM     49  H   UNL A   1      40.217  32.113  32.849  1.00  0.00     0.167 HD
ATOM     50  C   UNL A   1      40.559  28.780  30.051  1.00  0.00     0.037 A 
ATOM     51  C   UNL A   1      40.887  33.526  35.157  1.00  0.00     0.037 A 
ATOM     52  C   UNL A   1      41.620  28.570  30.998  1.00  0.00     0.049 A 
ATOM     53  C   UNL A   1      41.821  32.344  35.111  1.00  0.00     0.074 A 
ATOM     54  C   UNL A   1      42.582  27.574  31.011  1.00  0.00     0.029 A 
ATOM     55  N   UNL A   1      41.851  29.364  32.110  1.00  0.00    -0.354 N 
ATOM     56  N   UNL A   1      41.910  31.393  34.214  1.00  0.00    -0.248 NA
ATOM     57  C   UNL A   1      42.781  32.214  36.217  1.00  0.00     0.031 C 
ATOM     58  C   UNL A   1      43.371  27.744  32.154  1.00  0.00     0.029 A 
ATOM     59  C   UNL A   1      42.925  28.868  32.830  1.00  0.00     0.049 A 
ATOM     60  H   UNL A   1      41.329  30.163  32.352  1.00  0.00     0.167 HD
ATOM     61  C   UNL A   1      42.949  30.569  34.631  1.00  0.00     0.074 A 
ATOM     62  C   UNL A   1      43.465  31.135  35.860  1.00  0.00     0.031 C 
ATOM     63  C   UNL A   1      43.432  29.446  34.048  1.00  0.00     0.037 A 
BRANCH  50  64
ATOM     64  C   UNL A   1      40.406  27.800  28.928  1.00  0.00     0.064 A 
ATOM     65  C   UNL A   1      39.588  26.668  29.053  1.00  0.00     0.173 A 
ATOM     66  C   UNL A   1      41.068  28.006  27.709  1.00  0.00     0.173 A 
ATOM     67  F   UNL A   1      38.949  26.421  30.205  1.00  0.00    -0.203 F 
ATOM     68  C   UNL A   1      39.453  25.765  28.001  1.00  0.00     0.198 A 
ATOM     69  C   UNL A   1      40.913  27.113  26.652  1.00  0.00     0.198 A 
ATOM     70  F   UNL A   1      41.861  29.074  27.542  1.00  0.00    -0.203 F 
ATOM     71  F   UNL A   1      38.698  24.669  28.154  1.00  0.00    -0.200 F 
ATOM     72  C   UNL A   1      40.111  25.991  26.801  1.00  0.00     0.200 A 
ATOM     73  F   UNL A   1      41.544  27.336  25.491  1.00  0.00    -0.200 F 
ATOM     74  F   UNL A   1      39.978  25.122  25.789  1.00  0.00    -0.200 F 
ENDBRANCH  50  64
BRANCH  51  75
ATOM     75  C   UNL A   1      40.969  34.504  36.271  1.00  0.00     0.064 A 
ATOM     76  C   UNL A   1      41.860  35.585  36.217  1.00  0.00     0.173 A 
ATOM     77  C   UNL A   1      40.176  34.364  37.419  1.00  0.00     0.173 A 
ATOM     78  F   UNL A   1      42.660  35.741  35.153  1.00  0.00    -0.203 F 
ATOM     79  C   UNL A   1      41.964  36.482  37.278  1.00  0.00     0.198 A 
ATOM     80  C   UNL A   1      40.265  35.274  38.469  1.00  0.00     0.198 A 
ATOM     81  F   UNL A   1      39.315  33.341  37.519  1.00  0.00    -0.203 F 
ATOM     82  F   UNL A   1      42.853  37.483  37.222  1.00  0.00    -0.200 F 
ATOM     83  C   UNL A   1      41.163  36.329  38.401  1.00  0.00     0.200 A 
ATOM     84  F   UNL A   1      39.488  35.126  39.550  1.00  0.00    -0.200 F 
ATOM     85  F   UNL A   1      41.266  37.192  39.421  1.00  0.00    -0.200 F 
ENDBRANCH  51  75
BRANCH  63  86
ATOM     86  C   UNL A   1      44.595  28.768  34.709  1.00  0.00     0.064 A 
ATOM     87  C   UNL A   1      45.915  29.166  34.459  1.00  0.00     0.173 A 
ATOM     88  C   UNL A   1      44.382  27.741  35.641  1.00  0.00     0.173 A 
ATOM     89  F   UNL A   1      46.172  30.134  33.566  1.00  0.00    -0.203 F 
ATOM     90  C   UNL A   1      46.983  28.548  35.107  1.00  0.00     0.198 A 
ATOM     91  C   UNL A   1      45.449  27.141  36.303  1.00  0.00     0.198 A 
ATOM     92  F   UNL A   1      43.136  27.328  35.919  1.00  0.00    -0.203 F 
ATOM     93  F   UNL A   1      48.240  28.921  34.827  1.00  0.00    -0.200 F 
ATOM     94  C   UNL A   1      46.749  27.542  36.032  1.00  0.00     0.200 A 
ATOM     95  F   UNL A   1      45.221  26.177  37.205  1.00  0.00    -0.200 F 
ATOM     96  F   UNL A   1      47.777  26.955  36.660  1.00  0.00    -0.200 F 
ENDBRANCH  63  86
ENDBRANCH  37  38
ENDBRANCH  30  32
ENDBRANCH  29  30
ENDBRANCH  28  29
ENDBRANCH  27  28
ENDBRANCH  26  27
ENDBRANCH  25  26
ENDBRANCH  24  25
ENDBRANCH   1  24
TORSDOF 22
ENDMDL
MODEL 3
REMARK VINA RESULT:      -9.3      1.606      3.191
REMARK SMILES C[C@H](Cc1ccco1)[NH2+]Cc1cc(C(=O)OCCOCCOCCOC(=O)c2ccc(-c3c4nc(c(-c5c(F)c(F)c(F)c(F)c5F)c5ccc([nH]5)c(-c5c(F)c(F)c(F)c(F)c5F)c5nc(c(-c6c(F)c(F)c(F)c(F)c6F)c6ccc3[nH]6)C=C5)C=C4)cc2)cs1
REMARK SMILES IDX 19 1 18 2 17 3 16 4 14 5 15 6 13 7 11 8 12 9 92 10 91 11
REMARK SMILES IDX 10 12 9 13 2 16 1 17 3 18 4 19 5 20 8 21 6 22 7 23 20 24
REMARK SMILES IDX 21 25 22 26 23 27 24 28 25 29 26 30 27 31 28 32 29 33 90 34
REMARK SMILES IDX 30 35 89 36 31 37 32 38 33 39 83 40 34 41 88 42 82 43 84 44
REMARK SMILES IDX 35 45 87 46 81 47 80 48 36 50 68 51 48 52 67 53 49 54 52 55
REMARK SMILES IDX 66 56 85 57 50 58 51 59 65 61 86 62 53 63 37 64 38 65 46 66
REMARK SMILES IDX 39 67 40 68 44 69 47 70 41 71 42 72 45 73 43 74 69 75 70 76
REMARK SMILES IDX 78 77 71 78 72 79 76 80 79 81 73 82 74 83 77 84 75 85 54 86
REMARK SMILES IDX 55 87 63 88 56 89 57 90 61 91 64 92 58 93 59 94 62 95 60 96
REMARK H PARENT 9 14 9 15 84 49 52 60
REMARK Flexibility Score: inf
ROOT
ATOM      1  O   UNL A   1      37.785  22.313  25.785  1.00  0.00    -0.376 OA
ENDROOT
BRANCH   1   2
ATOM      2  C   UNL A   1      36.373  22.479  25.695  1.00  0.00     0.202 C 
BRANCH   2   3
ATOM      3  C   UNL A   1      35.750  22.321  24.305  1.00  0.00     0.261 C 
BRANCH   3   4
ATOM      4  O   UNL A   1      34.347  22.020  24.380  1.00  0.00    -0.460 OA
BRANCH   4   5
ATOM      5  C   UNL A   1      33.564  23.033  24.848  1.00  0.00     0.339 C 
ATOM      6  O   UNL A   1      33.152  23.129  25.998  1.00  0.00    -0.246 OA
BRANCH   5   7
ATOM      7  C   UNL A   1      33.441  24.114  23.879  1.00  0.00     0.071 A 
ATOM      8  C   UNL A   1      33.465  26.259  22.906  1.00  0.00     0.060 A 
ATOM      9  C   UNL A   1      33.797  25.501  24.020  1.00  0.00     0.037 A 
ATOM     10  S   UNL A   1      32.633  25.301  21.754  1.00  0.00    -0.142 S 
ATOM     11  C   UNL A   1      32.865  23.880  22.646  1.00  0.00     0.081 A 
BRANCH   8  12
ATOM     12  C   UNL A   1      33.721  27.727  22.650  1.00  0.00     0.308 C 
BRANCH  12  13
ATOM     13  N   UNL A   1      32.640  28.567  23.156  1.00  0.00    -0.339 N 
ATOM     14  H   UNL A   1      32.503  29.321  22.483  1.00  0.00     0.346 HD
ATOM     15  H   UNL A   1      31.857  27.924  23.274  1.00  0.00     0.346 HD
BRANCH  13  16
ATOM     16  C   UNL A   1      32.802  29.190  24.481  1.00  0.00     0.187 C 
ATOM     17  C   UNL A   1      34.115  28.951  25.239  1.00  0.00     0.075 C 
BRANCH  16  18
ATOM     18  C   UNL A   1      31.589  28.864  25.395  1.00  0.00     0.140 C 
BRANCH  18  19
ATOM     19  C   UNL A   1      30.876  27.575  25.128  1.00  0.00     0.109 A 
ATOM     20  C   UNL A   1      30.814  26.334  25.733  1.00  0.00     0.046 A 
ATOM     21  O   UNL A   1      30.115  27.555  23.989  1.00  0.00    -0.469 OA
ATOM     22  C   UNL A   1      29.971  25.525  24.932  1.00  0.00     0.042 A 
ATOM     23  C   UNL A   1      29.578  26.314  23.879  1.00  0.00     0.195 A 
ENDBRANCH  18  19
ENDBRANCH  16  18
ENDBRANCH  13  16
ENDBRANCH  12  13
ENDBRANCH   8  12
ENDBRANCH   5   7
ENDBRANCH   4   5
ENDBRANCH   3   4
ENDBRANCH   2   3
ENDBRANCH   1   2
BRANCH   1  24
ATOM     24  C   UNL A   1      38.381  21.097  25.348  1.00  0.00     0.188 C 
BRANCH  24  25
ATOM     25  C   UNL A   1      39.823  20.752  25.770  1.00  0.00     0.188 C 
BRANCH  25  26
ATOM     26  O   UNL A   1      40.218  21.313  27.013  1.00  0.00    -0.376 OA
BRANCH  26  27
ATOM     27  C   UNL A   1      41.560  21.067  27.408  1.00  0.00     0.202 C 
BRANCH  27  28
ATOM     28  C   UNL A   1      42.572  21.407  26.312  1.00  0.00     0.261 C 
BRANCH  28  29
ATOM     29  O   UNL A   1      43.342  22.596  26.561  1.00  0.00    -0.460 OA
BRANCH  29  30
ATOM     30  C   UNL A   1      43.037  23.682  25.818  1.00  0.00     0.338 C 
ATOM     31  O   UNL A   1      43.020  23.770  24.605  1.00  0.00    -0.246 OA
BRANCH  30  32
ATOM     32  C   UNL A   1      42.584  24.747  26.732  1.00  0.00     0.060 A 
ATOM     33  C   UNL A   1      43.356  25.908  26.854  1.00  0.00     0.016 A 
ATOM     34  C   UNL A   1      41.418  24.585  27.485  1.00  0.00     0.016 A 
ATOM     35  C   UNL A   1      42.974  26.903  27.757  1.00  0.00     0.010 A 
ATOM     36  C   UNL A   1      41.045  25.575  28.396  1.00  0.00     0.010 A 
ATOM     37  C   UNL A   1      41.835  26.725  28.556  1.00  0.00    -0.014 A 
BRANCH  37  38
ATOM     38  C   UNL A   1      41.543  27.666  29.663  1.00  0.00     0.031 A 
ATOM     39  C   UNL A   1      40.357  28.580  29.544  1.00  0.00     0.074 A 
ATOM     40  C   UNL A   1      42.329  27.721  30.752  1.00  0.00     0.049 A 
ATOM     41  N   UNL A   1      39.936  29.509  30.365  1.00  0.00    -0.248 NA
ATOM     42  C   UNL A   1      39.536  28.429  28.331  1.00  0.00     0.031 C 
ATOM     43  C   UNL A   1      43.496  26.879  30.996  1.00  0.00     0.029 A 
ATOM     44  N   UNL A   1      42.261  28.537  31.855  1.00  0.00    -0.354 N 
ATOM     45  C   UNL A   1      38.802  30.046  29.773  1.00  0.00     0.074 A 
ATOM     46  C   UNL A   1      38.616  29.365  28.510  1.00  0.00     0.031 C 
ATOM     47  C   UNL A   1      44.047  27.231  32.172  1.00  0.00     0.029 A 
ATOM     48  C   UNL A   1      43.283  28.337  32.749  1.00  0.00     0.049 A 
ATOM     49  H   UNL A   1      41.548  29.202  31.991  1.00  0.00     0.167 HD
ATOM     50  C   UNL A   1      37.984  31.017  30.244  1.00  0.00     0.037 A 
ATOM     51  C   UNL A   1      43.575  28.986  33.892  1.00  0.00     0.037 A 
ATOM     52  C   UNL A   1      38.169  31.708  31.491  1.00  0.00     0.049 A 
ATOM     53  C   UNL A   1      42.687  30.110  34.362  1.00  0.00     0.074 A 
ATOM     54  C   UNL A   1      37.379  32.692  32.060  1.00  0.00     0.029 A 
ATOM     55  N   UNL A   1      39.229  31.494  32.358  1.00  0.00    -0.354 N 
ATOM     56  N   UNL A   1      41.594  30.585  33.816  1.00  0.00    -0.248 NA
ATOM     57  C   UNL A   1      43.076  30.787  35.607  1.00  0.00     0.031 C 
ATOM     58  C   UNL A   1      37.982  33.101  33.254  1.00  0.00     0.029 A 
ATOM     59  C   UNL A   1      39.127  32.344  33.447  1.00  0.00     0.049 A 
ATOM     60  H   UNL A   1      39.947  30.835  32.221  1.00  0.00     0.167 HD
ATOM     61  C   UNL A   1      41.152  31.595  34.662  1.00  0.00     0.074 A 
ATOM     62  C   UNL A   1      42.091  31.661  35.761  1.00  0.00     0.031 C 
ATOM     63  C   UNL A   1      40.065  32.395  34.538  1.00  0.00     0.037 A 
BRANCH  50  64
ATOM     64  C   UNL A   1      36.814  31.400  29.388  1.00  0.00     0.064 A 
ATOM     65  C   UNL A   1      35.737  30.524  29.188  1.00  0.00     0.173 A 
ATOM     66  C   UNL A   1      36.760  32.663  28.782  1.00  0.00     0.173 A 
ATOM     67  F   UNL A   1      35.753  29.300  29.735  1.00  0.00    -0.203 F 
ATOM     68  C   UNL A   1      34.656  30.893  28.392  1.00  0.00     0.198 A 
ATOM     69  C   UNL A   1      35.667  33.037  28.005  1.00  0.00     0.198 A 
ATOM     70  F   UNL A   1      37.766  33.535  28.945  1.00  0.00    -0.203 F 
ATOM     71  F   UNL A   1      33.656  30.026  28.181  1.00  0.00    -0.200 F 
ATOM     72  C   UNL A   1      34.619  32.149  27.807  1.00  0.00     0.200 A 
ATOM     73  F   UNL A   1      35.628  34.253  27.445  1.00  0.00    -0.200 F 
ATOM     74  F   UNL A   1      33.576  32.503  27.043  1.00  0.00    -0.200 F 
ENDBRANCH  50  64
BRANCH  51  75
ATOM     75  C   UNL A   1      44.771  28.595  34.681  1.00  0.00     0.064 A 
ATOM     76  C   UNL A   1      44.691  27.599  35.664  1.00  0.00     0.173 A 
ATOM     77  C   UNL A   1      46.007  29.225  34.484  1.00  0.00     0.173 A 
ATOM     78  F   UNL A   1      43.522  26.991  35.909  1.00  0.00    -0.203 F 
ATOM     79  C   UNL A   1      45.803  27.258  36.431  1.00  0.00     0.198 A 
ATOM     80  C   UNL A   1      47.124  28.867  35.235  1.00  0.00     0.198 A 
ATOM     81  F   UNL A   1      46.130  30.189  33.560  1.00  0.00    -0.203 F 
ATOM     82  F   UNL A   1      45.693  26.333  37.394  1.00  0.00    -0.200 F 
ATOM     83  C   UNL A   1      47.020  27.889  36.212  1.00  0.00     0.200 A 
ATOM     84  F   UNL A   1      48.298  29.475  35.019  1.00  0.00    -0.200 F 
ATOM     85  F   UNL A   1      48.088  27.560  36.951  1.00  0.00    -0.200 F 
ENDBRANCH  51  75
BRANCH  63  86
ATOM     86  C   UNL A   1      39.811  33.390  35.631  1.00  0.00     0.064 A 
ATOM     87  C   UNL A   1      40.340  34.686  35.580  1.00  0.00     0.173 A 
ATOM     88  C   UNL A   1      38.987  33.057  36.717  1.00  0.00     0.173 A 
ATOM     89  F   UNL A   1      41.145  35.048  34.569  1.00  0.00    -0.203 F 
ATOM     90  C   UNL A   1      40.067  35.610  36.586  1.00  0.00     0.198 A 
ATOM     91  C   UNL A   1      38.697  33.989  37.709  1.00  0.00     0.198 A 
ATOM     92  F   UNL A   1      38.451  31.831  36.808  1.00  0.00    -0.203 F 
ATOM     93  F   UNL A   1      40.613  36.834  36.536  1.00  0.00    -0.200 F 
ATOM     94  C   UNL A   1      39.241  35.264  37.645  1.00  0.00     0.200 A 
ATOM     95  F   UNL A   1      37.891  33.657  38.726  1.00  0.00    -0.200 F 
ATOM     96  F   UNL A   1      38.974  36.157  38.608  1.00  0.00    -0.200 F 
ENDBRANCH  63  86
ENDBRANCH  37  38
ENDBRANCH  30  32
ENDBRANCH  29  30
ENDBRANCH  28  29
ENDBRANCH  27  28
ENDBRANCH  26  27
ENDBRANCH  25  26
ENDBRANCH  24  25
ENDBRANCH   1  24
TORSDOF 22
ENDMDL
