MODEL 1
REMARK VINA RESULT:     -11.1      0.000      0.000
REMARK SMILES CCOc1ccc(-c2cnc(N)cc2C(=O)OCCOCCOCCOC(=O)c2ccc(-c3c4nc(c(-c5c(F)c(F)c(F)c(F)c5F)c5ccc([nH]5)c(-c5c(F)c(F)c(F)c(F)c5F)c5nc(c(-c6c(F)c(F)c(F)c(F)c6F)c6ccc3[nH]6)C=C5)C=C4)cc2)c(Cl)c1
REMARK SMILES IDX 21 1 20 2 19 3 18 4 17 5 15 6 16 7 14 8 8 9 9 10 10 11 13 12
REMARK SMILES IDX 11 13 7 14 4 15 5 16 94 17 6 18 92 19 93 20 3 21 2 22 1 23
REMARK SMILES IDX 12 24 22 27 23 28 24 29 25 30 26 31 27 32 28 33 29 34 30 35
REMARK SMILES IDX 91 36 31 37 90 38 32 39 33 40 34 41 84 42 35 43 89 44 83 45
REMARK SMILES IDX 85 46 36 47 88 48 82 49 81 50 37 52 69 53 49 54 68 55 50 56
REMARK SMILES IDX 53 57 67 58 86 59 51 60 52 61 66 63 87 64 54 65 38 66 39 67
REMARK SMILES IDX 47 68 40 69 41 70 45 71 48 72 42 73 43 74 46 75 44 76 70 77
REMARK SMILES IDX 71 78 79 79 72 80 73 81 77 82 80 83 74 84 75 85 78 86 76 87
REMARK SMILES IDX 55 88 56 89 64 90 57 91 58 92 62 93 65 94 59 95 60 96 63 97
REMARK SMILES IDX 61 98
REMARK H PARENT 12 25 12 26 85 51 53 62
REMARK Flexibility Score: inf
ROOT
ATOM      1  C   UNL A   1      40.272  20.967  26.645  1.00  0.00     0.188 C 
ENDROOT
BRANCH   1   2
ATOM      2  O   UNL A   1      39.324  21.685  25.894  1.00  0.00    -0.376 OA
BRANCH   2   3
ATOM      3  C   UNL A   1      38.884  22.961  26.311  1.00  0.00     0.202 C 
BRANCH   3   4
ATOM      4  C   UNL A   1      37.673  23.717  25.729  1.00  0.00     0.261 C 
BRANCH   4   5
ATOM      5  O   UNL A   1      36.448  22.998  25.527  1.00  0.00    -0.460 OA
BRANCH   5   6
ATOM      6  C   UNL A   1      35.687  23.398  24.472  1.00  0.00     0.339 C 
ATOM      7  O   UNL A   1      35.964  23.246  23.293  1.00  0.00    -0.246 OA
BRANCH   6   8
ATOM      8  C   UNL A   1      34.421  24.039  24.934  1.00  0.00     0.073 A 
ATOM      9  C   UNL A   1      33.210  23.316  24.948  1.00  0.00     0.016 A 
ATOM     10  C   UNL A   1      32.077  24.012  25.344  1.00  0.00     0.123 A 
ATOM     11  N   UNL A   1      32.083  25.302  25.745  1.00  0.00    -0.239 NA
ATOM     12  C   UNL A   1      34.446  25.366  25.367  1.00  0.00     0.062 A 
ATOM     13  C   UNL A   1      33.259  25.950  25.770  1.00  0.00     0.124 A 
BRANCH   9  14
ATOM     14  C   UNL A   1      33.186  21.855  24.841  1.00  0.00     0.003 A 
ATOM     15  C   UNL A   1      32.534  19.121  24.777  1.00  0.00     0.120 A 
ATOM     16  C   UNL A   1      33.348  19.633  25.783  1.00  0.00     0.047 A 
ATOM     17  C   UNL A   1      32.174  19.955  23.724  1.00  0.00     0.067 A 
ATOM     18  C   UNL A   1      33.629  21.003  25.849  1.00  0.00     0.014 A 
ATOM     19  C   UNL A   1      32.607  21.271  23.710  1.00  0.00     0.052 A 
ATOM     20  Cl  UNL A   1      32.521  22.168  22.242  1.00  0.00    -0.084 Cl
BRANCH  15  21
ATOM     21  O   UNL A   1      32.213  17.813  24.591  1.00  0.00    -0.494 OA
BRANCH  21  22
ATOM     22  C   UNL A   1      32.522  16.818  25.561  1.00  0.00     0.226 C 
ATOM     23  C   UNL A   1      33.767  15.999  25.280  1.00  0.00     0.049 C 
ENDBRANCH  21  22
ENDBRANCH  15  21
ENDBRANCH   9  14
BRANCH  13  24
ATOM     24  N   UNL A   1      33.240  27.215  26.313  1.00  0.00    -0.384 N 
ATOM     25  H   UNL A   1      33.562  27.362  27.231  1.00  0.00     0.158 HD
ATOM     26  H   UNL A   1      32.906  27.973  25.782  1.00  0.00     0.158 HD
ENDBRANCH  13  24
ENDBRANCH   6   8
ENDBRANCH   5   6
ENDBRANCH   4   5
ENDBRANCH   3   4
ENDBRANCH   2   3
ENDBRANCH   1   2
BRANCH   1  27
ATOM     27  C   UNL A   1      40.886  19.663  26.095  1.00  0.00     0.188 C 
BRANCH  27  28
ATOM     28  O   UNL A   1      42.177  19.675  25.516  1.00  0.00    -0.376 OA
BRANCH  28  29
ATOM     29  C   UNL A   1      43.068  20.710  25.891  1.00  0.00     0.202 C 
BRANCH  29  30
ATOM     30  C   UNL A   1      43.689  21.597  24.802  1.00  0.00     0.261 C 
BRANCH  30  31
ATOM     31  O   UNL A   1      43.075  22.889  24.615  1.00  0.00    -0.460 OA
BRANCH  31  32
ATOM     32  C   UNL A   1      43.859  23.960  24.917  1.00  0.00     0.338 C 
ATOM     33  O   UNL A   1      44.909  24.260  24.386  1.00  0.00    -0.246 OA
BRANCH  32  34
ATOM     34  C   UNL A   1      43.221  24.824  25.949  1.00  0.00     0.060 A 
ATOM     35  C   UNL A   1      43.660  26.149  26.052  1.00  0.00     0.016 A 
ATOM     36  C   UNL A   1      42.255  24.354  26.842  1.00  0.00     0.016 A 
ATOM     37  C   UNL A   1      43.101  27.017  27.001  1.00  0.00     0.010 A 
ATOM     38  C   UNL A   1      41.735  25.211  27.832  1.00  0.00     0.010 A 
ATOM     39  C   UNL A   1      42.152  26.552  27.919  1.00  0.00    -0.014 A 
BRANCH  39  40
ATOM     40  C   UNL A   1      41.715  27.431  29.046  1.00  0.00     0.031 A 
ATOM     41  C   UNL A   1      42.487  27.415  30.323  1.00  0.00     0.074 A 
ATOM     42  C   UNL A   1      40.686  28.294  28.945  1.00  0.00     0.049 A 
ATOM     43  N   UNL A   1      42.285  28.109  31.413  1.00  0.00    -0.248 NA
ATOM     44  C   UNL A   1      43.652  26.522  30.372  1.00  0.00     0.031 C 
ATOM     45  C   UNL A   1      39.933  28.507  27.732  1.00  0.00     0.029 A 
ATOM     46  N   UNL A   1      40.100  29.157  29.845  1.00  0.00    -0.354 N 
ATOM     47  C   UNL A   1      43.310  27.757  32.271  1.00  0.00     0.074 A 
ATOM     48  C   UNL A   1      44.120  26.770  31.585  1.00  0.00     0.031 C 
ATOM     49  C   UNL A   1      38.982  29.429  27.943  1.00  0.00     0.029 A 
ATOM     50  C   UNL A   1      39.012  29.828  29.335  1.00  0.00     0.049 A 
ATOM     51  H   UNL A   1      40.429  29.283  30.764  1.00  0.00     0.167 HD
ATOM     52  C   UNL A   1      43.547  28.218  33.520  1.00  0.00     0.037 A 
ATOM     53  C   UNL A   1      38.111  30.648  29.907  1.00  0.00     0.037 A 
ATOM     54  C   UNL A   1      42.709  29.156  34.221  1.00  0.00     0.049 A 
ATOM     55  C   UNL A   1      38.295  31.004  31.348  1.00  0.00     0.074 A 
ATOM     56  C   UNL A   1      42.862  29.651  35.503  1.00  0.00     0.029 A 
ATOM     57  N   UNL A   1      41.544  29.716  33.715  1.00  0.00    -0.354 N 
ATOM     58  N   UNL A   1      39.266  30.662  32.154  1.00  0.00    -0.248 NA
ATOM     59  C   UNL A   1      37.273  31.864  31.959  1.00  0.00     0.031 C 
ATOM     60  C   UNL A   1      41.753  30.451  35.800  1.00  0.00     0.029 A 
ATOM     61  C   UNL A   1      40.944  30.515  34.679  1.00  0.00     0.049 A 
ATOM     62  H   UNL A   1      41.194  29.569  32.807  1.00  0.00     0.167 HD
ATOM     63  C   UNL A   1      38.998  31.291  33.356  1.00  0.00     0.074 A 
ATOM     64  C   UNL A   1      37.772  32.042  33.173  1.00  0.00     0.031 C 
ATOM     65  C   UNL A   1      39.717  31.251  34.503  1.00  0.00     0.037 A 
BRANCH  52  66
ATOM     66  C   UNL A   1      44.732  27.637  34.228  1.00  0.00     0.064 A 
ATOM     67  C   UNL A   1      46.013  28.197  34.111  1.00  0.00     0.173 A 
ATOM     68  C   UNL A   1      44.582  26.485  35.012  1.00  0.00     0.173 A 
ATOM     69  F   UNL A   1      46.209  29.283  33.347  1.00  0.00    -0.203 F 
ATOM     70  C   UNL A   1      47.109  27.604  34.730  1.00  0.00     0.198 A 
ATOM     71  C   UNL A   1      45.675  25.913  35.655  1.00  0.00     0.198 A 
ATOM     72  F   UNL A   1      43.379  25.909  35.146  1.00  0.00    -0.203 F 
ATOM     73  F   UNL A   1      48.334  28.116  34.555  1.00  0.00    -0.200 F 
ATOM     74  C   UNL A   1      46.937  26.466  35.505  1.00  0.00     0.200 A 
ATOM     75  F   UNL A   1      45.505  24.818  36.408  1.00  0.00    -0.200 F 
ATOM     76  F   UNL A   1      47.994  25.893  36.097  1.00  0.00    -0.200 F 
ENDBRANCH  52  66
BRANCH  53  77
ATOM     77  C   UNL A   1      36.931  31.155  29.151  1.00  0.00     0.064 A 
ATOM     78  C   UNL A   1      36.838  32.496  28.753  1.00  0.00     0.173 A 
ATOM     79  C   UNL A   1      35.841  30.318  28.870  1.00  0.00     0.173 A 
ATOM     80  F   UNL A   1      37.838  33.347  29.027  1.00  0.00    -0.203 F 
ATOM     81  C   UNL A   1      35.694  32.984  28.120  1.00  0.00     0.198 A 
ATOM     82  C   UNL A   1      34.704  30.803  28.225  1.00  0.00     0.198 A 
ATOM     83  F   UNL A   1      35.877  29.025  29.223  1.00  0.00    -0.203 F 
ATOM     84  F   UNL A   1      35.615  34.279  27.788  1.00  0.00    -0.200 F 
ATOM     85  C   UNL A   1      34.630  32.137  27.854  1.00  0.00     0.200 A 
ATOM     86  F   UNL A   1      33.688  29.975  27.948  1.00  0.00    -0.200 F 
ATOM     87  F   UNL A   1      33.534  32.603  27.240  1.00  0.00    -0.200 F 
ENDBRANCH  53  77
BRANCH  65  88
ATOM     88  C   UNL A   1      39.209  32.074  35.647  1.00  0.00     0.064 A 
ATOM     89  C   UNL A   1      38.355  31.539  36.621  1.00  0.00     0.173 A 
ATOM     90  C   UNL A   1      39.598  33.416  35.776  1.00  0.00     0.173 A 
ATOM     91  F   UNL A   1      37.932  30.269  36.527  1.00  0.00    -0.203 F 
ATOM     92  C   UNL A   1      37.890  32.325  37.672  1.00  0.00     0.198 A 
ATOM     93  C   UNL A   1      39.160  34.188  36.847  1.00  0.00     0.198 A 
ATOM     94  F   UNL A   1      40.409  33.976  34.866  1.00  0.00    -0.203 F 
ATOM     95  F   UNL A   1      37.028  31.810  38.561  1.00  0.00    -0.200 F 
ATOM     96  C   UNL A   1      38.300  33.645  37.789  1.00  0.00     0.200 A 
ATOM     97  F   UNL A   1      39.566  35.459  36.964  1.00  0.00    -0.200 F 
ATOM     98  F   UNL A   1      37.858  34.398  38.805  1.00  0.00    -0.200 F 
ENDBRANCH  65  88
ENDBRANCH  39  40
ENDBRANCH  32  34
ENDBRANCH  31  32
ENDBRANCH  30  31
ENDBRANCH  29  30
ENDBRANCH  28  29
ENDBRANCH  27  28
ENDBRANCH   1  27
TORSDOF 21
ENDMDL
MODEL 2
REMARK VINA RESULT:     -10.8      4.434      8.721
REMARK SMILES CCOc1ccc(-c2cnc(N)cc2C(=O)OCCOCCOCCOC(=O)c2ccc(-c3c4nc(c(-c5c(F)c(F)c(F)c(F)c5F)c5ccc([nH]5)c(-c5c(F)c(F)c(F)c(F)c5F)c5nc(c(-c6c(F)c(F)c(F)c(F)c6F)c6ccc3[nH]6)C=C5)C=C4)cc2)c(Cl)c1
REMARK SMILES IDX 21 1 20 2 19 3 18 4 17 5 15 6 16 7 14 8 8 9 9 10 10 11 13 12
REMARK SMILES IDX 11 13 7 14 4 15 5 16 94 17 6 18 92 19 93 20 3 21 2 22 1 23
REMARK SMILES IDX 12 24 22 27 23 28 24 29 25 30 26 31 27 32 28 33 29 34 30 35
REMARK SMILES IDX 91 36 31 37 90 38 32 39 33 40 34 41 84 42 35 43 89 44 83 45
REMARK SMILES IDX 85 46 36 47 88 48 82 49 81 50 37 52 69 53 49 54 68 55 50 56
REMARK SMILES IDX 53 57 67 58 86 59 51 60 52 61 66 63 87 64 54 65 38 66 39 67
REMARK SMILES IDX 47 68 40 69 41 70 45 71 48 72 42 73 43 74 46 75 44 76 70 77
REMARK SMILES IDX 71 78 79 79 72 80 73 81 77 82 80 83 74 84 75 85 78 86 76 87
REMARK SMILES IDX 55 88 56 89 64 90 57 91 58 92 62 93 65 94 59 95 60 96 63 97
REMARK SMILES IDX 61 98
REMARK H PARENT 12 25 12 26 85 51 53 62
REMARK Flexibility Score: inf
ROOT
ATOM      1  C   UNL A   1      32.477  22.842  27.027  1.00  0.00     0.188 C 
ENDROOT
BRANCH   1   2
ATOM      2  O   UNL A   1      31.125  22.898  27.411  1.00  0.00    -0.376 OA
BRANCH   2   3
ATOM      3  C   UNL A   1      30.243  23.833  26.827  1.00  0.00     0.202 C 
BRANCH   3   4
ATOM      4  C   UNL A   1      30.661  24.990  25.899  1.00  0.00     0.261 C 
BRANCH   4   5
ATOM      5  O   UNL A   1      30.952  26.267  26.484  1.00  0.00    -0.460 OA
BRANCH   5   6
ATOM      6  C   UNL A   1      31.041  27.315  25.619  1.00  0.00     0.339 C 
ATOM      7  O   UNL A   1      30.341  27.489  24.635  1.00  0.00    -0.246 OA
BRANCH   6   8
ATOM      8  C   UNL A   1      32.105  28.272  26.041  1.00  0.00     0.073 A 
ATOM      9  C   UNL A   1      33.469  27.934  25.916  1.00  0.00     0.016 A 
ATOM     10  C   UNL A   1      34.384  28.867  26.382  1.00  0.00     0.123 A 
ATOM     11  N   UNL A   1      34.044  30.068  26.899  1.00  0.00    -0.239 NA
ATOM     12  C   UNL A   1      31.740  29.519  26.552  1.00  0.00     0.062 A 
ATOM     13  C   UNL A   1      32.740  30.383  26.958  1.00  0.00     0.124 A 
BRANCH   9  14
ATOM     14  C   UNL A   1      33.910  26.811  25.084  1.00  0.00     0.003 A 
ATOM     15  C   UNL A   1      34.142  24.532  23.455  1.00  0.00     0.120 A 
ATOM     16  C   UNL A   1      34.591  24.511  24.772  1.00  0.00     0.047 A 
ATOM     17  C   UNL A   1      33.716  25.741  22.917  1.00  0.00     0.067 A 
ATOM     18  C   UNL A   1      34.426  25.627  25.602  1.00  0.00     0.014 A 
ATOM     19  C   UNL A   1      33.723  26.883  23.700  1.00  0.00     0.052 A 
ATOM     20  Cl  UNL A   1      33.602  28.424  22.940  1.00  0.00    -0.084 Cl
BRANCH  15  21
ATOM     21  O   UNL A   1      34.270  23.527  22.547  1.00  0.00    -0.494 OA
BRANCH  21  22
ATOM     22  C   UNL A   1      33.148  22.994  21.853  1.00  0.00     0.226 C 
ATOM     23  C   UNL A   1      32.431  21.855  22.552  1.00  0.00     0.049 C 
ENDBRANCH  21  22
ENDBRANCH  15  21
ENDBRANCH   9  14
BRANCH  13  24
ATOM     24  N   UNL A   1      32.446  31.665  27.362  1.00  0.00    -0.384 N 
ATOM     25  H   UNL A   1      31.628  32.108  27.042  1.00  0.00     0.158 HD
ATOM     26  H   UNL A   1      33.055  32.140  27.973  1.00  0.00     0.158 HD
ENDBRANCH  13  24
ENDBRANCH   6   8
ENDBRANCH   5   6
ENDBRANCH   4   5
ENDBRANCH   3   4
ENDBRANCH   2   3
ENDBRANCH   1   2
BRANCH   1  27
ATOM     27  C   UNL A   1      33.068  21.555  26.416  1.00  0.00     0.188 C 
BRANCH  27  28
ATOM     28  O   UNL A   1      34.470  21.361  26.389  1.00  0.00    -0.376 OA
BRANCH  28  29
ATOM     29  C   UNL A   1      35.044  20.798  25.223  1.00  0.00     0.202 C 
BRANCH  29  30
ATOM     30  C   UNL A   1      36.573  20.765  25.079  1.00  0.00     0.261 C 
BRANCH  30  31
ATOM     31  O   UNL A   1      37.292  21.815  25.758  1.00  0.00    -0.460 OA
BRANCH  31  32
ATOM     32  C   UNL A   1      38.598  21.545  26.037  1.00  0.00     0.338 C 
ATOM     33  O   UNL A   1      39.182  20.501  25.827  1.00  0.00    -0.246 OA
BRANCH  32  34
ATOM     34  C   UNL A   1      39.298  22.750  26.563  1.00  0.00     0.060 A 
ATOM     35  C   UNL A   1      38.840  24.005  26.145  1.00  0.00     0.016 A 
ATOM     36  C   UNL A   1      40.413  22.676  27.402  1.00  0.00     0.016 A 
ATOM     37  C   UNL A   1      39.451  25.180  26.603  1.00  0.00     0.010 A 
ATOM     38  C   UNL A   1      41.062  23.856  27.816  1.00  0.00     0.010 A 
ATOM     39  C   UNL A   1      40.586  25.120  27.422  1.00  0.00    -0.014 A 
BRANCH  39  40
ATOM     40  C   UNL A   1      41.341  26.370  27.738  1.00  0.00     0.031 A 
ATOM     41  C   UNL A   1      40.654  27.467  28.480  1.00  0.00     0.074 A 
ATOM     42  C   UNL A   1      42.643  26.535  27.438  1.00  0.00     0.049 A 
ATOM     43  N   UNL A   1      41.132  28.622  28.865  1.00  0.00    -0.248 NA
ATOM     44  C   UNL A   1      39.257  27.223  28.863  1.00  0.00     0.031 C 
ATOM     45  C   UNL A   1      43.464  25.510  26.836  1.00  0.00     0.029 A 
ATOM     46  N   UNL A   1      43.512  27.590  27.601  1.00  0.00    -0.354 N 
ATOM     47  C   UNL A   1      40.104  29.236  29.556  1.00  0.00     0.074 A 
ATOM     48  C   UNL A   1      38.969  28.336  29.519  1.00  0.00     0.031 C 
ATOM     49  C   UNL A   1      44.713  25.968  26.670  1.00  0.00     0.029 A 
ATOM     50  C   UNL A   1      44.769  27.352  27.092  1.00  0.00     0.049 A 
ATOM     51  H   UNL A   1      43.259  28.434  28.040  1.00  0.00     0.167 HD
ATOM     52  C   UNL A   1      40.113  30.444  30.164  1.00  0.00     0.037 A 
ATOM     53  C   UNL A   1      45.845  28.147  26.943  1.00  0.00     0.037 A 
ATOM     54  C   UNL A   1      41.223  31.361  30.150  1.00  0.00     0.049 A 
ATOM     55  C   UNL A   1      45.768  29.546  27.466  1.00  0.00     0.074 A 
ATOM     56  C   UNL A   1      41.303  32.621  30.716  1.00  0.00     0.029 A 
ATOM     57  N   UNL A   1      42.436  31.134  29.514  1.00  0.00    -0.354 N 
ATOM     58  N   UNL A   1      44.789  30.120  28.116  1.00  0.00    -0.248 NA
ATOM     59  C   UNL A   1      46.941  30.404  27.251  1.00  0.00     0.031 C 
ATOM     60  C   UNL A   1      42.532  33.185  30.360  1.00  0.00     0.029 A 
ATOM     61  C   UNL A   1      43.252  32.251  29.634  1.00  0.00     0.049 A 
ATOM     62  H   UNL A   1      42.683  30.303  29.047  1.00  0.00     0.167 HD
ATOM     63  C   UNL A   1      45.234  31.393  28.421  1.00  0.00     0.074 A 
ATOM     64  C   UNL A   1      46.578  31.507  27.890  1.00  0.00     0.031 C 
ATOM     65  C   UNL A   1      44.583  32.371  29.093  1.00  0.00     0.037 A 
BRANCH  52  66
ATOM     66  C   UNL A   1      38.837  30.864  30.825  1.00  0.00     0.064 A 
ATOM     67  C   UNL A   1      37.813  31.509  30.117  1.00  0.00     0.173 A 
ATOM     68  C   UNL A   1      38.654  30.640  32.197  1.00  0.00     0.173 A 
ATOM     69  F   UNL A   1      37.956  31.771  28.808  1.00  0.00    -0.203 F 
ATOM     70  C   UNL A   1      36.662  31.944  30.766  1.00  0.00     0.198 A 
ATOM     71  C   UNL A   1      37.488  31.048  32.836  1.00  0.00     0.198 A 
ATOM     72  F   UNL A   1      39.609  30.035  32.917  1.00  0.00    -0.203 F 
ATOM     73  F   UNL A   1      35.722  32.615  30.086  1.00  0.00    -0.200 F 
ATOM     74  C   UNL A   1      36.498  31.708  32.124  1.00  0.00     0.200 A 
ATOM     75  F   UNL A   1      37.330  30.814  34.146  1.00  0.00    -0.200 F 
ATOM     76  F   UNL A   1      35.392  32.131  32.750  1.00  0.00    -0.200 F 
ENDBRANCH  52  66
BRANCH  53  77
ATOM     77  C   UNL A   1      47.069  27.674  26.235  1.00  0.00     0.064 A 
ATOM     78  C   UNL A   1      47.167  27.710  24.838  1.00  0.00     0.173 A 
ATOM     79  C   UNL A   1      48.141  27.114  26.947  1.00  0.00     0.173 A 
ATOM     80  F   UNL A   1      46.156  28.204  24.108  1.00  0.00    -0.203 F 
ATOM     81  C   UNL A   1      48.280  27.188  24.178  1.00  0.00     0.198 A 
ATOM     82  C   UNL A   1      49.259  26.605  26.287  1.00  0.00     0.198 A 
ATOM     83  F   UNL A   1      48.104  27.058  28.286  1.00  0.00    -0.203 F 
ATOM     84  F   UNL A   1      48.329  27.198  22.839  1.00  0.00    -0.200 F 
ATOM     85  C   UNL A   1      49.326  26.639  24.903  1.00  0.00     0.200 A 
ATOM     86  F   UNL A   1      50.278  26.098  26.993  1.00  0.00    -0.200 F 
ATOM     87  F   UNL A   1      50.398  26.143  24.270  1.00  0.00    -0.200 F 
ENDBRANCH  53  77
BRANCH  65  88
ATOM     88  C   UNL A   1      45.332  33.649  29.321  1.00  0.00     0.064 A 
ATOM     89  C   UNL A   1      46.149  33.837  30.444  1.00  0.00     0.173 A 
ATOM     90  C   UNL A   1      45.238  34.694  28.390  1.00  0.00     0.173 A 
ATOM     91  F   UNL A   1      46.249  32.877  31.377  1.00  0.00    -0.203 F 
ATOM     92  C   UNL A   1      46.829  35.036  30.639  1.00  0.00     0.198 A 
ATOM     93  C   UNL A   1      45.947  35.877  28.570  1.00  0.00     0.198 A 
ATOM     94  F   UNL A   1      44.464  34.566  27.302  1.00  0.00    -0.203 F 
ATOM     95  F   UNL A   1      47.560  35.217  31.748  1.00  0.00    -0.200 F 
ATOM     96  C   UNL A   1      46.736  36.051  29.698  1.00  0.00     0.200 A 
ATOM     97  F   UNL A   1      45.864  36.852  27.654  1.00  0.00    -0.200 F 
ATOM     98  F   UNL A   1      47.397  37.201  29.882  1.00  0.00    -0.200 F 
ENDBRANCH  65  88
ENDBRANCH  39  40
ENDBRANCH  32  34
ENDBRANCH  31  32
ENDBRANCH  30  31
ENDBRANCH  29  30
ENDBRANCH  28  29
ENDBRANCH  27  28
ENDBRANCH   1  27
TORSDOF 21
ENDMDL
MODEL 3
REMARK VINA RESULT:     -10.7      2.950      7.894
REMARK SMILES CCOc1ccc(-c2cnc(N)cc2C(=O)OCCOCCOCCOC(=O)c2ccc(-c3c4nc(c(-c5c(F)c(F)c(F)c(F)c5F)c5ccc([nH]5)c(-c5c(F)c(F)c(F)c(F)c5F)c5nc(c(-c6c(F)c(F)c(F)c(F)c6F)c6ccc3[nH]6)C=C5)C=C4)cc2)c(Cl)c1
REMARK SMILES IDX 21 1 20 2 19 3 18 4 17 5 15 6 16 7 14 8 8 9 9 10 10 11 13 12
REMARK SMILES IDX 11 13 7 14 4 15 5 16 94 17 6 18 92 19 93 20 3 21 2 22 1 23
REMARK SMILES IDX 12 24 22 27 23 28 24 29 25 30 26 31 27 32 28 33 29 34 30 35
REMARK SMILES IDX 91 36 31 37 90 38 32 39 33 40 34 41 84 42 35 43 89 44 83 45
REMARK SMILES IDX 85 46 36 47 88 48 82 49 81 50 37 52 69 53 49 54 68 55 50 56
REMARK SMILES IDX 53 57 67 58 86 59 51 60 52 61 66 63 87 64 54 65 38 66 39 67
REMARK SMILES IDX 47 68 40 69 41 70 45 71 48 72 42 73 43 74 46 75 44 76 70 77
REMARK SMILES IDX 71 78 79 79 72 80 73 81 77 82 80 83 74 84 75 85 78 86 76 87
REMARK SMILES IDX 55 88 56 89 64 90 57 91 58 92 62 93 65 94 59 95 60 96 63 97
REMARK SMILES IDX 61 98
REMARK H PARENT 12 25 12 26 85 51 53 62
REMARK Flexibility Score: inf
ROOT
ATOM      1  C   UNL A   1      30.650  27.741  22.334  1.00  0.00     0.188 C 
ENDROOT
BRANCH   1   2
ATOM      2  O   UNL A   1      31.110  26.412  22.352  1.00  0.00    -0.376 OA
BRANCH   2   3
ATOM      3  C   UNL A   1      32.462  26.108  22.080  1.00  0.00     0.202 C 
BRANCH   3   4
ATOM      4  C   UNL A   1      33.248  24.929  22.688  1.00  0.00     0.261 C 
BRANCH   4   5
ATOM      5  O   UNL A   1      34.372  25.217  23.531  1.00  0.00    -0.460 OA
BRANCH   5   6
ATOM      6  C   UNL A   1      34.327  24.694  24.787  1.00  0.00     0.339 C 
ATOM      7  O   UNL A   1      35.253  24.155  25.369  1.00  0.00    -0.246 OA
BRANCH   6   8
ATOM      8  C   UNL A   1      32.981  24.886  25.402  1.00  0.00     0.073 A 
ATOM      9  C   UNL A   1      32.050  23.826  25.445  1.00  0.00     0.016 A 
ATOM     10  C   UNL A   1      30.807  24.115  25.990  1.00  0.00     0.123 A 
ATOM     11  N   UNL A   1      30.466  25.318  26.503  1.00  0.00    -0.239 NA
ATOM     12  C   UNL A   1      32.650  26.127  25.950  1.00  0.00     0.062 A 
ATOM     13  C   UNL A   1      31.390  26.292  26.495  1.00  0.00     0.124 A 
BRANCH   9  14
ATOM     14  C   UNL A   1      32.454  22.438  25.209  1.00  0.00     0.003 A 
ATOM     15  C   UNL A   1      33.796  20.028  24.668  1.00  0.00     0.120 A 
ATOM     16  C   UNL A   1      32.868  20.541  23.766  1.00  0.00     0.047 A 
ATOM     17  C   UNL A   1      33.935  20.648  25.904  1.00  0.00     0.067 A 
ATOM     18  C   UNL A   1      32.240  21.769  24.007  1.00  0.00     0.014 A 
ATOM     19  C   UNL A   1      33.175  21.768  26.202  1.00  0.00     0.052 A 
ATOM     20  Cl  UNL A   1      33.036  22.277  27.841  1.00  0.00    -0.084 Cl
BRANCH  15  21
ATOM     21  O   UNL A   1      34.448  18.839  24.559  1.00  0.00    -0.494 OA
BRANCH  21  22
ATOM     22  C   UNL A   1      33.761  17.595  24.644  1.00  0.00     0.226 C 
ATOM     23  C   UNL A   1      33.904  16.690  23.436  1.00  0.00     0.049 C 
ENDBRANCH  21  22
ENDBRANCH  15  21
ENDBRANCH   9  14
BRANCH  13  24
ATOM     24  N   UNL A   1      31.048  27.454  27.149  1.00  0.00    -0.384 N 
ATOM     25  H   UNL A   1      30.368  28.053  26.766  1.00  0.00     0.158 HD
ATOM     26  H   UNL A   1      31.484  27.685  28.001  1.00  0.00     0.158 HD
ENDBRANCH  13  24
ENDBRANCH   6   8
ENDBRANCH   5   6
ENDBRANCH   4   5
ENDBRANCH   3   4
ENDBRANCH   2   3
ENDBRANCH   1   2
BRANCH   1  27
ATOM     27  C   UNL A   1      30.033  28.377  23.597  1.00  0.00     0.188 C 
BRANCH  27  28
ATOM     28  O   UNL A   1      30.861  29.035  24.537  1.00  0.00    -0.376 OA
BRANCH  28  29
ATOM     29  C   UNL A   1      32.212  29.273  24.186  1.00  0.00     0.202 C 
BRANCH  29  30
ATOM     30  C   UNL A   1      33.202  29.724  25.271  1.00  0.00     0.261 C 
BRANCH  30  31
ATOM     31  O   UNL A   1      32.619  30.134  26.525  1.00  0.00    -0.460 OA
BRANCH  31  32
ATOM     32  C   UNL A   1      33.152  31.257  27.081  1.00  0.00     0.338 C 
ATOM     33  O   UNL A   1      32.637  32.355  27.128  1.00  0.00    -0.246 OA
BRANCH  32  34
ATOM     34  C   UNL A   1      34.454  30.966  27.743  1.00  0.00     0.060 A 
ATOM     35  C   UNL A   1      34.668  29.666  28.218  1.00  0.00     0.016 A 
ATOM     36  C   UNL A   1      35.434  31.938  27.954  1.00  0.00     0.016 A 
ATOM     37  C   UNL A   1      35.871  29.322  28.850  1.00  0.00     0.010 A 
ATOM     38  C   UNL A   1      36.620  31.606  28.640  1.00  0.00     0.010 A 
ATOM     39  C   UNL A   1      36.850  30.294  29.092  1.00  0.00    -0.014 A 
BRANCH  39  40
ATOM     40  C   UNL A   1      38.035  29.960  29.939  1.00  0.00     0.031 A 
ATOM     41  C   UNL A   1      39.073  29.031  29.401  1.00  0.00     0.074 A 
ATOM     42  C   UNL A   1      38.249  30.507  31.150  1.00  0.00     0.049 A 
ATOM     43  N   UNL A   1      40.180  28.624  29.966  1.00  0.00    -0.248 NA
ATOM     44  C   UNL A   1      38.850  28.513  28.045  1.00  0.00     0.031 C 
ATOM     45  C   UNL A   1      37.397  31.514  31.737  1.00  0.00     0.029 A 
ATOM     46  N   UNL A   1      39.232  30.324  32.096  1.00  0.00    -0.354 N 
ATOM     47  C   UNL A   1      40.801  27.821  29.027  1.00  0.00     0.074 A 
ATOM     48  C   UNL A   1      39.936  27.779  27.864  1.00  0.00     0.031 C 
ATOM     49  C   UNL A   1      37.873  31.868  32.939  1.00  0.00     0.029 A 
ATOM     50  C   UNL A   1      39.036  31.059  33.243  1.00  0.00     0.049 A 
ATOM     51  H   UNL A   1      40.003  29.726  31.965  1.00  0.00     0.167 HD
ATOM     52  C   UNL A   1      41.985  27.178  29.132  1.00  0.00     0.037 A 
ATOM     53  C   UNL A   1      39.681  31.074  34.425  1.00  0.00     0.037 A 
ATOM     54  C   UNL A   1      42.815  27.174  30.308  1.00  0.00     0.049 A 
ATOM     55  C   UNL A   1      40.894  30.212  34.578  1.00  0.00     0.074 A 
ATOM     56  C   UNL A   1      44.018  26.520  30.508  1.00  0.00     0.029 A 
ATOM     57  N   UNL A   1      42.517  27.829  31.496  1.00  0.00    -0.354 N 
ATOM     58  N   UNL A   1      41.472  29.452  33.684  1.00  0.00    -0.248 NA
ATOM     59  C   UNL A   1      41.552  30.215  35.891  1.00  0.00     0.031 C 
ATOM     60  C   UNL A   1      44.410  26.717  31.837  1.00  0.00     0.029 A 
ATOM     61  C   UNL A   1      43.491  27.555  32.446  1.00  0.00     0.049 A 
ATOM     62  H   UNL A   1      41.732  28.404  31.642  1.00  0.00     0.167 HD
ATOM     63  C   UNL A   1      42.581  28.912  34.309  1.00  0.00     0.074 A 
ATOM     64  C   UNL A   1      42.600  29.437  35.659  1.00  0.00     0.031 C 
ATOM     65  C   UNL A   1      43.503  28.065  33.795  1.00  0.00     0.037 A 
BRANCH  52  66
ATOM     66  C   UNL A   1      42.402  26.356  27.951  1.00  0.00     0.064 A 
ATOM     67  C   UNL A   1      41.970  25.032  27.781  1.00  0.00     0.173 A 
ATOM     68  C   UNL A   1      43.270  26.898  26.993  1.00  0.00     0.173 A 
ATOM     69  F   UNL A   1      41.162  24.462  28.687  1.00  0.00    -0.203 F 
ATOM     70  C   UNL A   1      42.419  24.269  26.707  1.00  0.00     0.198 A 
ATOM     71  C   UNL A   1      43.692  26.142  25.905  1.00  0.00     0.198 A 
ATOM     72  F   UNL A   1      43.717  28.156  27.119  1.00  0.00    -0.203 F 
ATOM     73  F   UNL A   1      42.046  22.987  26.595  1.00  0.00    -0.200 F 
ATOM     74  C   UNL A   1      43.275  24.827  25.768  1.00  0.00     0.200 A 
ATOM     75  F   UNL A   1      44.513  26.685  24.996  1.00  0.00    -0.200 F 
ATOM     76  F   UNL A   1      43.710  24.090  24.737  1.00  0.00    -0.200 F 
ENDBRANCH  52  66
BRANCH  53  77
ATOM     77  C   UNL A   1      39.184  31.886  35.572  1.00  0.00     0.064 A 
ATOM     78  C   UNL A   1      39.627  33.198  35.786  1.00  0.00     0.173 A 
ATOM     79  C   UNL A   1      38.303  31.336  36.515  1.00  0.00     0.173 A 
ATOM     80  F   UNL A   1      40.497  33.759  34.933  1.00  0.00    -0.203 F 
ATOM     81  C   UNL A   1      39.223  33.922  36.908  1.00  0.00     0.198 A 
ATOM     82  C   UNL A   1      37.889  32.065  37.629  1.00  0.00     0.198 A 
ATOM     83  F   UNL A   1      37.842  30.086  36.358  1.00  0.00    -0.203 F 
ATOM     84  F   UNL A   1      39.695  35.160  37.110  1.00  0.00    -0.200 F 
ATOM     85  C   UNL A   1      38.353  33.357  37.827  1.00  0.00     0.200 A 
ATOM     86  F   UNL A   1      37.028  31.524  38.501  1.00  0.00    -0.200 F 
ATOM     87  F   UNL A   1      37.960  34.054  38.901  1.00  0.00    -0.200 F 
ENDBRANCH  53  77
BRANCH  65  88
ATOM     88  C   UNL A   1      44.636  27.674  34.694  1.00  0.00     0.064 A 
ATOM     89  C   UNL A   1      44.580  26.529  35.501  1.00  0.00     0.173 A 
ATOM     90  C   UNL A   1      45.802  28.453  34.734  1.00  0.00     0.173 A 
ATOM     91  F   UNL A   1      43.475  25.767  35.518  1.00  0.00    -0.203 F 
ATOM     92  C   UNL A   1      45.642  26.190  36.334  1.00  0.00     0.198 A 
ATOM     93  C   UNL A   1      46.876  28.091  35.542  1.00  0.00     0.198 A 
ATOM     94  F   UNL A   1      45.903  29.562  33.986  1.00  0.00    -0.203 F 
ATOM     95  F   UNL A   1      45.546  25.123  37.140  1.00  0.00    -0.200 F 
ATOM     96  C   UNL A   1      46.793  26.965  36.347  1.00  0.00     0.200 A 
ATOM     97  F   UNL A   1      47.990  28.836  35.544  1.00  0.00    -0.200 F 
ATOM     98  F   UNL A   1      47.817  26.634  37.143  1.00  0.00    -0.200 F 
ENDBRANCH  65  88
ENDBRANCH  39  40
ENDBRANCH  32  34
ENDBRANCH  31  32
ENDBRANCH  30  31
ENDBRANCH  29  30
ENDBRANCH  28  29
ENDBRANCH  27  28
ENDBRANCH   1  27
TORSDOF 21
ENDMDL
