MODEL 1
REMARK VINA RESULT:     -11.1      0.000      0.000
REMARK SMILES [NH3+][C@@H](CNc1ccc(C(=O)OCCOCCOCCOC(=O)c2ccc(-c3c4nc(c(-c5c(F)c(F)c(F)c(F)c5F)c5ccc([nH]5)c(-c5c(F)c(F)c(F)c(F)c5F)c5nc(c(-c6c(F)c(F)c(F)c(F)c6F)c6ccc3[nH]6)C=C5)C=C4)cc2)c(F)c1F)c1ccccc1
REMARK SMILES IDX 15 1 14 2 13 3 12 4 11 5 9 6 10 7 8 8 5 9 6 10 88 11 7 12
REMARK SMILES IDX 86 13 89 14 87 15 4 16 3 18 2 19 1 20 90 24 91 25 95 26
REMARK SMILES IDX 92 27 94 28 93 29 16 30 17 31 18 32 19 33 20 34 21 35 22 36
REMARK SMILES IDX 23 37 24 38 85 39 25 40 84 41 26 42 27 43 28 44 78 45 29 46
REMARK SMILES IDX 83 47 77 48 79 49 30 50 82 51 76 52 75 53 31 55 63 56 43 57
REMARK SMILES IDX 62 58 44 59 47 60 61 61 80 62 45 63 46 64 60 66 81 67 48 68
REMARK SMILES IDX 32 69 33 70 41 71 34 72 35 73 39 74 42 75 36 76 37 77 40 78
REMARK SMILES IDX 38 79 64 80 65 81 73 82 66 83 67 84 71 85 74 86 68 87 69 88
REMARK SMILES IDX 72 89 70 90 49 91 50 92 58 93 51 94 52 95 56 96 59 97 53 98
REMARK SMILES IDX 54 99 57 100 55 101
REMARK H PARENT 4 17 1 21 1 22 1 23 79 54 47 65
REMARK Flexibility Score: inf
ROOT
ATOM      1  C   UNL A   1      40.905  20.928  27.325  1.00  0.00     0.188 C 
ENDROOT
BRANCH   1   2
ATOM      2  O   UNL A   1      39.919  21.933  27.143  1.00  0.00    -0.376 OA
BRANCH   2   3
ATOM      3  C   UNL A   1      39.162  21.969  25.940  1.00  0.00     0.202 C 
BRANCH   3   4
ATOM      4  C   UNL A   1      37.838  22.743  25.902  1.00  0.00     0.261 C 
BRANCH   4   5
ATOM      5  O   UNL A   1      37.118  22.625  24.665  1.00  0.00    -0.460 OA
BRANCH   5   6
ATOM      6  C   UNL A   1      36.248  21.589  24.592  1.00  0.00     0.341 C 
ATOM      7  O   UNL A   1      36.429  20.441  24.968  1.00  0.00    -0.246 OA
BRANCH   6   8
ATOM      8  C   UNL A   1      34.922  22.067  24.181  1.00  0.00     0.099 A 
ATOM      9  C   UNL A   1      32.434  23.118  23.372  1.00  0.00     0.074 A 
ATOM     10  C   UNL A   1      33.592  23.389  22.638  1.00  0.00     0.030 A 
ATOM     11  C   UNL A   1      32.558  22.294  24.510  1.00  0.00     0.182 A 
ATOM     12  C   UNL A   1      34.832  22.891  23.051  1.00  0.00     0.021 A 
ATOM     13  C   UNL A   1      33.781  21.757  24.904  1.00  0.00     0.175 A 
ATOM     14  F   UNL A   1      31.460  22.013  25.233  1.00  0.00    -0.201 F 
ATOM     15  F   UNL A   1      33.843  20.971  25.988  1.00  0.00    -0.203 F 
BRANCH   9  16
ATOM     16  N   UNL A   1      31.188  23.601  22.997  1.00  0.00    -0.376 N 
ATOM     17  H   UNL A   1      30.542  22.977  22.592  1.00  0.00     0.160 HD
BRANCH  16  18
ATOM     18  C   UNL A   1      30.792  25.000  23.179  1.00  0.00     0.183 C 
BRANCH  18  19
ATOM     19  C   UNL A   1      30.353  25.316  24.650  1.00  0.00     0.231 C 
BRANCH  19  20
ATOM     20  N   UNL A   1      29.016  25.923  24.749  1.00  0.00    -0.350 N 
ATOM     21  H   UNL A   1      28.311  25.186  24.794  1.00  0.00     0.345 HD
ATOM     22  H   UNL A   1      28.846  26.506  23.929  1.00  0.00     0.345 HD
ATOM     23  H   UNL A   1      28.964  26.495  25.591  1.00  0.00     0.345 HD
ENDBRANCH  19  20
BRANCH  19  24
ATOM     24  C   UNL A   1      31.396  26.139  25.396  1.00  0.00     0.011 A 
ATOM     25  C   UNL A   1      31.043  27.036  26.418  1.00  0.00     0.010 A 
ATOM     26  C   UNL A   1      32.751  26.048  25.041  1.00  0.00     0.010 A 
ATOM     27  C   UNL A   1      31.995  27.862  27.018  1.00  0.00     0.001 A 
ATOM     28  C   UNL A   1      33.708  26.862  25.654  1.00  0.00     0.001 A 
ATOM     29  C   UNL A   1      33.327  27.780  26.631  1.00  0.00     0.000 A 
ENDBRANCH  19  24
ENDBRANCH  18  19
ENDBRANCH  16  18
ENDBRANCH   9  16
ENDBRANCH   6   8
ENDBRANCH   5   6
ENDBRANCH   4   5
ENDBRANCH   3   4
ENDBRANCH   2   3
ENDBRANCH   1   2
BRANCH   1  30
ATOM     30  C   UNL A   1      41.192  19.895  26.214  1.00  0.00     0.188 C 
BRANCH  30  31
ATOM     31  O   UNL A   1      42.408  20.044  25.527  1.00  0.00    -0.376 OA
BRANCH  31  32
ATOM     32  C   UNL A   1      43.275  21.134  25.772  1.00  0.00     0.202 C 
BRANCH  32  33
ATOM     33  C   UNL A   1      43.704  22.209  24.755  1.00  0.00     0.261 C 
BRANCH  33  34
ATOM     34  O   UNL A   1      43.070  23.485  24.807  1.00  0.00    -0.460 OA
BRANCH  34  35
ATOM     35  C   UNL A   1      43.877  24.536  25.084  1.00  0.00     0.338 C 
ATOM     36  O   UNL A   1      44.927  24.832  24.547  1.00  0.00    -0.246 OA
BRANCH  35  37
ATOM     37  C   UNL A   1      43.194  25.389  26.073  1.00  0.00     0.060 A 
ATOM     38  C   UNL A   1      43.597  26.724  26.198  1.00  0.00     0.016 A 
ATOM     39  C   UNL A   1      42.188  24.867  26.890  1.00  0.00     0.016 A 
ATOM     40  C   UNL A   1      43.008  27.537  27.165  1.00  0.00     0.010 A 
ATOM     41  C   UNL A   1      41.611  25.680  27.870  1.00  0.00     0.010 A 
ATOM     42  C   UNL A   1      42.039  27.009  28.029  1.00  0.00    -0.014 A 
BRANCH  42  43
ATOM     43  C   UNL A   1      41.583  27.801  29.196  1.00  0.00     0.031 A 
ATOM     44  C   UNL A   1      42.339  27.685  30.490  1.00  0.00     0.074 A 
ATOM     45  C   UNL A   1      40.530  28.633  29.102  1.00  0.00     0.049 A 
ATOM     46  N   UNL A   1      42.109  28.262  31.641  1.00  0.00    -0.248 NA
ATOM     47  C   UNL A   1      43.517  26.801  30.481  1.00  0.00     0.031 C 
ATOM     48  C   UNL A   1      39.746  28.865  27.892  1.00  0.00     0.029 A 
ATOM     49  N   UNL A   1      39.942  29.436  30.047  1.00  0.00    -0.354 N 
ATOM     50  C   UNL A   1      43.114  27.819  32.490  1.00  0.00     0.074 A 
ATOM     51  C   UNL A   1      43.935  26.899  31.734  1.00  0.00     0.031 C 
ATOM     52  C   UNL A   1      38.775  29.753  28.168  1.00  0.00     0.029 A 
ATOM     53  C   UNL A   1      38.851  30.127  29.581  1.00  0.00     0.049 A 
ATOM     54  H   UNL A   1      40.272  29.511  30.972  1.00  0.00     0.167 HD
ATOM     55  C   UNL A   1      43.338  28.160  33.780  1.00  0.00     0.037 A 
ATOM     56  C   UNL A   1      38.003  30.951  30.226  1.00  0.00     0.037 A 
ATOM     57  C   UNL A   1      42.515  29.067  34.534  1.00  0.00     0.049 A 
ATOM     58  C   UNL A   1      38.216  31.241  31.690  1.00  0.00     0.074 A 
ATOM     59  C   UNL A   1      42.662  29.473  35.849  1.00  0.00     0.029 A 
ATOM     60  N   UNL A   1      41.385  29.704  34.042  1.00  0.00    -0.354 N 
ATOM     61  N   UNL A   1      39.175  30.829  32.483  1.00  0.00    -0.248 NA
ATOM     62  C   UNL A   1      37.228  32.108  32.349  1.00  0.00     0.031 C 
ATOM     63  C   UNL A   1      41.595  30.317  36.167  1.00  0.00     0.029 A 
ATOM     64  C   UNL A   1      40.813  30.481  35.035  1.00  0.00     0.049 A 
ATOM     65  H   UNL A   1      41.042  29.616  33.124  1.00  0.00     0.167 HD
ATOM     66  C   UNL A   1      38.924  31.405  33.722  1.00  0.00     0.074 A 
ATOM     67  C   UNL A   1      37.725  32.203  33.576  1.00  0.00     0.031 C 
ATOM     68  C   UNL A   1      39.626  31.282  34.875  1.00  0.00     0.037 A 
BRANCH  55  69
ATOM     69  C   UNL A   1      44.519  27.543  34.469  1.00  0.00     0.064 A 
ATOM     70  C   UNL A   1      44.370  26.370  35.224  1.00  0.00     0.173 A 
ATOM     71  C   UNL A   1      45.783  28.149  34.436  1.00  0.00     0.173 A 
ATOM     72  F   UNL A   1      43.181  25.755  35.291  1.00  0.00    -0.203 F 
ATOM     73  C   UNL A   1      45.443  25.836  35.932  1.00  0.00     0.198 A 
ATOM     74  C   UNL A   1      46.859  27.597  35.124  1.00  0.00     0.198 A 
ATOM     75  F   UNL A   1      45.978  29.265  33.716  1.00  0.00    -0.203 F 
ATOM     76  F   UNL A   1      45.270  24.732  36.672  1.00  0.00    -0.200 F 
ATOM     77  C   UNL A   1      46.687  26.446  35.880  1.00  0.00     0.200 A 
ATOM     78  F   UNL A   1      48.066  28.175  35.052  1.00  0.00    -0.200 F 
ATOM     79  F   UNL A   1      47.719  25.925  36.555  1.00  0.00    -0.200 F 
ENDBRANCH  55  69
BRANCH  56  80
ATOM     80  C   UNL A   1      36.872  31.572  29.485  1.00  0.00     0.064 A 
ATOM     81  C   UNL A   1      36.863  32.941  29.182  1.00  0.00     0.173 A 
ATOM     82  C   UNL A   1      35.773  30.806  29.078  1.00  0.00     0.173 A 
ATOM     83  F   UNL A   1      37.896  33.716  29.545  1.00  0.00    -0.203 F 
ATOM     84  C   UNL A   1      35.786  33.524  28.518  1.00  0.00     0.198 A 
ATOM     85  C   UNL A   1      34.707  31.384  28.392  1.00  0.00     0.198 A 
ATOM     86  F   UNL A   1      35.748  29.487  29.323  1.00  0.00    -0.203 F 
ATOM     87  F   UNL A   1      35.789  34.840  28.266  1.00  0.00    -0.200 F 
ATOM     88  C   UNL A   1      34.711  32.744  28.120  1.00  0.00     0.200 A 
ATOM     89  F   UNL A   1      33.682  30.623  27.986  1.00  0.00    -0.200 F 
ATOM     90  F   UNL A   1      33.680  33.303  27.470  1.00  0.00    -0.200 F 
ENDBRANCH  56  80
BRANCH  68  91
ATOM     91  C   UNL A   1      39.149  32.046  36.076  1.00  0.00     0.064 A 
ATOM     92  C   UNL A   1      38.235  31.464  36.970  1.00  0.00     0.173 A 
ATOM     93  C   UNL A   1      39.513  33.383  36.288  1.00  0.00     0.173 A 
ATOM     94  F   UNL A   1      37.846  30.191  36.804  1.00  0.00    -0.203 F 
ATOM     95  C   UNL A   1      37.688  32.201  38.016  1.00  0.00     0.198 A 
ATOM     96  C   UNL A   1      38.985  34.108  37.353  1.00  0.00     0.198 A 
ATOM     97  F   UNL A   1      40.392  33.981  35.468  1.00  0.00    -0.203 F 
ATOM     98  F   UNL A   1      36.785  31.637  38.831  1.00  0.00    -0.200 F 
ATOM     99  C   UNL A   1      38.065  33.520  38.208  1.00  0.00     0.200 A 
ATOM    100  F   UNL A   1      39.366  35.378  37.551  1.00  0.00    -0.200 F 
ATOM    101  F   UNL A   1      37.540  34.228  39.218  1.00  0.00    -0.200 F 
ENDBRANCH  68  91
ENDBRANCH  42  43
ENDBRANCH  35  37
ENDBRANCH  34  35
ENDBRANCH  33  34
ENDBRANCH  32  33
ENDBRANCH  31  32
ENDBRANCH  30  31
ENDBRANCH   1  30
TORSDOF 22
ENDMDL
MODEL 2
REMARK VINA RESULT:     -11.0      1.363      7.463
REMARK SMILES [NH3+][C@@H](CNc1ccc(C(=O)OCCOCCOCCOC(=O)c2ccc(-c3c4nc(c(-c5c(F)c(F)c(F)c(F)c5F)c5ccc([nH]5)c(-c5c(F)c(F)c(F)c(F)c5F)c5nc(c(-c6c(F)c(F)c(F)c(F)c6F)c6ccc3[nH]6)C=C5)C=C4)cc2)c(F)c1F)c1ccccc1
REMARK SMILES IDX 15 1 14 2 13 3 12 4 11 5 9 6 10 7 8 8 5 9 6 10 88 11 7 12
REMARK SMILES IDX 86 13 89 14 87 15 4 16 3 18 2 19 1 20 90 24 91 25 95 26
REMARK SMILES IDX 92 27 94 28 93 29 16 30 17 31 18 32 19 33 20 34 21 35 22 36
REMARK SMILES IDX 23 37 24 38 85 39 25 40 84 41 26 42 27 43 28 44 78 45 29 46
REMARK SMILES IDX 83 47 77 48 79 49 30 50 82 51 76 52 75 53 31 55 63 56 43 57
REMARK SMILES IDX 62 58 44 59 47 60 61 61 80 62 45 63 46 64 60 66 81 67 48 68
REMARK SMILES IDX 32 69 33 70 41 71 34 72 35 73 39 74 42 75 36 76 37 77 40 78
REMARK SMILES IDX 38 79 64 80 65 81 73 82 66 83 67 84 71 85 74 86 68 87 69 88
REMARK SMILES IDX 72 89 70 90 49 91 50 92 58 93 51 94 52 95 56 96 59 97 53 98
REMARK SMILES IDX 54 99 57 100 55 101
REMARK H PARENT 4 17 1 21 1 22 1 23 79 54 47 65
REMARK Flexibility Score: inf
ROOT
ATOM      1  C   UNL A   1      43.969  18.616  25.206  1.00  0.00     0.188 C 
ENDROOT
BRANCH   1   2
ATOM      2  O   UNL A   1      42.696  19.236  25.329  1.00  0.00    -0.376 OA
BRANCH   2   3
ATOM      3  C   UNL A   1      41.938  19.057  26.518  1.00  0.00     0.202 C 
BRANCH   3   4
ATOM      4  C   UNL A   1      41.684  20.257  27.440  1.00  0.00     0.261 C 
BRANCH   4   5
ATOM      5  O   UNL A   1      40.372  20.830  27.319  1.00  0.00    -0.460 OA
BRANCH   5   6
ATOM      6  C   UNL A   1      40.233  21.771  26.357  1.00  0.00     0.341 C 
ATOM      7  O   UNL A   1      41.120  22.400  25.800  1.00  0.00    -0.246 OA
BRANCH   6   8
ATOM      8  C   UNL A   1      38.844  21.811  25.881  1.00  0.00     0.099 A 
ATOM      9  C   UNL A   1      36.142  21.964  25.089  1.00  0.00     0.074 A 
ATOM     10  C   UNL A   1      36.817  23.104  25.537  1.00  0.00     0.030 A 
ATOM     11  C   UNL A   1      36.865  20.755  25.035  1.00  0.00     0.182 A 
ATOM     12  C   UNL A   1      38.150  23.027  25.955  1.00  0.00     0.021 A 
ATOM     13  C   UNL A   1      38.205  20.676  25.407  1.00  0.00     0.175 A 
ATOM     14  F   UNL A   1      36.242  19.644  24.604  1.00  0.00    -0.201 F 
ATOM     15  F   UNL A   1      38.849  19.503  25.328  1.00  0.00    -0.203 F 
BRANCH   9  16
ATOM     16  N   UNL A   1      34.818  22.002  24.673  1.00  0.00    -0.376 N 
ATOM     17  H   UNL A   1      34.615  21.804  23.730  1.00  0.00     0.160 HD
BRANCH  16  18
ATOM     18  C   UNL A   1      33.713  22.325  25.577  1.00  0.00     0.183 C 
BRANCH  18  19
ATOM     19  C   UNL A   1      32.635  23.246  24.908  1.00  0.00     0.231 C 
BRANCH  19  20
ATOM     20  N   UNL A   1      32.707  23.266  23.438  1.00  0.00    -0.350 N 
ATOM     21  H   UNL A   1      32.772  24.232  23.114  1.00  0.00     0.345 HD
ATOM     22  H   UNL A   1      31.868  22.833  23.051  1.00  0.00     0.345 HD
ATOM     23  H   UNL A   1      33.530  22.749  23.131  1.00  0.00     0.345 HD
ENDBRANCH  19  20
BRANCH  19  24
ATOM     24  C   UNL A   1      32.644  24.655  25.487  1.00  0.00     0.011 A 
ATOM     25  C   UNL A   1      31.509  25.216  26.097  1.00  0.00     0.010 A 
ATOM     26  C   UNL A   1      33.795  25.453  25.380  1.00  0.00     0.010 A 
ATOM     27  C   UNL A   1      31.498  26.545  26.524  1.00  0.00     0.001 A 
ATOM     28  C   UNL A   1      33.790  26.778  25.825  1.00  0.00     0.001 A 
ATOM     29  C   UNL A   1      32.638  27.329  26.381  1.00  0.00     0.000 A 
ENDBRANCH  19  24
ENDBRANCH  18  19
ENDBRANCH  16  18
ENDBRANCH   9  16
ENDBRANCH   6   8
ENDBRANCH   5   6
ENDBRANCH   4   5
ENDBRANCH   3   4
ENDBRANCH   2   3
ENDBRANCH   1   2
BRANCH   1  30
ATOM     30  C   UNL A   1      45.045  19.206  24.269  1.00  0.00     0.188 C 
BRANCH  30  31
ATOM     31  O   UNL A   1      44.745  20.448  23.685  1.00  0.00    -0.376 OA
BRANCH  31  32
ATOM     32  C   UNL A   1      44.933  21.665  24.380  1.00  0.00     0.202 C 
BRANCH  32  33
ATOM     33  C   UNL A   1      44.385  23.046  23.972  1.00  0.00     0.261 C 
BRANCH  33  34
ATOM     34  O   UNL A   1      43.826  23.881  24.984  1.00  0.00    -0.460 OA
BRANCH  34  35
ATOM     35  C   UNL A   1      44.520  25.005  25.274  1.00  0.00     0.338 C 
ATOM     36  O   UNL A   1      45.519  25.428  24.724  1.00  0.00    -0.246 OA
BRANCH  35  37
ATOM     37  C   UNL A   1      43.773  25.753  26.302  1.00  0.00     0.060 A 
ATOM     38  C   UNL A   1      44.035  27.119  26.458  1.00  0.00     0.016 A 
ATOM     39  C   UNL A   1      42.848  25.104  27.122  1.00  0.00     0.016 A 
ATOM     40  C   UNL A   1      43.385  27.838  27.460  1.00  0.00     0.010 A 
ATOM     41  C   UNL A   1      42.210  25.823  28.137  1.00  0.00     0.010 A 
ATOM     42  C   UNL A   1      42.497  27.186  28.327  1.00  0.00    -0.014 A 
BRANCH  42  43
ATOM     43  C   UNL A   1      41.986  27.892  29.526  1.00  0.00     0.031 A 
ATOM     44  C   UNL A   1      40.725  28.700  29.407  1.00  0.00     0.074 A 
ATOM     45  C   UNL A   1      42.617  27.795  30.710  1.00  0.00     0.049 A 
ATOM     46  N   UNL A   1      40.109  29.417  30.312  1.00  0.00    -0.248 NA
ATOM     47  C   UNL A   1      40.066  28.695  28.090  1.00  0.00     0.031 C 
ATOM     48  C   UNL A   1      43.821  27.007  30.961  1.00  0.00     0.029 A 
ATOM     49  N   UNL A   1      42.327  28.368  31.923  1.00  0.00    -0.354 N 
ATOM     50  C   UNL A   1      38.990  29.940  29.679  1.00  0.00     0.074 A 
ATOM     51  C   UNL A   1      39.029  29.491  28.304  1.00  0.00     0.031 C 
ATOM     52  C   UNL A   1      44.170  27.147  32.251  1.00  0.00     0.029 A 
ATOM     53  C   UNL A   1      43.232  28.059  32.908  1.00  0.00     0.049 A 
ATOM     54  H   UNL A   1      41.544  28.946  32.073  1.00  0.00     0.167 HD
ATOM     55  C   UNL A   1      38.013  30.718  30.200  1.00  0.00     0.037 A 
ATOM     56  C   UNL A   1      43.303  28.479  34.186  1.00  0.00     0.037 A 
ATOM     57  C   UNL A   1      37.981  31.174  31.565  1.00  0.00     0.049 A 
ATOM     58  C   UNL A   1      42.255  29.422  34.720  1.00  0.00     0.074 A 
ATOM     59  C   UNL A   1      37.031  31.966  32.184  1.00  0.00     0.029 A 
ATOM     60  N   UNL A   1      38.946  30.884  32.517  1.00  0.00    -0.354 N 
ATOM     61  N   UNL A   1      41.193  29.903  34.119  1.00  0.00    -0.248 NA
ATOM     62  C   UNL A   1      42.416  29.883  36.107  1.00  0.00     0.031 C 
ATOM     63  C   UNL A   1      37.446  32.196  33.499  1.00  0.00     0.029 A 
ATOM     64  C   UNL A   1      38.625  31.502  33.714  1.00  0.00     0.049 A 
ATOM     65  H   UNL A   1      39.740  30.323  32.365  1.00  0.00     0.167 HD
ATOM     66  C   UNL A   1      40.548  30.697  35.058  1.00  0.00     0.074 A 
ATOM     67  C   UNL A   1      41.331  30.629  36.273  1.00  0.00     0.031 C 
ATOM     68  C   UNL A   1      39.407  31.417  34.922  1.00  0.00     0.037 A 
BRANCH  55  69
ATOM     69  C   UNL A   1      36.895  31.134  29.292  1.00  0.00     0.064 A 
ATOM     70  C   UNL A   1      36.808  32.457  28.831  1.00  0.00     0.173 A 
ATOM     71  C   UNL A   1      35.874  30.243  28.932  1.00  0.00     0.173 A 
ATOM     72  F   UNL A   1      37.756  33.349  29.151  1.00  0.00    -0.203 F 
ATOM     73  C   UNL A   1      35.730  32.873  28.055  1.00  0.00     0.198 A 
ATOM     74  C   UNL A   1      34.812  30.656  28.133  1.00  0.00     0.198 A 
ATOM     75  F   UNL A   1      35.921  28.965  29.337  1.00  0.00    -0.203 F 
ATOM     76  F   UNL A   1      35.651  34.148  27.651  1.00  0.00    -0.200 F 
ATOM     77  C   UNL A   1      34.735  31.973  27.703  1.00  0.00     0.200 A 
ATOM     78  F   UNL A   1      33.865  29.779  27.774  1.00  0.00    -0.200 F 
ATOM     79  F   UNL A   1      33.704  32.374  26.947  1.00  0.00    -0.200 F 
ENDBRANCH  55  69
BRANCH  56  80
ATOM     80  C   UNL A   1      44.409  28.000  35.058  1.00  0.00     0.064 A 
ATOM     81  C   UNL A   1      45.631  28.683  35.128  1.00  0.00     0.173 A 
ATOM     82  C   UNL A   1      44.265  26.839  35.829  1.00  0.00     0.173 A 
ATOM     83  F   UNL A   1      45.817  29.803  34.414  1.00  0.00    -0.203 F 
ATOM     84  C   UNL A   1      46.676  28.210  35.920  1.00  0.00     0.198 A 
ATOM     85  C   UNL A   1      45.301  26.380  36.641  1.00  0.00     0.198 A 
ATOM     86  F   UNL A   1      43.104  26.166  35.815  1.00  0.00    -0.203 F 
ATOM     87  F   UNL A   1      47.844  28.866  35.947  1.00  0.00    -0.200 F 
ATOM     88  C   UNL A   1      46.508  27.062  36.679  1.00  0.00     0.200 A 
ATOM     89  F   UNL A   1      45.125  25.285  37.392  1.00  0.00    -0.200 F 
ATOM     90  F   UNL A   1      47.508  26.614  37.450  1.00  0.00    -0.200 F 
ENDBRANCH  56  80
BRANCH  68  91
ATOM     91  C   UNL A   1      38.903  32.172  36.118  1.00  0.00     0.064 A 
ATOM     92  C   UNL A   1      39.268  33.513  36.316  1.00  0.00     0.173 A 
ATOM     93  C   UNL A   1      38.145  31.544  37.116  1.00  0.00     0.173 A 
ATOM     94  F   UNL A   1      40.002  34.156  35.395  1.00  0.00    -0.203 F 
ATOM     95  C   UNL A   1      38.913  34.188  37.480  1.00  0.00     0.198 A 
ATOM     96  C   UNL A   1      37.768  32.232  38.267  1.00  0.00     0.198 A 
ATOM     97  F   UNL A   1      37.761  30.266  36.969  1.00  0.00    -0.203 F 
ATOM     98  F   UNL A   1      39.311  35.456  37.666  1.00  0.00    -0.200 F 
ATOM     99  C   UNL A   1      38.162  33.549  38.453  1.00  0.00     0.200 A 
ATOM    100  F   UNL A   1      37.023  31.619  39.198  1.00  0.00    -0.200 F 
ATOM    101  F   UNL A   1      37.818  34.201  39.572  1.00  0.00    -0.200 F 
ENDBRANCH  68  91
ENDBRANCH  42  43
ENDBRANCH  35  37
ENDBRANCH  34  35
ENDBRANCH  33  34
ENDBRANCH  32  33
ENDBRANCH  31  32
ENDBRANCH  30  31
ENDBRANCH   1  30
TORSDOF 22
ENDMDL
MODEL 3
REMARK VINA RESULT:     -10.8      1.739      2.933
REMARK SMILES [NH3+][C@@H](CNc1ccc(C(=O)OCCOCCOCCOC(=O)c2ccc(-c3c4nc(c(-c5c(F)c(F)c(F)c(F)c5F)c5ccc([nH]5)c(-c5c(F)c(F)c(F)c(F)c5F)c5nc(c(-c6c(F)c(F)c(F)c(F)c6F)c6ccc3[nH]6)C=C5)C=C4)cc2)c(F)c1F)c1ccccc1
REMARK SMILES IDX 15 1 14 2 13 3 12 4 11 5 9 6 10 7 8 8 5 9 6 10 88 11 7 12
REMARK SMILES IDX 86 13 89 14 87 15 4 16 3 18 2 19 1 20 90 24 91 25 95 26
REMARK SMILES IDX 92 27 94 28 93 29 16 30 17 31 18 32 19 33 20 34 21 35 22 36
REMARK SMILES IDX 23 37 24 38 85 39 25 40 84 41 26 42 27 43 28 44 78 45 29 46
REMARK SMILES IDX 83 47 77 48 79 49 30 50 82 51 76 52 75 53 31 55 63 56 43 57
REMARK SMILES IDX 62 58 44 59 47 60 61 61 80 62 45 63 46 64 60 66 81 67 48 68
REMARK SMILES IDX 32 69 33 70 41 71 34 72 35 73 39 74 42 75 36 76 37 77 40 78
REMARK SMILES IDX 38 79 64 80 65 81 73 82 66 83 67 84 71 85 74 86 68 87 69 88
REMARK SMILES IDX 72 89 70 90 49 91 50 92 58 93 51 94 52 95 56 96 59 97 53 98
REMARK SMILES IDX 54 99 57 100 55 101
REMARK H PARENT 4 17 1 21 1 22 1 23 79 54 47 65
REMARK Flexibility Score: inf
ROOT
ATOM      1  C   UNL A   1      43.910  18.672  25.278  1.00  0.00     0.188 C 
ENDROOT
BRANCH   1   2
ATOM      2  O   UNL A   1      42.595  19.194  25.143  1.00  0.00    -0.376 OA
BRANCH   2   3
ATOM      3  C   UNL A   1      41.651  19.004  26.190  1.00  0.00     0.202 C 
BRANCH   3   4
ATOM      4  C   UNL A   1      41.610  19.996  27.360  1.00  0.00     0.261 C 
BRANCH   4   5
ATOM      5  O   UNL A   1      40.454  20.847  27.374  1.00  0.00    -0.460 OA
BRANCH   5   6
ATOM      6  C   UNL A   1      40.504  21.913  26.541  1.00  0.00     0.341 C 
ATOM      7  O   UNL A   1      41.491  22.386  25.999  1.00  0.00    -0.246 OA
BRANCH   6   8
ATOM      8  C   UNL A   1      39.146  22.337  26.176  1.00  0.00     0.099 A 
ATOM      9  C   UNL A   1      36.526  23.213  25.608  1.00  0.00     0.074 A 
ATOM     10  C   UNL A   1      37.458  24.083  26.184  1.00  0.00     0.030 A 
ATOM     11  C   UNL A   1      36.952  21.901  25.313  1.00  0.00     0.182 A 
ATOM     12  C   UNL A   1      38.750  23.645  26.490  1.00  0.00     0.021 A 
ATOM     13  C   UNL A   1      38.250  21.469  25.574  1.00  0.00     0.175 A 
ATOM     14  F   UNL A   1      36.079  21.045  24.756  1.00  0.00    -0.201 F 
ATOM     15  F   UNL A   1      38.606  20.214  25.265  1.00  0.00    -0.203 F 
BRANCH   9  16
ATOM     16  N   UNL A   1      35.234  23.612  25.297  1.00  0.00    -0.376 N 
ATOM     17  H   UNL A   1      34.566  22.920  25.082  1.00  0.00     0.160 HD
BRANCH  16  18
ATOM     18  C   UNL A   1      34.821  25.016  25.275  1.00  0.00     0.183 C 
BRANCH  18  19
ATOM     19  C   UNL A   1      33.367  25.226  25.824  1.00  0.00     0.231 C 
BRANCH  19  20
ATOM     20  N   UNL A   1      32.347  24.447  25.105  1.00  0.00    -0.350 N 
ATOM     21  H   UNL A   1      31.789  25.072  24.523  1.00  0.00     0.345 HD
ATOM     22  H   UNL A   1      31.741  23.977  25.778  1.00  0.00     0.345 HD
ATOM     23  H   UNL A   1      32.803  23.751  24.515  1.00  0.00     0.345 HD
ENDBRANCH  19  20
BRANCH  19  24
ATOM     24  C   UNL A   1      32.990  26.701  25.902  1.00  0.00     0.011 A 
ATOM     25  C   UNL A   1      32.032  27.176  26.813  1.00  0.00     0.010 A 
ATOM     26  C   UNL A   1      33.572  27.624  25.019  1.00  0.00     0.010 A 
ATOM     27  C   UNL A   1      31.617  28.508  26.800  1.00  0.00     0.001 A 
ATOM     28  C   UNL A   1      33.171  28.963  25.018  1.00  0.00     0.001 A 
ATOM     29  C   UNL A   1      32.182  29.401  25.896  1.00  0.00     0.000 A 
ENDBRANCH  19  24
ENDBRANCH  18  19
ENDBRANCH  16  18
ENDBRANCH   9  16
ENDBRANCH   6   8
ENDBRANCH   5   6
ENDBRANCH   4   5
ENDBRANCH   3   4
ENDBRANCH   2   3
ENDBRANCH   1   2
BRANCH   1  30
ATOM     30  C   UNL A   1      45.075  19.249  24.446  1.00  0.00     0.188 C 
BRANCH  30  31
ATOM     31  O   UNL A   1      44.858  20.509  23.865  1.00  0.00    -0.376 OA
BRANCH  31  32
ATOM     32  C   UNL A   1      44.896  21.700  24.627  1.00  0.00     0.202 C 
BRANCH  32  33
ATOM     33  C   UNL A   1      44.572  23.120  24.124  1.00  0.00     0.261 C 
BRANCH  33  34
ATOM     34  O   UNL A   1      44.155  24.098  25.075  1.00  0.00    -0.460 OA
BRANCH  34  35
ATOM     35  C   UNL A   1      45.024  25.111  25.300  1.00  0.00     0.338 C 
ATOM     36  O   UNL A   1      45.940  25.480  24.591  1.00  0.00    -0.246 OA
BRANCH  35  37
ATOM     37  C   UNL A   1      44.588  25.827  26.513  1.00  0.00     0.060 A 
ATOM     38  C   UNL A   1      43.730  25.173  27.405  1.00  0.00     0.016 A 
ATOM     39  C   UNL A   1      44.996  27.142  26.749  1.00  0.00     0.016 A 
ATOM     40  C   UNL A   1      43.257  25.846  28.529  1.00  0.00     0.010 A 
ATOM     41  C   UNL A   1      44.506  27.820  27.868  1.00  0.00     0.010 A 
ATOM     42  C   UNL A   1      43.613  27.184  28.748  1.00  0.00    -0.014 A 
BRANCH  42  43
ATOM     43  C   UNL A   1      42.933  27.964  29.808  1.00  0.00     0.031 A 
ATOM     44  C   UNL A   1      43.599  28.097  31.149  1.00  0.00     0.074 A 
ATOM     45  C   UNL A   1      41.754  28.569  29.576  1.00  0.00     0.049 A 
ATOM     46  N   UNL A   1      43.180  28.709  32.227  1.00  0.00    -0.248 NA
ATOM     47  C   UNL A   1      44.917  27.457  31.291  1.00  0.00     0.031 C 
ATOM     48  C   UNL A   1      41.033  28.551  28.307  1.00  0.00     0.029 A 
ATOM     49  N   UNL A   1      40.958  29.317  30.408  1.00  0.00    -0.354 N 
ATOM     50  C   UNL A   1      44.183  28.535  33.170  1.00  0.00     0.074 A 
ATOM     51  C   UNL A   1      45.215  27.732  32.552  1.00  0.00     0.031 C 
ATOM     52  C   UNL A   1      39.896  29.255  28.442  1.00  0.00     0.029 A 
ATOM     53  C   UNL A   1      39.795  29.747  29.817  1.00  0.00     0.049 A 
ATOM     54  H   UNL A   1      41.198  29.527  31.340  1.00  0.00     0.167 HD
ATOM     55  C   UNL A   1      44.243  29.013  34.435  1.00  0.00     0.037 A 
ATOM     56  C   UNL A   1      38.763  30.442  30.334  1.00  0.00     0.037 A 
ATOM     57  C   UNL A   1      43.212  29.803  35.053  1.00  0.00     0.049 A 
ATOM     58  C   UNL A   1      38.809  30.883  31.775  1.00  0.00     0.074 A 
ATOM     59  C   UNL A   1      43.183  30.332  36.331  1.00  0.00     0.029 A 
ATOM     60  N   UNL A   1      42.024  30.171  34.439  1.00  0.00    -0.354 N 
ATOM     61  N   UNL A   1      39.766  30.726  32.657  1.00  0.00    -0.248 NA
ATOM     62  C   UNL A   1      37.631  31.594  32.293  1.00  0.00     0.031 C 
ATOM     63  C   UNL A   1      41.956  30.979  36.508  1.00  0.00     0.029 A 
ATOM     64  C   UNL A   1      41.245  30.901  35.321  1.00  0.00     0.049 A 
ATOM     65  H   UNL A   1      41.772  29.946  33.515  1.00  0.00     0.167 HD
ATOM     66  C   UNL A   1      39.321  31.339  33.821  1.00  0.00     0.074 A 
ATOM     67  C   UNL A   1      38.009  31.879  33.533  1.00  0.00     0.031 C 
ATOM     68  C   UNL A   1      39.945  31.444  35.019  1.00  0.00     0.037 A 
BRANCH  55  69
ATOM     69  C   UNL A   1      45.463  28.690  35.245  1.00  0.00     0.064 A 
ATOM     70  C   UNL A   1      46.585  29.532  35.208  1.00  0.00     0.173 A 
ATOM     71  C   UNL A   1      45.546  27.515  36.005  1.00  0.00     0.173 A 
ATOM     72  F   UNL A   1      46.557  30.666  34.493  1.00  0.00    -0.203 F 
ATOM     73  C   UNL A   1      47.751  29.199  35.892  1.00  0.00     0.198 A 
ATOM     74  C   UNL A   1      46.705  27.199  36.709  1.00  0.00     0.198 A 
ATOM     75  F   UNL A   1      44.494  26.686  36.082  1.00  0.00    -0.203 F 
ATOM     76  F   UNL A   1      48.821  30.002  35.818  1.00  0.00    -0.200 F 
ATOM     77  C   UNL A   1      47.809  28.036  36.645  1.00  0.00     0.200 A 
ATOM     78  F   UNL A   1      46.751  26.087  37.455  1.00  0.00    -0.200 F 
ATOM     79  F   UNL A   1      48.929  27.722  37.310  1.00  0.00    -0.200 F 
ENDBRANCH  55  69
BRANCH  56  80
ATOM     80  C   UNL A   1      37.596  30.775  29.474  1.00  0.00     0.064 A 
ATOM     81  C   UNL A   1      37.414  32.066  28.959  1.00  0.00     0.173 A 
ATOM     82  C   UNL A   1      36.633  29.806  29.164  1.00  0.00     0.173 A 
ATOM     83  F   UNL A   1      38.312  33.027  29.223  1.00  0.00    -0.203 F 
ATOM     84  C   UNL A   1      36.301  32.381  28.183  1.00  0.00     0.198 A 
ATOM     85  C   UNL A   1      35.532  30.115  28.366  1.00  0.00     0.198 A 
ATOM     86  F   UNL A   1      36.778  28.550  29.612  1.00  0.00    -0.203 F 
ATOM     87  F   UNL A   1      36.136  33.630  27.726  1.00  0.00    -0.200 F 
ATOM     88  C   UNL A   1      35.363  31.404  27.884  1.00  0.00     0.200 A 
ATOM     89  F   UNL A   1      34.643  29.162  28.058  1.00  0.00    -0.200 F 
ATOM     90  F   UNL A   1      34.299  31.704  27.127  1.00  0.00    -0.200 F 
ENDBRANCH  56  80
BRANCH  68  91
ATOM     91  C   UNL A   1      39.246  32.195  36.116  1.00  0.00     0.064 A 
ATOM     92  C   UNL A   1      39.581  33.532  36.386  1.00  0.00     0.173 A 
ATOM     93  C   UNL A   1      38.322  31.566  36.962  1.00  0.00     0.173 A 
ATOM     94  F   UNL A   1      40.468  34.175  35.612  1.00  0.00    -0.203 F 
ATOM     95  C   UNL A   1      39.033  34.202  37.476  1.00  0.00     0.198 A 
ATOM     96  C   UNL A   1      37.755  32.249  38.035  1.00  0.00     0.198 A 
ATOM     97  F   UNL A   1      37.960  30.293  36.739  1.00  0.00    -0.203 F 
ATOM     98  F   UNL A   1      39.401  35.464  37.739  1.00  0.00    -0.200 F 
ATOM     99  C   UNL A   1      38.120  33.561  38.298  1.00  0.00     0.200 A 
ATOM    100  F   UNL A   1      36.855  31.636  38.817  1.00  0.00    -0.200 F 
ATOM    101  F   UNL A   1      37.591  34.208  39.346  1.00  0.00    -0.200 F 
ENDBRANCH  68  91
ENDBRANCH  42  43
ENDBRANCH  35  37
ENDBRANCH  34  35
ENDBRANCH  33  34
ENDBRANCH  32  33
ENDBRANCH  31  32
ENDBRANCH  30  31
ENDBRANCH   1  30
TORSDOF 22
ENDMDL
