MODEL 1
REMARK VINA RESULT:     -11.2      0.000      0.000
REMARK SMILES Cc1ccc([S@TB4](=O)(=O)n2cc(C(=O)C(=O)NCC(=O)N[C@@H](Cc3c[nH]c4ccccc34)C(=O)OCCOCCOCCOC(=O)c3ccc(-c4c5nc(c(-c6c(F)c(F)c(F)c(F)c6F)c6ccc([nH]6)c(-c6c(F)c(F)c(F)c(F)c6F)c6nc(c(-c7c(F)c(F)c(F)c(F)c7F)c7ccc4[nH]7)C=C6)C=C5)cc3)c3ccccc32)cc1
REMARK SMILES IDX 36 1 35 2 34 3 32 4 33 5 21 6 20 7 18 8 19 9 17 11 16 12
REMARK SMILES IDX 14 13 15 14 12 16 13 17 11 18 9 19 10 20 114 21 109 22
REMARK SMILES IDX 113 23 110 24 112 25 111 26 6 27 7 28 8 29 5 30 1 31 2 32
REMARK SMILES IDX 3 33 116 34 4 35 115 36 22 37 23 38 24 39 31 40 25 41 26 42
REMARK SMILES IDX 30 43 27 45 29 46 28 47 37 48 38 49 39 50 40 51 41 52 42 53
REMARK SMILES IDX 43 54 44 55 45 56 46 57 47 58 108 59 48 60 107 61 49 62
REMARK SMILES IDX 50 63 51 64 101 65 52 66 106 67 100 68 102 69 53 70 105 71
REMARK SMILES IDX 99 72 98 73 54 75 86 76 66 77 85 78 67 79 70 80 84 81 103 82
REMARK SMILES IDX 68 83 69 84 83 86 104 87 71 88 55 89 56 90 64 91 57 92 58 93
REMARK SMILES IDX 62 94 65 95 59 96 60 97 63 98 61 99 87 100 88 101 96 102
REMARK SMILES IDX 89 103 90 104 94 105 97 106 91 107 92 108 95 109 93 110
REMARK SMILES IDX 72 111 73 112 81 113 74 114 75 115 79 116 82 117 76 118
REMARK SMILES IDX 77 119 80 120 78 121
REMARK H PARENT 20 10 16 15 25 44 102 74 70 85
REMARK Flexibility Score: inf
ROOT
ATOM      1  C   UNL A   1      38.006  29.323  32.407  1.00  0.00     0.202 C 
ENDROOT
BRANCH   1   2
ATOM      2  C   UNL A   1      38.622  27.940  32.050  1.00  0.00     0.261 C 
BRANCH   2   3
ATOM      3  O   UNL A   1      38.543  27.040  30.399  1.00  0.00    -0.462 OA
BRANCH   3   4
ATOM      4  C   UNL A   1      39.486  26.780  28.979  1.00  0.00     0.329 C 
ATOM      5  O   UNL A   1      39.385  27.496  27.979  1.00  0.00    -0.250 OA
BRANCH   4   6
ATOM      6  C   UNL A   1      40.701  25.441  28.604  1.00  0.00     0.196 C 
BRANCH   6   7
ATOM      7  N   UNL A   1      40.758  24.208  27.707  1.00  0.00    -0.341 N 
ATOM      8  C   UNL A   1      39.876  23.591  26.856  1.00  0.00     0.240 C 
ATOM      9  O   UNL A   1      40.309  22.656  26.175  1.00  0.00    -0.273 OA
ATOM     10  H   UNL A   1      41.627  23.749  27.749  1.00  0.00     0.164 HD
BRANCH   8  11
ATOM     11  C   UNL A   1      38.462  24.130  26.625  1.00  0.00     0.216 C 
BRANCH  11  12
ATOM     12  N   UNL A   1      38.059  23.870  25.254  1.00  0.00    -0.340 N 
ATOM     13  C   UNL A   1      36.837  23.452  24.758  1.00  0.00     0.292 C 
ATOM     14  O   UNL A   1      36.792  22.992  23.622  1.00  0.00    -0.265 OA
ATOM     15  H   UNL A   1      38.759  24.013  24.578  1.00  0.00     0.164 HD
BRANCH  13  16
ATOM     16  C   UNL A   1      35.563  23.545  25.633  1.00  0.00     0.252 C 
ATOM     17  O   UNL A   1      35.660  23.147  26.794  1.00  0.00    -0.283 OA
BRANCH  16  18
ATOM     18  C   UNL A   1      34.271  24.039  25.127  1.00  0.00     0.055 A 
ATOM     19  N   UNL A   1      32.650  24.810  23.817  1.00  0.00    -0.218 N 
ATOM     20  C   UNL A   1      34.009  24.817  23.990  1.00  0.00     0.126 A 
ATOM     21  C   UNL A   1      32.034  24.016  24.781  1.00  0.00     0.072 A 
ATOM     22  C   UNL A   1      32.985  23.771  25.747  1.00  0.00     0.013 A 
ATOM     23  C   UNL A   1      30.654  23.645  24.903  1.00  0.00     0.029 A 
ATOM     24  C   UNL A   1      32.488  23.212  26.949  1.00  0.00     0.011 A 
ATOM     25  C   UNL A   1      30.194  23.108  26.078  1.00  0.00     0.002 A 
ATOM     26  C   UNL A   1      31.103  22.921  27.105  1.00  0.00     0.001 A 
BRANCH  19  27
ATOM     27  S   UNL A   1      31.574  25.959  23.343  1.00  0.00     0.083 S 
ATOM     28  O   UNL A   1      31.584  25.647  21.914  1.00  0.00    -0.149 OA
ATOM     29  O   UNL A   1      32.400  26.969  24.021  1.00  0.00    -0.149 OA
BRANCH  27  30
ATOM     30  C   UNL A   1      30.357  27.126  23.251  1.00  0.00     0.111 A 
ATOM     31  C   UNL A   1      27.806  30.370  22.331  1.00  0.00     0.044 C 
ATOM     32  C   UNL A   1      28.702  29.227  22.664  1.00  0.00    -0.051 A 
ATOM     33  C   UNL A   1      30.024  29.336  22.267  1.00  0.00     0.005 A 
ATOM     34  C   UNL A   1      28.225  28.071  23.338  1.00  0.00     0.005 A 
ATOM     35  C   UNL A   1      30.836  28.281  22.545  1.00  0.00     0.030 A 
ATOM     36  C   UNL A   1      29.057  26.996  23.640  1.00  0.00     0.030 A 
ENDBRANCH  27  30
ENDBRANCH  19  27
ENDBRANCH  16  18
ENDBRANCH  13  16
ENDBRANCH  11  12
ENDBRANCH   8  11
ENDBRANCH   6   7
BRANCH   6  37
ATOM     37  C   UNL A   1      42.229  25.879  28.699  1.00  0.00     0.074 C 
BRANCH  37  38
ATOM     38  C   UNL A   1      43.654  24.670  28.586  1.00  0.00    -0.020 A 
ATOM     39  C   UNL A   1      43.979  23.125  29.878  1.00  0.00     0.087 A 
ATOM     40  C   UNL A   1      44.062  24.942  27.350  1.00  0.00     0.003 A 
ATOM     41  N   UNL A   1      44.768  22.586  29.284  1.00  0.00    -0.361 N 
ATOM     42  C   UNL A   1      44.931  24.062  27.761  1.00  0.00     0.046 A 
ATOM     43  C   UNL A   1      44.058  25.716  26.175  1.00  0.00     0.010 A 
ATOM     44  H   UNL A   1      45.226  21.724  29.421  1.00  0.00     0.166 HD
ATOM     45  C   UNL A   1      46.197  24.190  26.794  1.00  0.00     0.026 A 
ATOM     46  C   UNL A   1      45.146  25.638  25.288  1.00  0.00     0.001 A 
ATOM     47  C   UNL A   1      46.258  24.916  25.625  1.00  0.00     0.002 A 
ENDBRANCH  37  38
ENDBRANCH   6  37
ENDBRANCH   4   6
ENDBRANCH   3   4
ENDBRANCH   2   3
ENDBRANCH   1   2
BRANCH   1  48
ATOM     48  O   UNL A   1      36.657  29.567  32.148  1.00  0.00    -0.376 OA
BRANCH  48  49
ATOM     49  C   UNL A   1      36.332  30.907  32.294  1.00  0.00     0.188 C 
BRANCH  49  50
ATOM     50  C   UNL A   1      35.606  31.634  31.229  1.00  0.00     0.188 C 
BRANCH  50  51
ATOM     51  O   UNL A   1      36.000  31.659  29.875  1.00  0.00    -0.376 OA
BRANCH  51  52
ATOM     52  C   UNL A   1      35.699  32.670  28.983  1.00  0.00     0.202 C 
BRANCH  52  53
ATOM     53  C   UNL A   1      36.262  33.906  29.574  1.00  0.00     0.261 C 
BRANCH  53  54
ATOM     54  O   UNL A   1      37.466  33.695  30.458  1.00  0.00    -0.460 OA
BRANCH  54  55
ATOM     55  C   UNL A   1      38.809  34.012  30.507  1.00  0.00     0.338 C 
ATOM     56  O   UNL A   1      39.111  35.157  30.854  1.00  0.00    -0.246 OA
BRANCH  55  57
ATOM     57  C   UNL A   1      39.951  33.163  29.948  1.00  0.00     0.060 A 
ATOM     58  C   UNL A   1      39.699  31.810  29.927  1.00  0.00     0.016 A 
ATOM     59  C   UNL A   1      41.293  33.541  29.875  1.00  0.00     0.016 A 
ATOM     60  C   UNL A   1      40.743  30.961  30.339  1.00  0.00     0.010 A 
ATOM     61  C   UNL A   1      42.361  32.653  30.280  1.00  0.00     0.010 A 
ATOM     62  C   UNL A   1      42.161  31.311  30.658  1.00  0.00    -0.014 A 
BRANCH  62  63
ATOM     63  C   UNL A   1      43.481  30.324  31.571  1.00  0.00     0.031 A 
ATOM     64  C   UNL A   1      43.562  29.274  30.547  1.00  0.00     0.074 A 
ATOM     65  C   UNL A   1      44.179  30.247  32.991  1.00  0.00     0.049 A 
ATOM     66  N   UNL A   1      44.784  27.949  30.551  1.00  0.00    -0.248 NA
ATOM     67  C   UNL A   1      43.590  29.829  28.418  1.00  0.00     0.031 C 
ATOM     68  C   UNL A   1      45.602  30.132  33.560  1.00  0.00     0.029 A 
ATOM     69  N   UNL A   1      43.789  30.961  34.207  1.00  0.00    -0.354 N 
ATOM     70  C   UNL A   1      45.785  27.586  28.904  1.00  0.00     0.074 A 
ATOM     71  C   UNL A   1      44.957  29.115  27.436  1.00  0.00     0.031 C 
ATOM     72  C   UNL A   1      45.693  30.297  34.929  1.00  0.00     0.029 A 
ATOM     73  C   UNL A   1      44.421  30.759  35.407  1.00  0.00     0.049 A 
ATOM     74  H   UNL A   1      43.048  31.608  34.161  1.00  0.00     0.167 HD
ATOM     75  C   UNL A   1      47.101  27.303  29.324  1.00  0.00     0.037 A 
ATOM     76  C   UNL A   1      43.665  30.367  36.469  1.00  0.00     0.037 A 
ATOM     77  C   UNL A   1      47.215  27.435  30.843  1.00  0.00     0.049 A 
ATOM     78  C   UNL A   1      43.838  28.794  36.197  1.00  0.00     0.074 A 
ATOM     79  C   UNL A   1      47.791  28.389  31.673  1.00  0.00     0.029 A 
ATOM     80  N   UNL A   1      46.339  26.744  31.724  1.00  0.00    -0.354 N 
ATOM     81  N   UNL A   1      44.066  28.249  35.003  1.00  0.00    -0.248 NA
ATOM     82  C   UNL A   1      44.204  27.880  37.273  1.00  0.00     0.031 C 
ATOM     83  C   UNL A   1      47.433  28.091  33.039  1.00  0.00     0.029 A 
ATOM     84  C   UNL A   1      46.378  27.179  33.065  1.00  0.00     0.049 A 
ATOM     85  H   UNL A   1      45.749  26.017  31.420  1.00  0.00     0.167 HD
ATOM     86  C   UNL A   1      44.859  27.128  35.134  1.00  0.00     0.074 A 
ATOM     87  C   UNL A   1      44.827  26.904  36.587  1.00  0.00     0.031 C 
ATOM     88  C   UNL A   1      45.619  26.475  34.163  1.00  0.00     0.037 A 
BRANCH  75  89
ATOM     89  C   UNL A   1      48.263  27.359  28.390  1.00  0.00     0.064 A 
ATOM     90  C   UNL A   1      48.948  26.202  28.009  1.00  0.00     0.173 A 
ATOM     91  C   UNL A   1      48.704  28.537  27.768  1.00  0.00     0.173 A 
ATOM     92  F   UNL A   1      48.621  25.005  28.512  1.00  0.00    -0.203 F 
ATOM     93  C   UNL A   1      49.974  26.240  27.063  1.00  0.00     0.198 A 
ATOM     94  C   UNL A   1      49.764  28.597  26.883  1.00  0.00     0.198 A 
ATOM     95  F   UNL A   1      48.093  29.689  27.960  1.00  0.00    -0.203 F 
ATOM     96  F   UNL A   1      50.541  25.095  26.667  1.00  0.00    -0.200 F 
ATOM     97  C   UNL A   1      50.389  27.437  26.509  1.00  0.00     0.200 A 
ATOM     98  F   UNL A   1      50.133  29.783  26.376  1.00  0.00    -0.200 F 
ATOM     99  F   UNL A   1      51.361  27.471  25.591  1.00  0.00    -0.200 F 
ENDBRANCH  75  89
BRANCH  76 100
ATOM    100  C   UNL A   1      42.375  31.251  36.484  1.00  0.00     0.064 A 
ATOM    101  C   UNL A   1      41.081  30.981  35.984  1.00  0.00     0.173 A 
ATOM    102  C   UNL A   1      42.369  32.253  37.432  1.00  0.00     0.173 A 
ATOM    103  F   UNL A   1      40.899  30.027  35.063  1.00  0.00    -0.203 F 
ATOM    104  C   UNL A   1      39.919  31.673  36.451  1.00  0.00     0.198 A 
ATOM    105  C   UNL A   1      41.237  32.856  38.002  1.00  0.00     0.198 A 
ATOM    106  F   UNL A   1      43.576  32.615  37.810  1.00  0.00    -0.203 F 
ATOM    107  F   UNL A   1      38.694  31.327  36.024  1.00  0.00    -0.200 F 
ATOM    108  C   UNL A   1      40.003  32.614  37.465  1.00  0.00     0.200 A 
ATOM    109  F   UNL A   1      41.343  33.621  39.101  1.00  0.00    -0.200 F 
ATOM    110  F   UNL A   1      38.911  33.145  38.044  1.00  0.00    -0.200 F 
ENDBRANCH  76 100
BRANCH  88 111
ATOM    111  C   UNL A   1      45.873  24.975  34.303  1.00  0.00     0.064 A 
ATOM    112  C   UNL A   1      47.119  24.432  34.660  1.00  0.00     0.173 A 
ATOM    113  C   UNL A   1      44.832  24.018  34.197  1.00  0.00     0.173 A 
ATOM    114  F   UNL A   1      48.144  25.195  35.060  1.00  0.00    -0.203 F 
ATOM    115  C   UNL A   1      47.351  23.059  34.679  1.00  0.00     0.198 A 
ATOM    116  C   UNL A   1      45.035  22.658  34.377  1.00  0.00     0.198 A 
ATOM    117  F   UNL A   1      43.561  24.331  33.929  1.00  0.00    -0.203 F 
ATOM    118  F   UNL A   1      48.599  22.606  34.849  1.00  0.00    -0.200 F 
ATOM    119  C   UNL A   1      46.306  22.171  34.551  1.00  0.00     0.200 A 
ATOM    120  F   UNL A   1      43.982  21.829  34.375  1.00  0.00    -0.200 F 
ATOM    121  F   UNL A   1      46.517  20.853  34.627  1.00  0.00    -0.200 F 
ENDBRANCH  88 111
ENDBRANCH  62  63
ENDBRANCH  55  57
ENDBRANCH  54  55
ENDBRANCH  53  54
ENDBRANCH  52  53
ENDBRANCH  51  52
ENDBRANCH  50  51
ENDBRANCH  49  50
ENDBRANCH  48  49
ENDBRANCH   1  48
TORSDOF 26
ENDMDL
MODEL 2
REMARK VINA RESULT:     -10.2      5.011     13.309
REMARK SMILES Cc1ccc([S@TB4](=O)(=O)n2cc(C(=O)C(=O)NCC(=O)N[C@@H](Cc3c[nH]c4ccccc34)C(=O)OCCOCCOCCOC(=O)c3ccc(-c4c5nc(c(-c6c(F)c(F)c(F)c(F)c6F)c6ccc([nH]6)c(-c6c(F)c(F)c(F)c(F)c6F)c6nc(c(-c7c(F)c(F)c(F)c(F)c7F)c7ccc4[nH]7)C=C6)C=C5)cc3)c3ccccc32)cc1
REMARK SMILES IDX 36 1 35 2 34 3 32 4 33 5 21 6 20 7 18 8 19 9 17 11 16 12
REMARK SMILES IDX 14 13 15 14 12 16 13 17 11 18 9 19 10 20 114 21 109 22
REMARK SMILES IDX 113 23 110 24 112 25 111 26 6 27 7 28 8 29 5 30 1 31 2 32
REMARK SMILES IDX 3 33 116 34 4 35 115 36 22 37 23 38 24 39 31 40 25 41 26 42
REMARK SMILES IDX 30 43 27 45 29 46 28 47 37 48 38 49 39 50 40 51 41 52 42 53
REMARK SMILES IDX 43 54 44 55 45 56 46 57 47 58 108 59 48 60 107 61 49 62
REMARK SMILES IDX 50 63 51 64 101 65 52 66 106 67 100 68 102 69 53 70 105 71
REMARK SMILES IDX 99 72 98 73 54 75 86 76 66 77 85 78 67 79 70 80 84 81 103 82
REMARK SMILES IDX 68 83 69 84 83 86 104 87 71 88 55 89 56 90 64 91 57 92 58 93
REMARK SMILES IDX 62 94 65 95 59 96 60 97 63 98 61 99 87 100 88 101 96 102
REMARK SMILES IDX 89 103 90 104 94 105 97 106 91 107 92 108 95 109 93 110
REMARK SMILES IDX 72 111 73 112 81 113 74 114 75 115 79 116 82 117 76 118
REMARK SMILES IDX 77 119 80 120 78 121
REMARK H PARENT 20 10 16 15 25 44 102 74 70 85
REMARK Flexibility Score: inf
ROOT
ATOM      1  C   UNL A   1      40.203  32.774  32.444  1.00  0.00     0.202 C 
ENDROOT
BRANCH   1   2
ATOM      2  C   UNL A   1      41.644  33.358  32.489  1.00  0.00     0.261 C 
BRANCH   2   3
ATOM      3  O   UNL A   1      43.080  32.790  33.566  1.00  0.00    -0.462 OA
BRANCH   3   4
ATOM      4  C   UNL A   1      43.414  31.739  34.891  1.00  0.00     0.329 C 
ATOM      5  O   UNL A   1      44.529  31.243  35.076  1.00  0.00    -0.250 OA
BRANCH   4   6
ATOM      6  C   UNL A   1      42.274  31.085  36.189  1.00  0.00     0.196 C 
BRANCH   6   7
ATOM      7  N   UNL A   1      41.539  29.778  36.470  1.00  0.00    -0.341 N 
ATOM      8  C   UNL A   1      41.805  28.452  36.241  1.00  0.00     0.240 C 
ATOM      9  O   UNL A   1      41.024  27.627  36.726  1.00  0.00    -0.273 OA
ATOM     10  H   UNL A   1      40.674  29.919  36.917  1.00  0.00     0.164 HD
BRANCH   8  11
ATOM     11  C   UNL A   1      43.097  27.991  35.561  1.00  0.00     0.216 C 
BRANCH  11  12
ATOM     12  N   UNL A   1      42.868  26.727  34.883  1.00  0.00    -0.340 N 
ATOM     13  C   UNL A   1      43.362  25.468  35.173  1.00  0.00     0.292 C 
ATOM     14  O   UNL A   1      43.305  24.602  34.306  1.00  0.00    -0.265 OA
ATOM     15  H   UNL A   1      42.272  26.773  34.101  1.00  0.00     0.164 HD
BRANCH  13  16
ATOM     16  C   UNL A   1      43.993  25.173  36.556  1.00  0.00     0.252 C 
ATOM     17  O   UNL A   1      43.335  25.497  37.543  1.00  0.00    -0.283 OA
BRANCH  16  18
ATOM     18  C   UNL A   1      45.329  24.576  36.722  1.00  0.00     0.055 A 
ATOM     19  N   UNL A   1      47.018  23.268  37.339  1.00  0.00    -0.218 N 
ATOM     20  C   UNL A   1      45.806  23.755  37.755  1.00  0.00     0.126 A 
ATOM     21  C   UNL A   1      47.313  23.715  36.053  1.00  0.00     0.072 A 
ATOM     22  C   UNL A   1      46.426  24.733  35.782  1.00  0.00     0.013 A 
ATOM     23  C   UNL A   1      48.412  23.362  35.202  1.00  0.00     0.029 A 
ATOM     24  C   UNL A   1      46.732  25.505  34.636  1.00  0.00     0.011 A 
ATOM     25  C   UNL A   1      48.692  24.126  34.098  1.00  0.00     0.002 A 
ATOM     26  C   UNL A   1      47.872  25.209  33.835  1.00  0.00     0.001 A 
BRANCH  19  27
ATOM     27  S   UNL A   1      48.437  22.982  38.116  1.00  0.00     0.083 S 
ATOM     28  O   UNL A   1      48.054  21.719  38.747  1.00  0.00    -0.149 OA
ATOM     29  O   UNL A   1      48.344  24.321  38.717  1.00  0.00    -0.149 OA
BRANCH  27  30
ATOM     30  C   UNL A   1      50.045  22.945  38.631  1.00  0.00     0.111 A 
ATOM     31  C   UNL A   1      54.103  23.685  39.557  1.00  0.00     0.044 C 
ATOM     32  C   UNL A   1      52.675  23.416  39.231  1.00  0.00    -0.051 A 
ATOM     33  C   UNL A   1      52.128  24.138  38.184  1.00  0.00     0.005 A 
ATOM     34  C   UNL A   1      51.901  22.479  39.967  1.00  0.00     0.005 A 
ATOM     35  C   UNL A   1      50.816  23.914  37.904  1.00  0.00     0.030 A 
ATOM     36  C   UNL A   1      50.562  22.233  39.673  1.00  0.00     0.030 A 
ENDBRANCH  27  30
ENDBRANCH  19  27
ENDBRANCH  16  18
ENDBRANCH  13  16
ENDBRANCH  11  12
ENDBRANCH   8  11
ENDBRANCH   6   7
BRANCH   6  37
ATOM     37  C   UNL A   1      42.515  31.675  37.649  1.00  0.00     0.074 C 
BRANCH  37  38
ATOM     38  C   UNL A   1      42.500  33.508  38.031  1.00  0.00    -0.020 A 
ATOM     39  C   UNL A   1      44.114  34.746  37.874  1.00  0.00     0.087 A 
ATOM     40  C   UNL A   1      41.186  33.704  38.066  1.00  0.00     0.003 A 
ATOM     41  N   UNL A   1      43.571  35.727  37.975  1.00  0.00    -0.361 N 
ATOM     42  C   UNL A   1      41.667  34.871  38.386  1.00  0.00     0.046 A 
ATOM     43  C   UNL A   1      39.855  33.248  38.084  1.00  0.00     0.010 A 
ATOM     44  H   UNL A   1      43.874  36.661  37.898  1.00  0.00     0.166 HD
ATOM     45  C   UNL A   1      40.476  35.675  39.088  1.00  0.00     0.026 A 
ATOM     46  C   UNL A   1      38.838  34.091  38.564  1.00  0.00     0.001 A 
ATOM     47  C   UNL A   1      39.154  35.296  39.131  1.00  0.00     0.002 A 
ENDBRANCH  37  38
ENDBRANCH   6  37
ENDBRANCH   4   6
ENDBRANCH   3   4
ENDBRANCH   2   3
ENDBRANCH   1   2
BRANCH   1  48
ATOM     48  O   UNL A   1      39.406  32.985  31.319  1.00  0.00    -0.376 OA
BRANCH  48  49
ATOM     49  C   UNL A   1      39.047  34.316  31.176  1.00  0.00     0.188 C 
BRANCH  49  50
ATOM     50  C   UNL A   1      37.819  34.845  31.812  1.00  0.00     0.188 C 
BRANCH  50  51
ATOM     51  O   UNL A   1      37.081  34.164  32.801  1.00  0.00    -0.376 OA
BRANCH  51  52
ATOM     52  C   UNL A   1      36.035  33.297  32.550  1.00  0.00     0.202 C 
BRANCH  52  53
ATOM     53  C   UNL A   1      36.425  32.010  33.171  1.00  0.00     0.261 C 
BRANCH  53  54
ATOM     54  O   UNL A   1      36.548  30.854  32.209  1.00  0.00    -0.460 OA
BRANCH  54  55
ATOM     55  C   UNL A   1      36.939  30.598  30.910  1.00  0.00     0.338 C 
ATOM     56  O   UNL A   1      36.811  31.509  30.086  1.00  0.00    -0.246 OA
BRANCH  55  57
ATOM     57  C   UNL A   1      37.292  29.227  30.334  1.00  0.00     0.060 A 
ATOM     58  C   UNL A   1      37.726  28.312  31.266  1.00  0.00     0.016 A 
ATOM     59  C   UNL A   1      37.624  28.957  29.005  1.00  0.00     0.016 A 
ATOM     60  C   UNL A   1      38.834  27.519  30.914  1.00  0.00     0.010 A 
ATOM     61  C   UNL A   1      38.752  28.122  28.652  1.00  0.00     0.010 A 
ATOM     62  C   UNL A   1      39.528  27.418  29.593  1.00  0.00    -0.014 A 
BRANCH  62  63
ATOM     63  C   UNL A   1      41.214  26.698  29.157  1.00  0.00     0.031 A 
ATOM     64  C   UNL A   1      41.880  28.005  29.095  1.00  0.00     0.074 A 
ATOM     65  C   UNL A   1      41.871  25.333  28.691  1.00  0.00     0.049 A 
ATOM     66  N   UNL A   1      43.658  28.226  28.894  1.00  0.00    -0.248 NA
ATOM     67  C   UNL A   1      41.469  29.511  30.646  1.00  0.00     0.031 C 
ATOM     68  C   UNL A   1      43.085  24.466  29.058  1.00  0.00     0.029 A 
ATOM     69  N   UNL A   1      41.176  24.118  28.266  1.00  0.00    -0.354 N 
ATOM     70  C   UNL A   1      44.598  29.446  30.107  1.00  0.00     0.074 A 
ATOM     71  C   UNL A   1      42.942  30.225  31.459  1.00  0.00     0.031 C 
ATOM     72  C   UNL A   1      43.114  23.224  28.453  1.00  0.00     0.029 A 
ATOM     73  C   UNL A   1      41.849  23.014  27.807  1.00  0.00     0.049 A 
ATOM     74  H   UNL A   1      40.192  24.092  28.312  1.00  0.00     0.167 HD
ATOM     75  C   UNL A   1      45.825  28.814  30.393  1.00  0.00     0.037 A 
ATOM     76  C   UNL A   1      41.541  22.550  26.565  1.00  0.00     0.037 A 
ATOM     77  C   UNL A   1      45.899  27.455  29.696  1.00  0.00     0.049 A 
ATOM     78  C   UNL A   1      42.635  23.442  25.801  1.00  0.00     0.074 A 
ATOM     79  C   UNL A   1      45.799  26.146  30.152  1.00  0.00     0.029 A 
ATOM     80  N   UNL A   1      45.673  27.315  28.299  1.00  0.00    -0.354 N 
ATOM     81  N   UNL A   1      43.099  24.614  26.235  1.00  0.00    -0.248 NA
ATOM     82  C   UNL A   1      43.532  22.853  24.814  1.00  0.00     0.031 C 
ATOM     83  C   UNL A   1      45.760  25.260  29.013  1.00  0.00     0.029 A 
ATOM     84  C   UNL A   1      45.493  25.989  27.855  1.00  0.00     0.049 A 
ATOM     85  H   UNL A   1      45.644  28.087  27.689  1.00  0.00     0.167 HD
ATOM     86  C   UNL A   1      44.419  24.770  25.867  1.00  0.00     0.074 A 
ATOM     87  C   UNL A   1      44.594  23.675  24.901  1.00  0.00     0.031 C 
ATOM     88  C   UNL A   1      45.377  25.639  26.391  1.00  0.00     0.037 A 
BRANCH  75  89
ATOM     89  C   UNL A   1      46.665  29.200  31.564  1.00  0.00     0.064 A 
ATOM     90  C   UNL A   1      47.776  30.035  31.421  1.00  0.00     0.173 A 
ATOM     91  C   UNL A   1      46.370  28.831  32.885  1.00  0.00     0.173 A 
ATOM     92  F   UNL A   1      48.161  30.477  30.218  1.00  0.00    -0.203 F 
ATOM     93  C   UNL A   1      48.506  30.473  32.527  1.00  0.00     0.198 A 
ATOM     94  C   UNL A   1      47.127  29.202  33.981  1.00  0.00     0.198 A 
ATOM     95  F   UNL A   1      45.299  28.122  33.183  1.00  0.00    -0.203 F 
ATOM     96  F   UNL A   1      49.509  31.341  32.347  1.00  0.00    -0.200 F 
ATOM     97  C   UNL A   1      48.189  30.048  33.805  1.00  0.00     0.200 A 
ATOM     98  F   UNL A   1      46.783  28.760  35.200  1.00  0.00    -0.200 F 
ATOM     99  F   UNL A   1      48.880  30.481  34.865  1.00  0.00    -0.200 F 
ENDBRANCH  75  89
BRANCH  76 100
ATOM    100  C   UNL A   1      39.982  22.537  26.437  1.00  0.00     0.064 A 
ATOM    101  C   UNL A   1      39.081  23.597  26.193  1.00  0.00     0.173 A 
ATOM    102  C   UNL A   1      39.435  21.307  26.134  1.00  0.00     0.173 A 
ATOM    103  F   UNL A   1      39.452  24.863  26.421  1.00  0.00    -0.203 F 
ATOM    104  C   UNL A   1      37.767  23.382  25.670  1.00  0.00     0.198 A 
ATOM    105  C   UNL A   1      38.205  21.075  25.501  1.00  0.00     0.198 A 
ATOM    106  F   UNL A   1      40.205  20.299  26.482  1.00  0.00    -0.203 F 
ATOM    107  F   UNL A   1      36.971  24.417  25.361  1.00  0.00    -0.200 F 
ATOM    108  C   UNL A   1      37.332  22.112  25.323  1.00  0.00     0.200 A 
ATOM    109  F   UNL A   1      37.898  19.860  25.016  1.00  0.00    -0.200 F 
ATOM    110  F   UNL A   1      36.178  21.904  24.666  1.00  0.00    -0.200 F 
ENDBRANCH  76 100
BRANCH  88 111
ATOM    111  C   UNL A   1      46.507  26.130  25.489  1.00  0.00     0.064 A 
ATOM    112  C   UNL A   1      46.357  27.176  24.561  1.00  0.00     0.173 A 
ATOM    113  C   UNL A   1      47.834  25.643  25.603  1.00  0.00     0.173 A 
ATOM    114  F   UNL A   1      45.252  27.931  24.507  1.00  0.00    -0.203 F 
ATOM    115  C   UNL A   1      47.371  27.535  23.678  1.00  0.00     0.198 A 
ATOM    116  C   UNL A   1      48.882  26.119  24.830  1.00  0.00     0.198 A 
ATOM    117  F   UNL A   1      48.204  24.695  26.469  1.00  0.00    -0.203 F 
ATOM    118  F   UNL A   1      47.111  28.411  22.700  1.00  0.00    -0.200 F 
ATOM    119  C   UNL A   1      48.640  27.016  23.821  1.00  0.00     0.200 A 
ATOM    120  F   UNL A   1      50.128  25.690  25.076  1.00  0.00    -0.200 F 
ATOM    121  F   UNL A   1      49.630  27.402  23.011  1.00  0.00    -0.200 F 
ENDBRANCH  88 111
ENDBRANCH  62  63
ENDBRANCH  55  57
ENDBRANCH  54  55
ENDBRANCH  53  54
ENDBRANCH  52  53
ENDBRANCH  51  52
ENDBRANCH  50  51
ENDBRANCH  49  50
ENDBRANCH  48  49
ENDBRANCH   1  48
TORSDOF 26
ENDMDL
MODEL 3
REMARK VINA RESULT:     -10.1      3.780     10.149
REMARK SMILES Cc1ccc([S@TB4](=O)(=O)n2cc(C(=O)C(=O)NCC(=O)N[C@@H](Cc3c[nH]c4ccccc34)C(=O)OCCOCCOCCOC(=O)c3ccc(-c4c5nc(c(-c6c(F)c(F)c(F)c(F)c6F)c6ccc([nH]6)c(-c6c(F)c(F)c(F)c(F)c6F)c6nc(c(-c7c(F)c(F)c(F)c(F)c7F)c7ccc4[nH]7)C=C6)C=C5)cc3)c3ccccc32)cc1
REMARK SMILES IDX 36 1 35 2 34 3 32 4 33 5 21 6 20 7 18 8 19 9 17 11 16 12
REMARK SMILES IDX 14 13 15 14 12 16 13 17 11 18 9 19 10 20 114 21 109 22
REMARK SMILES IDX 113 23 110 24 112 25 111 26 6 27 7 28 8 29 5 30 1 31 2 32
REMARK SMILES IDX 3 33 116 34 4 35 115 36 22 37 23 38 24 39 31 40 25 41 26 42
REMARK SMILES IDX 30 43 27 45 29 46 28 47 37 48 38 49 39 50 40 51 41 52 42 53
REMARK SMILES IDX 43 54 44 55 45 56 46 57 47 58 108 59 48 60 107 61 49 62
REMARK SMILES IDX 50 63 51 64 101 65 52 66 106 67 100 68 102 69 53 70 105 71
REMARK SMILES IDX 99 72 98 73 54 75 86 76 66 77 85 78 67 79 70 80 84 81 103 82
REMARK SMILES IDX 68 83 69 84 83 86 104 87 71 88 55 89 56 90 64 91 57 92 58 93
REMARK SMILES IDX 62 94 65 95 59 96 60 97 63 98 61 99 87 100 88 101 96 102
REMARK SMILES IDX 89 103 90 104 94 105 97 106 91 107 92 108 95 109 93 110
REMARK SMILES IDX 72 111 73 112 81 113 74 114 75 115 79 116 82 117 76 118
REMARK SMILES IDX 77 119 80 120 78 121
REMARK H PARENT 20 10 16 15 25 44 102 74 70 85
REMARK Flexibility Score: inf
ROOT
ATOM      1  C   UNL A   1      36.720  21.899  25.804  1.00  0.00     0.202 C 
ENDROOT
BRANCH   1   2
ATOM      2  C   UNL A   1      35.854  21.400  24.611  1.00  0.00     0.261 C 
BRANCH   2   3
ATOM      3  O   UNL A   1      34.309  22.205  23.898  1.00  0.00    -0.462 OA
BRANCH   3   4
ATOM      4  C   UNL A   1      33.844  23.440  22.788  1.00  0.00     0.329 C 
ATOM      5  O   UNL A   1      33.497  23.191  21.631  1.00  0.00    -0.250 OA
BRANCH   4   6
ATOM      6  C   UNL A   1      33.833  25.274  23.008  1.00  0.00     0.196 C 
BRANCH   6   7
ATOM      7  N   UNL A   1      33.729  26.502  22.109  1.00  0.00    -0.341 N 
ATOM      8  C   UNL A   1      33.821  27.856  22.309  1.00  0.00     0.240 C 
ATOM      9  O   UNL A   1      33.810  28.577  21.306  1.00  0.00    -0.273 OA
ATOM     10  H   UNL A   1      33.554  26.270  21.169  1.00  0.00     0.164 HD
BRANCH   8  11
ATOM     11  C   UNL A   1      34.094  28.453  23.692  1.00  0.00     0.216 C 
BRANCH  11  12
ATOM     12  N   UNL A   1      33.074  29.438  24.009  1.00  0.00    -0.340 N 
ATOM     13  C   UNL A   1      32.445  29.701  25.212  1.00  0.00     0.292 C 
ATOM     14  O   UNL A   1      31.403  30.347  25.200  1.00  0.00    -0.265 OA
ATOM     15  H   UNL A   1      32.788  30.002  23.255  1.00  0.00     0.164 HD
BRANCH  13  16
ATOM     16  C   UNL A   1      33.040  29.169  26.539  1.00  0.00     0.252 C 
ATOM     17  O   UNL A   1      32.562  28.124  26.978  1.00  0.00    -0.283 OA
BRANCH  16  18
ATOM     18  C   UNL A   1      34.095  29.872  27.290  1.00  0.00     0.055 A 
ATOM     19  N   UNL A   1      36.045  30.466  28.175  1.00  0.00    -0.218 N 
ATOM     20  C   UNL A   1      35.324  29.379  27.753  1.00  0.00     0.126 A 
ATOM     21  C   UNL A   1      35.335  31.644  27.955  1.00  0.00     0.072 A 
ATOM     22  C   UNL A   1      34.039  31.270  27.678  1.00  0.00     0.013 A 
ATOM     23  C   UNL A   1      35.755  33.002  28.143  1.00  0.00     0.029 A 
ATOM     24  C   UNL A   1      33.095  32.325  27.694  1.00  0.00     0.011 A 
ATOM     25  C   UNL A   1      34.823  34.008  28.158  1.00  0.00     0.002 A 
ATOM     26  C   UNL A   1      33.496  33.664  27.964  1.00  0.00     0.001 A 
BRANCH  19  27
ATOM     27  S   UNL A   1      37.061  30.713  29.443  1.00  0.00     0.083 S 
ATOM     28  O   UNL A   1      38.316  30.636  28.696  1.00  0.00    -0.149 OA
ATOM     29  O   UNL A   1      36.398  29.608  30.151  1.00  0.00    -0.149 OA
BRANCH  27  30
ATOM     30  C   UNL A   1      37.769  31.132  30.917  1.00  0.00     0.111 A 
ATOM     31  C   UNL A   1      40.200  32.526  34.084  1.00  0.00     0.044 C 
ATOM     32  C   UNL A   1      39.340  32.029  32.974  1.00  0.00    -0.051 A 
ATOM     33  C   UNL A   1      39.964  31.789  31.762  1.00  0.00     0.005 A 
ATOM     34  C   UNL A   1      37.944  31.826  33.139  1.00  0.00     0.005 A 
ATOM     35  C   UNL A   1      39.175  31.363  30.739  1.00  0.00     0.030 A 
ATOM     36  C   UNL A   1      37.134  31.373  32.100  1.00  0.00     0.030 A 
ENDBRANCH  27  30
ENDBRANCH  19  27
ENDBRANCH  16  18
ENDBRANCH  13  16
ENDBRANCH  11  12
ENDBRANCH   8  11
ENDBRANCH   6   7
BRANCH   6  37
ATOM     37  C   UNL A   1      33.188  25.780  24.374  1.00  0.00     0.074 C 
BRANCH  37  38
ATOM     38  C   UNL A   1      31.341  25.880  24.662  1.00  0.00    -0.020 A 
ATOM     39  C   UNL A   1      30.083  27.189  23.731  1.00  0.00     0.087 A 
ATOM     40  C   UNL A   1      31.167  24.728  25.302  1.00  0.00     0.003 A 
ATOM     41  N   UNL A   1      29.109  26.721  24.044  1.00  0.00    -0.361 N 
ATOM     42  C   UNL A   1      29.978  25.260  25.324  1.00  0.00     0.046 A 
ATOM     43  C   UNL A   1      31.644  23.576  25.954  1.00  0.00     0.010 A 
ATOM     44  H   UNL A   1      28.174  26.919  23.806  1.00  0.00     0.166 HD
ATOM     45  C   UNL A   1      29.165  24.507  26.476  1.00  0.00     0.026 A 
ATOM     46  C   UNL A   1      30.798  22.871  26.828  1.00  0.00     0.001 A 
ATOM     47  C   UNL A   1      29.564  23.372  27.144  1.00  0.00     0.002 A 
ENDBRANCH  37  38
ENDBRANCH   6  37
ENDBRANCH   4   6
ENDBRANCH   3   4
ENDBRANCH   2   3
ENDBRANCH   1   2
BRANCH   1  48
ATOM     48  O   UNL A   1      37.952  22.506  25.558  1.00  0.00    -0.376 OA
BRANCH  48  49
ATOM     49  C   UNL A   1      39.014  21.665  25.850  1.00  0.00     0.188 C 
BRANCH  49  50
ATOM     50  C   UNL A   1      40.029  22.044  26.859  1.00  0.00     0.188 C 
BRANCH  50  51
ATOM     51  O   UNL A   1      41.356  22.408  26.552  1.00  0.00    -0.376 OA
BRANCH  51  52
ATOM     52  C   UNL A   1      41.874  23.683  26.670  1.00  0.00     0.202 C 
BRANCH  52  53
ATOM     53  C   UNL A   1      40.818  24.482  27.334  1.00  0.00     0.261 C 
BRANCH  53  54
ATOM     54  O   UNL A   1      41.317  25.688  28.090  1.00  0.00    -0.460 OA
BRANCH  54  55
ATOM     55  C   UNL A   1      42.506  26.281  28.467  1.00  0.00     0.338 C 
ATOM     56  O   UNL A   1      43.398  25.545  28.899  1.00  0.00    -0.246 OA
BRANCH  55  57
ATOM     57  C   UNL A   1      42.746  27.783  28.628  1.00  0.00     0.060 A 
ATOM     58  C   UNL A   1      44.073  28.147  28.666  1.00  0.00     0.016 A 
ATOM     59  C   UNL A   1      41.837  28.706  29.148  1.00  0.00     0.016 A 
ATOM     60  C   UNL A   1      44.442  29.105  29.629  1.00  0.00     0.010 A 
ATOM     61  C   UNL A   1      42.232  29.703  30.121  1.00  0.00     0.010 A 
ATOM     62  C   UNL A   1      43.563  29.911  30.531  1.00  0.00    -0.014 A 
BRANCH  62  63
ATOM     63  C   UNL A   1      43.988  30.899  32.078  1.00  0.00     0.031 A 
ATOM     64  C   UNL A   1      43.468  29.885  33.003  1.00  0.00     0.074 A 
ATOM     65  C   UNL A   1      44.438  32.357  32.506  1.00  0.00     0.049 A 
ATOM     66  N   UNL A   1      43.650  29.961  34.795  1.00  0.00    -0.248 NA
ATOM     67  C   UNL A   1      43.915  27.759  32.652  1.00  0.00     0.031 C 
ATOM     68  C   UNL A   1      45.482  33.006  33.428  1.00  0.00     0.029 A 
ATOM     69  N   UNL A   1      44.501  33.547  31.656  1.00  0.00    -0.354 N 
ATOM     70  C   UNL A   1      44.305  28.374  35.743  1.00  0.00     0.074 A 
ATOM     71  C   UNL A   1      44.622  26.858  34.077  1.00  0.00     0.031 C 
ATOM     72  C   UNL A   1      45.594  34.377  33.301  1.00  0.00     0.029 A 
ATOM     73  C   UNL A   1      44.832  34.782  32.153  1.00  0.00     0.049 A 
ATOM     74  H   UNL A   1      44.298  33.458  30.697  1.00  0.00     0.167 HD
ATOM     75  C   UNL A   1      45.169  28.869  36.742  1.00  0.00     0.037 A 
ATOM     76  C   UNL A   1      43.947  35.800  31.977  1.00  0.00     0.037 A 
ATOM     77  C   UNL A   1      45.274  30.391  36.650  1.00  0.00     0.049 A 
ATOM     78  C   UNL A   1      43.156  35.543  33.349  1.00  0.00     0.074 A 
ATOM     79  C   UNL A   1      46.270  31.250  36.200  1.00  0.00     0.029 A 
ATOM     80  N   UNL A   1      44.121  31.223  36.648  1.00  0.00    -0.354 N 
ATOM     81  N   UNL A   1      43.062  34.365  33.965  1.00  0.00    -0.248 NA
ATOM     82  C   UNL A   1      42.854  36.640  34.262  1.00  0.00     0.031 C 
ATOM     83  C   UNL A   1      45.746  32.595  36.176  1.00  0.00     0.029 A 
ATOM     84  C   UNL A   1      44.355  32.564  36.274  1.00  0.00     0.049 A 
ATOM     85  H   UNL A   1      43.227  30.889  36.887  1.00  0.00     0.167 HD
ATOM     86  C   UNL A   1      43.020  34.543  35.332  1.00  0.00     0.074 A 
ATOM     87  C   UNL A   1      42.797  35.993  35.440  1.00  0.00     0.031 C 
ATOM     88  C   UNL A   1      43.278  33.618  36.345  1.00  0.00     0.037 A 
BRANCH  75  89
ATOM     89  C   UNL A   1      46.172  28.001  37.426  1.00  0.00     0.064 A 
ATOM     90  C   UNL A   1      47.328  27.569  36.772  1.00  0.00     0.173 A 
ATOM     91  C   UNL A   1      46.080  27.623  38.774  1.00  0.00     0.173 A 
ATOM     92  F   UNL A   1      47.554  27.872  35.488  1.00  0.00    -0.203 F 
ATOM     93  C   UNL A   1      48.312  26.837  37.438  1.00  0.00     0.198 A 
ATOM     94  C   UNL A   1      47.015  26.839  39.425  1.00  0.00     0.198 A 
ATOM     95  F   UNL A   1      45.091  28.036  39.541  1.00  0.00    -0.203 F 
ATOM     96  F   UNL A   1      49.442  26.519  36.793  1.00  0.00    -0.200 F 
ATOM     97  C   UNL A   1      48.151  26.462  38.760  1.00  0.00     0.200 A 
ATOM     98  F   UNL A   1      46.811  26.497  40.706  1.00  0.00    -0.200 F 
ATOM     99  F   UNL A   1      49.101  25.774  39.402  1.00  0.00    -0.200 F 
ENDBRANCH  75  89
BRANCH  76 100
ATOM    100  C   UNL A   1      43.445  35.740  30.496  1.00  0.00     0.064 A 
ATOM    101  C   UNL A   1      42.226  35.259  29.969  1.00  0.00     0.173 A 
ATOM    102  C   UNL A   1      44.082  36.605  29.632  1.00  0.00     0.173 A 
ATOM    103  F   UNL A   1      41.468  34.416  30.681  1.00  0.00    -0.203 F 
ATOM    104  C   UNL A   1      41.731  35.664  28.689  1.00  0.00     0.198 A 
ATOM    105  C   UNL A   1      43.563  37.121  28.435  1.00  0.00     0.198 A 
ATOM    106  F   UNL A   1      45.281  36.958  30.043  1.00  0.00    -0.203 F 
ATOM    107  F   UNL A   1      40.525  35.263  28.259  1.00  0.00    -0.200 F 
ATOM    108  C   UNL A   1      42.407  36.601  27.922  1.00  0.00     0.200 A 
ATOM    109  F   UNL A   1      44.155  38.156  27.816  1.00  0.00    -0.200 F 
ATOM    110  F   UNL A   1      41.877  37.132  26.806  1.00  0.00    -0.200 F 
ENDBRANCH  76 100
BRANCH  88 111
ATOM    111  C   UNL A   1      42.577  33.777  37.692  1.00  0.00     0.064 A 
ATOM    112  C   UNL A   1      43.063  34.597  38.726  1.00  0.00     0.173 A 
ATOM    113  C   UNL A   1      41.311  33.196  37.960  1.00  0.00     0.173 A 
ATOM    114  F   UNL A   1      44.099  35.428  38.552  1.00  0.00    -0.203 F 
ATOM    115  C   UNL A   1      42.462  34.643  39.981  1.00  0.00     0.198 A 
ATOM    116  C   UNL A   1      40.635  33.377  39.158  1.00  0.00     0.198 A 
ATOM    117  F   UNL A   1      40.644  32.435  37.087  1.00  0.00    -0.203 F 
ATOM    118  F   UNL A   1      43.070  35.298  40.977  1.00  0.00    -0.200 F 
ATOM    119  C   UNL A   1      41.239  34.043  40.193  1.00  0.00     0.200 A 
ATOM    120  F   UNL A   1      39.394  32.891  39.292  1.00  0.00    -0.200 F 
ATOM    121  F   UNL A   1      40.632  34.135  41.380  1.00  0.00    -0.200 F 
ENDBRANCH  88 111
ENDBRANCH  62  63
ENDBRANCH  55  57
ENDBRANCH  54  55
ENDBRANCH  53  54
ENDBRANCH  52  53
ENDBRANCH  51  52
ENDBRANCH  50  51
ENDBRANCH  49  50
ENDBRANCH  48  49
ENDBRANCH   1  48
TORSDOF 26
ENDMDL
