MODEL 1
REMARK VINA RESULT:     -11.1      0.000      0.000
REMARK SMILES N#C/C(=C\c1ccc(-c2ccc(C(=O)OCCOCCOCCOC(=O)c3ccc(-c4c5nc(c(-c6c(F)c(F)c(F)c(F)c6F)c6ccc([nH]6)c(-c6c(F)c(F)c(F)c(F)c6F)c6nc(c(-c7c(F)c(F)c(F)c(F)c7F)c7ccc4[nH]7)C=C6)C=C5)cc3)cc2)o1)[C@@H]1N=c2cc(Br)cnc2=N1
REMARK SMILES IDX 19 1 18 2 17 3 16 4 15 5 13 6 14 7 12 8 9 9 10 10 91 11
REMARK SMILES IDX 11 12 90 13 8 14 5 15 6 16 92 17 7 18 4 19 3 20 2 21 1 22
REMARK SMILES IDX 93 23 94 24 102 25 95 26 101 27 96 28 100 29 97 30 99 31
REMARK SMILES IDX 98 32 20 33 21 34 22 35 23 36 24 37 25 38 26 39 27 40 28 41
REMARK SMILES IDX 89 42 29 43 88 44 30 45 31 46 32 47 82 48 33 49 87 50 81 51
REMARK SMILES IDX 83 52 34 53 86 54 80 55 79 56 35 58 67 59 47 60 66 61 48 62
REMARK SMILES IDX 51 63 65 64 84 65 49 66 50 67 64 69 85 70 52 71 36 72 37 73
REMARK SMILES IDX 45 74 38 75 39 76 43 77 46 78 40 79 41 80 44 81 42 82 68 83
REMARK SMILES IDX 69 84 77 85 70 86 71 87 75 88 78 89 72 90 73 91 76 92 74 93
REMARK SMILES IDX 53 94 54 95 62 96 55 97 56 98 60 99 63 100 57 101 58 102
REMARK SMILES IDX 61 103 59 104
REMARK H PARENT 83 57 51 68
REMARK Flexibility Score: inf
ROOT
ATOM      1  C   UNL A   1      46.040  19.689  25.333  1.00  0.00     0.188 C 
ENDROOT
BRANCH   1   2
ATOM      2  O   UNL A   1      45.164  18.985  24.467  1.00  0.00    -0.376 OA
BRANCH   2   3
ATOM      3  C   UNL A   1      43.803  18.802  24.827  1.00  0.00     0.202 C 
BRANCH   3   4
ATOM      4  C   UNL A   1      43.175  19.640  25.949  1.00  0.00     0.261 C 
BRANCH   4   5
ATOM      5  O   UNL A   1      41.748  19.518  26.061  1.00  0.00    -0.460 OA
BRANCH   5   6
ATOM      6  C   UNL A   1      41.102  20.634  26.485  1.00  0.00     0.338 C 
ATOM      7  O   UNL A   1      41.574  21.545  27.144  1.00  0.00    -0.246 OA
BRANCH   6   8
ATOM      8  C   UNL A   1      39.737  20.699  25.904  1.00  0.00     0.060 A 
ATOM      9  C   UNL A   1      37.058  20.871  25.062  1.00  0.00     0.017 A 
ATOM     10  C   UNL A   1      37.715  22.009  25.541  1.00  0.00     0.013 A 
ATOM     11  C   UNL A   1      37.787  19.674  24.922  1.00  0.00     0.013 A 
ATOM     12  C   UNL A   1      39.045  21.918  25.974  1.00  0.00     0.016 A 
ATOM     13  C   UNL A   1      39.121  19.585  25.332  1.00  0.00     0.016 A 
BRANCH   9  14
ATOM     14  C   UNL A   1      35.605  20.834  24.936  1.00  0.00     0.134 A 
ATOM     15  C   UNL A   1      33.524  21.641  25.019  1.00  0.00     0.128 A 
ATOM     16  C   UNL A   1      33.463  20.283  24.710  1.00  0.00     0.051 A 
ATOM     17  O   UNL A   1      34.871  21.972  25.139  1.00  0.00    -0.457 OA
ATOM     18  C   UNL A   1      34.771  19.773  24.677  1.00  0.00     0.051 A 
BRANCH  15  19
ATOM     19  C   UNL A   1      32.430  22.560  25.164  1.00  0.00     0.066 C 
ATOM     20  C   UNL A   1      32.131  23.499  24.231  1.00  0.00     0.080 C 
BRANCH  20  21
ATOM     21  C   UNL A   1      32.838  23.409  22.889  1.00  0.00     0.099 C 
ATOM     22  N   UNL A   1      33.423  23.334  21.775  1.00  0.00    -0.193 NA
ENDBRANCH  20  21
BRANCH  20  23
ATOM     23  C   UNL A   1      31.077  24.554  24.412  1.00  0.00     0.265 C 
ATOM     24  N   UNL A   1      31.466  25.819  23.728  1.00  0.00    -0.249 NA
ATOM     25  N   UNL A   1      30.858  24.786  25.862  1.00  0.00    -0.232 NA
ATOM     26  C   UNL A   1      31.461  26.665  24.697  1.00  0.00     0.106 A 
ATOM     27  C   UNL A   1      31.088  26.048  25.990  1.00  0.00     0.175 A 
ATOM     28  C   UNL A   1      31.774  28.093  24.696  1.00  0.00     0.049 A 
ATOM     29  N   UNL A   1      31.004  26.713  27.175  1.00  0.00    -0.234 NA
ATOM     30  C   UNL A   1      31.700  28.733  25.871  1.00  0.00     0.038 A 
ATOM     31  C   UNL A   1      31.300  27.973  27.100  1.00  0.00     0.129 A 
ATOM     32  Br  UNL A   1      32.070  30.545  26.058  1.00  0.00    -0.049 Br
ENDBRANCH  20  23
ENDBRANCH  15  19
ENDBRANCH   9  14
ENDBRANCH   6   8
ENDBRANCH   5   6
ENDBRANCH   4   5
ENDBRANCH   3   4
ENDBRANCH   2   3
ENDBRANCH   1   2
BRANCH   1  33
ATOM     33  C   UNL A   1      46.069  21.232  25.344  1.00  0.00     0.188 C 
BRANCH  33  34
ATOM     34  O   UNL A   1      45.787  21.898  24.140  1.00  0.00    -0.376 OA
BRANCH  34  35
ATOM     35  C   UNL A   1      44.475  22.320  23.815  1.00  0.00     0.202 C 
BRANCH  35  36
ATOM     36  C   UNL A   1      43.639  23.375  24.566  1.00  0.00     0.261 C 
BRANCH  36  37
ATOM     37  O   UNL A   1      44.140  23.888  25.798  1.00  0.00    -0.460 OA
BRANCH  37  38
ATOM     38  C   UNL A   1      44.602  25.157  25.761  1.00  0.00     0.338 C 
ATOM     39  O   UNL A   1      45.089  25.750  24.804  1.00  0.00    -0.246 OA
BRANCH  38  40
ATOM     40  C   UNL A   1      44.282  25.811  27.040  1.00  0.00     0.060 A 
ATOM     41  C   UNL A   1      43.341  25.213  27.887  1.00  0.00     0.016 A 
ATOM     42  C   UNL A   1      44.888  27.020  27.384  1.00  0.00     0.016 A 
ATOM     43  C   UNL A   1      42.985  25.840  29.080  1.00  0.00     0.010 A 
ATOM     44  C   UNL A   1      44.516  27.655  28.571  1.00  0.00     0.010 A 
ATOM     45  C   UNL A   1      43.543  27.082  29.410  1.00  0.00    -0.014 A 
BRANCH  45  46
ATOM     46  C   UNL A   1      42.989  27.865  30.539  1.00  0.00     0.031 A 
ATOM     47  C   UNL A   1      41.705  28.617  30.330  1.00  0.00     0.074 A 
ATOM     48  C   UNL A   1      43.608  27.903  31.731  1.00  0.00     0.049 A 
ATOM     49  N   UNL A   1      41.059  29.408  31.148  1.00  0.00    -0.248 NA
ATOM     50  C   UNL A   1      41.066  28.456  29.015  1.00  0.00     0.031 C 
ATOM     51  C   UNL A   1      44.833  27.183  32.070  1.00  0.00     0.029 A 
ATOM     52  N   UNL A   1      43.288  28.589  32.876  1.00  0.00    -0.354 N 
ATOM     53  C   UNL A   1      39.939  29.838  30.449  1.00  0.00     0.074 A 
ATOM     54  C   UNL A   1      40.013  29.251  29.128  1.00  0.00     0.031 C 
ATOM     55  C   UNL A   1      45.167  27.471  33.340  1.00  0.00     0.029 A 
ATOM     56  C   UNL A   1      44.200  28.421  33.888  1.00  0.00     0.049 A 
ATOM     57  H   UNL A   1      42.481  29.146  32.963  1.00  0.00     0.167 HD
ATOM     58  C   UNL A   1      38.936  30.643  30.871  1.00  0.00     0.037 A 
ATOM     59  C   UNL A   1      44.254  28.989  35.109  1.00  0.00     0.037 A 
ATOM     60  C   UNL A   1      38.874  31.240  32.180  1.00  0.00     0.049 A 
ATOM     61  C   UNL A   1      43.176  29.959  35.524  1.00  0.00     0.074 A 
ATOM     62  C   UNL A   1      37.896  32.063  32.709  1.00  0.00     0.029 A 
ATOM     63  N   UNL A   1      39.840  31.085  33.164  1.00  0.00    -0.354 N 
ATOM     64  N   UNL A   1      42.107  30.345  34.868  1.00  0.00    -0.248 NA
ATOM     65  C   UNL A   1      43.317  30.576  36.851  1.00  0.00     0.031 C 
ATOM     66  C   UNL A   1      38.297  32.451  33.992  1.00  0.00     0.029 A 
ATOM     67  C   UNL A   1      39.496  31.822  34.286  1.00  0.00     0.049 A 
ATOM     68  H   UNL A   1      40.650  30.533  33.077  1.00  0.00     0.167 HD
ATOM     69  C   UNL A   1      41.434  31.219  35.713  1.00  0.00     0.074 A 
ATOM     70  C   UNL A   1      42.209  31.301  36.932  1.00  0.00     0.031 C 
ATOM     71  C   UNL A   1      40.274  31.889  35.498  1.00  0.00     0.037 A 
BRANCH  58  72
ATOM     72  C   UNL A   1      37.843  30.950  29.889  1.00  0.00     0.064 A 
ATOM     73  C   UNL A   1      37.762  32.191  29.239  1.00  0.00     0.173 A 
ATOM     74  C   UNL A   1      36.866  29.988  29.592  1.00  0.00     0.173 A 
ATOM     75  F   UNL A   1      38.662  33.150  29.500  1.00  0.00    -0.203 F 
ATOM     76  C   UNL A   1      36.722  32.469  28.355  1.00  0.00     0.198 A 
ATOM     77  C   UNL A   1      35.846  30.260  28.683  1.00  0.00     0.198 A 
ATOM     78  F   UNL A   1      36.899  28.784  30.182  1.00  0.00    -0.203 F 
ATOM     79  F   UNL A   1      36.631  33.683  27.793  1.00  0.00    -0.200 F 
ATOM     80  C   UNL A   1      35.769  31.503  28.074  1.00  0.00     0.200 A 
ATOM     81  F   UNL A   1      34.933  29.320  28.403  1.00  0.00    -0.200 F 
ATOM     82  F   UNL A   1      34.769  31.772  27.224  1.00  0.00    -0.200 F 
ENDBRANCH  58  72
BRANCH  59  83
ATOM     83  C   UNL A   1      45.370  28.659  36.032  1.00  0.00     0.064 A 
ATOM     84  C   UNL A   1      45.290  27.555  36.893  1.00  0.00     0.173 A 
ATOM     85  C   UNL A   1      46.530  29.445  36.085  1.00  0.00     0.173 A 
ATOM     86  F   UNL A   1      44.188  26.791  36.900  1.00  0.00    -0.203 F 
ATOM     87  C   UNL A   1      46.322  27.258  37.780  1.00  0.00     0.198 A 
ATOM     88  C   UNL A   1      47.573  29.131  36.953  1.00  0.00     0.198 A 
ATOM     89  F   UNL A   1      46.653  30.517  35.288  1.00  0.00    -0.203 F 
ATOM     90  F   UNL A   1      46.200  26.225  38.624  1.00  0.00    -0.200 F 
ATOM     91  C   UNL A   1      47.466  28.042  37.806  1.00  0.00     0.200 A 
ATOM     92  F   UNL A   1      48.680  29.887  36.971  1.00  0.00    -0.200 F 
ATOM     93  F   UNL A   1      48.458  27.756  38.658  1.00  0.00    -0.200 F 
ENDBRANCH  59  83
BRANCH  71  94
ATOM     94  C   UNL A   1      39.749  32.741  36.619  1.00  0.00     0.064 A 
ATOM     95  C   UNL A   1      40.265  34.018  36.881  1.00  0.00     0.173 A 
ATOM     96  C   UNL A   1      38.682  32.289  37.413  1.00  0.00     0.173 A 
ATOM     97  F   UNL A   1      41.292  34.493  36.162  1.00  0.00    -0.203 F 
ATOM     98  C   UNL A   1      39.750  34.801  37.914  1.00  0.00     0.198 A 
ATOM     99  C   UNL A   1      38.151  33.085  38.423  1.00  0.00     0.198 A 
ATOM    100  F   UNL A   1      38.146  31.078  37.199  1.00  0.00    -0.203 F 
ATOM    101  F   UNL A   1      40.291  35.998  38.178  1.00  0.00    -0.200 F 
ATOM    102  C   UNL A   1      38.689  34.337  38.678  1.00  0.00     0.200 A 
ATOM    103  F   UNL A   1      37.115  32.642  39.148  1.00  0.00    -0.200 F 
ATOM    104  F   UNL A   1      38.190  35.094  39.664  1.00  0.00    -0.200 F 
ENDBRANCH  71  94
ENDBRANCH  45  46
ENDBRANCH  38  40
ENDBRANCH  37  38
ENDBRANCH  36  37
ENDBRANCH  35  36
ENDBRANCH  34  35
ENDBRANCH  33  34
ENDBRANCH   1  33
TORSDOF 21
ENDMDL
MODEL 2
REMARK VINA RESULT:     -11.0      6.965     12.387
REMARK SMILES N#C/C(=C\c1ccc(-c2ccc(C(=O)OCCOCCOCCOC(=O)c3ccc(-c4c5nc(c(-c6c(F)c(F)c(F)c(F)c6F)c6ccc([nH]6)c(-c6c(F)c(F)c(F)c(F)c6F)c6nc(c(-c7c(F)c(F)c(F)c(F)c7F)c7ccc4[nH]7)C=C6)C=C5)cc3)cc2)o1)[C@@H]1N=c2cc(Br)cnc2=N1
REMARK SMILES IDX 19 1 18 2 17 3 16 4 15 5 13 6 14 7 12 8 9 9 10 10 91 11
REMARK SMILES IDX 11 12 90 13 8 14 5 15 6 16 92 17 7 18 4 19 3 20 2 21 1 22
REMARK SMILES IDX 93 23 94 24 102 25 95 26 101 27 96 28 100 29 97 30 99 31
REMARK SMILES IDX 98 32 20 33 21 34 22 35 23 36 24 37 25 38 26 39 27 40 28 41
REMARK SMILES IDX 89 42 29 43 88 44 30 45 31 46 32 47 82 48 33 49 87 50 81 51
REMARK SMILES IDX 83 52 34 53 86 54 80 55 79 56 35 58 67 59 47 60 66 61 48 62
REMARK SMILES IDX 51 63 65 64 84 65 49 66 50 67 64 69 85 70 52 71 36 72 37 73
REMARK SMILES IDX 45 74 38 75 39 76 43 77 46 78 40 79 41 80 44 81 42 82 68 83
REMARK SMILES IDX 69 84 77 85 70 86 71 87 75 88 78 89 72 90 73 91 76 92 74 93
REMARK SMILES IDX 53 94 54 95 62 96 55 97 56 98 60 99 63 100 57 101 58 102
REMARK SMILES IDX 61 103 59 104
REMARK H PARENT 83 57 51 68
REMARK Flexibility Score: inf
ROOT
ATOM      1  C   UNL A   1      35.500  35.218  33.344  1.00  0.00     0.188 C 
ENDROOT
BRANCH   1   2
ATOM      2  O   UNL A   1      34.605  36.234  33.768  1.00  0.00    -0.376 OA
BRANCH   2   3
ATOM      3  C   UNL A   1      33.986  37.080  32.812  1.00  0.00     0.202 C 
BRANCH   3   4
ATOM      4  C   UNL A   1      32.548  36.811  32.348  1.00  0.00     0.261 C 
BRANCH   4   5
ATOM      5  O   UNL A   1      32.422  35.782  31.353  1.00  0.00    -0.460 OA
BRANCH   5   6
ATOM      6  C   UNL A   1      32.933  36.088  30.134  1.00  0.00     0.338 C 
ATOM      7  O   UNL A   1      33.085  37.203  29.664  1.00  0.00    -0.246 OA
BRANCH   6   8
ATOM      8  C   UNL A   1      33.450  34.868  29.463  1.00  0.00     0.060 A 
ATOM      9  C   UNL A   1      34.179  32.445  28.233  1.00  0.00     0.017 A 
ATOM     10  C   UNL A   1      33.240  33.284  27.625  1.00  0.00     0.013 A 
ATOM     11  C   UNL A   1      34.814  32.879  29.413  1.00  0.00     0.013 A 
ATOM     12  C   UNL A   1      32.868  34.483  28.246  1.00  0.00     0.016 A 
ATOM     13  C   UNL A   1      34.461  34.087  30.025  1.00  0.00     0.016 A 
BRANCH   9  14
ATOM     14  C   UNL A   1      34.332  31.055  27.817  1.00  0.00     0.134 A 
ATOM     15  C   UNL A   1      33.661  28.988  27.304  1.00  0.00     0.128 A 
ATOM     16  C   UNL A   1      35.054  29.027  27.261  1.00  0.00     0.051 A 
ATOM     17  O   UNL A   1      33.227  30.268  27.634  1.00  0.00    -0.457 OA
ATOM     18  C   UNL A   1      35.475  30.322  27.603  1.00  0.00     0.051 A 
BRANCH  15  19
ATOM     19  C   UNL A   1      32.803  27.868  27.033  1.00  0.00     0.066 C 
ATOM     20  C   UNL A   1      32.209  27.671  25.829  1.00  0.00     0.080 C 
BRANCH  20  21
ATOM     21  C   UNL A   1      32.661  28.543  24.669  1.00  0.00     0.099 C 
ATOM     22  N   UNL A   1      33.036  29.265  23.706  1.00  0.00    -0.193 NA
ENDBRANCH  20  21
BRANCH  20  23
ATOM     23  C   UNL A   1      31.209  26.584  25.556  1.00  0.00     0.265 C 
ATOM     24  N   UNL A   1      31.413  25.430  26.475  1.00  0.00    -0.249 NA
ATOM     25  N   UNL A   1      31.327  26.154  24.139  1.00  0.00    -0.232 NA
ATOM     26  C   UNL A   1      31.618  24.461  25.655  1.00  0.00     0.106 A 
ATOM     27  C   UNL A   1      31.561  24.890  24.240  1.00  0.00     0.175 A 
ATOM     28  C   UNL A   1      31.903  23.052  25.922  1.00  0.00     0.049 A 
ATOM     29  N   UNL A   1      31.743  24.070  23.169  1.00  0.00    -0.234 NA
ATOM     30  C   UNL A   1      32.091  22.258  24.860  1.00  0.00     0.038 A 
ATOM     31  C   UNL A   1      31.996  22.837  23.480  1.00  0.00     0.129 A 
ATOM     32  Br  UNL A   1      32.468  20.443  25.011  1.00  0.00    -0.049 Br
ENDBRANCH  20  23
ENDBRANCH  15  19
ENDBRANCH   9  14
ENDBRANCH   6   8
ENDBRANCH   5   6
ENDBRANCH   4   5
ENDBRANCH   3   4
ENDBRANCH   2   3
ENDBRANCH   1   2
BRANCH   1  33
ATOM     33  C   UNL A   1      35.395  33.786  33.910  1.00  0.00     0.188 C 
BRANCH  33  34
ATOM     34  O   UNL A   1      36.590  33.072  34.100  1.00  0.00    -0.376 OA
BRANCH  34  35
ATOM     35  C   UNL A   1      36.817  31.825  33.468  1.00  0.00     0.202 C 
BRANCH  35  36
ATOM     36  C   UNL A   1      36.012  31.232  32.296  1.00  0.00     0.261 C 
BRANCH  36  37
ATOM     37  O   UNL A   1      36.596  30.174  31.538  1.00  0.00    -0.460 OA
BRANCH  37  38
ATOM     38  C   UNL A   1      37.592  29.495  32.148  1.00  0.00     0.338 C 
ATOM     39  O   UNL A   1      37.489  28.603  32.983  1.00  0.00    -0.246 OA
BRANCH  38  40
ATOM     40  C   UNL A   1      38.870  29.881  31.530  1.00  0.00     0.060 A 
ATOM     41  C   UNL A   1      39.952  30.202  32.361  1.00  0.00     0.016 A 
ATOM     42  C   UNL A   1      38.989  29.953  30.141  1.00  0.00     0.016 A 
ATOM     43  C   UNL A   1      41.157  30.619  31.799  1.00  0.00     0.010 A 
ATOM     44  C   UNL A   1      40.192  30.389  29.582  1.00  0.00     0.010 A 
ATOM     45  C   UNL A   1      41.271  30.751  30.408  1.00  0.00    -0.014 A 
BRANCH  45  46
ATOM     46  C   UNL A   1      42.453  31.426  29.823  1.00  0.00     0.031 A 
ATOM     47  C   UNL A   1      43.644  30.590  29.446  1.00  0.00     0.074 A 
ATOM     48  C   UNL A   1      42.468  32.754  29.622  1.00  0.00     0.049 A 
ATOM     49  N   UNL A   1      44.805  30.960  28.970  1.00  0.00    -0.248 NA
ATOM     50  C   UNL A   1      43.504  29.138  29.638  1.00  0.00     0.031 C 
ATOM     51  C   UNL A   1      41.362  33.665  29.905  1.00  0.00     0.029 A 
ATOM     52  N   UNL A   1      43.464  33.567  29.138  1.00  0.00    -0.354 N 
ATOM     53  C   UNL A   1      45.533  29.789  28.806  1.00  0.00     0.074 A 
ATOM     54  C   UNL A   1      44.697  28.702  29.267  1.00  0.00     0.031 C 
ATOM     55  C   UNL A   1      41.742  34.916  29.595  1.00  0.00     0.029 A 
ATOM     56  C   UNL A   1      43.127  34.897  29.127  1.00  0.00     0.049 A 
ATOM     57  H   UNL A   1      44.334  33.227  28.827  1.00  0.00     0.167 HD
ATOM     58  C   UNL A   1      46.782  29.633  28.307  1.00  0.00     0.037 A 
ATOM     59  C   UNL A   1      43.865  35.975  28.796  1.00  0.00     0.037 A 
ATOM     60  C   UNL A   1      47.618  30.719  27.864  1.00  0.00     0.049 A 
ATOM     61  C   UNL A   1      45.289  35.786  28.335  1.00  0.00     0.074 A 
ATOM     62  C   UNL A   1      48.896  30.665  27.335  1.00  0.00     0.029 A 
ATOM     63  N   UNL A   1      47.262  32.059  27.912  1.00  0.00    -0.354 N 
ATOM     64  N   UNL A   1      45.965  34.676  28.158  1.00  0.00    -0.248 NA
ATOM     65  C   UNL A   1      46.052  37.005  28.030  1.00  0.00     0.031 C 
ATOM     66  C   UNL A   1      49.333  31.976  27.115  1.00  0.00     0.029 A 
ATOM     67  C   UNL A   1      48.306  32.844  27.450  1.00  0.00     0.049 A 
ATOM     68  H   UNL A   1      46.394  32.400  28.228  1.00  0.00     0.167 HD
ATOM     69  C   UNL A   1      47.216  35.059  27.691  1.00  0.00     0.074 A 
ATOM     70  C   UNL A   1      47.204  36.504  27.603  1.00  0.00     0.031 C 
ATOM     71  C   UNL A   1      48.278  34.283  27.361  1.00  0.00     0.037 A 
BRANCH  58  72
ATOM     72  C   UNL A   1      47.328  28.236  28.249  1.00  0.00     0.064 A 
ATOM     73  C   UNL A   1      47.175  27.430  27.110  1.00  0.00     0.173 A 
ATOM     74  C   UNL A   1      48.017  27.697  29.346  1.00  0.00     0.173 A 
ATOM     75  F   UNL A   1      46.510  27.893  26.041  1.00  0.00    -0.203 F 
ATOM     76  C   UNL A   1      47.659  26.125  27.086  1.00  0.00     0.198 A 
ATOM     77  C   UNL A   1      48.528  26.402  29.305  1.00  0.00     0.198 A 
ATOM     78  F   UNL A   1      48.196  28.425  30.458  1.00  0.00    -0.203 F 
ATOM     79  F   UNL A   1      47.447  25.354  26.010  1.00  0.00    -0.200 F 
ATOM     80  C   UNL A   1      48.339  25.613  28.180  1.00  0.00     0.200 A 
ATOM     81  F   UNL A   1      49.196  25.914  30.359  1.00  0.00    -0.200 F 
ATOM     82  F   UNL A   1      48.804  24.358  28.156  1.00  0.00    -0.200 F 
ENDBRANCH  58  72
BRANCH  59  83
ATOM     83  C   UNL A   1      43.275  37.336  28.890  1.00  0.00     0.064 A 
ATOM     84  C   UNL A   1      42.501  37.858  27.844  1.00  0.00     0.173 A 
ATOM     85  C   UNL A   1      43.484  38.146  30.014  1.00  0.00     0.173 A 
ATOM     86  F   UNL A   1      42.298  37.132  26.734  1.00  0.00    -0.203 F 
ATOM     87  C   UNL A   1      41.969  39.144  27.915  1.00  0.00     0.198 A 
ATOM     88  C   UNL A   1      42.929  39.421  30.096  1.00  0.00     0.198 A 
ATOM     89  F   UNL A   1      44.224  37.697  31.038  1.00  0.00    -0.203 F 
ATOM     90  F   UNL A   1      41.272  39.635  26.881  1.00  0.00    -0.200 F 
ATOM     91  C   UNL A   1      42.177  39.922  29.043  1.00  0.00     0.200 A 
ATOM     92  F   UNL A   1      43.127  40.168  31.191  1.00  0.00    -0.200 F 
ATOM     93  F   UNL A   1      41.665  41.158  29.111  1.00  0.00    -0.200 F 
ENDBRANCH  59  83
BRANCH  71  94
ATOM     94  C   UNL A   1      49.505  34.973  26.835  1.00  0.00     0.064 A 
ATOM     95  C   UNL A   1      50.629  35.200  27.642  1.00  0.00     0.173 A 
ATOM     96  C   UNL A   1      49.571  35.374  25.490  1.00  0.00     0.173 A 
ATOM     97  F   UNL A   1      50.614  34.850  28.936  1.00  0.00    -0.203 F 
ATOM     98  C   UNL A   1      51.764  35.826  27.129  1.00  0.00     0.198 A 
ATOM     99  C   UNL A   1      50.718  35.970  24.974  1.00  0.00     0.198 A 
ATOM    100  F   UNL A   1      48.527  35.173  24.673  1.00  0.00    -0.203 F 
ATOM    101  F   UNL A   1      52.809  36.076  27.931  1.00  0.00    -0.200 F 
ATOM    102  C   UNL A   1      51.811  36.203  25.795  1.00  0.00     0.200 A 
ATOM    103  F   UNL A   1      50.766  36.318  23.681  1.00  0.00    -0.200 F 
ATOM    104  F   UNL A   1      52.906  36.795  25.302  1.00  0.00    -0.200 F 
ENDBRANCH  71  94
ENDBRANCH  45  46
ENDBRANCH  38  40
ENDBRANCH  37  38
ENDBRANCH  36  37
ENDBRANCH  35  36
ENDBRANCH  34  35
ENDBRANCH  33  34
ENDBRANCH   1  33
TORSDOF 21
ENDMDL
MODEL 3
REMARK VINA RESULT:     -10.8      1.050      2.159
REMARK SMILES N#C/C(=C\c1ccc(-c2ccc(C(=O)OCCOCCOCCOC(=O)c3ccc(-c4c5nc(c(-c6c(F)c(F)c(F)c(F)c6F)c6ccc([nH]6)c(-c6c(F)c(F)c(F)c(F)c6F)c6nc(c(-c7c(F)c(F)c(F)c(F)c7F)c7ccc4[nH]7)C=C6)C=C5)cc3)cc2)o1)[C@@H]1N=c2cc(Br)cnc2=N1
REMARK SMILES IDX 19 1 18 2 17 3 16 4 15 5 13 6 14 7 12 8 9 9 10 10 91 11
REMARK SMILES IDX 11 12 90 13 8 14 5 15 6 16 92 17 7 18 4 19 3 20 2 21 1 22
REMARK SMILES IDX 93 23 94 24 102 25 95 26 101 27 96 28 100 29 97 30 99 31
REMARK SMILES IDX 98 32 20 33 21 34 22 35 23 36 24 37 25 38 26 39 27 40 28 41
REMARK SMILES IDX 89 42 29 43 88 44 30 45 31 46 32 47 82 48 33 49 87 50 81 51
REMARK SMILES IDX 83 52 34 53 86 54 80 55 79 56 35 58 67 59 47 60 66 61 48 62
REMARK SMILES IDX 51 63 65 64 84 65 49 66 50 67 64 69 85 70 52 71 36 72 37 73
REMARK SMILES IDX 45 74 38 75 39 76 43 77 46 78 40 79 41 80 44 81 42 82 68 83
REMARK SMILES IDX 69 84 77 85 70 86 71 87 75 88 78 89 72 90 73 91 76 92 74 93
REMARK SMILES IDX 53 94 54 95 62 96 55 97 56 98 60 99 63 100 57 101 58 102
REMARK SMILES IDX 61 103 59 104
REMARK H PARENT 83 57 51 68
REMARK Flexibility Score: inf
ROOT
ATOM      1  C   UNL A   1      46.137  19.915  24.569  1.00  0.00     0.188 C 
ENDROOT
BRANCH   1   2
ATOM      2  O   UNL A   1      45.082  19.138  24.025  1.00  0.00    -0.376 OA
BRANCH   2   3
ATOM      3  C   UNL A   1      44.134  18.525  24.884  1.00  0.00     0.202 C 
BRANCH   3   4
ATOM      4  C   UNL A   1      43.332  19.366  25.886  1.00  0.00     0.261 C 
BRANCH   4   5
ATOM      5  O   UNL A   1      41.972  19.622  25.501  1.00  0.00    -0.460 OA
BRANCH   5   6
ATOM      6  C   UNL A   1      41.179  20.136  26.475  1.00  0.00     0.338 C 
ATOM      7  O   UNL A   1      41.519  20.445  27.605  1.00  0.00    -0.246 OA
BRANCH   6   8
ATOM      8  C   UNL A   1      39.827  20.437  25.944  1.00  0.00     0.060 A 
ATOM      9  C   UNL A   1      37.186  21.060  25.198  1.00  0.00     0.017 A 
ATOM     10  C   UNL A   1      38.030  22.062  25.688  1.00  0.00     0.013 A 
ATOM     11  C   UNL A   1      37.710  19.769  24.998  1.00  0.00     0.013 A 
ATOM     12  C   UNL A   1      39.340  21.747  26.072  1.00  0.00     0.016 A 
ATOM     13  C   UNL A   1      39.025  19.455  25.360  1.00  0.00     0.016 A 
BRANCH   9  14
ATOM     14  C   UNL A   1      35.743  21.259  25.121  1.00  0.00     0.134 A 
ATOM     15  C   UNL A   1      33.796  22.284  25.504  1.00  0.00     0.128 A 
ATOM     16  C   UNL A   1      33.545  21.091  24.828  1.00  0.00     0.051 A 
ATOM     17  O   UNL A   1      35.176  22.381  25.661  1.00  0.00    -0.457 OA
ATOM     18  C   UNL A   1      34.768  20.438  24.606  1.00  0.00     0.051 A 
BRANCH  15  19
ATOM     19  C   UNL A   1      32.843  23.265  25.941  1.00  0.00     0.066 C 
ATOM     20  C   UNL A   1      32.614  24.420  25.266  1.00  0.00     0.080 C 
BRANCH  20  21
ATOM     21  C   UNL A   1      33.222  24.558  23.880  1.00  0.00     0.099 C 
ATOM     22  N   UNL A   1      33.727  24.671  22.730  1.00  0.00    -0.193 NA
ENDBRANCH  20  21
BRANCH  20  23
ATOM     23  C   UNL A   1      31.719  25.519  25.764  1.00  0.00     0.265 C 
ATOM     24  N   UNL A   1      30.424  25.526  25.028  1.00  0.00    -0.249 NA
ATOM     25  N   UNL A   1      32.415  26.823  25.616  1.00  0.00    -0.232 NA
ATOM     26  C   UNL A   1      30.401  26.711  24.528  1.00  0.00     0.106 A 
ATOM     27  C   UNL A   1      31.599  27.503  24.885  1.00  0.00     0.175 A 
ATOM     28  C   UNL A   1      29.399  27.350  23.677  1.00  0.00     0.049 A 
ATOM     29  N   UNL A   1      31.833  28.785  24.489  1.00  0.00    -0.234 NA
ATOM     30  C   UNL A   1      29.645  28.607  23.285  1.00  0.00     0.038 A 
ATOM     31  C   UNL A   1      30.905  29.285  23.734  1.00  0.00     0.129 A 
ATOM     32  Br  UNL A   1      28.485  29.570  22.198  1.00  0.00    -0.049 Br
ENDBRANCH  20  23
ENDBRANCH  15  19
ENDBRANCH   9  14
ENDBRANCH   6   8
ENDBRANCH   5   6
ENDBRANCH   4   5
ENDBRANCH   3   4
ENDBRANCH   2   3
ENDBRANCH   1   2
BRANCH   1  33
ATOM     33  C   UNL A   1      45.967  21.433  24.792  1.00  0.00     0.188 C 
BRANCH  33  34
ATOM     34  O   UNL A   1      45.187  22.145  23.865  1.00  0.00    -0.376 OA
BRANCH  34  35
ATOM     35  C   UNL A   1      43.853  22.522  24.153  1.00  0.00     0.202 C 
BRANCH  35  36
ATOM     36  C   UNL A   1      43.382  23.886  24.694  1.00  0.00     0.261 C 
BRANCH  36  37
ATOM     37  O   UNL A   1      43.698  24.228  26.042  1.00  0.00    -0.460 OA
BRANCH  37  38
ATOM     38  C   UNL A   1      44.662  25.161  26.201  1.00  0.00     0.338 C 
ATOM     39  O   UNL A   1      45.564  25.446  25.421  1.00  0.00    -0.246 OA
BRANCH  38  40
ATOM     40  C   UNL A   1      44.374  25.930  27.421  1.00  0.00     0.060 A 
ATOM     41  C   UNL A   1      43.580  25.347  28.416  1.00  0.00     0.016 A 
ATOM     42  C   UNL A   1      44.864  27.230  27.567  1.00  0.00     0.016 A 
ATOM     43  C   UNL A   1      43.253  26.075  29.558  1.00  0.00     0.010 A 
ATOM     44  C   UNL A   1      44.519  27.964  28.704  1.00  0.00     0.010 A 
ATOM     45  C   UNL A   1      43.690  27.401  29.690  1.00  0.00    -0.014 A 
BRANCH  45  46
ATOM     46  C   UNL A   1      43.144  28.255  30.771  1.00  0.00     0.031 A 
ATOM     47  C   UNL A   1      41.830  28.949  30.543  1.00  0.00     0.074 A 
ATOM     48  C   UNL A   1      43.795  28.406  31.936  1.00  0.00     0.049 A 
ATOM     49  N   UNL A   1      41.183  29.784  31.316  1.00  0.00    -0.248 NA
ATOM     50  C   UNL A   1      41.159  28.664  29.265  1.00  0.00     0.031 C 
ATOM     51  C   UNL A   1      45.052  27.753  32.293  1.00  0.00     0.029 A 
ATOM     52  N   UNL A   1      43.485  29.172  33.033  1.00  0.00    -0.354 N 
ATOM     53  C   UNL A   1      40.031  30.123  30.619  1.00  0.00     0.074 A 
ATOM     54  C   UNL A   1      40.085  29.434  29.348  1.00  0.00     0.031 C 
ATOM     55  C   UNL A   1      45.412  28.152  33.525  1.00  0.00     0.029 A 
ATOM     56  C   UNL A   1      44.431  29.113  34.026  1.00  0.00     0.049 A 
ATOM     57  H   UNL A   1      42.664  29.711  33.100  1.00  0.00     0.167 HD
ATOM     58  C   UNL A   1      39.015  30.929  31.008  1.00  0.00     0.037 A 
ATOM     59  C   UNL A   1      44.502  29.779  35.195  1.00  0.00     0.037 A 
ATOM     60  C   UNL A   1      38.971  31.626  32.266  1.00  0.00     0.049 A 
ATOM     61  C   UNL A   1      43.406  30.747  35.565  1.00  0.00     0.074 A 
ATOM     62  C   UNL A   1      37.982  32.460  32.758  1.00  0.00     0.029 A 
ATOM     63  N   UNL A   1      39.969  31.580  33.229  1.00  0.00    -0.354 N 
ATOM     64  N   UNL A   1      42.307  31.047  34.915  1.00  0.00    -0.248 NA
ATOM     65  C   UNL A   1      43.564  31.472  36.834  1.00  0.00     0.031 C 
ATOM     66  C   UNL A   1      38.407  32.962  33.993  1.00  0.00     0.029 A 
ATOM     67  C   UNL A   1      39.634  32.394  34.299  1.00  0.00     0.049 A 
ATOM     68  H   UNL A   1      40.793  31.047  33.160  1.00  0.00     0.167 HD
ATOM     69  C   UNL A   1      41.630  31.965  35.708  1.00  0.00     0.074 A 
ATOM     70  C   UNL A   1      42.437  32.168  36.892  1.00  0.00     0.031 C 
ATOM     71  C   UNL A   1      40.444  32.582  35.477  1.00  0.00     0.037 A 
BRANCH  58  72
ATOM     72  C   UNL A   1      37.884  31.123  30.038  1.00  0.00     0.064 A 
ATOM     73  C   UNL A   1      36.925  30.124  29.814  1.00  0.00     0.173 A 
ATOM     74  C   UNL A   1      37.758  32.326  29.327  1.00  0.00     0.173 A 
ATOM     75  F   UNL A   1      37.010  28.950  30.458  1.00  0.00    -0.203 F 
ATOM     76  C   UNL A   1      35.902  30.308  28.888  1.00  0.00     0.198 A 
ATOM     77  C   UNL A   1      36.714  32.518  28.425  1.00  0.00     0.198 A 
ATOM     78  F   UNL A   1      38.645  33.315  29.506  1.00  0.00    -0.203 F 
ATOM     79  F   UNL A   1      35.033  29.317  28.647  1.00  0.00    -0.200 F 
ATOM     80  C   UNL A   1      35.794  31.505  28.198  1.00  0.00     0.200 A 
ATOM     81  F   UNL A   1      36.605  33.681  27.769  1.00  0.00    -0.200 F 
ATOM     82  F   UNL A   1      34.810  31.681  27.307  1.00  0.00    -0.200 F 
ENDBRANCH  58  72
BRANCH  59  83
ATOM     83  C   UNL A   1      45.654  29.558  36.107  1.00  0.00     0.064 A 
ATOM     84  C   UNL A   1      46.874  30.218  35.898  1.00  0.00     0.173 A 
ATOM     85  C   UNL A   1      45.568  28.674  37.191  1.00  0.00     0.173 A 
ATOM     86  F   UNL A   1      47.014  31.050  34.856  1.00  0.00    -0.203 F 
ATOM     87  C   UNL A   1      47.966  29.992  36.733  1.00  0.00     0.198 A 
ATOM     88  C   UNL A   1      46.652  28.469  38.042  1.00  0.00     0.198 A 
ATOM     89  F   UNL A   1      44.426  28.011  37.429  1.00  0.00    -0.203 F 
ATOM     90  F   UNL A   1      49.134  30.600  36.483  1.00  0.00    -0.200 F 
ATOM     91  C   UNL A   1      47.853  29.123  37.808  1.00  0.00     0.200 A 
ATOM     92  F   UNL A   1      46.538  27.634  39.083  1.00  0.00    -0.200 F 
ATOM     93  F   UNL A   1      48.903  28.907  38.611  1.00  0.00    -0.200 F 
ENDBRANCH  59  83
BRANCH  71  94
ATOM     94  C   UNL A   1      39.923  33.505  36.542  1.00  0.00     0.064 A 
ATOM     95  C   UNL A   1      39.019  33.069  37.522  1.00  0.00     0.173 A 
ATOM     96  C   UNL A   1      40.372  34.835  36.608  1.00  0.00     0.173 A 
ATOM     97  F   UNL A   1      38.549  31.814  37.496  1.00  0.00    -0.203 F 
ATOM     98  C   UNL A   1      38.563  33.937  38.513  1.00  0.00     0.198 A 
ATOM     99  C   UNL A   1      39.938  35.689  37.618  1.00  0.00     0.198 A 
ATOM    100  F   UNL A   1      41.243  35.301  35.701  1.00  0.00    -0.203 F 
ATOM    101  F   UNL A   1      37.663  33.512  39.410  1.00  0.00    -0.200 F 
ATOM    102  C   UNL A   1      39.029  35.243  38.565  1.00  0.00     0.200 A 
ATOM    103  F   UNL A   1      40.402  36.945  37.676  1.00  0.00    -0.200 F 
ATOM    104  F   UNL A   1      38.596  36.072  39.523  1.00  0.00    -0.200 F 
ENDBRANCH  71  94
ENDBRANCH  45  46
ENDBRANCH  38  40
ENDBRANCH  37  38
ENDBRANCH  36  37
ENDBRANCH  35  36
ENDBRANCH  34  35
ENDBRANCH  33  34
ENDBRANCH   1  33
TORSDOF 21
ENDMDL
