MODEL 1
REMARK VINA RESULT:     -13.1      0.000      0.000
REMARK SMILES CCC(=O)N1CCC[C@](C[C@H]2CC(c3ccc(C)cc3)=NO2)(C(=O)OCCOCCOCCOC(=O)c2ccc(-c3c4nc(c(-c5c(F)c(F)c(F)c(F)c5F)c5ccc([nH]5)c(-c5c(F)c(F)c(F)c(F)c5F)c5nc(c(-c6c(F)c(F)c(F)c(F)c6F)c6ccc3[nH]6)C=C5)C=C4)cc2)C1
REMARK SMILES IDX 29 1 28 2 27 3 26 4 25 5 23 6 24 7 9 8 5 9 6 10 100 11 7 12
REMARK SMILES IDX 8 13 3 14 4 15 2 16 1 17 10 18 11 19 12 20 22 21 13 22 21 23
REMARK SMILES IDX 14 24 15 25 20 26 16 27 19 28 17 29 18 30 30 31 31 32 32 33
REMARK SMILES IDX 33 34 34 35 35 36 36 37 37 38 38 39 99 40 39 41 98 42 40 43
REMARK SMILES IDX 41 44 42 45 92 46 43 47 97 48 91 49 93 50 44 51 96 52 90 53
REMARK SMILES IDX 89 54 45 56 77 57 57 58 76 59 58 60 61 61 75 62 94 63 59 64
REMARK SMILES IDX 60 65 74 67 95 68 62 69 46 70 47 71 55 72 48 73 49 74 53 75
REMARK SMILES IDX 56 76 50 77 51 78 54 79 52 80 78 81 79 82 87 83 80 84 81 85
REMARK SMILES IDX 85 86 88 87 82 88 83 89 86 90 84 91 63 92 64 93 72 94 65 95
REMARK SMILES IDX 66 96 70 97 73 98 67 99 68 100 71 101 69 102
REMARK H PARENT 93 55 61 66
REMARK Flexibility Score: inf
ROOT
ATOM      1  C   UNL A   1      34.010  31.611  27.799  1.00  0.00     0.188 C 
ENDROOT
BRANCH   1   2
ATOM      2  O   UNL A   1      33.270  30.641  27.028  1.00  0.00    -0.376 OA
BRANCH   2   3
ATOM      3  C   UNL A   1      33.326  29.206  27.178  1.00  0.00     0.202 C 
BRANCH   3   4
ATOM      4  C   UNL A   1      33.871  27.934  26.144  1.00  0.00     0.261 C 
BRANCH   4   5
ATOM      5  O   UNL A   1      33.917  26.118  26.227  1.00  0.00    -0.463 OA
BRANCH   5   6
ATOM      6  C   UNL A   1      33.132  24.886  25.969  1.00  0.00     0.314 C 
ATOM      7  O   UNL A   1      32.985  23.924  26.720  1.00  0.00    -0.252 OA
BRANCH   6   8
ATOM      8  C   UNL A   1      32.418  24.665  24.636  1.00  0.00     0.089 C 
ATOM      9  N   UNL A   1      33.333  22.257  24.060  1.00  0.00    -0.342 N 
ATOM     10  C   UNL A   1      34.215  22.801  23.048  1.00  0.00     0.119 C 
ATOM     11  C   UNL A   1      32.148  23.069  24.407  1.00  0.00     0.138 C 
ATOM     12  C   UNL A   1      34.630  24.213  23.414  1.00  0.00     0.023 C 
ATOM     13  C   UNL A   1      33.397  25.121  23.556  1.00  0.00     0.022 C 
BRANCH   9  14
ATOM     14  C   UNL A   1      33.854  21.225  24.835  1.00  0.00     0.222 C 
ATOM     15  O   UNL A   1      33.203  20.792  25.794  1.00  0.00    -0.275 OA
BRANCH  14  16
ATOM     16  C   UNL A   1      35.375  21.036  24.835  1.00  0.00     0.097 C 
ATOM     17  C   UNL A   1      36.278  21.739  25.820  1.00  0.00     0.014 C 
ENDBRANCH  14  16
ENDBRANCH   9  14
BRANCH   8  18
ATOM     18  C   UNL A   1      31.040  25.354  24.813  1.00  0.00     0.069 C 
BRANCH  18  19
ATOM     19  C   UNL A   1      30.124  25.677  23.629  1.00  0.00     0.212 C 
ATOM     20  C   UNL A   1      29.244  26.884  23.828  1.00  0.00     0.108 C 
ATOM     21  O   UNL A   1      30.832  25.880  22.404  1.00  0.00    -0.392 OA
ATOM     22  C   UNL A   1      29.886  27.796  22.849  1.00  0.00     0.091 C 
ATOM     23  N   UNL A   1      30.719  27.239  22.032  1.00  0.00    -0.090 NA
BRANCH  22  24
ATOM     24  C   UNL A   1      29.595  29.237  22.843  1.00  0.00    -0.001 A 
ATOM     25  C   UNL A   1      28.854  29.804  21.801  1.00  0.00     0.010 A 
ATOM     26  C   UNL A   1      29.999  30.015  23.925  1.00  0.00     0.010 A 
ATOM     27  C   UNL A   1      28.493  31.147  21.853  1.00  0.00     0.004 A 
ATOM     28  C   UNL A   1      29.675  31.373  23.951  1.00  0.00     0.004 A 
ATOM     29  C   UNL A   1      28.906  31.942  22.926  1.00  0.00    -0.051 A 
ATOM     30  C   UNL A   1      28.570  33.402  22.952  1.00  0.00     0.044 C 
ENDBRANCH  22  24
ENDBRANCH  18  19
ENDBRANCH   8  18
ENDBRANCH   6   8
ENDBRANCH   5   6
ENDBRANCH   4   5
ENDBRANCH   3   4
ENDBRANCH   2   3
ENDBRANCH   1   2
BRANCH   1  31
ATOM     31  C   UNL A   1      33.562  33.059  27.970  1.00  0.00     0.188 C 
BRANCH  31  32
ATOM     32  O   UNL A   1      34.478  33.749  28.784  1.00  0.00    -0.376 OA
BRANCH  32  33
ATOM     33  C   UNL A   1      33.916  34.471  29.861  1.00  0.00     0.202 C 
BRANCH  33  34
ATOM     34  C   UNL A   1      34.410  33.949  31.214  1.00  0.00     0.261 C 
BRANCH  34  35
ATOM     35  O   UNL A   1      34.399  32.503  31.234  1.00  0.00    -0.460 OA
BRANCH  35  36
ATOM     36  C   UNL A   1      35.477  31.907  31.839  1.00  0.00     0.338 C 
ATOM     37  O   UNL A   1      35.855  32.150  32.977  1.00  0.00    -0.246 OA
BRANCH  36  38
ATOM     38  C   UNL A   1      36.204  31.054  30.857  1.00  0.00     0.060 A 
ATOM     39  C   UNL A   1      36.398  29.666  30.928  1.00  0.00     0.016 A 
ATOM     40  C   UNL A   1      36.935  31.702  29.923  1.00  0.00     0.016 A 
ATOM     41  C   UNL A   1      37.535  29.003  30.286  1.00  0.00     0.010 A 
ATOM     42  C   UNL A   1      38.037  31.033  29.392  1.00  0.00     0.010 A 
ATOM     43  C   UNL A   1      38.551  29.682  29.598  1.00  0.00    -0.014 A 
BRANCH  43  44
ATOM     44  C   UNL A   1      40.178  28.972  29.237  1.00  0.00     0.031 A 
ATOM     45  C   UNL A   1      40.762  27.298  28.817  1.00  0.00     0.074 A 
ATOM     46  C   UNL A   1      41.275  29.754  29.436  1.00  0.00     0.049 A 
ATOM     47  N   UNL A   1      42.029  26.919  28.759  1.00  0.00    -0.248 NA
ATOM     48  C   UNL A   1      40.011  26.014  28.422  1.00  0.00     0.031 C 
ATOM     49  C   UNL A   1      42.647  29.489  28.992  1.00  0.00     0.029 A 
ATOM     50  N   UNL A   1      41.419  30.930  30.191  1.00  0.00    -0.354 N 
ATOM     51  C   UNL A   1      42.133  25.614  28.271  1.00  0.00     0.074 A 
ATOM     52  C   UNL A   1      40.871  25.248  27.780  1.00  0.00     0.031 C 
ATOM     53  C   UNL A   1      43.503  30.168  29.763  1.00  0.00     0.029 A 
ATOM     54  C   UNL A   1      42.715  30.865  30.746  1.00  0.00     0.049 A 
ATOM     55  H   UNL A   1      40.755  31.648  30.307  1.00  0.00     0.167 HD
ATOM     56  C   UNL A   1      43.182  24.764  28.397  1.00  0.00     0.037 A 
ATOM     57  C   UNL A   1      42.952  30.919  32.078  1.00  0.00     0.037 A 
ATOM     58  C   UNL A   1      44.225  25.346  29.178  1.00  0.00     0.049 A 
ATOM     59  C   UNL A   1      43.831  29.816  32.616  1.00  0.00     0.074 A 
ATOM     60  C   UNL A   1      45.378  26.025  28.848  1.00  0.00     0.029 A 
ATOM     61  N   UNL A   1      43.977  25.583  30.521  1.00  0.00    -0.354 N 
ATOM     62  N   UNL A   1      44.216  28.758  31.953  1.00  0.00    -0.248 NA
ATOM     63  C   UNL A   1      44.314  29.818  33.992  1.00  0.00     0.031 C 
ATOM     64  C   UNL A   1      45.852  26.653  30.026  1.00  0.00     0.029 A 
ATOM     65  C   UNL A   1      45.012  26.307  31.070  1.00  0.00     0.049 A 
ATOM     66  H   UNL A   1      43.178  25.279  31.010  1.00  0.00     0.167 HD
ATOM     67  C   UNL A   1      44.797  27.869  32.832  1.00  0.00     0.074 A 
ATOM     68  C   UNL A   1      44.935  28.631  34.054  1.00  0.00     0.031 C 
ATOM     69  C   UNL A   1      45.029  26.560  32.501  1.00  0.00     0.037 A 
BRANCH  56  70
ATOM     70  C   UNL A   1      43.225  23.415  27.694  1.00  0.00     0.064 A 
ATOM     71  C   UNL A   1      43.862  23.286  26.447  1.00  0.00     0.173 A 
ATOM     72  C   UNL A   1      42.543  22.256  28.140  1.00  0.00     0.173 A 
ATOM     73  F   UNL A   1      44.589  24.293  25.943  1.00  0.00    -0.203 F 
ATOM     74  C   UNL A   1      43.730  22.135  25.657  1.00  0.00     0.198 A 
ATOM     75  C   UNL A   1      42.348  21.137  27.318  1.00  0.00     0.198 A 
ATOM     76  F   UNL A   1      42.008  22.200  29.370  1.00  0.00    -0.203 F 
ATOM     77  F   UNL A   1      44.345  22.068  24.467  1.00  0.00    -0.200 F 
ATOM     78  C   UNL A   1      42.935  21.081  26.070  1.00  0.00     0.200 A 
ATOM     79  F   UNL A   1      41.555  20.135  27.726  1.00  0.00    -0.200 F 
ATOM     80  F   UNL A   1      42.733  20.024  25.271  1.00  0.00    -0.200 F 
ENDBRANCH  56  70
BRANCH  57  81
ATOM     81  C   UNL A   1      41.870  31.614  32.821  1.00  0.00     0.064 A 
ATOM     82  C   UNL A   1      41.843  33.021  32.829  1.00  0.00     0.173 A 
ATOM     83  C   UNL A   1      40.674  30.952  33.122  1.00  0.00     0.173 A 
ATOM     84  F   UNL A   1      42.933  33.712  32.462  1.00  0.00    -0.203 F 
ATOM     85  C   UNL A   1      40.661  33.721  33.069  1.00  0.00     0.198 A 
ATOM     86  C   UNL A   1      39.507  31.653  33.432  1.00  0.00     0.198 A 
ATOM     87  F   UNL A   1      40.579  29.638  32.897  1.00  0.00    -0.203 F 
ATOM     88  F   UNL A   1      40.629  35.053  32.911  1.00  0.00    -0.200 F 
ATOM     89  C   UNL A   1      39.492  33.037  33.365  1.00  0.00     0.200 A 
ATOM     90  F   UNL A   1      38.358  30.986  33.617  1.00  0.00    -0.200 F 
ATOM     91  F   UNL A   1      38.333  33.703  33.476  1.00  0.00    -0.200 F 
ENDBRANCH  57  81
BRANCH  69  92
ATOM     92  C   UNL A   1      45.294  25.381  33.445  1.00  0.00     0.064 A 
ATOM     93  C   UNL A   1      44.318  24.709  34.202  1.00  0.00     0.173 A 
ATOM     94  C   UNL A   1      46.592  24.801  33.539  1.00  0.00     0.173 A 
ATOM     95  F   UNL A   1      43.019  25.007  34.122  1.00  0.00    -0.203 F 
ATOM     96  C   UNL A   1      44.623  23.638  35.053  1.00  0.00     0.198 A 
ATOM     97  C   UNL A   1      46.880  23.691  34.340  1.00  0.00     0.198 A 
ATOM     98  F   UNL A   1      47.639  25.270  32.844  1.00  0.00    -0.203 F 
ATOM     99  F   UNL A   1      43.650  23.089  35.796  1.00  0.00    -0.200 F 
ATOM    100  C   UNL A   1      45.900  23.128  35.122  1.00  0.00     0.200 A 
ATOM    101  F   UNL A   1      48.116  23.170  34.338  1.00  0.00    -0.200 F 
ATOM    102  F   UNL A   1      46.178  22.088  35.920  1.00  0.00    -0.200 F 
ENDBRANCH  69  92
ENDBRANCH  43  44
ENDBRANCH  36  38
ENDBRANCH  35  36
ENDBRANCH  34  35
ENDBRANCH  33  34
ENDBRANCH  32  33
ENDBRANCH  31  32
ENDBRANCH   1  31
TORSDOF 22
ENDMDL
MODEL 2
REMARK VINA RESULT:     -12.8      1.288      2.122
REMARK SMILES CCC(=O)N1CCC[C@](C[C@H]2CC(c3ccc(C)cc3)=NO2)(C(=O)OCCOCCOCCOC(=O)c2ccc(-c3c4nc(c(-c5c(F)c(F)c(F)c(F)c5F)c5ccc([nH]5)c(-c5c(F)c(F)c(F)c(F)c5F)c5nc(c(-c6c(F)c(F)c(F)c(F)c6F)c6ccc3[nH]6)C=C5)C=C4)cc2)C1
REMARK SMILES IDX 29 1 28 2 27 3 26 4 25 5 23 6 24 7 9 8 5 9 6 10 100 11 7 12
REMARK SMILES IDX 8 13 3 14 4 15 2 16 1 17 10 18 11 19 12 20 22 21 13 22 21 23
REMARK SMILES IDX 14 24 15 25 20 26 16 27 19 28 17 29 18 30 30 31 31 32 32 33
REMARK SMILES IDX 33 34 34 35 35 36 36 37 37 38 38 39 99 40 39 41 98 42 40 43
REMARK SMILES IDX 41 44 42 45 92 46 43 47 97 48 91 49 93 50 44 51 96 52 90 53
REMARK SMILES IDX 89 54 45 56 77 57 57 58 76 59 58 60 61 61 75 62 94 63 59 64
REMARK SMILES IDX 60 65 74 67 95 68 62 69 46 70 47 71 55 72 48 73 49 74 53 75
REMARK SMILES IDX 56 76 50 77 51 78 54 79 52 80 78 81 79 82 87 83 80 84 81 85
REMARK SMILES IDX 85 86 88 87 82 88 83 89 86 90 84 91 63 92 64 93 72 94 65 95
REMARK SMILES IDX 66 96 70 97 73 98 67 99 68 100 71 101 69 102
REMARK H PARENT 93 55 61 66
REMARK Flexibility Score: inf
ROOT
ATOM      1  C   UNL A   1      33.554  32.076  27.982  1.00  0.00     0.188 C 
ENDROOT
BRANCH   1   2
ATOM      2  O   UNL A   1      32.944  30.842  27.548  1.00  0.00    -0.376 OA
BRANCH   2   3
ATOM      3  C   UNL A   1      33.634  29.619  27.214  1.00  0.00     0.202 C 
BRANCH   3   4
ATOM      4  C   UNL A   1      33.241  28.288  26.184  1.00  0.00     0.261 C 
BRANCH   4   5
ATOM      5  O   UNL A   1      33.660  26.519  26.126  1.00  0.00    -0.463 OA
BRANCH   5   6
ATOM      6  C   UNL A   1      33.100  25.161  25.921  1.00  0.00     0.314 C 
ATOM      7  O   UNL A   1      33.131  24.215  26.705  1.00  0.00    -0.252 OA
BRANCH   6   8
ATOM      8  C   UNL A   1      32.423  24.771  24.607  1.00  0.00     0.089 C 
ATOM      9  N   UNL A   1      33.530  22.402  24.246  1.00  0.00    -0.342 N 
ATOM     10  C   UNL A   1      34.381  22.926  23.197  1.00  0.00     0.119 C 
ATOM     11  C   UNL A   1      32.281  23.146  24.514  1.00  0.00     0.138 C 
ATOM     12  C   UNL A   1      34.680  24.392  23.443  1.00  0.00     0.023 C 
ATOM     13  C   UNL A   1      33.378  25.209  23.498  1.00  0.00     0.022 C 
BRANCH   9  14
ATOM     14  C   UNL A   1      34.119  21.485  25.111  1.00  0.00     0.222 C 
ATOM     15  O   UNL A   1      35.328  21.242  25.016  1.00  0.00    -0.275 OA
BRANCH  14  16
ATOM     16  C   UNL A   1      33.207  20.435  25.758  1.00  0.00     0.097 C 
ATOM     17  C   UNL A   1      32.914  19.106  25.105  1.00  0.00     0.014 C 
ENDBRANCH  14  16
ENDBRANCH   9  14
BRANCH   8  18
ATOM     18  C   UNL A   1      30.994  25.363  24.714  1.00  0.00     0.069 C 
BRANCH  18  19
ATOM     19  C   UNL A   1      30.150  25.703  23.482  1.00  0.00     0.212 C 
ATOM     20  C   UNL A   1      29.244  26.895  23.654  1.00  0.00     0.108 C 
ATOM     21  O   UNL A   1      30.930  25.944  22.310  1.00  0.00    -0.392 OA
ATOM     22  C   UNL A   1      29.934  27.837  22.738  1.00  0.00     0.091 C 
ATOM     23  N   UNL A   1      30.823  27.310  21.962  1.00  0.00    -0.090 NA
BRANCH  22  24
ATOM     24  C   UNL A   1      29.625  29.275  22.747  1.00  0.00    -0.001 A 
ATOM     25  C   UNL A   1      29.032  29.877  21.632  1.00  0.00     0.010 A 
ATOM     26  C   UNL A   1      29.858  30.012  23.905  1.00  0.00     0.010 A 
ATOM     27  C   UNL A   1      28.647  31.214  21.685  1.00  0.00     0.004 A 
ATOM     28  C   UNL A   1      29.514  31.364  23.938  1.00  0.00     0.004 A 
ATOM     29  C   UNL A   1      28.890  31.967  22.836  1.00  0.00    -0.051 A 
ATOM     30  C   UNL A   1      28.533  33.422  22.871  1.00  0.00     0.044 C 
ENDBRANCH  22  24
ENDBRANCH  18  19
ENDBRANCH   8  18
ENDBRANCH   6   8
ENDBRANCH   5   6
ENDBRANCH   4   5
ENDBRANCH   3   4
ENDBRANCH   2   3
ENDBRANCH   1   2
BRANCH   1  31
ATOM     31  C   UNL A   1      32.975  33.451  27.664  1.00  0.00     0.188 C 
BRANCH  31  32
ATOM     32  O   UNL A   1      33.761  34.451  28.266  1.00  0.00    -0.376 OA
BRANCH  32  33
ATOM     33  C   UNL A   1      33.053  35.409  29.026  1.00  0.00     0.202 C 
BRANCH  33  34
ATOM     34  C   UNL A   1      33.408  35.327  30.514  1.00  0.00     0.261 C 
BRANCH  34  35
ATOM     35  O   UNL A   1      33.804  33.981  30.867  1.00  0.00    -0.460 OA
BRANCH  35  36
ATOM     36  C   UNL A   1      35.077  33.845  31.361  1.00  0.00     0.338 C 
ATOM     37  O   UNL A   1      35.578  34.581  32.199  1.00  0.00    -0.246 OA
BRANCH  36  38
ATOM     38  C   UNL A   1      35.802  32.780  30.610  1.00  0.00     0.060 A 
ATOM     39  C   UNL A   1      36.045  31.467  31.039  1.00  0.00     0.016 A 
ATOM     40  C   UNL A   1      36.478  33.175  29.510  1.00  0.00     0.016 A 
ATOM     41  C   UNL A   1      37.183  30.685  30.550  1.00  0.00     0.010 A 
ATOM     42  C   UNL A   1      37.586  32.417  29.131  1.00  0.00     0.010 A 
ATOM     43  C   UNL A   1      38.153  31.182  29.665  1.00  0.00    -0.014 A 
BRANCH  43  44
ATOM     44  C   UNL A   1      39.791  30.442  29.440  1.00  0.00     0.031 A 
ATOM     45  C   UNL A   1      40.376  28.828  28.833  1.00  0.00     0.074 A 
ATOM     46  C   UNL A   1      40.868  31.113  29.936  1.00  0.00     0.049 A 
ATOM     47  N   UNL A   1      41.622  28.387  28.905  1.00  0.00    -0.248 NA
ATOM     48  C   UNL A   1      39.655  27.675  28.113  1.00  0.00     0.031 C 
ATOM     49  C   UNL A   1      42.284  30.840  29.667  1.00  0.00     0.029 A 
ATOM     50  N   UNL A   1      40.929  32.137  30.895  1.00  0.00    -0.354 N 
ATOM     51  C   UNL A   1      41.758  27.175  28.221  1.00  0.00     0.074 A 
ATOM     52  C   UNL A   1      40.579  26.973  27.488  1.00  0.00     0.031 C 
ATOM     53  C   UNL A   1      43.027  31.330  30.665  1.00  0.00     0.029 A 
ATOM     54  C   UNL A   1      42.116  31.902  31.622  1.00  0.00     0.049 A 
ATOM     55  H   UNL A   1      40.281  32.865  31.030  1.00  0.00     0.167 HD
ATOM     56  C   UNL A   1      42.743  26.253  28.358  1.00  0.00     0.037 A 
ATOM     57  C   UNL A   1      42.138  31.723  32.963  1.00  0.00     0.037 A 
ATOM     58  C   UNL A   1      43.666  26.634  29.376  1.00  0.00     0.049 A 
ATOM     59  C   UNL A   1      42.880  30.494  33.431  1.00  0.00     0.074 A 
ATOM     60  C   UNL A   1      44.881  27.285  29.348  1.00  0.00     0.029 A 
ATOM     61  N   UNL A   1      43.214  26.662  30.687  1.00  0.00    -0.354 N 
ATOM     62  N   UNL A   1      43.330  29.538  32.663  1.00  0.00    -0.248 NA
ATOM     63  C   UNL A   1      43.135  30.240  34.844  1.00  0.00     0.031 C 
ATOM     64  C   UNL A   1      45.180  27.682  30.675  1.00  0.00     0.029 A 
ATOM     65  C   UNL A   1      44.172  27.221  31.503  1.00  0.00     0.049 A 
ATOM     66  H   UNL A   1      42.337  26.332  30.989  1.00  0.00     0.167 HD
ATOM     67  C   UNL A   1      43.731  28.482  33.454  1.00  0.00     0.074 A 
ATOM     68  C   UNL A   1      43.697  29.023  34.795  1.00  0.00     0.031 C 
ATOM     69  C   UNL A   1      43.968  27.234  32.942  1.00  0.00     0.037 A 
BRANCH  56  70
ATOM     70  C   UNL A   1      42.851  25.038  27.448  1.00  0.00     0.064 A 
ATOM     71  C   UNL A   1      42.507  23.762  27.927  1.00  0.00     0.173 A 
ATOM     72  C   UNL A   1      43.409  25.058  26.147  1.00  0.00     0.173 A 
ATOM     73  F   UNL A   1      41.917  23.616  29.121  1.00  0.00    -0.203 F 
ATOM     74  C   UNL A   1      42.806  22.592  27.214  1.00  0.00     0.198 A 
ATOM     75  C   UNL A   1      43.776  23.887  25.469  1.00  0.00     0.198 A 
ATOM     76  F   UNL A   1      43.656  26.219  25.518  1.00  0.00    -0.203 F 
ATOM     77  F   UNL A   1      42.472  21.396  27.722  1.00  0.00    -0.200 F 
ATOM     78  C   UNL A   1      43.483  22.651  26.009  1.00  0.00     0.200 A 
ATOM     79  F   UNL A   1      44.453  23.964  24.313  1.00  0.00    -0.200 F 
ATOM     80  F   UNL A   1      43.852  21.528  25.377  1.00  0.00    -0.200 F 
ENDBRANCH  56  70
BRANCH  57  81
ATOM     81  C   UNL A   1      40.975  32.351  33.641  1.00  0.00     0.064 A 
ATOM     82  C   UNL A   1      39.823  31.580  33.875  1.00  0.00     0.173 A 
ATOM     83  C   UNL A   1      41.142  33.501  34.422  1.00  0.00     0.173 A 
ATOM     84  F   UNL A   1      39.651  30.420  33.221  1.00  0.00    -0.203 F 
ATOM     85  C   UNL A   1      38.920  31.915  34.883  1.00  0.00     0.198 A 
ATOM     86  C   UNL A   1      40.202  33.876  35.383  1.00  0.00     0.198 A 
ATOM     87  F   UNL A   1      42.320  34.134  34.412  1.00  0.00    -0.203 F 
ATOM     88  F   UNL A   1      37.920  31.075  35.191  1.00  0.00    -0.200 F 
ATOM     89  C   UNL A   1      39.112  33.060  35.641  1.00  0.00     0.200 A 
ATOM     90  F   UNL A   1      40.446  34.927  36.180  1.00  0.00    -0.200 F 
ATOM     91  F   UNL A   1      38.312  33.317  36.686  1.00  0.00    -0.200 F 
ENDBRANCH  57  81
BRANCH  69  92
ATOM     92  C   UNL A   1      44.036  25.902  33.698  1.00  0.00     0.064 A 
ATOM     93  C   UNL A   1      43.001  25.352  34.475  1.00  0.00     0.173 A 
ATOM     94  C   UNL A   1      45.171  25.050  33.572  1.00  0.00     0.173 A 
ATOM     95  F   UNL A   1      41.801  25.929  34.581  1.00  0.00    -0.203 F 
ATOM     96  C   UNL A   1      43.125  24.128  35.148  1.00  0.00     0.198 A 
ATOM     97  C   UNL A   1      45.266  23.800  34.192  1.00  0.00     0.198 A 
ATOM     98  F   UNL A   1      46.235  25.380  32.824  1.00  0.00    -0.203 F 
ATOM     99  F   UNL A   1      42.119  23.700  35.925  1.00  0.00    -0.200 F 
ATOM    100  C   UNL A   1      44.254  23.353  35.008  1.00  0.00     0.200 A 
ATOM    101  F   UNL A   1      46.346  23.033  33.986  1.00  0.00    -0.200 F 
ATOM    102  F   UNL A   1      44.355  22.173  35.635  1.00  0.00    -0.200 F 
ENDBRANCH  69  92
ENDBRANCH  43  44
ENDBRANCH  36  38
ENDBRANCH  35  36
ENDBRANCH  34  35
ENDBRANCH  33  34
ENDBRANCH  32  33
ENDBRANCH  31  32
ENDBRANCH   1  31
TORSDOF 22
ENDMDL
MODEL 3
REMARK VINA RESULT:     -12.3      4.128      9.066
REMARK SMILES CCC(=O)N1CCC[C@](C[C@H]2CC(c3ccc(C)cc3)=NO2)(C(=O)OCCOCCOCCOC(=O)c2ccc(-c3c4nc(c(-c5c(F)c(F)c(F)c(F)c5F)c5ccc([nH]5)c(-c5c(F)c(F)c(F)c(F)c5F)c5nc(c(-c6c(F)c(F)c(F)c(F)c6F)c6ccc3[nH]6)C=C5)C=C4)cc2)C1
REMARK SMILES IDX 29 1 28 2 27 3 26 4 25 5 23 6 24 7 9 8 5 9 6 10 100 11 7 12
REMARK SMILES IDX 8 13 3 14 4 15 2 16 1 17 10 18 11 19 12 20 22 21 13 22 21 23
REMARK SMILES IDX 14 24 15 25 20 26 16 27 19 28 17 29 18 30 30 31 31 32 32 33
REMARK SMILES IDX 33 34 34 35 35 36 36 37 37 38 38 39 99 40 39 41 98 42 40 43
REMARK SMILES IDX 41 44 42 45 92 46 43 47 97 48 91 49 93 50 44 51 96 52 90 53
REMARK SMILES IDX 89 54 45 56 77 57 57 58 76 59 58 60 61 61 75 62 94 63 59 64
REMARK SMILES IDX 60 65 74 67 95 68 62 69 46 70 47 71 55 72 48 73 49 74 53 75
REMARK SMILES IDX 56 76 50 77 51 78 54 79 52 80 78 81 79 82 87 83 80 84 81 85
REMARK SMILES IDX 85 86 88 87 82 88 83 89 86 90 84 91 63 92 64 93 72 94 65 95
REMARK SMILES IDX 66 96 70 97 73 98 67 99 68 100 71 101 69 102
REMARK H PARENT 93 55 61 66
REMARK Flexibility Score: inf
ROOT
ATOM      1  C   UNL A   1      35.313  31.581  27.940  1.00  0.00     0.188 C 
ENDROOT
BRANCH   1   2
ATOM      2  O   UNL A   1      33.876  31.521  28.071  1.00  0.00    -0.376 OA
BRANCH   2   3
ATOM      3  C   UNL A   1      32.959  30.899  27.146  1.00  0.00     0.202 C 
BRANCH   3   4
ATOM      4  C   UNL A   1      32.531  29.254  26.839  1.00  0.00     0.261 C 
BRANCH   4   5
ATOM      5  O   UNL A   1      31.315  28.399  25.791  1.00  0.00    -0.463 OA
BRANCH   5   6
ATOM      6  C   UNL A   1      30.844  27.065  25.346  1.00  0.00     0.314 C 
ATOM      7  O   UNL A   1      30.549  26.103  26.054  1.00  0.00    -0.252 OA
BRANCH   6   8
ATOM      8  C   UNL A   1      30.711  26.723  23.862  1.00  0.00     0.089 C 
ATOM      9  N   UNL A   1      29.548  28.938  23.020  1.00  0.00    -0.342 N 
ATOM     10  C   UNL A   1      28.277  28.257  22.887  1.00  0.00     0.119 C 
ATOM     11  C   UNL A   1      30.758  28.091  22.969  1.00  0.00     0.138 C 
ATOM     12  C   UNL A   1      28.176  27.129  23.896  1.00  0.00     0.023 C 
ATOM     13  C   UNL A   1      29.318  26.118  23.695  1.00  0.00     0.022 C 
BRANCH   9  14
ATOM     14  C   UNL A   1      29.499  30.236  23.519  1.00  0.00     0.222 C 
ATOM     15  O   UNL A   1      30.309  30.591  24.384  1.00  0.00    -0.275 OA
BRANCH  14  16
ATOM     16  C   UNL A   1      28.167  30.988  23.407  1.00  0.00     0.097 C 
ATOM     17  C   UNL A   1      27.899  32.000  22.318  1.00  0.00     0.014 C 
ENDBRANCH  14  16
ENDBRANCH   9  14
BRANCH   8  18
ATOM     18  C   UNL A   1      31.985  25.903  23.535  1.00  0.00     0.069 C 
BRANCH  18  19
ATOM     19  C   UNL A   1      31.927  24.461  23.023  1.00  0.00     0.212 C 
ATOM     20  C   UNL A   1      33.264  23.871  22.658  1.00  0.00     0.108 C 
ATOM     21  O   UNL A   1      31.315  23.557  23.945  1.00  0.00    -0.392 OA
ATOM     22  C   UNL A   1      33.380  22.877  23.753  1.00  0.00     0.091 C 
ATOM     23  N   UNL A   1      32.298  22.663  24.429  1.00  0.00    -0.090 NA
BRANCH  22  24
ATOM     24  C   UNL A   1      34.656  22.208  24.046  1.00  0.00    -0.001 A 
ATOM     25  C   UNL A   1      35.868  22.813  23.696  1.00  0.00     0.010 A 
ATOM     26  C   UNL A   1      34.646  21.003  24.744  1.00  0.00     0.010 A 
ATOM     27  C   UNL A   1      37.073  22.226  24.068  1.00  0.00     0.004 A 
ATOM     28  C   UNL A   1      35.858  20.393  25.075  1.00  0.00     0.004 A 
ATOM     29  C   UNL A   1      37.076  21.009  24.755  1.00  0.00    -0.051 A 
ATOM     30  C   UNL A   1      38.374  20.345  25.102  1.00  0.00     0.044 C 
ENDBRANCH  22  24
ENDBRANCH  18  19
ENDBRANCH   8  18
ENDBRANCH   6   8
ENDBRANCH   5   6
ENDBRANCH   4   5
ENDBRANCH   3   4
ENDBRANCH   2   3
ENDBRANCH   1   2
BRANCH   1  31
ATOM     31  C   UNL A   1      36.212  30.351  28.033  1.00  0.00     0.188 C 
BRANCH  31  32
ATOM     32  O   UNL A   1      36.091  29.768  29.308  1.00  0.00    -0.376 OA
BRANCH  32  33
ATOM     33  C   UNL A   1      36.193  30.659  30.400  1.00  0.00     0.202 C 
BRANCH  33  34
ATOM     34  C   UNL A   1      37.041  30.074  31.534  1.00  0.00     0.261 C 
BRANCH  34  35
ATOM     35  O   UNL A   1      37.325  28.678  31.284  1.00  0.00    -0.460 OA
BRANCH  35  36
ATOM     36  C   UNL A   1      38.310  28.122  32.063  1.00  0.00     0.338 C 
ATOM     37  O   UNL A   1      38.106  27.419  33.041  1.00  0.00    -0.246 OA
BRANCH  36  38
ATOM     38  C   UNL A   1      39.644  28.635  31.637  1.00  0.00     0.060 A 
ATOM     39  C   UNL A   1      40.169  28.635  30.336  1.00  0.00     0.016 A 
ATOM     40  C   UNL A   1      40.518  28.926  32.625  1.00  0.00     0.016 A 
ATOM     41  C   UNL A   1      41.611  28.618  30.077  1.00  0.00     0.010 A 
ATOM     42  C   UNL A   1      41.877  28.837  32.325  1.00  0.00     0.010 A 
ATOM     43  C   UNL A   1      42.587  28.545  31.083  1.00  0.00    -0.014 A 
BRANCH  43  44
ATOM     44  C   UNL A   1      44.299  28.032  30.795  1.00  0.00     0.031 A 
ATOM     45  C   UNL A   1      45.850  28.928  30.465  1.00  0.00     0.074 A 
ATOM     46  C   UNL A   1      44.550  26.702  30.634  1.00  0.00     0.049 A 
ATOM     47  N   UNL A   1      46.995  28.374  30.098  1.00  0.00    -0.248 NA
ATOM     48  C   UNL A   1      46.215  30.422  30.552  1.00  0.00     0.031 C 
ATOM     49  C   UNL A   1      45.856  26.038  30.633  1.00  0.00     0.029 A 
ATOM     50  N   UNL A   1      43.671  25.652  30.320  1.00  0.00    -0.354 N 
ATOM     51  C   UNL A   1      48.018  29.326  30.067  1.00  0.00     0.074 A 
ATOM     52  C   UNL A   1      47.526  30.490  30.675  1.00  0.00     0.031 C 
ATOM     53  C   UNL A   1      45.766  24.880  29.971  1.00  0.00     0.029 A 
ATOM     54  C   UNL A   1      44.411  24.776  29.496  1.00  0.00     0.049 A 
ATOM     55  H   UNL A   1      42.737  25.548  30.614  1.00  0.00     0.167 HD
ATOM     56  C   UNL A   1      49.206  29.243  29.419  1.00  0.00     0.037 A 
ATOM     57  C   UNL A   1      44.018  24.426  28.249  1.00  0.00     0.037 A 
ATOM     58  C   UNL A   1      49.302  28.031  28.672  1.00  0.00     0.049 A 
ATOM     59  C   UNL A   1      45.068  24.596  27.178  1.00  0.00     0.074 A 
ATOM     60  C   UNL A   1      49.862  26.802  28.944  1.00  0.00     0.029 A 
ATOM     61  N   UNL A   1      48.453  27.867  27.588  1.00  0.00    -0.354 N 
ATOM     62  N   UNL A   1      46.217  25.198  27.327  1.00  0.00    -0.248 NA
ATOM     63  C   UNL A   1      44.863  24.117  25.816  1.00  0.00     0.031 C 
ATOM     64  C   UNL A   1      49.367  25.888  27.981  1.00  0.00     0.029 A 
ATOM     65  C   UNL A   1      48.554  26.582  27.102  1.00  0.00     0.049 A 
ATOM     66  H   UNL A   1      47.866  28.566  27.220  1.00  0.00     0.167 HD
ATOM     67  C   UNL A   1      46.796  25.369  26.087  1.00  0.00     0.074 A 
ATOM     68  C   UNL A   1      45.968  24.574  25.207  1.00  0.00     0.031 C 
ATOM     69  C   UNL A   1      47.850  26.220  25.884  1.00  0.00     0.037 A 
BRANCH  56  70
ATOM     70  C   UNL A   1      50.297  30.292  29.583  1.00  0.00     0.064 A 
ATOM     71  C   UNL A   1      50.314  31.430  28.758  1.00  0.00     0.173 A 
ATOM     72  C   UNL A   1      51.414  30.160  30.443  1.00  0.00     0.173 A 
ATOM     73  F   UNL A   1      49.286  31.699  27.942  1.00  0.00    -0.203 F 
ATOM     74  C   UNL A   1      51.413  32.300  28.710  1.00  0.00     0.198 A 
ATOM     75  C   UNL A   1      52.543  30.985  30.340  1.00  0.00     0.198 A 
ATOM     76  F   UNL A   1      51.458  29.194  31.376  1.00  0.00    -0.203 F 
ATOM     77  F   UNL A   1      51.387  33.364  27.893  1.00  0.00    -0.200 F 
ATOM     78  C   UNL A   1      52.545  32.052  29.464  1.00  0.00     0.200 A 
ATOM     79  F   UNL A   1      53.641  30.714  31.062  1.00  0.00    -0.200 F 
ATOM     80  F   UNL A   1      53.630  32.830  29.344  1.00  0.00    -0.200 F 
ENDBRANCH  56  70
BRANCH  57  81
ATOM     81  C   UNL A   1      42.550  24.546  28.060  1.00  0.00     0.064 A 
ATOM     82  C   UNL A   1      42.029  25.721  27.490  1.00  0.00     0.173 A 
ATOM     83  C   UNL A   1      41.742  23.403  28.015  1.00  0.00     0.173 A 
ATOM     84  F   UNL A   1      42.790  26.826  27.423  1.00  0.00    -0.203 F 
ATOM     85  C   UNL A   1      40.787  25.730  26.855  1.00  0.00     0.198 A 
ATOM     86  C   UNL A   1      40.469  23.429  27.442  1.00  0.00     0.198 A 
ATOM     87  F   UNL A   1      42.272  22.215  28.320  1.00  0.00    -0.203 F 
ATOM     88  F   UNL A   1      40.389  26.819  26.181  1.00  0.00    -0.200 F 
ATOM     89  C   UNL A   1      40.010  24.582  26.826  1.00  0.00     0.200 A 
ATOM     90  F   UNL A   1      39.766  22.292  27.328  1.00  0.00    -0.200 F 
ATOM     91  F   UNL A   1      38.874  24.557  26.114  1.00  0.00    -0.200 F 
ENDBRANCH  57  81
BRANCH  69  92
ATOM     92  C   UNL A   1      48.344  26.808  24.557  1.00  0.00     0.064 A 
ATOM     93  C   UNL A   1      49.633  26.638  24.020  1.00  0.00     0.173 A 
ATOM     94  C   UNL A   1      47.454  27.513  23.696  1.00  0.00     0.173 A 
ATOM     95  F   UNL A   1      50.557  25.873  24.608  1.00  0.00    -0.203 F 
ATOM     96  C   UNL A   1      50.029  27.205  22.801  1.00  0.00     0.198 A 
ATOM     97  C   UNL A   1      47.834  28.022  22.450  1.00  0.00     0.198 A 
ATOM     98  F   UNL A   1      46.168  27.723  24.012  1.00  0.00    -0.203 F 
ATOM     99  F   UNL A   1      51.295  27.055  22.386  1.00  0.00    -0.200 F 
ATOM    100  C   UNL A   1      49.132  27.895  22.016  1.00  0.00     0.200 A 
ATOM    101  F   UNL A   1      46.927  28.631  21.672  1.00  0.00    -0.200 F 
ATOM    102  F   UNL A   1      49.512  28.414  20.841  1.00  0.00    -0.200 F 
ENDBRANCH  69  92
ENDBRANCH  43  44
ENDBRANCH  36  38
ENDBRANCH  35  36
ENDBRANCH  34  35
ENDBRANCH  33  34
ENDBRANCH  32  33
ENDBRANCH  31  32
ENDBRANCH   1  31
TORSDOF 22
ENDMDL
