MODEL 1
REMARK VINA RESULT:     -11.9      0.000      0.000
REMARK SMILES O=C(OCCOCCOCCOC(=O)c1ccc(N2CNC(c3ccccc3)=[NH+]C2=S)cc1)c1ccc(-c2c3nc(c(-c4c(F)c(F)c(F)c(F)c4F)c4ccc([nH]4)c(-c4c(F)c(F)c(F)c(F)c4F)c4nc(c(-c5c(F)c(F)c(F)c(F)c5F)c5ccc2[nH]5)C=C4)C=C3)cc1
REMARK SMILES IDX 7 1 6 2 5 3 4 4 3 5 2 6 1 7 34 8 35 9 96 10 36 11 95 12
REMARK SMILES IDX 37 13 38 14 39 15 89 16 40 17 94 18 88 19 90 20 41 21 93 22
REMARK SMILES IDX 87 23 86 24 42 26 74 27 54 28 73 29 55 30 58 31 72 32 91 33
REMARK SMILES IDX 56 34 57 35 71 37 92 38 59 39 43 40 44 41 52 42 45 43 46 44
REMARK SMILES IDX 50 45 53 46 47 47 48 48 51 49 49 50 75 51 76 52 84 53 77 54
REMARK SMILES IDX 78 55 82 56 85 57 79 58 80 59 83 60 81 61 60 62 61 63 69 64
REMARK SMILES IDX 62 65 63 66 67 67 70 68 64 69 65 70 68 71 66 72 8 73 9 74
REMARK SMILES IDX 10 75 11 76 12 77 13 78 14 79 15 80 16 81 33 82 17 83 32 84
REMARK SMILES IDX 18 85 19 86 20 87 30 88 21 89 29 90 31 91 22 92 23 95 24 96
REMARK SMILES IDX 28 97 25 98 27 99 26 100
REMARK H PARENT 90 25 58 36 21 93 29 94
REMARK Flexibility Score: inf
ROOT
ATOM      1  C   UNL A   1      42.964  20.561  26.004  1.00  0.00     0.188 C 
ENDROOT
BRANCH   1   2
ATOM      2  O   UNL A   1      43.390  21.517  25.023  1.00  0.00    -0.376 OA
BRANCH   2   3
ATOM      3  C   UNL A   1      44.813  21.621  24.898  1.00  0.00     0.202 C 
BRANCH   3   4
ATOM      4  C   UNL A   1      45.299  22.963  24.340  1.00  0.00     0.261 C 
BRANCH   4   5
ATOM      5  O   UNL A   1      44.464  24.049  24.762  1.00  0.00    -0.460 OA
BRANCH   5   6
ATOM      6  C   UNL A   1      44.852  25.277  25.189  1.00  0.00     0.338 C 
ATOM      7  O   UNL A   1      45.812  25.811  24.635  1.00  0.00    -0.246 OA
BRANCH   6   8
ATOM      8  C   UNL A   1      44.149  26.047  26.262  1.00  0.00     0.060 A 
ATOM      9  C   UNL A   1      44.342  27.401  26.560  1.00  0.00     0.016 A 
ATOM     10  C   UNL A   1      43.176  25.351  26.994  1.00  0.00     0.016 A 
ATOM     11  C   UNL A   1      43.681  28.016  27.622  1.00  0.00     0.010 A 
ATOM     12  C   UNL A   1      42.475  25.975  28.028  1.00  0.00     0.010 A 
ATOM     13  C   UNL A   1      42.747  27.307  28.371  1.00  0.00    -0.014 A 
BRANCH  13  14
ATOM     14  C   UNL A   1      42.165  27.906  29.592  1.00  0.00     0.031 A 
ATOM     15  C   UNL A   1      40.873  28.653  29.464  1.00  0.00     0.074 A 
ATOM     16  C   UNL A   1      42.734  27.735  30.799  1.00  0.00     0.049 A 
ATOM     17  N   UNL A   1      40.232  29.373  30.344  1.00  0.00    -0.248 NA
ATOM     18  C   UNL A   1      40.196  28.554  28.158  1.00  0.00     0.031 C 
ATOM     19  C   UNL A   1      43.918  26.922  31.067  1.00  0.00     0.029 A 
ATOM     20  N   UNL A   1      42.396  28.244  32.029  1.00  0.00    -0.354 N 
ATOM     21  C   UNL A   1      39.094  29.829  29.695  1.00  0.00     0.074 A 
ATOM     22  C   UNL A   1      39.141  29.329  28.340  1.00  0.00     0.031 C 
ATOM     23  C   UNL A   1      44.224  27.008  32.371  1.00  0.00     0.029 A 
ATOM     24  C   UNL A   1      43.305  27.939  33.011  1.00  0.00     0.049 A 
ATOM     25  H   UNL A   1      41.582  28.775  32.190  1.00  0.00     0.167 HD
ATOM     26  C   UNL A   1      38.093  30.589  30.196  1.00  0.00     0.037 A 
ATOM     27  C   UNL A   1      43.423  28.415  34.266  1.00  0.00     0.037 A 
ATOM     28  C   UNL A   1      38.068  31.078  31.545  1.00  0.00     0.049 A 
ATOM     29  C   UNL A   1      42.410  29.414  34.747  1.00  0.00     0.074 A 
ATOM     30  C   UNL A   1      37.114  31.859  32.169  1.00  0.00     0.029 A 
ATOM     31  N   UNL A   1      39.066  30.834  32.480  1.00  0.00    -0.354 N 
ATOM     32  N   UNL A   1      41.352  29.877  34.126  1.00  0.00    -0.248 NA
ATOM     33  C   UNL A   1      42.607  29.969  36.092  1.00  0.00     0.031 C 
ATOM     34  C   UNL A   1      37.556  32.121  33.471  1.00  0.00     0.029 A 
ATOM     35  C   UNL A   1      38.764  31.469  33.672  1.00  0.00     0.049 A 
ATOM     36  H   UNL A   1      39.871  30.290  32.319  1.00  0.00     0.167 HD
ATOM     37  C   UNL A   1      40.734  30.743  35.012  1.00  0.00     0.074 A 
ATOM     38  C   UNL A   1      41.547  30.756  36.213  1.00  0.00     0.031 C 
ATOM     39  C   UNL A   1      39.585  31.445  34.855  1.00  0.00     0.037 A 
BRANCH  26  40
ATOM     40  C   UNL A   1      36.991  30.957  29.248  1.00  0.00     0.064 A 
ATOM     41  C   UNL A   1      36.848  32.263  28.755  1.00  0.00     0.173 A 
ATOM     42  C   UNL A   1      36.027  30.007  28.883  1.00  0.00     0.173 A 
ATOM     43  F   UNL A   1      37.730  33.215  29.097  1.00  0.00    -0.203 F 
ATOM     44  C   UNL A   1      35.753  32.615  27.970  1.00  0.00     0.198 A 
ATOM     45  C   UNL A   1      34.948  30.356  28.075  1.00  0.00     0.198 A 
ATOM     46  F   UNL A   1      36.116  28.745  29.329  1.00  0.00    -0.203 F 
ATOM     47  F   UNL A   1      35.596  33.886  27.573  1.00  0.00    -0.200 F 
ATOM     48  C   UNL A   1      34.805  31.662  27.631  1.00  0.00     0.200 A 
ATOM     49  F   UNL A   1      34.034  29.434  27.746  1.00  0.00    -0.200 F 
ATOM     50  F   UNL A   1      33.741  32.007  26.892  1.00  0.00    -0.200 F 
ENDBRANCH  26  40
BRANCH  27  51
ATOM     51  C   UNL A   1      44.591  28.033  35.102  1.00  0.00     0.064 A 
ATOM     52  C   UNL A   1      44.516  27.049  36.093  1.00  0.00     0.173 A 
ATOM     53  C   UNL A   1      45.829  28.665  34.914  1.00  0.00     0.173 A 
ATOM     54  F   UNL A   1      43.353  26.425  36.329  1.00  0.00    -0.203 F 
ATOM     55  C   UNL A   1      45.631  26.720  36.866  1.00  0.00     0.198 A 
ATOM     56  C   UNL A   1      46.947  28.327  35.670  1.00  0.00     0.198 A 
ATOM     57  F   UNL A   1      45.953  29.601  33.970  1.00  0.00    -0.203 F 
ATOM     58  F   UNL A   1      45.528  25.789  37.824  1.00  0.00    -0.200 F 
ATOM     59  C   UNL A   1      46.846  27.356  36.651  1.00  0.00     0.200 A 
ATOM     60  F   UNL A   1      48.121  28.933  35.439  1.00  0.00    -0.200 F 
ATOM     61  F   UNL A   1      47.919  27.034  37.386  1.00  0.00    -0.200 F 
ENDBRANCH  27  51
BRANCH  39  62
ATOM     62  C   UNL A   1      39.099  32.225  36.036  1.00  0.00     0.064 A 
ATOM     63  C   UNL A   1      38.278  31.649  37.013  1.00  0.00     0.173 A 
ATOM     64  C   UNL A   1      39.522  33.550  36.218  1.00  0.00     0.173 A 
ATOM     65  F   UNL A   1      37.829  30.393  36.865  1.00  0.00    -0.203 F 
ATOM     66  C   UNL A   1      37.894  32.377  38.136  1.00  0.00     0.198 A 
ATOM     67  C   UNL A   1      39.156  34.266  37.351  1.00  0.00     0.198 A 
ATOM     68  F   UNL A   1      40.308  34.140  35.304  1.00  0.00    -0.203 F 
ATOM     69  F   UNL A   1      37.086  31.820  39.048  1.00  0.00    -0.200 F 
ATOM     70  C   UNL A   1      38.342  33.679  38.309  1.00  0.00     0.200 A 
ATOM     71  F   UNL A   1      39.595  35.520  37.521  1.00  0.00    -0.200 F 
ATOM     72  F   UNL A   1      37.983  34.373  39.398  1.00  0.00    -0.200 F 
ENDBRANCH  39  62
ENDBRANCH  13  14
ENDBRANCH   6   8
ENDBRANCH   5   6
ENDBRANCH   4   5
ENDBRANCH   3   4
ENDBRANCH   2   3
ENDBRANCH   1   2
BRANCH   1  73
ATOM     73  C   UNL A   1      41.489  20.758  26.372  1.00  0.00     0.188 C 
BRANCH  73  74
ATOM     74  O   UNL A   1      41.068  22.116  26.507  1.00  0.00    -0.376 OA
BRANCH  74  75
ATOM     75  C   UNL A   1      39.712  22.331  26.886  1.00  0.00     0.202 C 
BRANCH  75  76
ATOM     76  C   UNL A   1      38.642  21.918  25.868  1.00  0.00     0.261 C 
BRANCH  76  77
ATOM     77  O   UNL A   1      37.684  22.944  25.544  1.00  0.00    -0.460 OA
BRANCH  77  78
ATOM     78  C   UNL A   1      36.576  22.493  24.909  1.00  0.00     0.338 C 
ATOM     79  O   UNL A   1      36.370  21.348  24.514  1.00  0.00    -0.246 OA
BRANCH  78  80
ATOM     80  C   UNL A   1      35.627  23.577  24.584  1.00  0.00     0.060 A 
ATOM     81  C   UNL A   1      35.215  24.545  25.498  1.00  0.00     0.019 A 
ATOM     82  C   UNL A   1      35.031  23.530  23.325  1.00  0.00     0.019 A 
ATOM     83  C   UNL A   1      34.184  25.445  25.152  1.00  0.00     0.044 A 
ATOM     84  C   UNL A   1      34.026  24.441  22.985  1.00  0.00     0.044 A 
ATOM     85  C   UNL A   1      33.573  25.419  23.889  1.00  0.00     0.103 A 
BRANCH  85  86
ATOM     86  N   UNL A   1      32.512  26.307  23.471  1.00  0.00    -0.219 N 
ATOM     87  C   UNL A   1      32.954  27.596  22.951  1.00  0.00     0.405 C 
ATOM     88  C   UNL A   1      31.141  25.990  23.362  1.00  0.00     0.297 C 
ATOM     89  N   UNL A   1      31.916  28.569  22.927  1.00  0.00    -0.274 N 
ATOM     90  N   UNL A   1      30.232  27.020  23.305  1.00  0.00    -0.236 N 
ATOM     91  S   UNL A   1      30.460  24.444  23.425  1.00  0.00    -0.005 S 
ATOM     92  C   UNL A   1      30.624  28.232  23.137  1.00  0.00     0.229 C 
ATOM     93  H   UNL A   1      32.146  29.511  22.755  1.00  0.00     0.260 HD
ATOM     94  H   UNL A   1      29.271  26.827  23.393  1.00  0.00     0.268 HD
BRANCH  92  95
ATOM     95  C   UNL A   1      29.613  29.311  23.234  1.00  0.00     0.047 A 
ATOM     96  C   UNL A   1      28.326  29.078  22.737  1.00  0.00     0.015 A 
ATOM     97  C   UNL A   1      29.932  30.523  23.846  1.00  0.00     0.015 A 
ATOM     98  C   UNL A   1      27.345  30.061  22.870  1.00  0.00     0.001 A 
ATOM     99  C   UNL A   1      28.953  31.512  23.955  1.00  0.00     0.001 A 
ATOM    100  C   UNL A   1      27.661  31.278  23.475  1.00  0.00     0.000 A 
ENDBRANCH  92  95
ENDBRANCH  85  86
ENDBRANCH  78  80
ENDBRANCH  77  78
ENDBRANCH  76  77
ENDBRANCH  75  76
ENDBRANCH  74  75
ENDBRANCH  73  74
ENDBRANCH   1  73
TORSDOF 19
ENDMDL
MODEL 2
REMARK VINA RESULT:     -11.5      4.524      7.784
REMARK SMILES O=C(OCCOCCOCCOC(=O)c1ccc(N2CNC(c3ccccc3)=[NH+]C2=S)cc1)c1ccc(-c2c3nc(c(-c4c(F)c(F)c(F)c(F)c4F)c4ccc([nH]4)c(-c4c(F)c(F)c(F)c(F)c4F)c4nc(c(-c5c(F)c(F)c(F)c(F)c5F)c5ccc2[nH]5)C=C4)C=C3)cc1
REMARK SMILES IDX 7 1 6 2 5 3 4 4 3 5 2 6 1 7 34 8 35 9 96 10 36 11 95 12
REMARK SMILES IDX 37 13 38 14 39 15 89 16 40 17 94 18 88 19 90 20 41 21 93 22
REMARK SMILES IDX 87 23 86 24 42 26 74 27 54 28 73 29 55 30 58 31 72 32 91 33
REMARK SMILES IDX 56 34 57 35 71 37 92 38 59 39 43 40 44 41 52 42 45 43 46 44
REMARK SMILES IDX 50 45 53 46 47 47 48 48 51 49 49 50 75 51 76 52 84 53 77 54
REMARK SMILES IDX 78 55 82 56 85 57 79 58 80 59 83 60 81 61 60 62 61 63 69 64
REMARK SMILES IDX 62 65 63 66 67 67 70 68 64 69 65 70 68 71 66 72 8 73 9 74
REMARK SMILES IDX 10 75 11 76 12 77 13 78 14 79 15 80 16 81 33 82 17 83 32 84
REMARK SMILES IDX 18 85 19 86 20 87 30 88 21 89 29 90 31 91 22 92 23 95 24 96
REMARK SMILES IDX 28 97 25 98 27 99 26 100
REMARK H PARENT 90 25 58 36 21 93 29 94
REMARK Flexibility Score: inf
ROOT
ATOM      1  C   UNL A   1      33.493  21.040  26.253  1.00  0.00     0.188 C 
ENDROOT
BRANCH   1   2
ATOM      2  O   UNL A   1      34.907  21.231  26.103  1.00  0.00    -0.376 OA
BRANCH   2   3
ATOM      3  C   UNL A   1      35.475  20.504  25.008  1.00  0.00     0.202 C 
BRANCH   3   4
ATOM      4  C   UNL A   1      37.007  20.443  25.021  1.00  0.00     0.261 C 
BRANCH   4   5
ATOM      5  O   UNL A   1      37.576  21.515  25.785  1.00  0.00    -0.460 OA
BRANCH   5   6
ATOM      6  C   UNL A   1      38.871  21.672  26.156  1.00  0.00     0.338 C 
ATOM      7  O   UNL A   1      39.621  20.699  26.087  1.00  0.00    -0.246 OA
BRANCH   6   8
ATOM      8  C   UNL A   1      39.459  22.975  26.597  1.00  0.00     0.060 A 
ATOM      9  C   UNL A   1      39.087  24.242  26.134  1.00  0.00     0.016 A 
ATOM     10  C   UNL A   1      40.436  22.910  27.602  1.00  0.00     0.016 A 
ATOM     11  C   UNL A   1      39.738  25.397  26.563  1.00  0.00     0.010 A 
ATOM     12  C   UNL A   1      41.059  24.069  28.071  1.00  0.00     0.010 A 
ATOM     13  C   UNL A   1      40.735  25.321  27.529  1.00  0.00    -0.014 A 
BRANCH  13  14
ATOM     14  C   UNL A   1      41.535  26.519  27.869  1.00  0.00     0.031 A 
ATOM     15  C   UNL A   1      40.876  27.605  28.661  1.00  0.00     0.074 A 
ATOM     16  C   UNL A   1      42.836  26.612  27.538  1.00  0.00     0.049 A 
ATOM     17  N   UNL A   1      41.310  28.798  28.968  1.00  0.00    -0.248 NA
ATOM     18  C   UNL A   1      39.541  27.292  29.201  1.00  0.00     0.031 C 
ATOM     19  C   UNL A   1      43.618  25.566  26.883  1.00  0.00     0.029 A 
ATOM     20  N   UNL A   1      43.730  27.641  27.702  1.00  0.00    -0.354 N 
ATOM     21  C   UNL A   1      40.298  29.382  29.716  1.00  0.00     0.074 A 
ATOM     22  C   UNL A   1      39.215  28.427  29.796  1.00  0.00     0.031 C 
ATOM     23  C   UNL A   1      44.865  26.016  26.676  1.00  0.00     0.029 A 
ATOM     24  C   UNL A   1      44.947  27.402  27.114  1.00  0.00     0.049 A 
ATOM     25  H   UNL A   1      43.518  28.469  28.193  1.00  0.00     0.167 HD
ATOM     26  C   UNL A   1      40.284  30.604  30.295  1.00  0.00     0.037 A 
ATOM     27  C   UNL A   1      45.984  28.233  26.892  1.00  0.00     0.037 A 
ATOM     28  C   UNL A   1      41.369  31.538  30.201  1.00  0.00     0.049 A 
ATOM     29  C   UNL A   1      45.875  29.652  27.371  1.00  0.00     0.074 A 
ATOM     30  C   UNL A   1      41.473  32.807  30.737  1.00  0.00     0.029 A 
ATOM     31  N   UNL A   1      42.546  31.296  29.502  1.00  0.00    -0.354 N 
ATOM     32  N   UNL A   1      44.907  30.221  28.046  1.00  0.00    -0.248 NA
ATOM     33  C   UNL A   1      46.991  30.552  27.049  1.00  0.00     0.031 C 
ATOM     34  C   UNL A   1      42.698  33.349  30.330  1.00  0.00     0.029 A 
ATOM     35  C   UNL A   1      43.375  32.402  29.574  1.00  0.00     0.049 A 
ATOM     36  H   UNL A   1      42.759  30.461  29.026  1.00  0.00     0.167 HD
ATOM     37  C   UNL A   1      45.307  31.528  28.268  1.00  0.00     0.074 A 
ATOM     38  C   UNL A   1      46.605  31.675  27.637  1.00  0.00     0.031 C 
ATOM     39  C   UNL A   1      44.670  32.509  28.952  1.00  0.00     0.037 A 
BRANCH  26  40
ATOM     40  C   UNL A   1      39.032  30.986  31.027  1.00  0.00     0.064 A 
ATOM     41  C   UNL A   1      38.009  31.717  30.406  1.00  0.00     0.173 A 
ATOM     42  C   UNL A   1      38.886  30.674  32.386  1.00  0.00     0.173 A 
ATOM     43  F   UNL A   1      38.114  32.064  29.114  1.00  0.00    -0.203 F 
ATOM     44  C   UNL A   1      36.907  32.164  31.132  1.00  0.00     0.198 A 
ATOM     45  C   UNL A   1      37.770  31.100  33.103  1.00  0.00     0.198 A 
ATOM     46  F   UNL A   1      39.838  29.979  33.028  1.00  0.00    -0.203 F 
ATOM     47  F   UNL A   1      35.979  32.926  30.537  1.00  0.00    -0.200 F 
ATOM     48  C   UNL A   1      36.789  31.855  32.478  1.00  0.00     0.200 A 
ATOM     49  F   UNL A   1      37.656  30.798  34.403  1.00  0.00    -0.200 F 
ATOM     50  F   UNL A   1      35.739  32.302  33.180  1.00  0.00    -0.200 F 
ENDBRANCH  26  40
BRANCH  27  51
ATOM     51  C   UNL A   1      47.153  27.770  26.099  1.00  0.00     0.064 A 
ATOM     52  C   UNL A   1      47.161  27.779  24.700  1.00  0.00     0.173 A 
ATOM     53  C   UNL A   1      48.304  27.300  26.748  1.00  0.00     0.173 A 
ATOM     54  F   UNL A   1      46.081  28.200  24.027  1.00  0.00    -0.203 F 
ATOM     55  C   UNL A   1      48.274  27.329  23.985  1.00  0.00     0.198 A 
ATOM     56  C   UNL A   1      49.421  26.868  26.039  1.00  0.00     0.198 A 
ATOM     57  F   UNL A   1      48.347  27.285  28.082  1.00  0.00    -0.203 F 
ATOM     58  F   UNL A   1      48.250  27.327  22.645  1.00  0.00    -0.200 F 
ATOM     59  C   UNL A   1      49.403  26.879  24.654  1.00  0.00     0.200 A 
ATOM     60  F   UNL A   1      50.514  26.454  26.696  1.00  0.00    -0.200 F 
ATOM     61  F   UNL A   1      50.473  26.456  23.968  1.00  0.00    -0.200 F 
ENDBRANCH  27  51
BRANCH  39  62
ATOM     62  C   UNL A   1      45.400  33.804  29.119  1.00  0.00     0.064 A 
ATOM     63  C   UNL A   1      46.294  34.016  30.175  1.00  0.00     0.173 A 
ATOM     64  C   UNL A   1      45.245  34.820  28.164  1.00  0.00     0.173 A 
ATOM     65  F   UNL A   1      46.452  33.082  31.126  1.00  0.00    -0.203 F 
ATOM     66  C   UNL A   1      47.010  35.205  30.271  1.00  0.00     0.198 A 
ATOM     67  C   UNL A   1      45.979  35.997  28.250  1.00  0.00     0.198 A 
ATOM     68  F   UNL A   1      44.397  34.658  27.138  1.00  0.00    -0.203 F 
ATOM     69  F   UNL A   1      47.842  35.404  31.303  1.00  0.00    -0.200 F 
ATOM     70  C   UNL A   1      46.860  36.189  29.303  1.00  0.00     0.200 A 
ATOM     71  F   UNL A   1      45.839  36.942  27.311  1.00  0.00    -0.200 F 
ATOM     72  F   UNL A   1      47.562  37.328  29.389  1.00  0.00    -0.200 F 
ENDBRANCH  39  62
ENDBRANCH  13  14
ENDBRANCH   6   8
ENDBRANCH   5   6
ENDBRANCH   4   5
ENDBRANCH   3   4
ENDBRANCH   2   3
ENDBRANCH   1   2
BRANCH   1  73
ATOM     73  C   UNL A   1      32.811  22.303  26.788  1.00  0.00     0.188 C 
BRANCH  73  74
ATOM     74  O   UNL A   1      32.399  23.244  25.794  1.00  0.00    -0.376 OA
BRANCH  74  75
ATOM     75  C   UNL A   1      32.138  22.727  24.493  1.00  0.00     0.202 C 
BRANCH  75  76
ATOM     76  C   UNL A   1      32.397  23.673  23.315  1.00  0.00     0.261 C 
BRANCH  76  77
ATOM     77  O   UNL A   1      33.655  24.375  23.364  1.00  0.00    -0.460 OA
BRANCH  77  78
ATOM     78  C   UNL A   1      33.621  25.620  22.834  1.00  0.00     0.338 C 
ATOM     79  O   UNL A   1      33.591  25.910  21.640  1.00  0.00    -0.246 OA
BRANCH  78  80
ATOM     80  C   UNL A   1      33.770  26.675  23.856  1.00  0.00     0.060 A 
ATOM     81  C   UNL A   1      33.877  26.421  25.222  1.00  0.00     0.019 A 
ATOM     82  C   UNL A   1      33.667  27.994  23.414  1.00  0.00     0.019 A 
ATOM     83  C   UNL A   1      33.853  27.493  26.141  1.00  0.00     0.044 A 
ATOM     84  C   UNL A   1      33.665  29.048  24.332  1.00  0.00     0.044 A 
ATOM     85  C   UNL A   1      33.754  28.827  25.718  1.00  0.00     0.103 A 
BRANCH  85  86
ATOM     86  N   UNL A   1      33.720  29.969  26.604  1.00  0.00    -0.219 N 
ATOM     87  C   UNL A   1      32.409  30.581  26.775  1.00  0.00     0.405 C 
ATOM     88  C   UNL A   1      34.771  30.427  27.428  1.00  0.00     0.297 C 
ATOM     89  N   UNL A   1      32.476  31.897  27.311  1.00  0.00    -0.274 N 
ATOM     90  N   UNL A   1      34.706  31.708  27.922  1.00  0.00    -0.236 N 
ATOM     91  S   UNL A   1      36.205  29.602  27.778  1.00  0.00    -0.005 S 
ATOM     92  C   UNL A   1      33.624  32.395  27.822  1.00  0.00     0.229 C 
ATOM     93  H   UNL A   1      31.668  32.459  27.308  1.00  0.00     0.260 HD
ATOM     94  H   UNL A   1      35.495  32.102  28.359  1.00  0.00     0.268 HD
BRANCH  92  95
ATOM     95  C   UNL A   1      33.662  33.816  28.239  1.00  0.00     0.047 A 
ATOM     96  C   UNL A   1      32.852  34.232  29.301  1.00  0.00     0.015 A 
ATOM     97  C   UNL A   1      34.522  34.714  27.604  1.00  0.00     0.015 A 
ATOM     98  C   UNL A   1      32.915  35.553  29.743  1.00  0.00     0.001 A 
ATOM     99  C   UNL A   1      34.564  36.041  28.036  1.00  0.00     0.001 A 
ATOM    100  C   UNL A   1      33.768  36.457  29.108  1.00  0.00     0.000 A 
ENDBRANCH  92  95
ENDBRANCH  85  86
ENDBRANCH  78  80
ENDBRANCH  77  78
ENDBRANCH  76  77
ENDBRANCH  75  76
ENDBRANCH  74  75
ENDBRANCH  73  74
ENDBRANCH   1  73
TORSDOF 19
ENDMDL
MODEL 3
REMARK VINA RESULT:     -11.4      1.087      7.291
REMARK SMILES O=C(OCCOCCOCCOC(=O)c1ccc(N2CNC(c3ccccc3)=[NH+]C2=S)cc1)c1ccc(-c2c3nc(c(-c4c(F)c(F)c(F)c(F)c4F)c4ccc([nH]4)c(-c4c(F)c(F)c(F)c(F)c4F)c4nc(c(-c5c(F)c(F)c(F)c(F)c5F)c5ccc2[nH]5)C=C4)C=C3)cc1
REMARK SMILES IDX 7 1 6 2 5 3 4 4 3 5 2 6 1 7 34 8 35 9 96 10 36 11 95 12
REMARK SMILES IDX 37 13 38 14 39 15 89 16 40 17 94 18 88 19 90 20 41 21 93 22
REMARK SMILES IDX 87 23 86 24 42 26 74 27 54 28 73 29 55 30 58 31 72 32 91 33
REMARK SMILES IDX 56 34 57 35 71 37 92 38 59 39 43 40 44 41 52 42 45 43 46 44
REMARK SMILES IDX 50 45 53 46 47 47 48 48 51 49 49 50 75 51 76 52 84 53 77 54
REMARK SMILES IDX 78 55 82 56 85 57 79 58 80 59 83 60 81 61 60 62 61 63 69 64
REMARK SMILES IDX 62 65 63 66 67 67 70 68 64 69 65 70 68 71 66 72 8 73 9 74
REMARK SMILES IDX 10 75 11 76 12 77 13 78 14 79 15 80 16 81 33 82 17 83 32 84
REMARK SMILES IDX 18 85 19 86 20 87 30 88 21 89 29 90 31 91 22 92 23 95 24 96
REMARK SMILES IDX 28 97 25 98 27 99 26 100
REMARK H PARENT 90 25 58 36 21 93 29 94
REMARK Flexibility Score: inf
ROOT
ATOM      1  C   UNL A   1      40.740  21.514  27.048  1.00  0.00     0.188 C 
ENDROOT
BRANCH   1   2
ATOM      2  O   UNL A   1      41.369  20.331  26.536  1.00  0.00    -0.376 OA
BRANCH   2   3
ATOM      3  C   UNL A   1      42.693  20.552  26.035  1.00  0.00     0.202 C 
BRANCH   3   4
ATOM      4  C   UNL A   1      42.862  21.865  25.261  1.00  0.00     0.261 C 
BRANCH   4   5
ATOM      5  O   UNL A   1      44.014  22.597  25.701  1.00  0.00    -0.460 OA
BRANCH   5   6
ATOM      6  C   UNL A   1      44.243  23.929  25.586  1.00  0.00     0.338 C 
ATOM      7  O   UNL A   1      44.969  24.320  24.673  1.00  0.00    -0.246 OA
BRANCH   6   8
ATOM      8  C   UNL A   1      43.621  24.961  26.473  1.00  0.00     0.060 A 
ATOM      9  C   UNL A   1      43.663  26.346  26.275  1.00  0.00     0.016 A 
ATOM     10  C   UNL A   1      42.891  24.482  27.571  1.00  0.00     0.016 A 
ATOM     11  C   UNL A   1      43.103  27.232  27.194  1.00  0.00     0.010 A 
ATOM     12  C   UNL A   1      42.286  25.364  28.469  1.00  0.00     0.010 A 
ATOM     13  C   UNL A   1      42.416  26.750  28.303  1.00  0.00    -0.014 A 
BRANCH  13  14
ATOM     14  C   UNL A   1      41.961  27.682  29.359  1.00  0.00     0.031 A 
ATOM     15  C   UNL A   1      42.724  27.714  30.647  1.00  0.00     0.074 A 
ATOM     16  C   UNL A   1      40.935  28.527  29.155  1.00  0.00     0.049 A 
ATOM     17  N   UNL A   1      42.454  28.336  31.764  1.00  0.00    -0.248 NA
ATOM     18  C   UNL A   1      43.984  26.951  30.671  1.00  0.00     0.031 C 
ATOM     19  C   UNL A   1      40.200  28.678  27.901  1.00  0.00     0.029 A 
ATOM     20  N   UNL A   1      40.324  29.416  30.005  1.00  0.00    -0.354 N 
ATOM     21  C   UNL A   1      43.495  28.022  32.625  1.00  0.00     0.074 A 
ATOM     22  C   UNL A   1      44.390  27.135  31.916  1.00  0.00     0.031 C 
ATOM     23  C   UNL A   1      39.223  29.582  28.070  1.00  0.00     0.029 A 
ATOM     24  C   UNL A   1      39.216  30.016  29.460  1.00  0.00     0.049 A 
ATOM     25  H   UNL A   1      40.650  29.605  30.916  1.00  0.00     0.167 HD
ATOM     26  C   UNL A   1      43.690  28.451  33.893  1.00  0.00     0.037 A 
ATOM     27  C   UNL A   1      38.263  30.772  30.038  1.00  0.00     0.037 A 
ATOM     28  C   UNL A   1      42.787  29.330  34.580  1.00  0.00     0.049 A 
ATOM     29  C   UNL A   1      38.389  31.080  31.503  1.00  0.00     0.074 A 
ATOM     30  C   UNL A   1      42.871  29.832  35.865  1.00  0.00     0.029 A 
ATOM     31  N   UNL A   1      41.615  29.831  34.025  1.00  0.00    -0.354 N 
ATOM     32  N   UNL A   1      39.351  30.756  32.332  1.00  0.00    -0.248 NA
ATOM     33  C   UNL A   1      37.297  31.844  32.120  1.00  0.00     0.031 C 
ATOM     34  C   UNL A   1      41.728  30.604  36.102  1.00  0.00     0.029 A 
ATOM     35  C   UNL A   1      40.953  30.618  34.950  1.00  0.00     0.049 A 
ATOM     36  H   UNL A   1      41.302  29.651  33.109  1.00  0.00     0.167 HD
ATOM     37  C   UNL A   1      39.008  31.308  33.555  1.00  0.00     0.074 A 
ATOM     38  C   UNL A   1      37.734  31.974  33.365  1.00  0.00     0.031 C 
ATOM     39  C   UNL A   1      39.696  31.285  34.723  1.00  0.00     0.037 A 
BRANCH  26  40
ATOM     40  C   UNL A   1      44.900  27.922  34.602  1.00  0.00     0.064 A 
ATOM     41  C   UNL A   1      44.859  26.732  35.345  1.00  0.00     0.173 A 
ATOM     42  C   UNL A   1      46.098  28.651  34.594  1.00  0.00     0.173 A 
ATOM     43  F   UNL A   1      43.728  26.013  35.406  1.00  0.00    -0.203 F 
ATOM     44  C   UNL A   1      45.958  26.317  36.093  1.00  0.00     0.198 A 
ATOM     45  C   UNL A   1      47.204  28.218  35.321  1.00  0.00     0.198 A 
ATOM     46  F   UNL A   1      46.190  29.796  33.901  1.00  0.00    -0.203 F 
ATOM     47  F   UNL A   1      45.871  25.218  36.855  1.00  0.00    -0.200 F 
ATOM     48  C   UNL A   1      47.129  27.060  36.080  1.00  0.00     0.200 A 
ATOM     49  F   UNL A   1      48.336  28.935  35.306  1.00  0.00    -0.200 F 
ATOM     50  F   UNL A   1      48.179  26.670  36.815  1.00  0.00    -0.200 F 
ENDBRANCH  26  40
BRANCH  27  51
ATOM     51  C   UNL A   1      37.069  31.192  29.258  1.00  0.00     0.064 A 
ATOM     52  C   UNL A   1      36.912  32.492  28.767  1.00  0.00     0.173 A 
ATOM     53  C   UNL A   1      36.044  30.273  28.990  1.00  0.00     0.173 A 
ATOM     54  F   UNL A   1      37.852  33.416  29.011  1.00  0.00    -0.203 F 
ATOM     55  C   UNL A   1      35.774  32.855  28.044  1.00  0.00     0.198 A 
ATOM     56  C   UNL A   1      34.917  30.626  28.254  1.00  0.00     0.198 A 
ATOM     57  F   UNL A   1      36.156  29.016  29.427  1.00  0.00    -0.203 F 
ATOM     58  F   UNL A   1      35.637  34.113  27.603  1.00  0.00    -0.200 F 
ATOM     59  C   UNL A   1      34.780  31.922  27.785  1.00  0.00     0.200 A 
ATOM     60  F   UNL A   1      33.973  29.711  27.992  1.00  0.00    -0.200 F 
ATOM     61  F   UNL A   1      33.692  32.268  27.084  1.00  0.00    -0.200 F 
ENDBRANCH  27  51
BRANCH  39  62
ATOM     62  C   UNL A   1      39.124  32.065  35.864  1.00  0.00     0.064 A 
ATOM     63  C   UNL A   1      38.251  31.484  36.791  1.00  0.00     0.173 A 
ATOM     64  C   UNL A   1      39.516  33.398  36.061  1.00  0.00     0.173 A 
ATOM     65  F   UNL A   1      37.830  30.221  36.625  1.00  0.00    -0.203 F 
ATOM     66  C   UNL A   1      37.786  32.214  37.881  1.00  0.00     0.198 A 
ATOM     67  C   UNL A   1      39.068  34.116  37.163  1.00  0.00     0.198 A 
ATOM     68  F   UNL A   1      40.349  33.993  35.195  1.00  0.00    -0.203 F 
ATOM     69  F   UNL A   1      36.929  31.652  38.745  1.00  0.00    -0.200 F 
ATOM     70  C   UNL A   1      38.203  33.525  38.072  1.00  0.00     0.200 A 
ATOM     71  F   UNL A   1      39.477  35.378  37.351  1.00  0.00    -0.200 F 
ATOM     72  F   UNL A   1      37.765  34.220  39.130  1.00  0.00    -0.200 F 
ENDBRANCH  39  62
ENDBRANCH  13  14
ENDBRANCH   6   8
ENDBRANCH   5   6
ENDBRANCH   4   5
ENDBRANCH   3   4
ENDBRANCH   2   3
ENDBRANCH   1   2
BRANCH   1  73
ATOM     73  C   UNL A   1      39.407  21.788  26.343  1.00  0.00     0.188 C 
BRANCH  73  74
ATOM     74  O   UNL A   1      38.774  20.645  25.765  1.00  0.00    -0.376 OA
BRANCH  74  75
ATOM     75  C   UNL A   1      37.822  20.893  24.736  1.00  0.00     0.202 C 
BRANCH  75  76
ATOM     76  C   UNL A   1      36.932  22.129  24.908  1.00  0.00     0.261 C 
BRANCH  76  77
ATOM     77  O   UNL A   1      35.992  22.355  23.839  1.00  0.00    -0.460 OA
BRANCH  77  78
ATOM     78  C   UNL A   1      34.702  22.110  24.168  1.00  0.00     0.338 C 
ATOM     79  O   UNL A   1      34.203  21.015  24.422  1.00  0.00    -0.246 OA
BRANCH  78  80
ATOM     80  C   UNL A   1      33.851  23.312  24.063  1.00  0.00     0.060 A 
ATOM     81  C   UNL A   1      32.826  23.455  23.128  1.00  0.00     0.019 A 
ATOM     82  C   UNL A   1      34.195  24.397  24.869  1.00  0.00     0.019 A 
ATOM     83  C   UNL A   1      32.170  24.697  22.990  1.00  0.00     0.044 A 
ATOM     84  C   UNL A   1      33.524  25.615  24.737  1.00  0.00     0.044 A 
ATOM     85  C   UNL A   1      32.498  25.800  23.793  1.00  0.00     0.103 A 
BRANCH  85  86
ATOM     86  N   UNL A   1      31.869  27.099  23.701  1.00  0.00    -0.219 N 
ATOM     87  C   UNL A   1      30.626  27.239  24.449  1.00  0.00     0.405 C 
ATOM     88  C   UNL A   1      32.417  28.261  23.114  1.00  0.00     0.297 C 
ATOM     89  N   UNL A   1      29.849  28.354  24.029  1.00  0.00    -0.274 N 
ATOM     90  N   UNL A   1      31.569  29.293  22.789  1.00  0.00    -0.236 N 
ATOM     91  S   UNL A   1      34.023  28.481  22.632  1.00  0.00    -0.005 S 
ATOM     92  C   UNL A   1      30.352  29.296  23.201  1.00  0.00     0.229 C 
ATOM     93  H   UNL A   1      28.922  28.441  24.350  1.00  0.00     0.260 HD
ATOM     94  H   UNL A   1      31.898  30.037  22.235  1.00  0.00     0.268 HD
BRANCH  92  95
ATOM     95  C   UNL A   1      29.449  30.357  22.694  1.00  0.00     0.047 A 
ATOM     96  C   UNL A   1      28.951  31.306  23.593  1.00  0.00     0.015 A 
ATOM     97  C   UNL A   1      29.135  30.425  21.337  1.00  0.00     0.015 A 
ATOM     98  C   UNL A   1      28.144  32.344  23.124  1.00  0.00     0.001 A 
ATOM     99  C   UNL A   1      28.308  31.452  20.878  1.00  0.00     0.001 A 
ATOM    100  C   UNL A   1      27.821  32.414  21.769  1.00  0.00     0.000 A 
ENDBRANCH  92  95
ENDBRANCH  85  86
ENDBRANCH  78  80
ENDBRANCH  77  78
ENDBRANCH  76  77
ENDBRANCH  75  76
ENDBRANCH  74  75
ENDBRANCH  73  74
ENDBRANCH   1  73
TORSDOF 19
ENDMDL
