MODEL 1
REMARK VINA RESULT:     -10.7      0.000      0.000
REMARK SMILES O=C(OCCOCCOCCOC(=O)[C@@H]1CCCN(C(=O)Nc2ccccc2)C1)c1ccc(-c2c3nc(c(-c4c(F)c(F)c(F)c(F)c4F)c4ccc([nH]4)c(-c4c(F)c(F)c(F)c(F)c4F)c4nc(c(-c5c(F)c(F)c(F)c(F)c5F)c5ccc2[nH]5)C=C4)C=C3)cc1
REMARK SMILES IDX 7 1 6 2 5 3 4 4 3 5 2 6 1 7 30 8 31 9 92 10 32 11 91 12
REMARK SMILES IDX 33 13 34 14 35 15 85 16 36 17 90 18 84 19 86 20 37 21 89 22
REMARK SMILES IDX 83 23 82 24 38 26 70 27 50 28 69 29 51 30 54 31 68 32 87 33
REMARK SMILES IDX 52 34 53 35 67 37 88 38 55 39 39 40 40 41 48 42 41 43 42 44
REMARK SMILES IDX 46 45 49 46 43 47 44 48 47 49 45 50 71 51 72 52 80 53 73 54
REMARK SMILES IDX 74 55 78 56 81 57 75 58 76 59 79 60 77 61 56 62 57 63 65 64
REMARK SMILES IDX 58 65 59 66 63 67 66 68 60 69 61 70 64 71 62 72 8 73 9 74
REMARK SMILES IDX 10 75 11 76 12 77 13 78 14 79 15 80 16 81 29 82 17 83 19 84
REMARK SMILES IDX 18 85 20 86 21 87 22 88 23 90 24 91 28 92 25 93 27 94 26 95
REMARK H PARENT 86 25 54 36 22 89
REMARK Flexibility Score: inf
ROOT
ATOM      1  C   UNL A   1      41.306  21.824  26.156  1.00  0.00     0.188 C 
ENDROOT
BRANCH   1   2
ATOM      2  O   UNL A   1      41.972  20.695  26.718  1.00  0.00    -0.376 OA
BRANCH   2   3
ATOM      3  C   UNL A   1      41.743  19.452  26.052  1.00  0.00     0.202 C 
BRANCH   3   4
ATOM      4  C   UNL A   1      42.982  18.593  25.756  1.00  0.00     0.261 C 
BRANCH   4   5
ATOM      5  O   UNL A   1      43.617  18.859  24.493  1.00  0.00    -0.460 OA
BRANCH   5   6
ATOM      6  C   UNL A   1      44.720  19.597  24.224  1.00  0.00     0.338 C 
ATOM      7  O   UNL A   1      45.638  19.085  23.585  1.00  0.00    -0.246 OA
BRANCH   6   8
ATOM      8  C   UNL A   1      44.897  21.005  24.675  1.00  0.00     0.060 A 
ATOM      9  C   UNL A   1      44.542  22.121  23.924  1.00  0.00     0.016 A 
ATOM     10  C   UNL A   1      45.332  21.216  25.995  1.00  0.00     0.016 A 
ATOM     11  C   UNL A   1      44.690  23.410  24.410  1.00  0.00     0.010 A 
ATOM     12  C   UNL A   1      45.428  22.510  26.521  1.00  0.00     0.010 A 
ATOM     13  C   UNL A   1      45.123  23.613  25.716  1.00  0.00    -0.014 A 
BRANCH  13  14
ATOM     14  C   UNL A   1      45.303  25.002  26.170  1.00  0.00     0.031 A 
ATOM     15  C   UNL A   1      46.624  25.656  25.958  1.00  0.00     0.074 A 
ATOM     16  C   UNL A   1      44.245  25.695  26.631  1.00  0.00     0.049 A 
ATOM     17  N   UNL A   1      47.014  26.846  26.316  1.00  0.00    -0.248 NA
ATOM     18  C   UNL A   1      47.643  24.870  25.241  1.00  0.00     0.031 C 
ATOM     19  C   UNL A   1      42.896  25.151  26.749  1.00  0.00     0.029 A 
ATOM     20  N   UNL A   1      44.113  26.995  27.042  1.00  0.00    -0.354 N 
ATOM     21  C   UNL A   1      48.335  26.937  25.915  1.00  0.00     0.074 A 
ATOM     22  C   UNL A   1      48.680  25.694  25.264  1.00  0.00     0.031 C 
ATOM     23  C   UNL A   1      42.064  26.122  27.149  1.00  0.00     0.029 A 
ATOM     24  C   UNL A   1      42.833  27.320  27.427  1.00  0.00     0.049 A 
ATOM     25  H   UNL A   1      44.860  27.635  27.059  1.00  0.00     0.167 HD
ATOM     26  C   UNL A   1      49.178  27.973  26.111  1.00  0.00     0.037 A 
ATOM     27  C   UNL A   1      42.341  28.435  27.997  1.00  0.00     0.037 A 
ATOM     28  C   UNL A   1      48.784  29.198  26.752  1.00  0.00     0.049 A 
ATOM     29  C   UNL A   1      43.322  29.537  28.269  1.00  0.00     0.074 A 
ATOM     30  C   UNL A   1      49.554  30.310  27.036  1.00  0.00     0.029 A 
ATOM     31  N   UNL A   1      47.500  29.467  27.213  1.00  0.00    -0.354 N 
ATOM     32  N   UNL A   1      44.591  29.602  27.941  1.00  0.00    -0.248 NA
ATOM     33  C   UNL A   1      42.830  30.698  29.018  1.00  0.00     0.031 C 
ATOM     34  C   UNL A   1      48.752  31.223  27.727  1.00  0.00     0.029 A 
ATOM     35  C   UNL A   1      47.466  30.710  27.820  1.00  0.00     0.049 A 
ATOM     36  H   UNL A   1      46.729  28.862  27.122  1.00  0.00     0.167 HD
ATOM     37  C   UNL A   1      45.052  30.804  28.446  1.00  0.00     0.074 A 
ATOM     38  C   UNL A   1      43.913  31.459  29.063  1.00  0.00     0.031 C 
ATOM     39  C   UNL A   1      46.306  31.315  28.424  1.00  0.00     0.037 A 
BRANCH  26  40
ATOM     40  C   UNL A   1      50.611  27.777  25.727  1.00  0.00     0.064 A 
ATOM     41  C   UNL A   1      51.079  27.995  24.424  1.00  0.00     0.173 A 
ATOM     42  C   UNL A   1      51.533  27.357  26.698  1.00  0.00     0.173 A 
ATOM     43  F   UNL A   1      50.230  28.359  23.452  1.00  0.00    -0.203 F 
ATOM     44  C   UNL A   1      52.421  27.791  24.106  1.00  0.00     0.198 A 
ATOM     45  C   UNL A   1      52.876  27.181  26.383  1.00  0.00     0.198 A 
ATOM     46  F   UNL A   1      51.129  27.116  27.954  1.00  0.00    -0.203 F 
ATOM     47  F   UNL A   1      52.841  27.962  22.846  1.00  0.00    -0.200 F 
ATOM     48  C   UNL A   1      53.319  27.394  25.087  1.00  0.00     0.200 A 
ATOM     49  F   UNL A   1      53.740  26.797  27.333  1.00  0.00    -0.200 F 
ATOM     50  F   UNL A   1      54.609  27.206  24.780  1.00  0.00    -0.200 F 
ENDBRANCH  26  40
BRANCH  27  51
ATOM     51  C   UNL A   1      40.916  28.518  28.437  1.00  0.00     0.064 A 
ATOM     52  C   UNL A   1      39.909  29.004  27.590  1.00  0.00     0.173 A 
ATOM     53  C   UNL A   1      40.532  28.148  29.738  1.00  0.00     0.173 A 
ATOM     54  F   UNL A   1      40.213  29.400  26.344  1.00  0.00    -0.203 F 
ATOM     55  C   UNL A   1      38.592  29.143  28.034  1.00  0.00     0.198 A 
ATOM     56  C   UNL A   1      39.209  28.241  30.165  1.00  0.00     0.198 A 
ATOM     57  F   UNL A   1      41.444  27.682  30.604  1.00  0.00    -0.203 F 
ATOM     58  F   UNL A   1      37.668  29.680  27.226  1.00  0.00    -0.200 F 
ATOM     59  C   UNL A   1      38.242  28.755  29.317  1.00  0.00     0.200 A 
ATOM     60  F   UNL A   1      38.875  27.843  31.400  1.00  0.00    -0.200 F 
ATOM     61  F   UNL A   1      36.979  28.888  29.744  1.00  0.00    -0.200 F 
ENDBRANCH  27  51
BRANCH  39  62
ATOM     62  C   UNL A   1      46.493  32.644  29.087  1.00  0.00     0.064 A 
ATOM     63  C   UNL A   1      46.868  32.739  30.435  1.00  0.00     0.173 A 
ATOM     64  C   UNL A   1      46.335  33.829  28.355  1.00  0.00     0.173 A 
ATOM     65  F   UNL A   1      47.008  31.630  31.178  1.00  0.00    -0.203 F 
ATOM     66  C   UNL A   1      47.058  33.979  31.033  1.00  0.00     0.198 A 
ATOM     67  C   UNL A   1      46.561  35.065  28.947  1.00  0.00     0.198 A 
ATOM     68  F   UNL A   1      45.980  33.782  27.062  1.00  0.00    -0.203 F 
ATOM     69  F   UNL A   1      47.367  34.052  32.334  1.00  0.00    -0.200 F 
ATOM     70  C   UNL A   1      46.915  35.139  30.286  1.00  0.00     0.200 A 
ATOM     71  F   UNL A   1      46.438  36.184  28.221  1.00  0.00    -0.200 F 
ATOM     72  F   UNL A   1      47.113  36.334  30.860  1.00  0.00    -0.200 F 
ENDBRANCH  39  62
ENDBRANCH  13  14
ENDBRANCH   6   8
ENDBRANCH   5   6
ENDBRANCH   4   5
ENDBRANCH   3   4
ENDBRANCH   2   3
ENDBRANCH   1   2
BRANCH   1  73
ATOM     73  C   UNL A   1      40.077  22.230  26.968  1.00  0.00     0.188 C 
BRANCH  73  74
ATOM     74  O   UNL A   1      39.731  23.612  27.008  1.00  0.00    -0.376 OA
BRANCH  74  75
ATOM     75  C   UNL A   1      38.427  24.000  26.593  1.00  0.00     0.202 C 
BRANCH  75  76
ATOM     76  C   UNL A   1      37.652  23.084  25.630  1.00  0.00     0.261 C 
BRANCH  76  77
ATOM     77  O   UNL A   1      36.269  22.902  25.950  1.00  0.00    -0.463 OA
BRANCH  77  78
ATOM     78  C   UNL A   1      35.449  23.826  25.375  1.00  0.00     0.310 C 
ATOM     79  O   UNL A   1      35.086  24.858  25.914  1.00  0.00    -0.252 OA
BRANCH  78  80
ATOM     80  C   UNL A   1      35.094  23.414  23.953  1.00  0.00     0.119 C 
ATOM     81  C   UNL A   1      34.148  24.406  23.275  1.00  0.00     0.019 C 
ATOM     82  C   UNL A   1      34.399  22.069  23.970  1.00  0.00     0.136 C 
ATOM     83  C   UNL A   1      32.790  24.460  23.962  1.00  0.00     0.023 C 
ATOM     84  N   UNL A   1      33.260  22.093  24.871  1.00  0.00    -0.324 N 
ATOM     85  C   UNL A   1      32.267  23.136  24.550  1.00  0.00     0.121 C 
BRANCH  84  86
ATOM     86  C   UNL A   1      33.333  21.242  25.957  1.00  0.00     0.321 C 
ATOM     87  O   UNL A   1      33.346  21.678  27.116  1.00  0.00    -0.248 OA
ATOM     88  N   UNL A   1      33.244  19.896  25.847  1.00  0.00    -0.308 N 
ATOM     89  H   UNL A   1      33.021  19.438  26.689  1.00  0.00     0.171 HD
BRANCH  88  90
ATOM     90  C   UNL A   1      33.408  19.041  24.764  1.00  0.00     0.042 A 
ATOM     91  C   UNL A   1      34.563  18.259  24.733  1.00  0.00     0.026 A 
ATOM     92  C   UNL A   1      32.422  18.894  23.788  1.00  0.00     0.026 A 
ATOM     93  C   UNL A   1      34.655  17.215  23.817  1.00  0.00     0.002 A 
ATOM     94  C   UNL A   1      32.523  17.857  22.863  1.00  0.00     0.002 A 
ATOM     95  C   UNL A   1      33.624  17.000  22.899  1.00  0.00     0.000 A 
ENDBRANCH  88  90
ENDBRANCH  84  86
ENDBRANCH  78  80
ENDBRANCH  77  78
ENDBRANCH  76  77
ENDBRANCH  75  76
ENDBRANCH  74  75
ENDBRANCH  73  74
ENDBRANCH   1  73
TORSDOF 19
ENDMDL
MODEL 2
REMARK VINA RESULT:     -10.7      0.637      7.438
REMARK SMILES O=C(OCCOCCOCCOC(=O)[C@@H]1CCCN(C(=O)Nc2ccccc2)C1)c1ccc(-c2c3nc(c(-c4c(F)c(F)c(F)c(F)c4F)c4ccc([nH]4)c(-c4c(F)c(F)c(F)c(F)c4F)c4nc(c(-c5c(F)c(F)c(F)c(F)c5F)c5ccc2[nH]5)C=C4)C=C3)cc1
REMARK SMILES IDX 7 1 6 2 5 3 4 4 3 5 2 6 1 7 30 8 31 9 92 10 32 11 91 12
REMARK SMILES IDX 33 13 34 14 35 15 85 16 36 17 90 18 84 19 86 20 37 21 89 22
REMARK SMILES IDX 83 23 82 24 38 26 70 27 50 28 69 29 51 30 54 31 68 32 87 33
REMARK SMILES IDX 52 34 53 35 67 37 88 38 55 39 39 40 40 41 48 42 41 43 42 44
REMARK SMILES IDX 46 45 49 46 43 47 44 48 47 49 45 50 71 51 72 52 80 53 73 54
REMARK SMILES IDX 74 55 78 56 81 57 75 58 76 59 79 60 77 61 56 62 57 63 65 64
REMARK SMILES IDX 58 65 59 66 63 67 66 68 60 69 61 70 64 71 62 72 8 73 9 74
REMARK SMILES IDX 10 75 11 76 12 77 13 78 14 79 15 80 16 81 29 82 17 83 19 84
REMARK SMILES IDX 18 85 20 86 21 87 22 88 23 90 24 91 28 92 25 93 27 94 26 95
REMARK H PARENT 86 25 54 36 22 89
REMARK Flexibility Score: inf
ROOT
ATOM      1  C   UNL A   1      41.642  21.976  26.336  1.00  0.00     0.188 C 
ENDROOT
BRANCH   1   2
ATOM      2  O   UNL A   1      41.614  20.713  25.674  1.00  0.00    -0.376 OA
BRANCH   2   3
ATOM      3  C   UNL A   1      42.045  19.598  26.457  1.00  0.00     0.202 C 
BRANCH   3   4
ATOM      4  C   UNL A   1      43.053  18.644  25.798  1.00  0.00     0.261 C 
BRANCH   4   5
ATOM      5  O   UNL A   1      43.578  19.092  24.536  1.00  0.00    -0.460 OA
BRANCH   5   6
ATOM      6  C   UNL A   1      44.729  19.756  24.271  1.00  0.00     0.338 C 
ATOM      7  O   UNL A   1      45.619  19.178  23.650  1.00  0.00    -0.246 OA
BRANCH   6   8
ATOM      8  C   UNL A   1      44.990  21.156  24.707  1.00  0.00     0.060 A 
ATOM      9  C   UNL A   1      44.725  22.281  23.933  1.00  0.00     0.016 A 
ATOM     10  C   UNL A   1      45.411  21.357  26.033  1.00  0.00     0.016 A 
ATOM     11  C   UNL A   1      44.949  23.565  24.405  1.00  0.00     0.010 A 
ATOM     12  C   UNL A   1      45.582  22.649  26.543  1.00  0.00     0.010 A 
ATOM     13  C   UNL A   1      45.367  23.757  25.717  1.00  0.00    -0.014 A 
BRANCH  13  14
ATOM     14  C   UNL A   1      45.630  25.138  26.157  1.00  0.00     0.031 A 
ATOM     15  C   UNL A   1      44.532  25.894  26.823  1.00  0.00     0.074 A 
ATOM     16  C   UNL A   1      46.877  25.637  26.082  1.00  0.00     0.049 A 
ATOM     17  N   UNL A   1      44.530  27.126  27.247  1.00  0.00    -0.248 NA
ATOM     18  C   UNL A   1      43.272  25.167  27.051  1.00  0.00     0.031 C 
ATOM     19  C   UNL A   1      48.023  24.903  25.552  1.00  0.00     0.029 A 
ATOM     20  N   UNL A   1      47.409  26.835  26.478  1.00  0.00    -0.354 N 
ATOM     21  C   UNL A   1      43.257  27.340  27.746  1.00  0.00     0.074 A 
ATOM     22  C   UNL A   1      42.516  26.108  27.597  1.00  0.00     0.031 C 
ATOM     23  C   UNL A   1      49.129  25.645  25.707  1.00  0.00     0.029 A 
ATOM     24  C   UNL A   1      48.757  26.944  26.234  1.00  0.00     0.049 A 
ATOM     25  H   UNL A   1      46.877  27.550  26.897  1.00  0.00     0.167 HD
ATOM     26  C   UNL A   1      42.762  28.489  28.254  1.00  0.00     0.037 A 
ATOM     27  C   UNL A   1      49.594  27.990  26.362  1.00  0.00     0.037 A 
ATOM     28  C   UNL A   1      43.543  29.687  28.396  1.00  0.00     0.049 A 
ATOM     29  C   UNL A   1      48.994  29.272  26.859  1.00  0.00     0.074 A 
ATOM     30  C   UNL A   1      43.147  30.923  28.870  1.00  0.00     0.029 A 
ATOM     31  N   UNL A   1      44.887  29.795  28.057  1.00  0.00    -0.354 N 
ATOM     32  N   UNL A   1      47.770  29.493  27.278  1.00  0.00    -0.248 NA
ATOM     33  C   UNL A   1      49.860  30.454  26.868  1.00  0.00     0.031 C 
ATOM     34  C   UNL A   1      44.234  31.795  28.756  1.00  0.00     0.029 A 
ATOM     35  C   UNL A   1      45.326  31.090  28.271  1.00  0.00     0.049 A 
ATOM     36  H   UNL A   1      45.444  29.059  27.716  1.00  0.00     0.167 HD
ATOM     37  C   UNL A   1      47.715  30.838  27.595  1.00  0.00     0.074 A 
ATOM     38  C   UNL A   1      49.044  31.373  27.364  1.00  0.00     0.031 C 
ATOM     39  C   UNL A   1      46.660  31.574  28.019  1.00  0.00     0.037 A 
BRANCH  26  40
ATOM     40  C   UNL A   1      41.303  28.523  28.585  1.00  0.00     0.064 A 
ATOM     41  C   UNL A   1      40.800  28.102  29.823  1.00  0.00     0.173 A 
ATOM     42  C   UNL A   1      40.390  28.992  27.626  1.00  0.00     0.173 A 
ATOM     43  F   UNL A   1      41.627  27.610  30.757  1.00  0.00    -0.203 F 
ATOM     44  C   UNL A   1      39.432  28.142  30.087  1.00  0.00     0.198 A 
ATOM     45  C   UNL A   1      39.029  29.054  27.904  1.00  0.00     0.198 A 
ATOM     46  F   UNL A   1      40.821  29.386  26.419  1.00  0.00    -0.203 F 
ATOM     47  F   UNL A   1      38.965  27.694  31.260  1.00  0.00    -0.200 F 
ATOM     48  C   UNL A   1      38.550  28.626  29.132  1.00  0.00     0.200 A 
ATOM     49  F   UNL A   1      38.180  29.522  26.978  1.00  0.00    -0.200 F 
ATOM     50  F   UNL A   1      37.236  28.670  29.391  1.00  0.00    -0.200 F 
ENDBRANCH  26  40
BRANCH  27  51
ATOM     51  C   UNL A   1      51.019  27.903  25.922  1.00  0.00     0.064 A 
ATOM     52  C   UNL A   1      52.061  27.677  26.834  1.00  0.00     0.173 A 
ATOM     53  C   UNL A   1      51.379  28.083  24.575  1.00  0.00     0.173 A 
ATOM     54  F   UNL A   1      51.789  27.522  28.139  1.00  0.00    -0.203 F 
ATOM     55  C   UNL A   1      53.395  27.666  26.423  1.00  0.00     0.198 A 
ATOM     56  C   UNL A   1      52.706  28.025  24.157  1.00  0.00     0.198 A 
ATOM     57  F   UNL A   1      50.435  28.311  23.649  1.00  0.00    -0.203 F 
ATOM     58  F   UNL A   1      54.373  27.523  27.328  1.00  0.00    -0.200 F 
ATOM     59  C   UNL A   1      53.717  27.832  25.085  1.00  0.00     0.200 A 
ATOM     60  F   UNL A   1      53.006  28.165  22.859  1.00  0.00    -0.200 F 
ATOM     61  F   UNL A   1      54.997  27.822  24.689  1.00  0.00    -0.200 F 
ENDBRANCH  27  51
BRANCH  39  62
ATOM     62  C   UNL A   1      46.917  33.029  28.255  1.00  0.00     0.064 A 
ATOM     63  C   UNL A   1      46.685  33.982  27.252  1.00  0.00     0.173 A 
ATOM     64  C   UNL A   1      47.361  33.475  29.507  1.00  0.00     0.173 A 
ATOM     65  F   UNL A   1      46.281  33.595  26.032  1.00  0.00    -0.203 F 
ATOM     66  C   UNL A   1      46.909  35.332  27.491  1.00  0.00     0.198 A 
ATOM     67  C   UNL A   1      47.549  34.830  29.753  1.00  0.00     0.198 A 
ATOM     68  F   UNL A   1      47.592  32.597  30.495  1.00  0.00    -0.203 F 
ATOM     69  F   UNL A   1      46.729  36.222  26.507  1.00  0.00    -0.200 F 
ATOM     70  C   UNL A   1      47.330  35.755  28.744  1.00  0.00     0.200 A 
ATOM     71  F   UNL A   1      47.940  35.239  30.967  1.00  0.00    -0.200 F 
ATOM     72  F   UNL A   1      47.531  37.059  28.977  1.00  0.00    -0.200 F 
ENDBRANCH  39  62
ENDBRANCH  13  14
ENDBRANCH   6   8
ENDBRANCH   5   6
ENDBRANCH   4   5
ENDBRANCH   3   4
ENDBRANCH   2   3
ENDBRANCH   1   2
BRANCH   1  73
ATOM     73  C   UNL A   1      40.441  22.168  27.261  1.00  0.00     0.188 C 
BRANCH  73  74
ATOM     74  O   UNL A   1      39.479  23.157  26.907  1.00  0.00    -0.376 OA
BRANCH  74  75
ATOM     75  C   UNL A   1      38.344  22.760  26.146  1.00  0.00     0.202 C 
BRANCH  75  76
ATOM     76  C   UNL A   1      37.304  23.824  25.755  1.00  0.00     0.261 C 
BRANCH  76  77
ATOM     77  O   UNL A   1      35.959  23.526  26.144  1.00  0.00    -0.463 OA
BRANCH  77  78
ATOM     78  C   UNL A   1      35.021  24.219  25.440  1.00  0.00     0.310 C 
ATOM     79  O   UNL A   1      34.357  25.137  25.892  1.00  0.00    -0.252 OA
BRANCH  78  80
ATOM     80  C   UNL A   1      34.956  23.723  24.002  1.00  0.00     0.119 C 
ATOM     81  C   UNL A   1      33.975  24.528  23.148  1.00  0.00     0.019 C 
ATOM     82  C   UNL A   1      34.492  22.282  23.980  1.00  0.00     0.136 C 
ATOM     83  C   UNL A   1      32.539  24.371  23.628  1.00  0.00     0.023 C 
ATOM     84  N   UNL A   1      33.241  22.135  24.704  1.00  0.00    -0.324 N 
ATOM     85  C   UNL A   1      32.153  22.991  24.194  1.00  0.00     0.121 C 
BRANCH  84  86
ATOM     86  C   UNL A   1      33.286  21.332  25.828  1.00  0.00     0.321 C 
ATOM     87  O   UNL A   1      33.252  21.816  26.966  1.00  0.00    -0.248 OA
ATOM     88  N   UNL A   1      33.218  19.981  25.772  1.00  0.00    -0.308 N 
ATOM     89  H   UNL A   1      32.971  19.556  26.625  1.00  0.00     0.171 HD
BRANCH  88  90
ATOM     90  C   UNL A   1      33.433  19.083  24.733  1.00  0.00     0.042 A 
ATOM     91  C   UNL A   1      34.582  18.295  24.792  1.00  0.00     0.026 A 
ATOM     92  C   UNL A   1      32.497  18.904  23.713  1.00  0.00     0.026 A 
ATOM     93  C   UNL A   1      34.714  17.216  23.924  1.00  0.00     0.002 A 
ATOM     94  C   UNL A   1      32.640  17.831  22.836  1.00  0.00     0.002 A 
ATOM     95  C   UNL A   1      33.731  16.970  22.963  1.00  0.00     0.000 A 
ENDBRANCH  88  90
ENDBRANCH  84  86
ENDBRANCH  78  80
ENDBRANCH  77  78
ENDBRANCH  76  77
ENDBRANCH  75  76
ENDBRANCH  74  75
ENDBRANCH  73  74
ENDBRANCH   1  73
TORSDOF 19
ENDMDL
MODEL 3
REMARK VINA RESULT:     -10.6      5.189      9.075
REMARK SMILES O=C(OCCOCCOCCOC(=O)[C@@H]1CCCN(C(=O)Nc2ccccc2)C1)c1ccc(-c2c3nc(c(-c4c(F)c(F)c(F)c(F)c4F)c4ccc([nH]4)c(-c4c(F)c(F)c(F)c(F)c4F)c4nc(c(-c5c(F)c(F)c(F)c(F)c5F)c5ccc2[nH]5)C=C4)C=C3)cc1
REMARK SMILES IDX 7 1 6 2 5 3 4 4 3 5 2 6 1 7 30 8 31 9 92 10 32 11 91 12
REMARK SMILES IDX 33 13 34 14 35 15 85 16 36 17 90 18 84 19 86 20 37 21 89 22
REMARK SMILES IDX 83 23 82 24 38 26 70 27 50 28 69 29 51 30 54 31 68 32 87 33
REMARK SMILES IDX 52 34 53 35 67 37 88 38 55 39 39 40 40 41 48 42 41 43 42 44
REMARK SMILES IDX 46 45 49 46 43 47 44 48 47 49 45 50 71 51 72 52 80 53 73 54
REMARK SMILES IDX 74 55 78 56 81 57 75 58 76 59 79 60 77 61 56 62 57 63 65 64
REMARK SMILES IDX 58 65 59 66 63 67 66 68 60 69 61 70 64 71 62 72 8 73 9 74
REMARK SMILES IDX 10 75 11 76 12 77 13 78 14 79 15 80 16 81 29 82 17 83 19 84
REMARK SMILES IDX 18 85 20 86 21 87 22 88 23 90 24 91 28 92 25 93 27 94 26 95
REMARK H PARENT 86 25 54 36 22 89
REMARK Flexibility Score: inf
ROOT
ATOM      1  C   UNL A   1      33.338  28.668  23.434  1.00  0.00     0.188 C 
ENDROOT
BRANCH   1   2
ATOM      2  O   UNL A   1      31.914  28.742  23.453  1.00  0.00    -0.376 OA
BRANCH   2   3
ATOM      3  C   UNL A   1      31.352  29.520  24.510  1.00  0.00     0.202 C 
BRANCH   3   4
ATOM      4  C   UNL A   1      32.130  29.545  25.835  1.00  0.00     0.261 C 
BRANCH   4   5
ATOM      5  O   UNL A   1      33.115  30.588  25.941  1.00  0.00    -0.460 OA
BRANCH   5   6
ATOM      6  C   UNL A   1      33.531  31.269  27.035  1.00  0.00     0.338 C 
ATOM      7  O   UNL A   1      32.900  32.262  27.393  1.00  0.00    -0.246 OA
BRANCH   6   8
ATOM      8  C   UNL A   1      34.731  30.892  27.832  1.00  0.00     0.060 A 
ATOM      9  C   UNL A   1      34.972  29.616  28.332  1.00  0.00     0.016 A 
ATOM     10  C   UNL A   1      35.745  31.854  27.976  1.00  0.00     0.016 A 
ATOM     11  C   UNL A   1      36.128  29.309  29.032  1.00  0.00     0.010 A 
ATOM     12  C   UNL A   1      36.944  31.541  28.627  1.00  0.00     0.010 A 
ATOM     13  C   UNL A   1      37.127  30.266  29.174  1.00  0.00    -0.014 A 
BRANCH  13  14
ATOM     14  C   UNL A   1      38.317  29.902  29.961  1.00  0.00     0.031 A 
ATOM     15  C   UNL A   1      39.354  29.040  29.327  1.00  0.00     0.074 A 
ATOM     16  C   UNL A   1      38.516  30.462  31.168  1.00  0.00     0.049 A 
ATOM     17  N   UNL A   1      40.451  28.566  29.847  1.00  0.00    -0.248 NA
ATOM     18  C   UNL A   1      39.134  28.668  27.920  1.00  0.00     0.031 C 
ATOM     19  C   UNL A   1      37.597  31.409  31.794  1.00  0.00     0.029 A 
ATOM     20  N   UNL A   1      39.547  30.364  32.064  1.00  0.00    -0.354 N 
ATOM     21  C   UNL A   1      41.028  27.798  28.850  1.00  0.00     0.074 A 
ATOM     22  C   UNL A   1      40.177  27.885  27.684  1.00  0.00     0.031 C 
ATOM     23  C   UNL A   1      38.132  31.846  32.942  1.00  0.00     0.029 A 
ATOM     24  C   UNL A   1      39.367  31.128  33.193  1.00  0.00     0.049 A 
ATOM     25  H   UNL A   1      40.341  29.802  31.913  1.00  0.00     0.167 HD
ATOM     26  C   UNL A   1      42.159  27.067  28.935  1.00  0.00     0.037 A 
ATOM     27  C   UNL A   1      40.081  31.200  34.331  1.00  0.00     0.037 A 
ATOM     28  C   UNL A   1      42.981  27.024  30.113  1.00  0.00     0.049 A 
ATOM     29  C   UNL A   1      41.291  30.317  34.420  1.00  0.00     0.074 A 
ATOM     30  C   UNL A   1      44.136  26.298  30.333  1.00  0.00     0.029 A 
ATOM     31  N   UNL A   1      42.727  27.740  31.277  1.00  0.00    -0.354 N 
ATOM     32  N   UNL A   1      41.808  29.543  33.495  1.00  0.00    -0.248 NA
ATOM     33  C   UNL A   1      41.996  30.279  35.705  1.00  0.00     0.031 C 
ATOM     34  C   UNL A   1      44.543  26.525  31.651  1.00  0.00     0.029 A 
ATOM     35  C   UNL A   1      43.679  27.440  32.235  1.00  0.00     0.049 A 
ATOM     36  H   UNL A   1      41.979  28.369  31.401  1.00  0.00     0.167 HD
ATOM     37  C   UNL A   1      42.894  28.921  34.084  1.00  0.00     0.074 A 
ATOM     38  C   UNL A   1      42.989  29.444  35.434  1.00  0.00     0.031 C 
ATOM     39  C   UNL A   1      43.726  27.985  33.568  1.00  0.00     0.037 A 
BRANCH  26  40
ATOM     40  C   UNL A   1      42.501  26.190  27.772  1.00  0.00     0.064 A 
ATOM     41  C   UNL A   1      41.928  24.924  27.588  1.00  0.00     0.173 A 
ATOM     42  C   UNL A   1      43.431  26.638  26.821  1.00  0.00     0.173 A 
ATOM     43  F   UNL A   1      41.064  24.436  28.489  1.00  0.00    -0.203 F 
ATOM     44  C   UNL A   1      42.281  24.135  26.495  1.00  0.00     0.198 A 
ATOM     45  C   UNL A   1      43.760  25.858  25.717  1.00  0.00     0.198 A 
ATOM     46  F   UNL A   1      44.022  27.833  26.965  1.00  0.00    -0.203 F 
ATOM     47  F   UNL A   1      41.756  22.910  26.359  1.00  0.00    -0.200 F 
ATOM     48  C   UNL A   1      43.188  24.606  25.557  1.00  0.00     0.200 A 
ATOM     49  F   UNL A   1      44.638  26.316  24.814  1.00  0.00    -0.200 F 
ATOM     50  F   UNL A   1      43.521  23.847  24.503  1.00  0.00    -0.200 F 
ENDBRANCH  26  40
BRANCH  27  51
ATOM     51  C   UNL A   1      39.623  32.031  35.484  1.00  0.00     0.064 A 
ATOM     52  C   UNL A   1      38.668  31.563  36.398  1.00  0.00     0.173 A 
ATOM     53  C   UNL A   1      40.104  33.338  35.678  1.00  0.00     0.173 A 
ATOM     54  F   UNL A   1      38.148  30.334  36.255  1.00  0.00    -0.203 F 
ATOM     55  C   UNL A   1      38.195  32.373  37.432  1.00  0.00     0.198 A 
ATOM     56  C   UNL A   1      39.668  34.129  36.738  1.00  0.00     0.198 A 
ATOM     57  F   UNL A   1      41.014  33.854  34.837  1.00  0.00    -0.203 F 
ATOM     58  F   UNL A   1      37.227  31.924  38.244  1.00  0.00    -0.200 F 
ATOM     59  C   UNL A   1      38.700  33.652  37.607  1.00  0.00     0.200 A 
ATOM     60  F   UNL A   1      40.177  35.356  36.912  1.00  0.00    -0.200 F 
ATOM     61  F   UNL A   1      38.247  34.430  38.598  1.00  0.00    -0.200 F 
ENDBRANCH  27  51
BRANCH  39  62
ATOM     62  C   UNL A   1      44.803  27.482  34.477  1.00  0.00     0.064 A 
ATOM     63  C   UNL A   1      46.041  28.137  34.572  1.00  0.00     0.173 A 
ATOM     64  C   UNL A   1      44.579  26.362  35.289  1.00  0.00     0.173 A 
ATOM     65  F   UNL A   1      46.305  29.200  33.797  1.00  0.00    -0.203 F 
ATOM     66  C   UNL A   1      47.025  27.671  35.436  1.00  0.00     0.198 A 
ATOM     67  C   UNL A   1      45.552  25.922  36.177  1.00  0.00     0.198 A 
ATOM     68  F   UNL A   1      43.408  25.709  35.231  1.00  0.00    -0.203 F 
ATOM     69  F   UNL A   1      48.218  28.279  35.476  1.00  0.00    -0.200 F 
ATOM     70  C   UNL A   1      46.776  26.572  36.244  1.00  0.00     0.200 A 
ATOM     71  F   UNL A   1      45.306  24.870  36.969  1.00  0.00    -0.200 F 
ATOM     72  F   UNL A   1      47.721  26.133  37.087  1.00  0.00    -0.200 F 
ENDBRANCH  39  62
ENDBRANCH  13  14
ENDBRANCH   6   8
ENDBRANCH   5   6
ENDBRANCH   4   5
ENDBRANCH   3   4
ENDBRANCH   2   3
ENDBRANCH   1   2
BRANCH   1  73
ATOM     73  C   UNL A   1      33.877  28.278  22.059  1.00  0.00     0.188 C 
BRANCH  73  74
ATOM     74  O   UNL A   1      33.776  26.912  21.666  1.00  0.00    -0.376 OA
BRANCH  74  75
ATOM     75  C   UNL A   1      33.168  25.990  22.564  1.00  0.00     0.202 C 
BRANCH  75  76
ATOM     76  C   UNL A   1      33.795  24.595  22.732  1.00  0.00     0.261 C 
BRANCH  76  77
ATOM     77  O   UNL A   1      34.388  24.349  24.011  1.00  0.00    -0.463 OA
BRANCH  77  78
ATOM     78  C   UNL A   1      35.468  23.521  23.962  1.00  0.00     0.310 C 
ATOM     79  O   UNL A   1      35.986  23.120  22.933  1.00  0.00    -0.252 OA
BRANCH  78  80
ATOM     80  C   UNL A   1      35.968  23.211  25.367  1.00  0.00     0.119 C 
ATOM     81  C   UNL A   1      37.262  22.395  25.362  1.00  0.00     0.019 C 
ATOM     82  C   UNL A   1      34.928  22.399  26.110  1.00  0.00     0.136 C 
ATOM     83  C   UNL A   1      37.062  21.011  24.758  1.00  0.00     0.023 C 
ATOM     84  N   UNL A   1      34.560  21.218  25.349  1.00  0.00    -0.324 N 
ATOM     85  C   UNL A   1      35.700  20.341  25.020  1.00  0.00     0.121 C 
BRANCH  84  86
ATOM     86  C   UNL A   1      33.243  21.154  24.934  1.00  0.00     0.321 C 
ATOM     87  O   UNL A   1      32.544  22.172  24.857  1.00  0.00    -0.248 OA
ATOM     88  N   UNL A   1      32.677  20.026  24.447  1.00  0.00    -0.308 N 
ATOM     89  H   UNL A   1      31.854  20.180  23.930  1.00  0.00     0.171 HD
BRANCH  88  90
ATOM     90  C   UNL A   1      33.043  18.688  24.542  1.00  0.00     0.042 A 
ATOM     91  C   UNL A   1      32.734  18.020  25.727  1.00  0.00     0.026 A 
ATOM     92  C   UNL A   1      33.615  18.006  23.467  1.00  0.00     0.026 A 
ATOM     93  C   UNL A   1      32.846  16.634  25.776  1.00  0.00     0.002 A 
ATOM     94  C   UNL A   1      33.740  16.620  23.526  1.00  0.00     0.002 A 
ATOM     95  C   UNL A   1      33.326  15.933  24.668  1.00  0.00     0.000 A 
ENDBRANCH  88  90
ENDBRANCH  84  86
ENDBRANCH  78  80
ENDBRANCH  77  78
ENDBRANCH  76  77
ENDBRANCH  75  76
ENDBRANCH  74  75
ENDBRANCH  73  74
ENDBRANCH   1  73
TORSDOF 19
ENDMDL
