MODEL 1
REMARK VINA RESULT:     -11.4      0.000      0.000
REMARK SMILES O=C(OCCOCCOCCOC(=O)[C@H]1CC[C@@H]2CCCC[C@@H]2N1C(=O)NC1CC1)c1ccc(-c2c3nc(c(-c4c(F)c(F)c(F)c(F)c4F)c4ccc([nH]4)c(-c4c(F)c(F)c(F)c(F)c4F)c4nc(c(-c5c(F)c(F)c(F)c(F)c5F)c5ccc2[nH]5)C=C4)C=C3)cc1
REMARK SMILES IDX 7 1 6 2 5 3 4 4 3 5 2 6 1 7 31 8 32 9 93 10 33 11 92 12
REMARK SMILES IDX 34 13 35 14 36 15 86 16 37 17 91 18 85 19 87 20 38 21 90 22
REMARK SMILES IDX 84 23 83 24 39 26 71 27 51 28 70 29 52 30 55 31 69 32 88 33
REMARK SMILES IDX 53 34 54 35 68 37 89 38 56 39 40 40 41 41 49 42 42 43 43 44
REMARK SMILES IDX 47 45 50 46 44 47 45 48 48 49 46 50 72 51 73 52 81 53 74 54
REMARK SMILES IDX 75 55 79 56 82 57 76 58 77 59 80 60 78 61 57 62 58 63 66 64
REMARK SMILES IDX 59 65 60 66 64 67 67 68 61 69 62 70 65 71 63 72 8 73 9 74
REMARK SMILES IDX 10 75 11 76 12 77 13 78 14 79 15 80 16 81 24 82 17 83 23 84
REMARK SMILES IDX 18 85 22 86 19 87 21 88 20 89 25 90 26 91 27 92 28 94 29 95
REMARK SMILES IDX 30 96
REMARK H PARENT 87 25 55 36 27 93
REMARK Flexibility Score: inf
ROOT
ATOM      1  C   UNL A   1      31.482  30.186  25.391  1.00  0.00     0.188 C 
ENDROOT
BRANCH   1   2
ATOM      2  O   UNL A   1      31.627  30.800  26.670  1.00  0.00    -0.376 OA
BRANCH   2   3
ATOM      3  C   UNL A   1      31.415  32.213  26.679  1.00  0.00     0.202 C 
BRANCH   3   4
ATOM      4  C   UNL A   1      32.631  32.971  27.228  1.00  0.00     0.261 C 
BRANCH   4   5
ATOM      5  O   UNL A   1      32.241  34.190  27.890  1.00  0.00    -0.460 OA
BRANCH   5   6
ATOM      6  C   UNL A   1      32.968  34.938  28.758  1.00  0.00     0.338 C 
ATOM      7  O   UNL A   1      32.560  36.058  29.060  1.00  0.00    -0.246 OA
BRANCH   6   8
ATOM      8  C   UNL A   1      34.207  34.448  29.441  1.00  0.00     0.060 A 
ATOM      9  C   UNL A   1      35.502  34.572  28.939  1.00  0.00     0.016 A 
ATOM     10  C   UNL A   1      34.054  33.857  30.710  1.00  0.00     0.016 A 
ATOM     11  C   UNL A   1      36.595  34.045  29.603  1.00  0.00     0.010 A 
ATOM     12  C   UNL A   1      35.159  33.361  31.414  1.00  0.00     0.010 A 
ATOM     13  C   UNL A   1      36.431  33.424  30.836  1.00  0.00    -0.014 A 
BRANCH  13  14
ATOM     14  C   UNL A   1      37.606  32.726  31.387  1.00  0.00     0.031 A 
ATOM     15  C   UNL A   1      38.077  33.115  32.750  1.00  0.00     0.074 A 
ATOM     16  C   UNL A   1      38.083  31.632  30.770  1.00  0.00     0.049 A 
ATOM     17  N   UNL A   1      39.060  32.625  33.454  1.00  0.00    -0.248 NA
ATOM     18  C   UNL A   1      37.311  34.173  33.432  1.00  0.00     0.031 C 
ATOM     19  C   UNL A   1      37.549  31.090  29.525  1.00  0.00     0.029 A 
ATOM     20  N   UNL A   1      39.080  30.757  31.107  1.00  0.00    -0.354 N 
ATOM     21  C   UNL A   1      39.026  33.306  34.660  1.00  0.00     0.074 A 
ATOM     22  C   UNL A   1      37.948  34.266  34.588  1.00  0.00     0.031 C 
ATOM     23  C   UNL A   1      38.220  29.977  29.195  1.00  0.00     0.029 A 
ATOM     24  C   UNL A   1      39.278  29.770  30.171  1.00  0.00     0.049 A 
ATOM     25  H   UNL A   1      39.604  30.829  31.937  1.00  0.00     0.167 HD
ATOM     26  C   UNL A   1      39.827  33.129  35.734  1.00  0.00     0.037 A 
ATOM     27  C   UNL A   1      40.242  28.836  30.096  1.00  0.00     0.037 A 
ATOM     28  C   UNL A   1      40.903  32.179  35.763  1.00  0.00     0.049 A 
ATOM     29  C   UNL A   1      41.229  28.775  31.227  1.00  0.00     0.074 A 
ATOM     30  C   UNL A   1      41.860  31.978  36.737  1.00  0.00     0.029 A 
ATOM     31  N   UNL A   1      41.160  31.263  34.747  1.00  0.00    -0.354 N 
ATOM     32  N   UNL A   1      41.259  29.486  32.330  1.00  0.00    -0.248 NA
ATOM     33  C   UNL A   1      42.311  27.793  31.112  1.00  0.00     0.031 C 
ATOM     34  C   UNL A   1      42.720  30.965  36.295  1.00  0.00     0.029 A 
ATOM     35  C   UNL A   1      42.270  30.501  35.066  1.00  0.00     0.049 A 
ATOM     36  H   UNL A   1      40.630  31.170  33.923  1.00  0.00     0.167 HD
ATOM     37  C   UNL A   1      42.345  29.025  33.053  1.00  0.00     0.074 A 
ATOM     38  C   UNL A   1      42.936  27.956  32.270  1.00  0.00     0.031 C 
ATOM     39  C   UNL A   1      42.818  29.445  34.253  1.00  0.00     0.037 A 
BRANCH  26  40
ATOM     40  C   UNL A   1      39.585  34.026  36.908  1.00  0.00     0.064 A 
ATOM     41  C   UNL A   1      40.157  35.304  36.990  1.00  0.00     0.173 A 
ATOM     42  C   UNL A   1      38.819  33.576  37.994  1.00  0.00     0.173 A 
ATOM     43  F   UNL A   1      40.931  35.763  35.995  1.00  0.00    -0.203 F 
ATOM     44  C   UNL A   1      39.990  36.091  38.127  1.00  0.00     0.198 A 
ATOM     45  C   UNL A   1      38.636  34.374  39.119  1.00  0.00     0.198 A 
ATOM     46  F   UNL A   1      38.268  32.354  37.972  1.00  0.00    -0.203 F 
ATOM     47  F   UNL A   1      40.594  37.285  38.210  1.00  0.00    -0.200 F 
ATOM     48  C   UNL A   1      39.227  35.628  39.189  1.00  0.00     0.200 A 
ATOM     49  F   UNL A   1      37.903  33.922  40.147  1.00  0.00    -0.200 F 
ATOM     50  F   UNL A   1      39.077  36.380  40.288  1.00  0.00    -0.200 F 
ENDBRANCH  26  40
BRANCH  27  51
ATOM     51  C   UNL A   1      40.358  27.959  28.897  1.00  0.00     0.064 A 
ATOM     52  C   UNL A   1      41.091  28.344  27.767  1.00  0.00     0.173 A 
ATOM     53  C   UNL A   1      39.706  26.714  28.852  1.00  0.00     0.173 A 
ATOM     54  F   UNL A   1      41.723  29.527  27.750  1.00  0.00    -0.203 F 
ATOM     55  C   UNL A   1      41.143  27.535  26.632  1.00  0.00     0.198 A 
ATOM     56  C   UNL A   1      39.785  25.893  27.730  1.00  0.00     0.198 A 
ATOM     57  F   UNL A   1      38.992  26.290  29.906  1.00  0.00    -0.203 F 
ATOM     58  F   UNL A   1      41.808  27.953  25.545  1.00  0.00    -0.200 F 
ATOM     59  C   UNL A   1      40.493  26.310  26.615  1.00  0.00     0.200 A 
ATOM     60  F   UNL A   1      39.170  24.704  27.728  1.00  0.00    -0.200 F 
ATOM     61  F   UNL A   1      40.543  25.536  25.521  1.00  0.00    -0.200 F 
ENDBRANCH  27  51
BRANCH  39  62
ATOM     62  C   UNL A   1      44.011  28.714  34.786  1.00  0.00     0.064 A 
ATOM     63  C   UNL A   1      43.872  27.562  35.574  1.00  0.00     0.173 A 
ATOM     64  C   UNL A   1      45.305  29.164  34.489  1.00  0.00     0.173 A 
ATOM     65  F   UNL A   1      42.652  27.110  35.898  1.00  0.00    -0.203 F 
ATOM     66  C   UNL A   1      44.991  26.905  36.074  1.00  0.00     0.198 A 
ATOM     67  C   UNL A   1      46.421  28.486  34.964  1.00  0.00     0.198 A 
ATOM     68  F   UNL A   1      45.483  30.260  33.735  1.00  0.00    -0.203 F 
ATOM     69  F   UNL A   1      44.838  25.841  36.873  1.00  0.00    -0.200 F 
ATOM     70  C   UNL A   1      46.263  27.363  35.763  1.00  0.00     0.200 A 
ATOM     71  F   UNL A   1      47.650  28.922  34.654  1.00  0.00    -0.200 F 
ATOM     72  F   UNL A   1      47.339  26.727  36.244  1.00  0.00    -0.200 F 
ENDBRANCH  39  62
ENDBRANCH  13  14
ENDBRANCH   6   8
ENDBRANCH   5   6
ENDBRANCH   4   5
ENDBRANCH   3   4
ENDBRANCH   2   3
ENDBRANCH   1   2
BRANCH   1  73
ATOM     73  C   UNL A   1      32.716  29.389  24.970  1.00  0.00     0.188 C 
BRANCH  73  74
ATOM     74  O   UNL A   1      32.616  28.865  23.648  1.00  0.00    -0.376 OA
BRANCH  74  75
ATOM     75  C   UNL A   1      31.287  28.741  23.153  1.00  0.00     0.202 C 
BRANCH  75  76
ATOM     76  C   UNL A   1      31.027  27.521  22.256  1.00  0.00     0.261 C 
BRANCH  76  77
ATOM     77  O   UNL A   1      31.583  26.219  22.560  1.00  0.00    -0.462 OA
BRANCH  77  78
ATOM     78  C   UNL A   1      32.771  25.760  22.086  1.00  0.00     0.329 C 
ATOM     79  O   UNL A   1      33.186  25.921  20.949  1.00  0.00    -0.250 OA
BRANCH  78  80
ATOM     80  C   UNL A   1      33.572  25.066  23.212  1.00  0.00     0.197 C 
ATOM     81  C   UNL A   1      33.660  25.768  24.572  1.00  0.00     0.038 C 
ATOM     82  N   UNL A   1      33.405  23.610  23.440  1.00  0.00    -0.308 N 
ATOM     83  C   UNL A   1      34.827  25.181  25.388  1.00  0.00     0.008 C 
ATOM     84  C   UNL A   1      34.568  22.980  24.131  1.00  0.00     0.091 C 
ATOM     85  C   UNL A   1      34.728  23.652  25.513  1.00  0.00     0.012 C 
ATOM     86  C   UNL A   1      35.866  22.957  23.303  1.00  0.00     0.025 C 
ATOM     87  C   UNL A   1      35.912  23.044  26.272  1.00  0.00     0.006 C 
ATOM     88  C   UNL A   1      37.127  22.582  24.090  1.00  0.00     0.002 C 
ATOM     89  C   UNL A   1      37.219  23.154  25.501  1.00  0.00     0.000 C 
BRANCH  82  90
ATOM     90  C   UNL A   1      32.246  22.875  23.491  1.00  0.00     0.318 C 
ATOM     91  O   UNL A   1      31.976  22.039  22.618  1.00  0.00    -0.249 OA
ATOM     92  N   UNL A   1      31.322  22.944  24.470  1.00  0.00    -0.335 N 
ATOM     93  H   UNL A   1      30.565  22.342  24.285  1.00  0.00     0.165 HD
BRANCH  92  94
ATOM     94  C   UNL A   1      31.132  23.641  25.688  1.00  0.00     0.084 C 
ATOM     95  C   UNL A   1      30.158  23.076  26.695  1.00  0.00     0.027 C 
ATOM     96  C   UNL A   1      31.619  23.045  26.990  1.00  0.00     0.027 C 
ENDBRANCH  92  94
ENDBRANCH  82  90
ENDBRANCH  78  80
ENDBRANCH  77  78
ENDBRANCH  76  77
ENDBRANCH  75  76
ENDBRANCH  74  75
ENDBRANCH  73  74
ENDBRANCH   1  73
TORSDOF 19
ENDMDL
MODEL 2
REMARK VINA RESULT:     -11.4      0.250      1.924
REMARK SMILES O=C(OCCOCCOCCOC(=O)[C@H]1CC[C@@H]2CCCC[C@@H]2N1C(=O)NC1CC1)c1ccc(-c2c3nc(c(-c4c(F)c(F)c(F)c(F)c4F)c4ccc([nH]4)c(-c4c(F)c(F)c(F)c(F)c4F)c4nc(c(-c5c(F)c(F)c(F)c(F)c5F)c5ccc2[nH]5)C=C4)C=C3)cc1
REMARK SMILES IDX 7 1 6 2 5 3 4 4 3 5 2 6 1 7 31 8 32 9 93 10 33 11 92 12
REMARK SMILES IDX 34 13 35 14 36 15 86 16 37 17 91 18 85 19 87 20 38 21 90 22
REMARK SMILES IDX 84 23 83 24 39 26 71 27 51 28 70 29 52 30 55 31 69 32 88 33
REMARK SMILES IDX 53 34 54 35 68 37 89 38 56 39 40 40 41 41 49 42 42 43 43 44
REMARK SMILES IDX 47 45 50 46 44 47 45 48 48 49 46 50 72 51 73 52 81 53 74 54
REMARK SMILES IDX 75 55 79 56 82 57 76 58 77 59 80 60 78 61 57 62 58 63 66 64
REMARK SMILES IDX 59 65 60 66 64 67 67 68 61 69 62 70 65 71 63 72 8 73 9 74
REMARK SMILES IDX 10 75 11 76 12 77 13 78 14 79 15 80 16 81 24 82 17 83 23 84
REMARK SMILES IDX 18 85 22 86 19 87 21 88 20 89 25 90 26 91 27 92 28 94 29 95
REMARK SMILES IDX 30 96
REMARK H PARENT 87 25 55 36 27 93
REMARK Flexibility Score: inf
ROOT
ATOM      1  C   UNL A   1      31.578  30.063  25.513  1.00  0.00     0.188 C 
ENDROOT
BRANCH   1   2
ATOM      2  O   UNL A   1      31.865  30.719  26.746  1.00  0.00    -0.376 OA
BRANCH   2   3
ATOM      3  C   UNL A   1      31.462  32.089  26.799  1.00  0.00     0.202 C 
BRANCH   3   4
ATOM      4  C   UNL A   1      32.639  33.021  27.113  1.00  0.00     0.261 C 
BRANCH   4   5
ATOM      5  O   UNL A   1      32.227  34.145  27.915  1.00  0.00    -0.460 OA
BRANCH   5   6
ATOM      6  C   UNL A   1      32.982  34.886  28.764  1.00  0.00     0.338 C 
ATOM      7  O   UNL A   1      32.596  36.014  29.070  1.00  0.00    -0.246 OA
BRANCH   6   8
ATOM      8  C   UNL A   1      34.228  34.383  29.424  1.00  0.00     0.060 A 
ATOM      9  C   UNL A   1      35.521  34.554  28.932  1.00  0.00     0.016 A 
ATOM     10  C   UNL A   1      34.083  33.724  30.659  1.00  0.00     0.016 A 
ATOM     11  C   UNL A   1      36.622  34.011  29.570  1.00  0.00     0.010 A 
ATOM     12  C   UNL A   1      35.195  33.210  31.340  1.00  0.00     0.010 A 
ATOM     13  C   UNL A   1      36.467  33.325  30.769  1.00  0.00    -0.014 A 
BRANCH  13  14
ATOM     14  C   UNL A   1      37.652  32.619  31.286  1.00  0.00     0.031 A 
ATOM     15  C   UNL A   1      38.142  32.977  32.651  1.00  0.00     0.074 A 
ATOM     16  C   UNL A   1      38.125  31.542  30.636  1.00  0.00     0.049 A 
ATOM     17  N   UNL A   1      39.137  32.474  33.328  1.00  0.00    -0.248 NA
ATOM     18  C   UNL A   1      37.382  34.014  33.369  1.00  0.00     0.031 C 
ATOM     19  C   UNL A   1      37.575  31.027  29.386  1.00  0.00     0.029 A 
ATOM     20  N   UNL A   1      39.130  30.663  30.936  1.00  0.00    -0.354 N 
ATOM     21  C   UNL A   1      39.118  33.126  34.550  1.00  0.00     0.074 A 
ATOM     22  C   UNL A   1      38.035  34.082  34.518  1.00  0.00     0.031 C 
ATOM     23  C   UNL A   1      38.245  29.926  29.019  1.00  0.00     0.029 A 
ATOM     24  C   UNL A   1      39.318  29.700  29.974  1.00  0.00     0.049 A 
ATOM     25  H   UNL A   1      39.666  30.717  31.760  1.00  0.00     0.167 HD
ATOM     26  C   UNL A   1      39.935  32.926  35.608  1.00  0.00     0.037 A 
ATOM     27  C   UNL A   1      40.284  28.772  29.862  1.00  0.00     0.037 A 
ATOM     28  C   UNL A   1      41.016  31.980  35.598  1.00  0.00     0.049 A 
ATOM     29  C   UNL A   1      41.288  28.688  30.977  1.00  0.00     0.074 A 
ATOM     30  C   UNL A   1      41.988  31.760  36.553  1.00  0.00     0.029 A 
ATOM     31  N   UNL A   1      41.261  31.090  34.557  1.00  0.00    -0.354 N 
ATOM     32  N   UNL A   1      41.331  29.372  32.097  1.00  0.00    -0.248 NA
ATOM     33  C   UNL A   1      42.372  27.713  30.823  1.00  0.00     0.031 C 
ATOM     34  C   UNL A   1      42.845  30.762  36.075  1.00  0.00     0.029 A 
ATOM     35  C   UNL A   1      42.379  30.326  34.841  1.00  0.00     0.049 A 
ATOM     36  H   UNL A   1      40.719  31.014  33.739  1.00  0.00     0.167 HD
ATOM     37  C   UNL A   1      42.430  28.899  32.793  1.00  0.00     0.074 A 
ATOM     38  C   UNL A   1      43.014  27.852  31.975  1.00  0.00     0.031 C 
ATOM     39  C   UNL A   1      42.919  29.292  33.995  1.00  0.00     0.037 A 
BRANCH  26  40
ATOM     40  C   UNL A   1      39.707  33.793  36.807  1.00  0.00     0.064 A 
ATOM     41  C   UNL A   1      38.887  33.383  37.869  1.00  0.00     0.173 A 
ATOM     42  C   UNL A   1      40.270  35.077  36.867  1.00  0.00     0.173 A 
ATOM     43  F   UNL A   1      38.293  32.181  37.838  1.00  0.00    -0.203 F 
ATOM     44  C   UNL A   1      38.619  34.237  38.936  1.00  0.00     0.198 A 
ATOM     45  C   UNL A   1      40.019  35.918  37.947  1.00  0.00     0.198 A 
ATOM     46  F   UNL A   1      41.046  35.522  35.867  1.00  0.00    -0.203 F 
ATOM     47  F   UNL A   1      37.785  33.849  39.911  1.00  0.00    -0.200 F 
ATOM     48  C   UNL A   1      39.188  35.502  38.977  1.00  0.00     0.200 A 
ATOM     49  F   UNL A   1      40.564  37.142  37.980  1.00  0.00    -0.200 F 
ATOM     50  F   UNL A   1      38.919  36.327  39.998  1.00  0.00    -0.200 F 
ENDBRANCH  26  40
BRANCH  27  51
ATOM     51  C   UNL A   1      40.386  27.925  28.642  1.00  0.00     0.064 A 
ATOM     52  C   UNL A   1      39.786  26.662  28.566  1.00  0.00     0.173 A 
ATOM     53  C   UNL A   1      41.118  28.361  27.523  1.00  0.00     0.173 A 
ATOM     54  F   UNL A   1      39.086  26.189  29.608  1.00  0.00    -0.203 F 
ATOM     55  C   UNL A   1      39.937  25.858  27.436  1.00  0.00     0.198 A 
ATOM     56  C   UNL A   1      41.241  27.570  26.383  1.00  0.00     0.198 A 
ATOM     57  F   UNL A   1      41.711  29.564  27.534  1.00  0.00    -0.203 F 
ATOM     58  F   UNL A   1      39.396  24.631  27.413  1.00  0.00    -0.200 F 
ATOM     59  C   UNL A   1      40.661  26.313  26.344  1.00  0.00     0.200 A 
ATOM     60  F   UNL A   1      41.927  28.026  25.326  1.00  0.00    -0.200 F 
ATOM     61  F   UNL A   1      40.808  25.538  25.261  1.00  0.00    -0.200 F 
ENDBRANCH  27  51
BRANCH  39  62
ATOM     62  C   UNL A   1      44.122  28.553  34.493  1.00  0.00     0.064 A 
ATOM     63  C   UNL A   1      45.422  29.007  34.229  1.00  0.00     0.173 A 
ATOM     64  C   UNL A   1      43.967  27.387  35.257  1.00  0.00     0.173 A 
ATOM     65  F   UNL A   1      45.614  30.106  33.485  1.00  0.00    -0.203 F 
ATOM     66  C   UNL A   1      46.528  28.299  34.687  1.00  0.00     0.198 A 
ATOM     67  C   UNL A   1      45.075  26.700  35.740  1.00  0.00     0.198 A 
ATOM     68  F   UNL A   1      42.741  26.920  35.536  1.00  0.00    -0.203 F 
ATOM     69  F   UNL A   1      47.762  28.716  34.376  1.00  0.00    -0.200 F 
ATOM     70  C   UNL A   1      46.353  27.151  35.447  1.00  0.00     0.200 A 
ATOM     71  F   UNL A   1      44.905  25.598  36.483  1.00  0.00    -0.200 F 
ATOM     72  F   UNL A   1      47.420  26.472  35.889  1.00  0.00    -0.200 F 
ENDBRANCH  39  62
ENDBRANCH  13  14
ENDBRANCH   6   8
ENDBRANCH   5   6
ENDBRANCH   4   5
ENDBRANCH   3   4
ENDBRANCH   2   3
ENDBRANCH   1   2
BRANCH   1  73
ATOM     73  C   UNL A   1      32.776  29.297  24.953  1.00  0.00     0.188 C 
BRANCH  73  74
ATOM     74  O   UNL A   1      32.659  29.022  23.559  1.00  0.00    -0.376 OA
BRANCH  74  75
ATOM     75  C   UNL A   1      31.323  28.867  23.090  1.00  0.00     0.202 C 
BRANCH  75  76
ATOM     76  C   UNL A   1      31.053  27.594  22.274  1.00  0.00     0.261 C 
BRANCH  76  77
ATOM     77  O   UNL A   1      31.631  26.317  22.640  1.00  0.00    -0.462 OA
BRANCH  77  78
ATOM     78  C   UNL A   1      32.798  25.831  22.144  1.00  0.00     0.329 C 
ATOM     79  O   UNL A   1      33.206  26.001  21.006  1.00  0.00    -0.250 OA
BRANCH  78  80
ATOM     80  C   UNL A   1      33.589  25.089  23.247  1.00  0.00     0.197 C 
ATOM     81  C   UNL A   1      33.717  25.763  24.619  1.00  0.00     0.038 C 
ATOM     82  N   UNL A   1      33.376  23.635  23.451  1.00  0.00    -0.308 N 
ATOM     83  C   UNL A   1      34.873  25.122  25.409  1.00  0.00     0.008 C 
ATOM     84  C   UNL A   1      34.525  22.954  24.116  1.00  0.00     0.091 C 
ATOM     85  C   UNL A   1      34.725  23.594  25.507  1.00  0.00     0.012 C 
ATOM     86  C   UNL A   1      35.811  22.903  23.270  1.00  0.00     0.025 C 
ATOM     87  C   UNL A   1      35.896  22.933  26.240  1.00  0.00     0.006 C 
ATOM     88  C   UNL A   1      37.068  22.472  24.035  1.00  0.00     0.002 C 
ATOM     89  C   UNL A   1      37.197  23.014  25.455  1.00  0.00     0.000 C 
BRANCH  82  90
ATOM     90  C   UNL A   1      32.193  22.940  23.503  1.00  0.00     0.318 C 
ATOM     91  O   UNL A   1      31.933  22.053  22.679  1.00  0.00    -0.249 OA
ATOM     92  N   UNL A   1      31.234  23.102  24.436  1.00  0.00    -0.335 N 
ATOM     93  H   UNL A   1      30.467  22.510  24.260  1.00  0.00     0.165 HD
BRANCH  92  94
ATOM     94  C   UNL A   1      31.018  23.887  25.595  1.00  0.00     0.084 C 
ATOM     95  C   UNL A   1      30.216  23.290  26.728  1.00  0.00     0.027 C 
ATOM     96  C   UNL A   1      31.680  23.512  26.901  1.00  0.00     0.027 C 
ENDBRANCH  92  94
ENDBRANCH  82  90
ENDBRANCH  78  80
ENDBRANCH  77  78
ENDBRANCH  76  77
ENDBRANCH  75  76
ENDBRANCH  74  75
ENDBRANCH  73  74
ENDBRANCH   1  73
TORSDOF 19
ENDMDL
MODEL 3
REMARK VINA RESULT:     -11.1      1.048      2.443
REMARK SMILES O=C(OCCOCCOCCOC(=O)[C@H]1CC[C@@H]2CCCC[C@@H]2N1C(=O)NC1CC1)c1ccc(-c2c3nc(c(-c4c(F)c(F)c(F)c(F)c4F)c4ccc([nH]4)c(-c4c(F)c(F)c(F)c(F)c4F)c4nc(c(-c5c(F)c(F)c(F)c(F)c5F)c5ccc2[nH]5)C=C4)C=C3)cc1
REMARK SMILES IDX 7 1 6 2 5 3 4 4 3 5 2 6 1 7 31 8 32 9 93 10 33 11 92 12
REMARK SMILES IDX 34 13 35 14 36 15 86 16 37 17 91 18 85 19 87 20 38 21 90 22
REMARK SMILES IDX 84 23 83 24 39 26 71 27 51 28 70 29 52 30 55 31 69 32 88 33
REMARK SMILES IDX 53 34 54 35 68 37 89 38 56 39 40 40 41 41 49 42 42 43 43 44
REMARK SMILES IDX 47 45 50 46 44 47 45 48 48 49 46 50 72 51 73 52 81 53 74 54
REMARK SMILES IDX 75 55 79 56 82 57 76 58 77 59 80 60 78 61 57 62 58 63 66 64
REMARK SMILES IDX 59 65 60 66 64 67 67 68 61 69 62 70 65 71 63 72 8 73 9 74
REMARK SMILES IDX 10 75 11 76 12 77 13 78 14 79 15 80 16 81 24 82 17 83 23 84
REMARK SMILES IDX 18 85 22 86 19 87 21 88 20 89 25 90 26 91 27 92 28 94 29 95
REMARK SMILES IDX 30 96
REMARK H PARENT 87 25 55 36 27 93
REMARK Flexibility Score: inf
ROOT
ATOM      1  C   UNL A   1      32.094  29.807  25.893  1.00  0.00     0.188 C 
ENDROOT
BRANCH   1   2
ATOM      2  O   UNL A   1      31.402  31.044  25.742  1.00  0.00    -0.376 OA
BRANCH   2   3
ATOM      3  C   UNL A   1      31.339  31.839  26.928  1.00  0.00     0.202 C 
BRANCH   3   4
ATOM      4  C   UNL A   1      32.533  32.797  27.040  1.00  0.00     0.261 C 
BRANCH   4   5
ATOM      5  O   UNL A   1      32.160  34.036  27.673  1.00  0.00    -0.460 OA
BRANCH   5   6
ATOM      6  C   UNL A   1      32.896  34.791  28.528  1.00  0.00     0.338 C 
ATOM      7  O   UNL A   1      32.505  35.924  28.804  1.00  0.00    -0.246 OA
BRANCH   6   8
ATOM      8  C   UNL A   1      34.124  34.296  29.227  1.00  0.00     0.060 A 
ATOM      9  C   UNL A   1      35.434  34.594  28.853  1.00  0.00     0.016 A 
ATOM     10  C   UNL A   1      33.938  33.506  30.376  1.00  0.00     0.016 A 
ATOM     11  C   UNL A   1      36.522  34.054  29.515  1.00  0.00     0.010 A 
ATOM     12  C   UNL A   1      35.033  32.991  31.084  1.00  0.00     0.010 A 
ATOM     13  C   UNL A   1      36.331  33.240  30.626  1.00  0.00    -0.014 A 
BRANCH  13  14
ATOM     14  C   UNL A   1      37.522  32.555  31.158  1.00  0.00     0.031 A 
ATOM     15  C   UNL A   1      38.003  32.941  32.518  1.00  0.00     0.074 A 
ATOM     16  C   UNL A   1      38.008  31.473  30.527  1.00  0.00     0.049 A 
ATOM     17  N   UNL A   1      39.001  32.461  33.207  1.00  0.00    -0.248 NA
ATOM     18  C   UNL A   1      37.229  33.982  33.217  1.00  0.00     0.031 C 
ATOM     19  C   UNL A   1      37.468  30.932  29.284  1.00  0.00     0.029 A 
ATOM     20  N   UNL A   1      39.022  30.611  30.846  1.00  0.00    -0.354 N 
ATOM     21  C   UNL A   1      38.971  33.133  34.418  1.00  0.00     0.074 A 
ATOM     22  C   UNL A   1      37.877  34.076  34.366  1.00  0.00     0.031 C 
ATOM     23  C   UNL A   1      38.151  29.832  28.938  1.00  0.00     0.029 A 
ATOM     24  C   UNL A   1      39.223  29.634  29.900  1.00  0.00     0.049 A 
ATOM     25  H   UNL A   1      39.554  30.684  31.671  1.00  0.00     0.167 HD
ATOM     26  C   UNL A   1      39.786  32.960  35.482  1.00  0.00     0.037 A 
ATOM     27  C   UNL A   1      40.201  28.715  29.807  1.00  0.00     0.037 A 
ATOM     28  C   UNL A   1      40.877  32.025  35.491  1.00  0.00     0.049 A 
ATOM     29  C   UNL A   1      41.202  28.660  30.927  1.00  0.00     0.074 A 
ATOM     30  C   UNL A   1      41.848  31.832  36.453  1.00  0.00     0.029 A 
ATOM     31  N   UNL A   1      41.136  31.121  34.466  1.00  0.00    -0.354 N 
ATOM     32  N   UNL A   1      41.233  29.363  32.035  1.00  0.00    -0.248 NA
ATOM     33  C   UNL A   1      42.297  27.695  30.792  1.00  0.00     0.031 C 
ATOM     34  C   UNL A   1      42.718  30.835  35.994  1.00  0.00     0.029 A 
ATOM     35  C   UNL A   1      42.261  30.374  34.766  1.00  0.00     0.049 A 
ATOM     36  H   UNL A   1      40.598  31.026  33.647  1.00  0.00     0.167 HD
ATOM     37  C   UNL A   1      42.335  28.914  32.742  1.00  0.00     0.074 A 
ATOM     38  C   UNL A   1      42.933  27.860  31.944  1.00  0.00     0.031 C 
ATOM     39  C   UNL A   1      42.815  29.332  33.939  1.00  0.00     0.037 A 
BRANCH  26  40
ATOM     40  C   UNL A   1      39.545  33.844  36.666  1.00  0.00     0.064 A 
ATOM     41  C   UNL A   1      40.106  35.127  36.755  1.00  0.00     0.173 A 
ATOM     42  C   UNL A   1      38.789  33.379  37.752  1.00  0.00     0.173 A 
ATOM     43  F   UNL A   1      40.871  35.600  35.759  1.00  0.00    -0.203 F 
ATOM     44  C   UNL A   1      39.940  35.902  37.900  1.00  0.00     0.198 A 
ATOM     45  C   UNL A   1      38.606  34.166  38.885  1.00  0.00     0.198 A 
ATOM     46  F   UNL A   1      38.248  32.152  37.722  1.00  0.00    -0.203 F 
ATOM     47  F   UNL A   1      40.535  37.099  37.990  1.00  0.00    -0.200 F 
ATOM     48  C   UNL A   1      39.188  35.423  38.962  1.00  0.00     0.200 A 
ATOM     49  F   UNL A   1      37.884  33.698  39.913  1.00  0.00    -0.200 F 
ATOM     50  F   UNL A   1      39.039  36.165  40.069  1.00  0.00    -0.200 F 
ENDBRANCH  26  40
BRANCH  27  51
ATOM     51  C   UNL A   1      40.316  27.849  28.601  1.00  0.00     0.064 A 
ATOM     52  C   UNL A   1      39.751  26.568  28.554  1.00  0.00     0.173 A 
ATOM     53  C   UNL A   1      41.025  28.285  27.468  1.00  0.00     0.173 A 
ATOM     54  F   UNL A   1      39.074  26.095  29.611  1.00  0.00    -0.203 F 
ATOM     55  C   UNL A   1      39.916  25.748  27.437  1.00  0.00     0.198 A 
ATOM     56  C   UNL A   1      41.162  27.477  26.341  1.00  0.00     0.198 A 
ATOM     57  F   UNL A   1      41.584  29.504  27.452  1.00  0.00    -0.203 F 
ATOM     58  F   UNL A   1      39.410  24.506  27.441  1.00  0.00    -0.200 F 
ATOM     59  C   UNL A   1      40.617  26.204  26.331  1.00  0.00     0.200 A 
ATOM     60  F   UNL A   1      41.825  27.933  25.270  1.00  0.00    -0.200 F 
ATOM     61  F   UNL A   1      40.776  25.413  25.261  1.00  0.00    -0.200 F 
ENDBRANCH  27  51
BRANCH  39  62
ATOM     62  C   UNL A   1      44.025  28.615  34.454  1.00  0.00     0.064 A 
ATOM     63  C   UNL A   1      45.320  29.079  34.186  1.00  0.00     0.173 A 
ATOM     64  C   UNL A   1      43.880  27.461  35.237  1.00  0.00     0.173 A 
ATOM     65  F   UNL A   1      45.503  30.167  33.425  1.00  0.00    -0.203 F 
ATOM     66  C   UNL A   1      46.432  28.391  34.660  1.00  0.00     0.198 A 
ATOM     67  C   UNL A   1      44.993  26.794  35.734  1.00  0.00     0.198 A 
ATOM     68  F   UNL A   1      42.657  26.984  35.520  1.00  0.00    -0.203 F 
ATOM     69  F   UNL A   1      47.663  28.816  34.345  1.00  0.00    -0.200 F 
ATOM     70  C   UNL A   1      46.268  27.254  35.438  1.00  0.00     0.200 A 
ATOM     71  F   UNL A   1      44.833  25.703  36.496  1.00  0.00    -0.200 F 
ATOM     72  F   UNL A   1      47.340  26.594  35.894  1.00  0.00    -0.200 F 
ENDBRANCH  39  62
ENDBRANCH  13  14
ENDBRANCH   6   8
ENDBRANCH   5   6
ENDBRANCH   4   5
ENDBRANCH   3   4
ENDBRANCH   2   3
ENDBRANCH   1   2
BRANCH   1  73
ATOM     73  C   UNL A   1      31.775  29.103  27.211  1.00  0.00     0.188 C 
BRANCH  73  74
ATOM     74  O   UNL A   1      31.684  27.686  27.078  1.00  0.00    -0.376 OA
BRANCH  74  75
ATOM     75  C   UNL A   1      32.815  27.070  26.470  1.00  0.00     0.202 C 
BRANCH  75  76
ATOM     76  C   UNL A   1      32.556  25.695  25.836  1.00  0.00     0.261 C 
BRANCH  76  77
ATOM     77  O   UNL A   1      31.766  24.683  26.506  1.00  0.00    -0.462 OA
BRANCH  77  78
ATOM     78  C   UNL A   1      31.605  23.411  26.057  1.00  0.00     0.329 C 
ATOM     79  O   UNL A   1      30.532  22.849  25.899  1.00  0.00    -0.250 OA
BRANCH  78  80
ATOM     80  C   UNL A   1      32.972  22.787  25.692  1.00  0.00     0.197 C 
ATOM     81  C   UNL A   1      33.284  21.379  26.215  1.00  0.00     0.038 C 
ATOM     82  N   UNL A   1      33.484  22.901  24.305  1.00  0.00    -0.308 N 
ATOM     83  C   UNL A   1      34.801  21.120  26.144  1.00  0.00     0.008 C 
ATOM     84  C   UNL A   1      34.967  22.767  24.206  1.00  0.00     0.091 C 
ATOM     85  C   UNL A   1      35.360  21.369  24.733  1.00  0.00     0.012 C 
ATOM     86  C   UNL A   1      35.756  23.917  24.861  1.00  0.00     0.025 C 
ATOM     87  C   UNL A   1      36.877  21.172  24.657  1.00  0.00     0.006 C 
ATOM     88  C   UNL A   1      37.258  23.657  25.023  1.00  0.00     0.002 C 
ATOM     89  C   UNL A   1      37.644  22.237  25.427  1.00  0.00     0.000 C 
BRANCH  82  90
ATOM     90  C   UNL A   1      32.815  22.702  23.123  1.00  0.00     0.318 C 
ATOM     91  O   UNL A   1      32.291  21.612  22.857  1.00  0.00    -0.249 OA
ATOM     92  N   UNL A   1      32.622  23.635  22.169  1.00  0.00    -0.335 N 
ATOM     93  H   UNL A   1      32.134  23.260  21.401  1.00  0.00     0.165 HD
BRANCH  92  94
ATOM     94  C   UNL A   1      32.927  25.003  21.961  1.00  0.00     0.084 C 
ATOM     95  C   UNL A   1      32.598  25.616  20.620  1.00  0.00     0.027 C 
ATOM     96  C   UNL A   1      31.816  26.018  21.824  1.00  0.00     0.027 C 
ENDBRANCH  92  94
ENDBRANCH  82  90
ENDBRANCH  78  80
ENDBRANCH  77  78
ENDBRANCH  76  77
ENDBRANCH  75  76
ENDBRANCH  74  75
ENDBRANCH  73  74
ENDBRANCH   1  73
TORSDOF 19
ENDMDL
