MODEL 1
REMARK VINA RESULT:     -11.3      0.000      0.000
REMARK SMILES O=C(OCCOCCOCCOC(=O)c1cccc2c(C(F)(F)F)cc(Br)nc12)c1ccc(-c2c3nc(c(-c4c(F)c(F)c(F)c(F)c4F)c4ccc([nH]4)c(-c4c(F)c(F)c(F)c(F)c4F)c4nc(c(-c5c(F)c(F)c(F)c(F)c5F)c5ccc2[nH]5)C=C4)C=C3)cc1
REMARK SMILES IDX 7 1 6 2 5 3 4 4 3 5 2 6 1 7 30 8 31 9 92 10 32 11 91 12
REMARK SMILES IDX 33 13 34 14 35 15 85 16 36 17 90 18 84 19 86 20 37 21 89 22
REMARK SMILES IDX 83 23 82 24 38 26 70 27 50 28 69 29 51 30 54 31 68 32 87 33
REMARK SMILES IDX 52 34 53 35 67 37 88 38 55 39 39 40 40 41 48 42 41 43 42 44
REMARK SMILES IDX 46 45 49 46 43 47 44 48 47 49 45 50 71 51 72 52 80 53 73 54
REMARK SMILES IDX 74 55 78 56 81 57 75 58 76 59 79 60 77 61 56 62 57 63 65 64
REMARK SMILES IDX 58 65 59 66 63 67 66 68 60 69 61 70 64 71 62 72 8 73 9 74
REMARK SMILES IDX 10 75 11 76 12 77 13 78 14 79 15 80 16 81 29 82 17 83 19 84
REMARK SMILES IDX 28 85 18 86 20 87 26 88 25 89 27 90 21 91 22 92 23 93 24 94
REMARK H PARENT 86 25 54 36
REMARK Flexibility Score: inf
ROOT
ATOM      1  C   UNL A   1      31.868  29.506  26.408  1.00  0.00     0.188 C 
ENDROOT
BRANCH   1   2
ATOM      2  O   UNL A   1      32.388  30.825  26.638  1.00  0.00    -0.376 OA
BRANCH   2   3
ATOM      3  C   UNL A   1      31.367  31.806  26.805  1.00  0.00     0.202 C 
BRANCH   3   4
ATOM      4  C   UNL A   1      31.858  33.246  26.663  1.00  0.00     0.261 C 
BRANCH   4   5
ATOM      5  O   UNL A   1      32.528  33.741  27.829  1.00  0.00    -0.460 OA
BRANCH   5   6
ATOM      6  C   UNL A   1      33.832  34.060  28.008  1.00  0.00     0.338 C 
ATOM      7  O   UNL A   1      34.152  35.236  27.821  1.00  0.00    -0.246 OA
BRANCH   6   8
ATOM      8  C   UNL A   1      34.931  33.111  28.410  1.00  0.00     0.060 A 
ATOM      9  C   UNL A   1      36.243  33.629  28.356  1.00  0.00     0.016 A 
ATOM     10  C   UNL A   1      34.788  31.801  28.876  1.00  0.00     0.016 A 
ATOM     11  C   UNL A   1      37.349  32.896  28.805  1.00  0.00     0.010 A 
ATOM     12  C   UNL A   1      35.883  31.069  29.349  1.00  0.00     0.010 A 
ATOM     13  C   UNL A   1      37.164  31.623  29.347  1.00  0.00    -0.014 A 
BRANCH  13  14
ATOM     14  C   UNL A   1      38.247  30.950  30.096  1.00  0.00     0.031 A 
ATOM     15  C   UNL A   1      39.034  29.821  29.513  1.00  0.00     0.074 A 
ATOM     16  C   UNL A   1      38.435  31.316  31.378  1.00  0.00     0.049 A 
ATOM     17  N   UNL A   1      40.066  29.199  30.023  1.00  0.00    -0.248 NA
ATOM     18  C   UNL A   1      38.604  29.309  28.206  1.00  0.00     0.031 C 
ATOM     19  C   UNL A   1      37.651  32.332  32.083  1.00  0.00     0.029 A 
ATOM     20  N   UNL A   1      39.314  30.857  32.323  1.00  0.00    -0.354 N 
ATOM     21  C   UNL A   1      40.450  28.266  29.073  1.00  0.00     0.074 A 
ATOM     22  C   UNL A   1      39.484  28.337  27.999  1.00  0.00     0.031 C 
ATOM     23  C   UNL A   1      38.072  32.407  33.353  1.00  0.00     0.029 A 
ATOM     24  C   UNL A   1      39.157  31.450  33.549  1.00  0.00     0.049 A 
ATOM     25  H   UNL A   1      39.994  30.168  32.139  1.00  0.00     0.167 HD
ATOM     26  C   UNL A   1      41.532  27.454  29.091  1.00  0.00     0.037 A 
ATOM     27  C   UNL A   1      39.818  31.252  34.704  1.00  0.00     0.037 A 
ATOM     28  C   UNL A   1      42.446  27.348  30.198  1.00  0.00     0.049 A 
ATOM     29  C   UNL A   1      40.969  30.290  34.729  1.00  0.00     0.074 A 
ATOM     30  C   UNL A   1      43.616  26.614  30.287  1.00  0.00     0.029 A 
ATOM     31  N   UNL A   1      42.263  27.965  31.426  1.00  0.00    -0.354 N 
ATOM     32  N   UNL A   1      41.444  29.552  33.756  1.00  0.00    -0.248 NA
ATOM     33  C   UNL A   1      41.694  30.152  35.999  1.00  0.00     0.031 C 
ATOM     34  C   UNL A   1      44.113  26.746  31.587  1.00  0.00     0.029 A 
ATOM     35  C   UNL A   1      43.274  27.591  32.296  1.00  0.00     0.049 A 
ATOM     36  H   UNL A   1      41.524  28.577  31.647  1.00  0.00     0.167 HD
ATOM     37  C   UNL A   1      42.540  28.886  34.282  1.00  0.00     0.074 A 
ATOM     38  C   UNL A   1      42.660  29.304  35.664  1.00  0.00     0.031 C 
ATOM     39  C   UNL A   1      43.377  28.016  33.668  1.00  0.00     0.037 A 
BRANCH  26  40
ATOM     40  C   UNL A   1      41.834  26.655  27.860  1.00  0.00     0.064 A 
ATOM     41  C   UNL A   1      42.739  27.139  26.904  1.00  0.00     0.173 A 
ATOM     42  C   UNL A   1      41.315  25.365  27.684  1.00  0.00     0.173 A 
ATOM     43  F   UNL A   1      43.253  28.372  27.023  1.00  0.00    -0.203 F 
ATOM     44  C   UNL A   1      43.110  26.362  25.810  1.00  0.00     0.198 A 
ATOM     45  C   UNL A   1      41.700  24.585  26.595  1.00  0.00     0.198 A 
ATOM     46  F   UNL A   1      40.452  24.856  28.574  1.00  0.00    -0.203 F 
ATOM     47  F   UNL A   1      43.955  26.858  24.896  1.00  0.00    -0.200 F 
ATOM     48  C   UNL A   1      42.597  25.083  25.661  1.00  0.00     0.200 A 
ATOM     49  F   UNL A   1      41.208  23.346  26.454  1.00  0.00    -0.200 F 
ATOM     50  F   UNL A   1      42.963  24.333  24.613  1.00  0.00    -0.200 F 
ENDBRANCH  26  40
BRANCH  27  51
ATOM     51  C   UNL A   1      39.429  32.038  35.899  1.00  0.00     0.064 A 
ATOM     52  C   UNL A   1      39.991  33.296  36.142  1.00  0.00     0.173 A 
ATOM     53  C   UNL A   1      38.433  31.580  36.775  1.00  0.00     0.173 A 
ATOM     54  F   UNL A   1      40.953  33.766  35.334  1.00  0.00    -0.203 F 
ATOM     55  C   UNL A   1      39.573  34.072  37.220  1.00  0.00     0.198 A 
ATOM     56  C   UNL A   1      38.003  32.366  37.842  1.00  0.00     0.198 A 
ATOM     57  F   UNL A   1      37.857  30.386  36.575  1.00  0.00    -0.203 F 
ATOM     58  F   UNL A   1      40.135  35.268  37.439  1.00  0.00    -0.200 F 
ATOM     59  C   UNL A   1      38.572  33.611  38.063  1.00  0.00     0.200 A 
ATOM     60  F   UNL A   1      37.025  31.924  38.645  1.00  0.00    -0.200 F 
ATOM     61  F   UNL A   1      38.157  34.367  39.088  1.00  0.00    -0.200 F 
ENDBRANCH  27  51
BRANCH  39  62
ATOM     62  C   UNL A   1      44.509  27.460  34.475  1.00  0.00     0.064 A 
ATOM     63  C   UNL A   1      44.415  26.203  35.088  1.00  0.00     0.173 A 
ATOM     64  C   UNL A   1      45.723  28.154  34.569  1.00  0.00     0.173 A 
ATOM     65  F   UNL A   1      43.268  25.510  35.034  1.00  0.00    -0.203 F 
ATOM     66  C   UNL A   1      45.499  25.661  35.772  1.00  0.00     0.198 A 
ATOM     67  C   UNL A   1      46.812  27.601  35.235  1.00  0.00     0.198 A 
ATOM     68  F   UNL A   1      45.860  29.357  33.991  1.00  0.00    -0.203 F 
ATOM     69  F   UNL A   1      45.383  24.468  36.370  1.00  0.00    -0.200 F 
ATOM     70  C   UNL A   1      46.699  26.356  35.837  1.00  0.00     0.200 A 
ATOM     71  F   UNL A   1      47.974  28.267  35.285  1.00  0.00    -0.200 F 
ATOM     72  F   UNL A   1      47.747  25.826  36.481  1.00  0.00    -0.200 F 
ENDBRANCH  39  62
ENDBRANCH  13  14
ENDBRANCH   6   8
ENDBRANCH   5   6
ENDBRANCH   4   5
ENDBRANCH   3   4
ENDBRANCH   2   3
ENDBRANCH   1   2
BRANCH   1  73
ATOM     73  C   UNL A   1      31.350  29.362  24.975  1.00  0.00     0.188 C 
BRANCH  73  74
ATOM     74  O   UNL A   1      31.613  28.094  24.369  1.00  0.00    -0.376 OA
BRANCH  74  75
ATOM     75  C   UNL A   1      32.435  27.195  25.105  1.00  0.00     0.202 C 
BRANCH  75  76
ATOM     76  C   UNL A   1      33.853  26.961  24.572  1.00  0.00     0.261 C 
BRANCH  76  77
ATOM     77  O   UNL A   1      34.292  25.590  24.556  1.00  0.00    -0.460 OA
BRANCH  77  78
ATOM     78  C   UNL A   1      34.052  24.940  23.389  1.00  0.00     0.340 C 
ATOM     79  O   UNL A   1      34.101  25.405  22.259  1.00  0.00    -0.246 OA
BRANCH  78  80
ATOM     80  C   UNL A   1      33.462  23.620  23.643  1.00  0.00     0.086 A 
ATOM     81  C   UNL A   1      32.158  23.447  23.156  1.00  0.00     0.018 A 
ATOM     82  C   UNL A   1      34.228  22.565  24.152  1.00  0.00     0.087 A 
ATOM     83  C   UNL A   1      31.588  22.188  23.172  1.00  0.00     0.002 A 
ATOM     84  C   UNL A   1      33.640  21.274  24.158  1.00  0.00     0.013 A 
ATOM     85  N   UNL A   1      35.489  22.759  24.593  1.00  0.00    -0.240 NA
ATOM     86  C   UNL A   1      32.317  21.115  23.675  1.00  0.00     0.011 A 
ATOM     87  C   UNL A   1      34.424  20.183  24.613  1.00  0.00     0.068 A 
ATOM     88  C   UNL A   1      36.211  21.708  25.028  1.00  0.00     0.107 A 
ATOM     89  C   UNL A   1      35.728  20.419  25.059  1.00  0.00     0.049 A 
ATOM     90  Br  UNL A   1      37.993  22.026  25.586  1.00  0.00    -0.029 Br
BRANCH  87  91
ATOM     91  C   UNL A   1      33.912  18.763  24.587  1.00  0.00     0.417 C 
ATOM     92  F   UNL A   1      34.908  17.845  24.708  1.00  0.00    -0.166 F 
ATOM     93  F   UNL A   1      33.032  18.506  25.594  1.00  0.00    -0.166 F 
ATOM     94  F   UNL A   1      33.256  18.445  23.436  1.00  0.00    -0.166 F 
ENDBRANCH  87  91
ENDBRANCH  78  80
ENDBRANCH  77  78
ENDBRANCH  76  77
ENDBRANCH  75  76
ENDBRANCH  74  75
ENDBRANCH  73  74
ENDBRANCH   1  73
TORSDOF 18
ENDMDL
MODEL 2
REMARK VINA RESULT:     -11.3      2.053      7.556
REMARK SMILES O=C(OCCOCCOCCOC(=O)c1cccc2c(C(F)(F)F)cc(Br)nc12)c1ccc(-c2c3nc(c(-c4c(F)c(F)c(F)c(F)c4F)c4ccc([nH]4)c(-c4c(F)c(F)c(F)c(F)c4F)c4nc(c(-c5c(F)c(F)c(F)c(F)c5F)c5ccc2[nH]5)C=C4)C=C3)cc1
REMARK SMILES IDX 7 1 6 2 5 3 4 4 3 5 2 6 1 7 30 8 31 9 92 10 32 11 91 12
REMARK SMILES IDX 33 13 34 14 35 15 85 16 36 17 90 18 84 19 86 20 37 21 89 22
REMARK SMILES IDX 83 23 82 24 38 26 70 27 50 28 69 29 51 30 54 31 68 32 87 33
REMARK SMILES IDX 52 34 53 35 67 37 88 38 55 39 39 40 40 41 48 42 41 43 42 44
REMARK SMILES IDX 46 45 49 46 43 47 44 48 47 49 45 50 71 51 72 52 80 53 73 54
REMARK SMILES IDX 74 55 78 56 81 57 75 58 76 59 79 60 77 61 56 62 57 63 65 64
REMARK SMILES IDX 58 65 59 66 63 67 66 68 60 69 61 70 64 71 62 72 8 73 9 74
REMARK SMILES IDX 10 75 11 76 12 77 13 78 14 79 15 80 16 81 29 82 17 83 19 84
REMARK SMILES IDX 28 85 18 86 20 87 26 88 25 89 27 90 21 91 22 92 23 93 24 94
REMARK H PARENT 86 25 54 36
REMARK Flexibility Score: inf
ROOT
ATOM      1  C   UNL A   1      31.018  29.711  24.862  1.00  0.00     0.188 C 
ENDROOT
BRANCH   1   2
ATOM      2  O   UNL A   1      32.068  30.447  25.508  1.00  0.00    -0.376 OA
BRANCH   2   3
ATOM      3  C   UNL A   1      31.591  31.315  26.533  1.00  0.00     0.202 C 
BRANCH   3   4
ATOM      4  C   UNL A   1      32.698  32.028  27.310  1.00  0.00     0.261 C 
BRANCH   4   5
ATOM      5  O   UNL A   1      32.411  33.405  27.585  1.00  0.00    -0.460 OA
BRANCH   5   6
ATOM      6  C   UNL A   1      33.058  34.279  28.391  1.00  0.00     0.338 C 
ATOM      7  O   UNL A   1      32.531  35.381  28.561  1.00  0.00    -0.246 OA
BRANCH   6   8
ATOM      8  C   UNL A   1      34.364  34.033  29.101  1.00  0.00     0.060 A 
ATOM      9  C   UNL A   1      34.268  33.465  30.389  1.00  0.00     0.016 A 
ATOM     10  C   UNL A   1      35.651  34.257  28.603  1.00  0.00     0.016 A 
ATOM     11  C   UNL A   1      35.402  33.082  31.117  1.00  0.00     0.010 A 
ATOM     12  C   UNL A   1      36.790  33.856  29.312  1.00  0.00     0.010 A 
ATOM     13  C   UNL A   1      36.671  33.237  30.558  1.00  0.00    -0.014 A 
BRANCH  13  14
ATOM     14  C   UNL A   1      37.852  32.580  31.156  1.00  0.00     0.031 A 
ATOM     15  C   UNL A   1      38.603  33.182  32.300  1.00  0.00     0.074 A 
ATOM     16  C   UNL A   1      38.307  31.460  30.564  1.00  0.00     0.049 A 
ATOM     17  N   UNL A   1      39.601  32.674  32.979  1.00  0.00    -0.248 NA
ATOM     18  C   UNL A   1      38.203  34.528  32.730  1.00  0.00     0.031 C 
ATOM     19  C   UNL A   1      37.716  30.842  29.375  1.00  0.00     0.029 A 
ATOM     20  N   UNL A   1      39.382  30.663  30.855  1.00  0.00    -0.354 N 
ATOM     21  C   UNL A   1      39.906  33.608  33.955  1.00  0.00     0.074 A 
ATOM     22  C   UNL A   1      39.054  34.754  33.724  1.00  0.00     0.031 C 
ATOM     23  C   UNL A   1      38.446  29.773  29.027  1.00  0.00     0.029 A 
ATOM     24  C   UNL A   1      39.550  29.628  29.970  1.00  0.00     0.049 A 
ATOM     25  H   UNL A   1      39.976  30.817  31.625  1.00  0.00     0.167 HD
ATOM     26  C   UNL A   1      40.794  33.494  34.970  1.00  0.00     0.037 A 
ATOM     27  C   UNL A   1      40.487  28.663  29.927  1.00  0.00     0.037 A 
ATOM     28  C   UNL A   1      41.682  32.376  35.146  1.00  0.00     0.049 A 
ATOM     29  C   UNL A   1      41.514  28.594  31.018  1.00  0.00     0.074 A 
ATOM     30  C   UNL A   1      42.564  32.126  36.182  1.00  0.00     0.029 A 
ATOM     31  N   UNL A   1      41.827  31.340  34.236  1.00  0.00    -0.354 N 
ATOM     32  N   UNL A   1      41.668  29.385  32.051  1.00  0.00    -0.248 NA
ATOM     33  C   UNL A   1      42.479  27.489  30.955  1.00  0.00     0.031 C 
ATOM     34  C   UNL A   1      43.282  30.966  35.872  1.00  0.00     0.029 A 
ATOM     35  C   UNL A   1      42.819  30.473  34.663  1.00  0.00     0.049 A 
ATOM     36  H   UNL A   1      41.303  31.236  33.408  1.00  0.00     0.167 HD
ATOM     37  C   UNL A   1      42.723  28.858  32.781  1.00  0.00     0.074 A 
ATOM     38  C   UNL A   1      43.176  27.680  32.068  1.00  0.00     0.031 C 
ATOM     39  C   UNL A   1      43.258  29.307  33.941  1.00  0.00     0.037 A 
BRANCH  26  40
ATOM     40  C   UNL A   1      40.819  34.573  36.009  1.00  0.00     0.064 A 
ATOM     41  C   UNL A   1      39.913  34.547  37.080  1.00  0.00     0.173 A 
ATOM     42  C   UNL A   1      41.808  35.566  36.005  1.00  0.00     0.173 A 
ATOM     43  F   UNL A   1      38.941  33.625  37.122  1.00  0.00    -0.203 F 
ATOM     44  C   UNL A   1      39.994  35.482  38.108  1.00  0.00     0.198 A 
ATOM     45  C   UNL A   1      41.894  36.491  37.044  1.00  0.00     0.198 A 
ATOM     46  F   UNL A   1      42.700  35.627  35.006  1.00  0.00    -0.203 F 
ATOM     47  F   UNL A   1      39.099  35.454  39.106  1.00  0.00    -0.200 F 
ATOM     48  C   UNL A   1      40.988  36.447  38.094  1.00  0.00     0.200 A 
ATOM     49  F   UNL A   1      42.859  37.420  37.033  1.00  0.00    -0.200 F 
ATOM     50  F   UNL A   1      41.070  37.339  39.091  1.00  0.00    -0.200 F 
ENDBRANCH  26  40
BRANCH  27  51
ATOM     51  C   UNL A   1      40.435  27.660  28.836  1.00  0.00     0.064 A 
ATOM     52  C   UNL A   1      39.626  26.524  28.948  1.00  0.00     0.173 A 
ATOM     53  C   UNL A   1      41.131  27.858  27.635  1.00  0.00     0.173 A 
ATOM     54  F   UNL A   1      38.951  26.292  30.083  1.00  0.00    -0.203 F 
ATOM     55  C   UNL A   1      39.513  25.618  27.895  1.00  0.00     0.198 A 
ATOM     56  C   UNL A   1      41.002  26.961  26.576  1.00  0.00     0.198 A 
ATOM     57  F   UNL A   1      41.909  28.939  27.478  1.00  0.00    -0.203 F 
ATOM     58  F   UNL A   1      38.741  24.532  28.031  1.00  0.00    -0.200 F 
ATOM     59  C   UNL A   1      40.193  25.843  26.708  1.00  0.00     0.200 A 
ATOM     60  F   UNL A   1      41.649  27.189  25.425  1.00  0.00    -0.200 F 
ATOM     61  F   UNL A   1      40.068  24.982  25.689  1.00  0.00    -0.200 F 
ENDBRANCH  27  51
BRANCH  39  62
ATOM     62  C   UNL A   1      44.387  28.520  34.531  1.00  0.00     0.064 A 
ATOM     63  C   UNL A   1      44.148  27.425  35.372  1.00  0.00     0.173 A 
ATOM     64  C   UNL A   1      45.714  28.814  34.187  1.00  0.00     0.173 A 
ATOM     65  F   UNL A   1      42.894  27.115  35.737  1.00  0.00    -0.203 F 
ATOM     66  C   UNL A   1      45.201  26.653  35.854  1.00  0.00     0.198 A 
ATOM     67  C   UNL A   1      46.763  28.028  34.654  1.00  0.00     0.198 A 
ATOM     68  F   UNL A   1      45.990  29.849  33.379  1.00  0.00    -0.203 F 
ATOM     69  F   UNL A   1      44.953  25.624  36.675  1.00  0.00    -0.200 F 
ATOM     70  C   UNL A   1      46.505  26.949  35.487  1.00  0.00     0.200 A 
ATOM     71  F   UNL A   1      48.022  28.307  34.288  1.00  0.00    -0.200 F 
ATOM     72  F   UNL A   1      47.517  26.195  35.938  1.00  0.00    -0.200 F 
ENDBRANCH  39  62
ENDBRANCH  13  14
ENDBRANCH   6   8
ENDBRANCH   5   6
ENDBRANCH   4   5
ENDBRANCH   3   4
ENDBRANCH   2   3
ENDBRANCH   1   2
BRANCH   1  73
ATOM     73  C   UNL A   1      31.588  28.590  23.989  1.00  0.00     0.188 C 
BRANCH  73  74
ATOM     74  O   UNL A   1      30.928  27.330  24.128  1.00  0.00    -0.376 OA
BRANCH  74  75
ATOM     75  C   UNL A   1      30.799  26.822  25.452  1.00  0.00     0.202 C 
BRANCH  75  76
ATOM     76  C   UNL A   1      30.068  25.484  25.611  1.00  0.00     0.261 C 
BRANCH  76  77
ATOM     77  O   UNL A   1      30.834  24.313  25.270  1.00  0.00    -0.460 OA
BRANCH  77  78
ATOM     78  C   UNL A   1      31.664  23.883  26.253  1.00  0.00     0.340 C 
ATOM     79  O   UNL A   1      31.405  23.761  27.442  1.00  0.00    -0.246 OA
BRANCH  78  80
ATOM     80  C   UNL A   1      33.047  23.806  25.765  1.00  0.00     0.086 A 
ATOM     81  C   UNL A   1      33.767  25.008  25.823  1.00  0.00     0.018 A 
ATOM     82  C   UNL A   1      33.646  22.577  25.463  1.00  0.00     0.087 A 
ATOM     83  C   UNL A   1      35.126  24.999  25.571  1.00  0.00     0.002 A 
ATOM     84  C   UNL A   1      35.042  22.574  25.214  1.00  0.00     0.013 A 
ATOM     85  N   UNL A   1      32.930  21.432  25.438  1.00  0.00    -0.240 NA
ATOM     86  C   UNL A   1      35.755  23.798  25.261  1.00  0.00     0.011 A 
ATOM     87  C   UNL A   1      35.675  21.330  24.966  1.00  0.00     0.068 A 
ATOM     88  C   UNL A   1      33.553  20.263  25.192  1.00  0.00     0.107 A 
ATOM     89  C   UNL A   1      34.905  20.162  24.951  1.00  0.00     0.049 A 
ATOM     90  Br  UNL A   1      32.513  18.681  25.221  1.00  0.00    -0.029 Br
BRANCH  87  91
ATOM     91  C   UNL A   1      37.167  21.216  24.763  1.00  0.00     0.417 C 
ATOM     92  F   UNL A   1      37.568  19.938  24.524  1.00  0.00    -0.166 F 
ATOM     93  F   UNL A   1      37.610  21.959  23.712  1.00  0.00    -0.166 F 
ATOM     94  F   UNL A   1      37.892  21.634  25.839  1.00  0.00    -0.166 F 
ENDBRANCH  87  91
ENDBRANCH  78  80
ENDBRANCH  77  78
ENDBRANCH  76  77
ENDBRANCH  75  76
ENDBRANCH  74  75
ENDBRANCH  73  74
ENDBRANCH   1  73
TORSDOF 18
ENDMDL
MODEL 3
REMARK VINA RESULT:     -11.2      0.590      7.117
REMARK SMILES O=C(OCCOCCOCCOC(=O)c1cccc2c(C(F)(F)F)cc(Br)nc12)c1ccc(-c2c3nc(c(-c4c(F)c(F)c(F)c(F)c4F)c4ccc([nH]4)c(-c4c(F)c(F)c(F)c(F)c4F)c4nc(c(-c5c(F)c(F)c(F)c(F)c5F)c5ccc2[nH]5)C=C4)C=C3)cc1
REMARK SMILES IDX 7 1 6 2 5 3 4 4 3 5 2 6 1 7 30 8 31 9 92 10 32 11 91 12
REMARK SMILES IDX 33 13 34 14 35 15 85 16 36 17 90 18 84 19 86 20 37 21 89 22
REMARK SMILES IDX 83 23 82 24 38 26 70 27 50 28 69 29 51 30 54 31 68 32 87 33
REMARK SMILES IDX 52 34 53 35 67 37 88 38 55 39 39 40 40 41 48 42 41 43 42 44
REMARK SMILES IDX 46 45 49 46 43 47 44 48 47 49 45 50 71 51 72 52 80 53 73 54
REMARK SMILES IDX 74 55 78 56 81 57 75 58 76 59 79 60 77 61 56 62 57 63 65 64
REMARK SMILES IDX 58 65 59 66 63 67 66 68 60 69 61 70 64 71 62 72 8 73 9 74
REMARK SMILES IDX 10 75 11 76 12 77 13 78 14 79 15 80 16 81 29 82 17 83 19 84
REMARK SMILES IDX 28 85 18 86 20 87 26 88 25 89 27 90 21 91 22 92 23 93 24 94
REMARK H PARENT 86 25 54 36
REMARK Flexibility Score: inf
ROOT
ATOM      1  C   UNL A   1      32.132  29.429  26.200  1.00  0.00     0.188 C 
ENDROOT
BRANCH   1   2
ATOM      2  O   UNL A   1      32.523  30.779  26.493  1.00  0.00    -0.376 OA
BRANCH   2   3
ATOM      3  C   UNL A   1      31.413  31.666  26.620  1.00  0.00     0.202 C 
BRANCH   3   4
ATOM      4  C   UNL A   1      31.798  33.145  26.645  1.00  0.00     0.261 C 
BRANCH   4   5
ATOM      5  O   UNL A   1      32.509  33.534  27.827  1.00  0.00    -0.460 OA
BRANCH   5   6
ATOM      6  C   UNL A   1      33.810  33.873  27.982  1.00  0.00     0.338 C 
ATOM      7  O   UNL A   1      34.115  35.046  27.752  1.00  0.00    -0.246 OA
BRANCH   6   8
ATOM      8  C   UNL A   1      34.924  32.951  28.407  1.00  0.00     0.060 A 
ATOM      9  C   UNL A   1      36.229  33.482  28.322  1.00  0.00     0.016 A 
ATOM     10  C   UNL A   1      34.799  31.657  28.920  1.00  0.00     0.016 A 
ATOM     11  C   UNL A   1      37.347  32.777  28.786  1.00  0.00     0.010 A 
ATOM     12  C   UNL A   1      35.908  30.954  29.409  1.00  0.00     0.010 A 
ATOM     13  C   UNL A   1      37.182  31.522  29.374  1.00  0.00    -0.014 A 
BRANCH  13  14
ATOM     14  C   UNL A   1      38.279  30.889  30.136  1.00  0.00     0.031 A 
ATOM     15  C   UNL A   1      38.627  31.309  31.528  1.00  0.00     0.074 A 
ATOM     16  C   UNL A   1      39.040  29.983  29.494  1.00  0.00     0.049 A 
ATOM     17  N   UNL A   1      39.505  30.783  32.344  1.00  0.00    -0.248 NA
ATOM     18  C   UNL A   1      37.920  32.476  32.071  1.00  0.00     0.031 C 
ATOM     19  C   UNL A   1      38.859  29.576  28.098  1.00  0.00     0.029 A 
ATOM     20  N   UNL A   1      40.133  29.269  29.911  1.00  0.00    -0.354 N 
ATOM     21  C   UNL A   1      39.410  31.511  33.519  1.00  0.00     0.074 A 
ATOM     22  C   UNL A   1      38.461  32.576  33.280  1.00  0.00     0.031 C 
ATOM     23  C   UNL A   1      39.818  28.698  27.770  1.00  0.00     0.029 A 
ATOM     24  C   UNL A   1      40.675  28.478  28.931  1.00  0.00     0.049 A 
ATOM     25  H   UNL A   1      40.493  29.319  30.826  1.00  0.00     0.167 HD
ATOM     26  C   UNL A   1      40.038  31.281  34.695  1.00  0.00     0.037 A 
ATOM     27  C   UNL A   1      41.741  27.658  28.965  1.00  0.00     0.037 A 
ATOM     28  C   UNL A   1      41.031  30.259  34.896  1.00  0.00     0.049 A 
ATOM     29  C   UNL A   1      42.476  27.471  30.258  1.00  0.00     0.074 A 
ATOM     30  C   UNL A   1      41.671  29.893  36.067  1.00  0.00     0.029 A 
ATOM     31  N   UNL A   1      41.558  29.469  33.885  1.00  0.00    -0.354 N 
ATOM     32  N   UNL A   1      42.247  28.030  31.421  1.00  0.00    -0.248 NA
ATOM     33  C   UNL A   1      43.598  26.522  30.256  1.00  0.00     0.031 C 
ATOM     34  C   UNL A   1      42.623  28.917  35.754  1.00  0.00     0.029 A 
ATOM     35  C   UNL A   1      42.549  28.649  34.397  1.00  0.00     0.049 A 
ATOM     36  H   UNL A   1      41.270  29.489  32.944  1.00  0.00     0.167 HD
ATOM     37  C   UNL A   1      43.172  27.481  32.297  1.00  0.00     0.074 A 
ATOM     38  C   UNL A   1      43.969  26.545  31.530  1.00  0.00     0.031 C 
ATOM     39  C   UNL A   1      43.334  27.725  33.619  1.00  0.00     0.037 A 
BRANCH  26  40
ATOM     40  C   UNL A   1      39.637  32.105  35.880  1.00  0.00     0.064 A 
ATOM     41  C   UNL A   1      40.269  33.331  36.138  1.00  0.00     0.173 A 
ATOM     42  C   UNL A   1      38.557  31.736  36.693  1.00  0.00     0.173 A 
ATOM     43  F   UNL A   1      41.315  33.723  35.396  1.00  0.00    -0.203 F 
ATOM     44  C   UNL A   1      39.835  34.156  37.172  1.00  0.00     0.198 A 
ATOM     45  C   UNL A   1      38.117  32.572  37.718  1.00  0.00     0.198 A 
ATOM     46  F   UNL A   1      37.919  30.576  36.481  1.00  0.00    -0.203 F 
ATOM     47  F   UNL A   1      40.473  35.310  37.416  1.00  0.00    -0.200 F 
ATOM     48  C   UNL A   1      38.756  33.780  37.956  1.00  0.00     0.200 A 
ATOM     49  F   UNL A   1      37.070  32.210  38.472  1.00  0.00    -0.200 F 
ATOM     50  F   UNL A   1      38.334  34.581  38.944  1.00  0.00    -0.200 F 
ENDBRANCH  26  40
BRANCH  27  51
ATOM     51  C   UNL A   1      42.116  26.916  27.737  1.00  0.00     0.064 A 
ATOM     52  C   UNL A   1      43.066  27.435  26.850  1.00  0.00     0.173 A 
ATOM     53  C   UNL A   1      41.590  25.644  27.469  1.00  0.00     0.173 A 
ATOM     54  F   UNL A   1      43.587  28.652  27.065  1.00  0.00    -0.203 F 
ATOM     55  C   UNL A   1      43.479  26.709  25.736  1.00  0.00     0.198 A 
ATOM     56  C   UNL A   1      42.018  24.911  26.364  1.00  0.00     0.198 A 
ATOM     57  F   UNL A   1      40.686  25.101  28.297  1.00  0.00    -0.203 F 
ATOM     58  F   UNL A   1      44.382  27.232  24.895  1.00  0.00    -0.200 F 
ATOM     59  C   UNL A   1      42.962  25.443  25.499  1.00  0.00     0.200 A 
ATOM     60  F   UNL A   1      41.527  23.682  26.147  1.00  0.00    -0.200 F 
ATOM     61  F   UNL A   1      43.375  24.737  24.439  1.00  0.00    -0.200 F 
ENDBRANCH  27  51
BRANCH  39  62
ATOM     62  C   UNL A   1      44.404  26.962  34.336  1.00  0.00     0.064 A 
ATOM     63  C   UNL A   1      44.147  25.706  34.901  1.00  0.00     0.173 A 
ATOM     64  C   UNL A   1      45.716  27.456  34.387  1.00  0.00     0.173 A 
ATOM     65  F   UNL A   1      42.904  25.200  34.885  1.00  0.00    -0.203 F 
ATOM     66  C   UNL A   1      45.167  24.970  35.498  1.00  0.00     0.198 A 
ATOM     67  C   UNL A   1      46.737  26.709  34.966  1.00  0.00     0.198 A 
ATOM     68  F   UNL A   1      46.009  28.651  33.854  1.00  0.00    -0.203 F 
ATOM     69  F   UNL A   1      44.896  23.781  36.051  1.00  0.00    -0.200 F 
ATOM     70  C   UNL A   1      46.461  25.468  35.522  1.00  0.00     0.200 A 
ATOM     71  F   UNL A   1      47.990  27.185  34.977  1.00  0.00    -0.200 F 
ATOM     72  F   UNL A   1      47.445  24.752  36.082  1.00  0.00    -0.200 F 
ENDBRANCH  39  62
ENDBRANCH  13  14
ENDBRANCH   6   8
ENDBRANCH   5   6
ENDBRANCH   4   5
ENDBRANCH   3   4
ENDBRANCH   2   3
ENDBRANCH   1   2
BRANCH   1  73
ATOM     73  C   UNL A   1      31.778  29.268  24.720  1.00  0.00     0.188 C 
BRANCH  73  74
ATOM     74  O   UNL A   1      31.681  27.913  24.273  1.00  0.00    -0.376 OA
BRANCH  74  75
ATOM     75  C   UNL A   1      32.389  26.940  25.033  1.00  0.00     0.202 C 
BRANCH  75  76
ATOM     76  C   UNL A   1      33.514  26.186  24.315  1.00  0.00     0.261 C 
BRANCH  76  77
ATOM     77  O   UNL A   1      33.615  24.782  24.623  1.00  0.00    -0.460 OA
BRANCH  77  78
ATOM     78  C   UNL A   1      33.991  24.007  23.574  1.00  0.00     0.340 C 
ATOM     79  O   UNL A   1      34.420  24.381  22.492  1.00  0.00    -0.246 OA
BRANCH  78  80
ATOM     80  C   UNL A   1      33.580  22.614  23.788  1.00  0.00     0.086 A 
ATOM     81  C   UNL A   1      32.298  22.291  23.321  1.00  0.00     0.018 A 
ATOM     82  C   UNL A   1      34.488  21.648  24.239  1.00  0.00     0.087 A 
ATOM     83  C   UNL A   1      31.894  20.970  23.299  1.00  0.00     0.002 A 
ATOM     84  C   UNL A   1      34.070  20.292  24.206  1.00  0.00     0.013 A 
ATOM     85  N   UNL A   1      35.725  21.986  24.661  1.00  0.00    -0.240 NA
ATOM     86  C   UNL A   1      32.767  19.982  23.745  1.00  0.00     0.011 A 
ATOM     87  C   UNL A   1      34.999  19.296  24.601  1.00  0.00     0.068 A 
ATOM     88  C   UNL A   1      36.586  21.022  25.039  1.00  0.00     0.107 A 
ATOM     89  C   UNL A   1      36.273  19.681  25.030  1.00  0.00     0.049 A 
ATOM     90  Br  UNL A   1      38.326  21.547  25.573  1.00  0.00    -0.029 Br
BRANCH  87  91
ATOM     91  C   UNL A   1      34.672  17.823  24.530  1.00  0.00     0.417 C 
ATOM     92  F   UNL A   1      35.694  17.039  24.966  1.00  0.00    -0.166 F 
ATOM     93  F   UNL A   1      33.588  17.491  25.283  1.00  0.00    -0.166 F 
ATOM     94  F   UNL A   1      34.389  17.393  23.269  1.00  0.00    -0.166 F 
ENDBRANCH  87  91
ENDBRANCH  78  80
ENDBRANCH  77  78
ENDBRANCH  76  77
ENDBRANCH  75  76
ENDBRANCH  74  75
ENDBRANCH  73  74
ENDBRANCH   1  73
TORSDOF 18
ENDMDL
