MODEL 1
REMARK VINA RESULT:     -10.3      0.000      0.000
REMARK SMILES CCCCCCNC(=O)Oc1cccc(-c2ccc([C@H](C)C(=O)OCCOCCOCCOC(=O)c3ccc(-c4c5nc(c(-c6c(F)c(F)c(F)c(F)c6F)c6ccc([nH]6)c(-c6c(F)c(F)c(F)c(F)c6F)c6nc(c(-c7c(F)c(F)c(F)c(F)c7F)c7ccc4[nH]7)C=C6)C=C5)cc3)cc2F)c1
REMARK SMILES IDX 25 1 24 2 22 3 23 4 20 5 21 6 19 7 16 8 17 9 100 10 18 11
REMARK SMILES IDX 99 12 101 13 15 14 11 15 12 16 102 17 13 18 14 19 10 20 8 21
REMARK SMILES IDX 7 22 9 24 6 25 5 26 4 27 3 28 2 29 1 30 26 31 27 32 28 33
REMARK SMILES IDX 29 34 30 35 31 36 32 37 33 38 34 39 35 40 36 41 37 42 98 43
REMARK SMILES IDX 38 44 97 45 39 46 40 47 41 48 91 49 42 50 96 51 90 52 92 53
REMARK SMILES IDX 43 54 95 55 89 56 88 57 44 59 76 60 56 61 75 62 57 63 60 64
REMARK SMILES IDX 74 65 93 66 58 67 59 68 73 70 94 71 61 72 45 73 46 74 54 75
REMARK SMILES IDX 47 76 48 77 52 78 55 79 49 80 50 81 53 82 51 83 77 84 78 85
REMARK SMILES IDX 86 86 79 87 80 88 84 89 87 90 81 91 82 92 85 93 83 94 62 95
REMARK SMILES IDX 63 96 71 97 64 98 65 99 69 100 72 101 66 102 67 103 70 104
REMARK SMILES IDX 68 105
REMARK H PARENT 7 23 92 58 60 69
REMARK Flexibility Score: inf
ROOT
ATOM      1  C   UNL A   1      36.953  22.163  25.205  1.00  0.00     0.261 C 
ENDROOT
BRANCH   1   2
ATOM      2  O   UNL A   1      35.604  22.305  24.712  1.00  0.00    -0.463 OA
BRANCH   2   3
ATOM      3  C   UNL A   1      35.466  22.882  23.488  1.00  0.00     0.313 C 
ATOM      4  O   UNL A   1      36.387  23.023  22.688  1.00  0.00    -0.252 OA
BRANCH   3   5
ATOM      5  C   UNL A   1      34.050  23.411  23.195  1.00  0.00     0.126 C 
ATOM      6  C   UNL A   1      32.801  22.575  23.507  1.00  0.00     0.025 C 
BRANCH   5   7
ATOM      7  C   UNL A   1      33.894  24.726  23.907  1.00  0.00    -0.031 A 
ATOM      8  C   UNL A   1      33.583  27.141  25.248  1.00  0.00     0.018 A 
ATOM      9  C   UNL A   1      33.462  25.932  25.946  1.00  0.00     0.012 A 
ATOM     10  C   UNL A   1      33.842  27.119  23.872  1.00  0.00     0.131 A 
ATOM     11  C   UNL A   1      33.609  24.731  25.280  1.00  0.00     0.005 A 
ATOM     12  C   UNL A   1      34.005  25.923  23.198  1.00  0.00     0.044 A 
ATOM     13  F   UNL A   1      33.924  28.261  23.173  1.00  0.00    -0.206 F 
BRANCH   8  14
ATOM     14  C   UNL A   1      33.362  28.383  25.963  1.00  0.00    -0.012 A 
ATOM     15  C   UNL A   1      34.167  30.058  27.488  1.00  0.00     0.133 A 
ATOM     16  C   UNL A   1      33.063  30.862  27.219  1.00  0.00     0.047 A 
ATOM     17  C   UNL A   1      34.307  28.810  26.894  1.00  0.00     0.056 A 
ATOM     18  C   UNL A   1      32.104  30.429  26.306  1.00  0.00     0.004 A 
ATOM     19  C   UNL A   1      32.257  29.197  25.673  1.00  0.00     0.009 A 
BRANCH  15  20
ATOM     20  O   UNL A   1      35.082  30.501  28.447  1.00  0.00    -0.410 OA
BRANCH  20  21
ATOM     21  C   UNL A   1      35.460  31.832  28.416  1.00  0.00     0.412 C 
ATOM     22  N   UNL A   1      35.883  32.289  29.627  1.00  0.00    -0.321 N 
ATOM     23  H   UNL A   1      36.127  33.241  29.687  1.00  0.00     0.167 HD
ATOM     24  O   UNL A   1      35.439  32.578  27.434  1.00  0.00    -0.224 OA
BRANCH  22  25
ATOM     25  C   UNL A   1      36.005  31.497  30.832  1.00  0.00     0.119 C 
BRANCH  25  26
ATOM     26  C   UNL A   1      35.580  32.283  32.068  1.00  0.00     0.021 C 
BRANCH  26  27
ATOM     27  C   UNL A   1      36.086  33.729  32.105  1.00  0.00     0.002 C 
BRANCH  27  28
ATOM     28  C   UNL A   1      34.995  34.795  32.254  1.00  0.00    -0.000 C 
BRANCH  28  29
ATOM     29  C   UNL A   1      34.669  35.194  33.694  1.00  0.00    -0.003 C 
ATOM     30  C   UNL A   1      35.493  34.438  34.724  1.00  0.00     0.004 C 
ENDBRANCH  28  29
ENDBRANCH  27  28
ENDBRANCH  26  27
ENDBRANCH  25  26
ENDBRANCH  22  25
ENDBRANCH  20  21
ENDBRANCH  15  20
ENDBRANCH   8  14
ENDBRANCH   5   7
ENDBRANCH   3   5
ENDBRANCH   2   3
ENDBRANCH   1   2
BRANCH   1  31
ATOM     31  C   UNL A   1      37.560  23.405  25.881  1.00  0.00     0.202 C 
BRANCH  31  32
ATOM     32  O   UNL A   1      38.780  23.285  26.605  1.00  0.00    -0.376 OA
BRANCH  32  33
ATOM     33  C   UNL A   1      39.782  22.377  26.170  1.00  0.00     0.188 C 
BRANCH  33  34
ATOM     34  C   UNL A   1      40.503  21.497  27.197  1.00  0.00     0.188 C 
BRANCH  34  35
ATOM     35  O   UNL A   1      40.758  20.176  26.791  1.00  0.00    -0.376 OA
BRANCH  35  36
ATOM     36  C   UNL A   1      41.988  19.587  27.164  1.00  0.00     0.202 C 
BRANCH  36  37
ATOM     37  C   UNL A   1      42.746  18.726  26.138  1.00  0.00     0.261 C 
BRANCH  37  38
ATOM     38  O   UNL A   1      43.012  19.318  24.853  1.00  0.00    -0.460 OA
BRANCH  38  39
ATOM     39  C   UNL A   1      44.306  19.529  24.512  1.00  0.00     0.338 C 
ATOM     40  O   UNL A   1      45.022  18.789  23.861  1.00  0.00    -0.246 OA
BRANCH  39  41
ATOM     41  C   UNL A   1      44.629  20.943  24.839  1.00  0.00     0.060 A 
ATOM     42  C   UNL A   1      45.172  21.248  26.098  1.00  0.00     0.016 A 
ATOM     43  C   UNL A   1      44.439  21.955  23.898  1.00  0.00     0.016 A 
ATOM     44  C   UNL A   1      45.505  22.566  26.425  1.00  0.00     0.010 A 
ATOM     45  C   UNL A   1      44.746  23.278  24.236  1.00  0.00     0.010 A 
ATOM     46  C   UNL A   1      45.255  23.596  25.509  1.00  0.00    -0.014 A 
BRANCH  46  47
ATOM     47  C   UNL A   1      45.336  25.017  25.933  1.00  0.00     0.031 A 
ATOM     48  C   UNL A   1      46.670  25.709  25.858  1.00  0.00     0.074 A 
ATOM     49  C   UNL A   1      44.262  25.686  26.389  1.00  0.00     0.049 A 
ATOM     50  N   UNL A   1      47.020  26.901  26.270  1.00  0.00    -0.248 NA
ATOM     51  C   UNL A   1      47.760  24.940  25.236  1.00  0.00     0.031 C 
ATOM     52  C   UNL A   1      42.904  25.157  26.466  1.00  0.00     0.029 A 
ATOM     53  N   UNL A   1      44.157  26.962  26.891  1.00  0.00    -0.354 N 
ATOM     54  C   UNL A   1      48.372  27.019  25.972  1.00  0.00     0.074 A 
ATOM     55  C   UNL A   1      48.785  25.769  25.371  1.00  0.00     0.031 C 
ATOM     56  C   UNL A   1      42.103  26.092  27.004  1.00  0.00     0.029 A 
ATOM     57  C   UNL A   1      42.900  27.271  27.347  1.00  0.00     0.049 A 
ATOM     58  H   UNL A   1      44.912  27.593  26.921  1.00  0.00     0.167 HD
ATOM     59  C   UNL A   1      49.194  28.076  26.177  1.00  0.00     0.037 A 
ATOM     60  C   UNL A   1      42.453  28.366  27.996  1.00  0.00     0.037 A 
ATOM     61  C   UNL A   1      48.784  29.316  26.780  1.00  0.00     0.049 A 
ATOM     62  C   UNL A   1      43.408  29.496  28.296  1.00  0.00     0.074 A 
ATOM     63  C   UNL A   1      49.539  30.453  27.013  1.00  0.00     0.029 A 
ATOM     64  N   UNL A   1      47.510  29.579  27.261  1.00  0.00    -0.354 N 
ATOM     65  N   UNL A   1      44.678  29.613  27.995  1.00  0.00    -0.248 NA
ATOM     66  C   UNL A   1      42.863  30.647  29.030  1.00  0.00     0.031 C 
ATOM     67  C   UNL A   1      48.740  31.376  27.695  1.00  0.00     0.029 A 
ATOM     68  C   UNL A   1      47.466  30.846  27.820  1.00  0.00     0.049 A 
ATOM     69  H   UNL A   1      46.748  28.957  27.211  1.00  0.00     0.167 HD
ATOM     70  C   UNL A   1      45.075  30.858  28.469  1.00  0.00     0.074 A 
ATOM     71  C   UNL A   1      43.905  31.466  29.069  1.00  0.00     0.031 C 
ATOM     72  C   UNL A   1      46.296  31.446  28.410  1.00  0.00     0.037 A 
BRANCH  59  73
ATOM     73  C   UNL A   1      50.635  27.916  25.781  1.00  0.00     0.064 A 
ATOM     74  C   UNL A   1      51.062  28.065  24.453  1.00  0.00     0.173 A 
ATOM     75  C   UNL A   1      51.607  27.626  26.752  1.00  0.00     0.173 A 
ATOM     76  F   UNL A   1      50.173  28.328  23.483  1.00  0.00    -0.203 F 
ATOM     77  C   UNL A   1      52.401  27.894  24.107  1.00  0.00     0.198 A 
ATOM     78  C   UNL A   1      52.948  27.491  26.408  1.00  0.00     0.198 A 
ATOM     79  F   UNL A   1      51.255  27.476  28.038  1.00  0.00    -0.203 F 
ATOM     80  F   UNL A   1      52.775  27.981  22.823  1.00  0.00    -0.200 F 
ATOM     81  C   UNL A   1      53.343  27.614  25.085  1.00  0.00     0.200 A 
ATOM     82  F   UNL A   1      53.860  27.237  27.358  1.00  0.00    -0.200 F 
ATOM     83  F   UNL A   1      54.631  27.455  24.751  1.00  0.00    -0.200 F 
ENDBRANCH  59  73
BRANCH  60  84
ATOM     84  C   UNL A   1      41.031  28.448  28.424  1.00  0.00     0.064 A 
ATOM     85  C   UNL A   1      40.047  28.974  27.575  1.00  0.00     0.173 A 
ATOM     86  C   UNL A   1      40.627  28.023  29.700  1.00  0.00     0.173 A 
ATOM     87  F   UNL A   1      40.387  29.425  26.358  1.00  0.00    -0.203 F 
ATOM     88  C   UNL A   1      38.722  29.088  27.989  1.00  0.00     0.198 A 
ATOM     89  C   UNL A   1      39.296  28.109  30.102  1.00  0.00     0.198 A 
ATOM     90  F   UNL A   1      41.528  27.522  30.558  1.00  0.00    -0.203 F 
ATOM     91  F   UNL A   1      37.814  29.645  27.175  1.00  0.00    -0.200 F 
ATOM     92  C   UNL A   1      38.345  28.648  29.249  1.00  0.00     0.200 A 
ATOM     93  F   UNL A   1      38.936  27.674  31.317  1.00  0.00    -0.200 F 
ATOM     94  F   UNL A   1      37.070  28.755  29.644  1.00  0.00    -0.200 F 
ENDBRANCH  60  84
BRANCH  72  95
ATOM     95  C   UNL A   1      46.427  32.838  28.966  1.00  0.00     0.064 A 
ATOM     96  C   UNL A   1      46.173  33.977  28.187  1.00  0.00     0.173 A 
ATOM     97  C   UNL A   1      46.771  33.034  30.313  1.00  0.00     0.173 A 
ATOM     98  F   UNL A   1      45.852  33.851  26.890  1.00  0.00    -0.203 F 
ATOM     99  C   UNL A   1      46.287  35.256  28.727  1.00  0.00     0.198 A 
ATOM    100  C   UNL A   1      46.848  34.312  30.860  1.00  0.00     0.198 A 
ATOM    101  F   UNL A   1      47.016  31.981  31.109  1.00  0.00    -0.203 F 
ATOM    102  F   UNL A   1      46.091  36.331  27.949  1.00  0.00    -0.200 F 
ATOM    103  C   UNL A   1      46.616  35.423  30.065  1.00  0.00     0.200 A 
ATOM    104  F   UNL A   1      47.147  34.468  32.157  1.00  0.00    -0.200 F 
ATOM    105  F   UNL A   1      46.715  36.654  30.585  1.00  0.00    -0.200 F 
ENDBRANCH  72  95
ENDBRANCH  46  47
ENDBRANCH  39  41
ENDBRANCH  38  39
ENDBRANCH  37  38
ENDBRANCH  36  37
ENDBRANCH  35  36
ENDBRANCH  34  35
ENDBRANCH  33  34
ENDBRANCH  32  33
ENDBRANCH  31  32
ENDBRANCH   1  31
TORSDOF 26
ENDMDL
MODEL 2
REMARK VINA RESULT:      -9.8      1.098      2.066
REMARK SMILES CCCCCCNC(=O)Oc1cccc(-c2ccc([C@H](C)C(=O)OCCOCCOCCOC(=O)c3ccc(-c4c5nc(c(-c6c(F)c(F)c(F)c(F)c6F)c6ccc([nH]6)c(-c6c(F)c(F)c(F)c(F)c6F)c6nc(c(-c7c(F)c(F)c(F)c(F)c7F)c7ccc4[nH]7)C=C6)C=C5)cc3)cc2F)c1
REMARK SMILES IDX 25 1 24 2 22 3 23 4 20 5 21 6 19 7 16 8 17 9 100 10 18 11
REMARK SMILES IDX 99 12 101 13 15 14 11 15 12 16 102 17 13 18 14 19 10 20 8 21
REMARK SMILES IDX 7 22 9 24 6 25 5 26 4 27 3 28 2 29 1 30 26 31 27 32 28 33
REMARK SMILES IDX 29 34 30 35 31 36 32 37 33 38 34 39 35 40 36 41 37 42 98 43
REMARK SMILES IDX 38 44 97 45 39 46 40 47 41 48 91 49 42 50 96 51 90 52 92 53
REMARK SMILES IDX 43 54 95 55 89 56 88 57 44 59 76 60 56 61 75 62 57 63 60 64
REMARK SMILES IDX 74 65 93 66 58 67 59 68 73 70 94 71 61 72 45 73 46 74 54 75
REMARK SMILES IDX 47 76 48 77 52 78 55 79 49 80 50 81 53 82 51 83 77 84 78 85
REMARK SMILES IDX 86 86 79 87 80 88 84 89 87 90 81 91 82 92 85 93 83 94 62 95
REMARK SMILES IDX 63 96 71 97 64 98 65 99 69 100 72 101 66 102 67 103 70 104
REMARK SMILES IDX 68 105
REMARK H PARENT 7 23 92 58 60 69
REMARK Flexibility Score: inf
ROOT
ATOM      1  C   UNL A   1      36.637  22.073  25.143  1.00  0.00     0.261 C 
ENDROOT
BRANCH   1   2
ATOM      2  O   UNL A   1      35.347  22.541  24.695  1.00  0.00    -0.463 OA
BRANCH   2   3
ATOM      3  C   UNL A   1      35.276  22.976  23.409  1.00  0.00     0.313 C 
ATOM      4  O   UNL A   1      36.217  22.950  22.622  1.00  0.00    -0.252 OA
BRANCH   3   5
ATOM      5  C   UNL A   1      33.910  23.572  23.018  1.00  0.00     0.126 C 
ATOM      6  C   UNL A   1      32.610  22.773  23.183  1.00  0.00     0.025 C 
BRANCH   5   7
ATOM      7  C   UNL A   1      33.738  24.861  23.773  1.00  0.00    -0.031 A 
ATOM      8  C   UNL A   1      33.399  27.227  25.193  1.00  0.00     0.018 A 
ATOM      9  C   UNL A   1      33.304  25.994  25.853  1.00  0.00     0.012 A 
ATOM     10  C   UNL A   1      33.646  27.253  23.815  1.00  0.00     0.131 A 
ATOM     11  C   UNL A   1      33.465  24.818  25.147  1.00  0.00     0.005 A 
ATOM     12  C   UNL A   1      33.823  26.082  23.101  1.00  0.00     0.044 A 
ATOM     13  F   UNL A   1      33.703  28.418  23.152  1.00  0.00    -0.206 F 
BRANCH   8  14
ATOM     14  C   UNL A   1      33.163  28.442  25.948  1.00  0.00    -0.012 A 
ATOM     15  C   UNL A   1      34.044  30.320  27.163  1.00  0.00     0.133 A 
ATOM     16  C   UNL A   1      32.775  30.884  27.250  1.00  0.00     0.047 A 
ATOM     17  C   UNL A   1      34.242  29.091  26.548  1.00  0.00     0.056 A 
ATOM     18  C   UNL A   1      31.690  30.228  26.672  1.00  0.00     0.004 A 
ATOM     19  C   UNL A   1      31.884  29.015  26.016  1.00  0.00     0.009 A 
BRANCH  15  20
ATOM     20  O   UNL A   1      35.099  30.980  27.798  1.00  0.00    -0.410 OA
BRANCH  20  21
ATOM     21  C   UNL A   1      34.848  32.226  28.347  1.00  0.00     0.412 C 
ATOM     22  N   UNL A   1      35.723  32.552  29.337  1.00  0.00    -0.321 N 
ATOM     23  H   UNL A   1      35.576  33.408  29.802  1.00  0.00     0.167 HD
ATOM     24  O   UNL A   1      33.948  33.003  28.020  1.00  0.00    -0.224 OA
BRANCH  22  25
ATOM     25  C   UNL A   1      36.849  31.750  29.767  1.00  0.00     0.119 C 
BRANCH  25  26
ATOM     26  C   UNL A   1      38.168  32.301  29.234  1.00  0.00     0.021 C 
BRANCH  26  27
ATOM     27  C   UNL A   1      39.251  32.496  30.301  1.00  0.00     0.002 C 
BRANCH  27  28
ATOM     28  C   UNL A   1      40.017  31.227  30.689  1.00  0.00    -0.000 C 
BRANCH  28  29
ATOM     29  C   UNL A   1      40.830  31.327  31.981  1.00  0.00    -0.003 C 
ATOM     30  C   UNL A   1      41.644  30.077  32.272  1.00  0.00     0.004 C 
ENDBRANCH  28  29
ENDBRANCH  27  28
ENDBRANCH  26  27
ENDBRANCH  25  26
ENDBRANCH  22  25
ENDBRANCH  20  21
ENDBRANCH  15  20
ENDBRANCH   8  14
ENDBRANCH   5   7
ENDBRANCH   3   5
ENDBRANCH   2   3
ENDBRANCH   1   2
BRANCH   1  31
ATOM     31  C   UNL A   1      37.604  23.151  25.664  1.00  0.00     0.202 C 
BRANCH  31  32
ATOM     32  O   UNL A   1      38.708  22.769  26.477  1.00  0.00    -0.376 OA
BRANCH  32  33
ATOM     33  C   UNL A   1      39.724  21.926  25.954  1.00  0.00     0.188 C 
BRANCH  33  34
ATOM     34  C   UNL A   1      40.043  20.601  26.655  1.00  0.00     0.188 C 
BRANCH  34  35
ATOM     35  O   UNL A   1      40.927  19.750  25.968  1.00  0.00    -0.376 OA
BRANCH  35  36
ATOM     36  C   UNL A   1      42.117  19.354  26.622  1.00  0.00     0.202 C 
BRANCH  36  37
ATOM     37  C   UNL A   1      43.250  18.724  25.793  1.00  0.00     0.261 C 
BRANCH  37  38
ATOM     38  O   UNL A   1      43.513  19.295  24.499  1.00  0.00    -0.460 OA
BRANCH  38  39
ATOM     39  C   UNL A   1      44.804  19.545  24.169  1.00  0.00     0.338 C 
ATOM     40  O   UNL A   1      45.541  18.834  23.510  1.00  0.00    -0.246 OA
BRANCH  39  41
ATOM     41  C   UNL A   1      45.089  20.961  24.522  1.00  0.00     0.060 A 
ATOM     42  C   UNL A   1      45.648  21.255  25.776  1.00  0.00     0.016 A 
ATOM     43  C   UNL A   1      44.848  21.987  23.609  1.00  0.00     0.016 A 
ATOM     44  C   UNL A   1      45.946  22.575  26.127  1.00  0.00     0.010 A 
ATOM     45  C   UNL A   1      45.120  23.311  23.970  1.00  0.00     0.010 A 
ATOM     46  C   UNL A   1      45.646  23.616  25.240  1.00  0.00    -0.014 A 
BRANCH  46  47
ATOM     47  C   UNL A   1      45.690  25.030  25.695  1.00  0.00     0.031 A 
ATOM     48  C   UNL A   1      47.015  25.744  25.672  1.00  0.00     0.074 A 
ATOM     49  C   UNL A   1      44.593  25.673  26.132  1.00  0.00     0.049 A 
ATOM     50  N   UNL A   1      47.333  26.932  26.119  1.00  0.00    -0.248 NA
ATOM     51  C   UNL A   1      48.135  25.006  25.068  1.00  0.00     0.031 C 
ATOM     52  C   UNL A   1      43.242  25.120  26.159  1.00  0.00     0.029 A 
ATOM     53  N   UNL A   1      44.452  26.935  26.657  1.00  0.00    -0.354 N 
ATOM     54  C   UNL A   1      48.691  27.078  25.863  1.00  0.00     0.074 A 
ATOM     55  C   UNL A   1      49.141  25.847  25.250  1.00  0.00     0.031 C 
ATOM     56  C   UNL A   1      42.410  26.032  26.692  1.00  0.00     0.029 A 
ATOM     57  C   UNL A   1      43.178  27.216  27.082  1.00  0.00     0.049 A 
ATOM     58  H   UNL A   1      45.196  27.577  26.721  1.00  0.00     0.167 HD
ATOM     59  C   UNL A   1      49.490  28.143  26.114  1.00  0.00     0.037 A 
ATOM     60  C   UNL A   1      42.694  28.289  27.739  1.00  0.00     0.037 A 
ATOM     61  C   UNL A   1      49.042  29.364  26.730  1.00  0.00     0.049 A 
ATOM     62  C   UNL A   1      43.622  29.428  28.090  1.00  0.00     0.074 A 
ATOM     63  C   UNL A   1      49.771  30.507  27.007  1.00  0.00     0.029 A 
ATOM     64  N   UNL A   1      47.750  29.597  27.178  1.00  0.00    -0.354 N 
ATOM     65  N   UNL A   1      44.898  29.571  27.829  1.00  0.00    -0.248 NA
ATOM     66  C   UNL A   1      43.037  30.555  28.830  1.00  0.00     0.031 C 
ATOM     67  C   UNL A   1      48.938  31.404  27.684  1.00  0.00     0.029 A 
ATOM     68  C   UNL A   1      47.670  30.851  27.761  1.00  0.00     0.049 A 
ATOM     69  H   UNL A   1      47.001  28.964  27.093  1.00  0.00     0.167 HD
ATOM     70  C   UNL A   1      45.260  30.812  28.340  1.00  0.00     0.074 A 
ATOM     71  C   UNL A   1      44.064  31.389  28.917  1.00  0.00     0.031 C 
ATOM     72  C   UNL A   1      46.473  31.421  28.328  1.00  0.00     0.037 A 
BRANCH  59  73
ATOM     73  C   UNL A   1      50.944  28.014  25.757  1.00  0.00     0.064 A 
ATOM     74  C   UNL A   1      51.906  27.609  26.696  1.00  0.00     0.173 A 
ATOM     75  C   UNL A   1      51.378  28.283  24.450  1.00  0.00     0.173 A 
ATOM     76  F   UNL A   1      51.548  27.353  27.963  1.00  0.00    -0.203 F 
ATOM     77  C   UNL A   1      53.251  27.514  26.347  1.00  0.00     0.198 A 
ATOM     78  C   UNL A   1      52.718  28.153  24.096  1.00  0.00     0.198 A 
ATOM     79  F   UNL A   1      50.501  28.670  23.512  1.00  0.00    -0.203 F 
ATOM     80  F   UNL A   1      54.160  27.185  27.276  1.00  0.00    -0.200 F 
ATOM     81  C   UNL A   1      53.654  27.779  25.047  1.00  0.00     0.200 A 
ATOM     82  F   UNL A   1      53.103  28.393  22.835  1.00  0.00    -0.200 F 
ATOM     83  F   UNL A   1      54.949  27.682  24.712  1.00  0.00    -0.200 F 
ENDBRANCH  59  73
BRANCH  60  84
ATOM     84  C   UNL A   1      41.259  28.340  28.127  1.00  0.00     0.064 A 
ATOM     85  C   UNL A   1      40.301  28.922  27.284  1.00  0.00     0.173 A 
ATOM     86  C   UNL A   1      40.818  27.830  29.358  1.00  0.00     0.173 A 
ATOM     87  F   UNL A   1      40.678  29.455  26.112  1.00  0.00    -0.203 F 
ATOM     88  C   UNL A   1      38.963  29.005  27.664  1.00  0.00     0.198 A 
ATOM     89  C   UNL A   1      39.474  27.885  29.722  1.00  0.00     0.198 A 
ATOM     90  F   UNL A   1      41.693  27.272  30.207  1.00  0.00    -0.203 F 
ATOM     91  F   UNL A   1      38.079  29.615  26.861  1.00  0.00    -0.200 F 
ATOM     92  C   UNL A   1      38.548  28.480  28.878  1.00  0.00     0.200 A 
ATOM     93  F   UNL A   1      39.077  27.369  30.893  1.00  0.00    -0.200 F 
ATOM     94  F   UNL A   1      37.261  28.558  29.239  1.00  0.00    -0.200 F 
ENDBRANCH  60  84
BRANCH  72  95
ATOM     95  C   UNL A   1      46.565  32.803  28.915  1.00  0.00     0.064 A 
ATOM     96  C   UNL A   1      46.905  33.019  30.259  1.00  0.00     0.173 A 
ATOM     97  C   UNL A   1      46.354  33.931  28.106  1.00  0.00     0.173 A 
ATOM     98  F   UNL A   1      47.106  31.978  31.081  1.00  0.00    -0.203 F 
ATOM     99  C   UNL A   1      46.999  34.309  30.777  1.00  0.00     0.198 A 
ATOM    100  C   UNL A   1      46.485  35.220  28.617  1.00  0.00     0.198 A 
ATOM    101  F   UNL A   1      46.036  33.786  26.811  1.00  0.00    -0.203 F 
ATOM    102  F   UNL A   1      47.272  34.490  32.077  1.00  0.00    -0.200 F 
ATOM    103  C   UNL A   1      46.797  35.408  29.955  1.00  0.00     0.200 A 
ATOM    104  F   UNL A   1      46.308  36.279  27.816  1.00  0.00    -0.200 F 
ATOM    105  F   UNL A   1      46.898  36.649  30.452  1.00  0.00    -0.200 F 
ENDBRANCH  72  95
ENDBRANCH  46  47
ENDBRANCH  39  41
ENDBRANCH  38  39
ENDBRANCH  37  38
ENDBRANCH  36  37
ENDBRANCH  35  36
ENDBRANCH  34  35
ENDBRANCH  33  34
ENDBRANCH  32  33
ENDBRANCH  31  32
ENDBRANCH   1  31
TORSDOF 26
ENDMDL
MODEL 3
REMARK VINA RESULT:      -9.0      5.039      7.645
REMARK SMILES CCCCCCNC(=O)Oc1cccc(-c2ccc([C@H](C)C(=O)OCCOCCOCCOC(=O)c3ccc(-c4c5nc(c(-c6c(F)c(F)c(F)c(F)c6F)c6ccc([nH]6)c(-c6c(F)c(F)c(F)c(F)c6F)c6nc(c(-c7c(F)c(F)c(F)c(F)c7F)c7ccc4[nH]7)C=C6)C=C5)cc3)cc2F)c1
REMARK SMILES IDX 25 1 24 2 22 3 23 4 20 5 21 6 19 7 16 8 17 9 100 10 18 11
REMARK SMILES IDX 99 12 101 13 15 14 11 15 12 16 102 17 13 18 14 19 10 20 8 21
REMARK SMILES IDX 7 22 9 24 6 25 5 26 4 27 3 28 2 29 1 30 26 31 27 32 28 33
REMARK SMILES IDX 29 34 30 35 31 36 32 37 33 38 34 39 35 40 36 41 37 42 98 43
REMARK SMILES IDX 38 44 97 45 39 46 40 47 41 48 91 49 42 50 96 51 90 52 92 53
REMARK SMILES IDX 43 54 95 55 89 56 88 57 44 59 76 60 56 61 75 62 57 63 60 64
REMARK SMILES IDX 74 65 93 66 58 67 59 68 73 70 94 71 61 72 45 73 46 74 54 75
REMARK SMILES IDX 47 76 48 77 52 78 55 79 49 80 50 81 53 82 51 83 77 84 78 85
REMARK SMILES IDX 86 86 79 87 80 88 84 89 87 90 81 91 82 92 85 93 83 94 62 95
REMARK SMILES IDX 63 96 71 97 64 98 65 99 69 100 72 101 66 102 67 103 70 104
REMARK SMILES IDX 68 105
REMARK H PARENT 7 23 92 58 60 69
REMARK Flexibility Score: inf
ROOT
ATOM      1  C   UNL A   1      36.260  23.210  24.723  1.00  0.00     0.261 C 
ENDROOT
BRANCH   1   2
ATOM      2  O   UNL A   1      35.051  23.764  24.162  1.00  0.00    -0.463 OA
BRANCH   2   3
ATOM      3  C   UNL A   1      33.959  22.953  24.162  1.00  0.00     0.313 C 
ATOM      4  O   UNL A   1      33.673  22.187  23.247  1.00  0.00    -0.252 OA
BRANCH   3   5
ATOM      5  C   UNL A   1      33.054  23.112  25.398  1.00  0.00     0.126 C 
ATOM      6  C   UNL A   1      33.621  23.547  26.757  1.00  0.00     0.025 C 
BRANCH   5   7
ATOM      7  C   UNL A   1      31.958  24.080  25.044  1.00  0.00    -0.031 A 
ATOM      8  C   UNL A   1      29.913  25.854  24.416  1.00  0.00     0.018 A 
ATOM      9  C   UNL A   1      30.072  25.407  25.734  1.00  0.00     0.012 A 
ATOM     10  C   UNL A   1      30.779  25.386  23.421  1.00  0.00     0.131 A 
ATOM     11  C   UNL A   1      31.083  24.519  26.047  1.00  0.00     0.005 A 
ATOM     12  C   UNL A   1      31.803  24.508  23.725  1.00  0.00     0.044 A 
ATOM     13  F   UNL A   1      30.625  25.768  22.144  1.00  0.00    -0.206 F 
BRANCH   8  14
ATOM     14  C   UNL A   1      28.804  26.737  24.108  1.00  0.00    -0.012 A 
ATOM     15  C   UNL A   1      27.966  28.671  22.953  1.00  0.00     0.133 A 
ATOM     16  C   UNL A   1      26.665  28.360  23.336  1.00  0.00     0.047 A 
ATOM     17  C   UNL A   1      29.039  27.890  23.361  1.00  0.00     0.056 A 
ATOM     18  C   UNL A   1      26.427  27.221  24.103  1.00  0.00     0.004 A 
ATOM     19  C   UNL A   1      27.492  26.407  24.481  1.00  0.00     0.009 A 
BRANCH  15  20
ATOM     20  O   UNL A   1      28.172  29.848  22.229  1.00  0.00    -0.410 OA
BRANCH  20  21
ATOM     21  C   UNL A   1      28.887  30.866  22.835  1.00  0.00     0.412 C 
ATOM     22  N   UNL A   1      30.218  30.817  22.552  1.00  0.00    -0.321 N 
ATOM     23  H   UNL A   1      30.795  31.487  22.985  1.00  0.00     0.167 HD
ATOM     24  O   UNL A   1      28.430  31.751  23.562  1.00  0.00    -0.224 OA
BRANCH  22  25
ATOM     25  C   UNL A   1      30.858  29.864  21.670  1.00  0.00     0.119 C 
BRANCH  25  26
ATOM     26  C   UNL A   1      32.047  29.185  22.342  1.00  0.00     0.021 C 
BRANCH  26  27
ATOM     27  C   UNL A   1      31.860  28.917  23.840  1.00  0.00     0.002 C 
BRANCH  27  28
ATOM     28  C   UNL A   1      32.982  28.110  24.500  1.00  0.00    -0.000 C 
BRANCH  28  29
ATOM     29  C   UNL A   1      32.966  28.105  26.031  1.00  0.00    -0.003 C 
ATOM     30  C   UNL A   1      31.666  28.636  26.615  1.00  0.00     0.004 C 
ENDBRANCH  28  29
ENDBRANCH  27  28
ENDBRANCH  26  27
ENDBRANCH  25  26
ENDBRANCH  22  25
ENDBRANCH  20  21
ENDBRANCH  15  20
ENDBRANCH   8  14
ENDBRANCH   5   7
ENDBRANCH   3   5
ENDBRANCH   2   3
ENDBRANCH   1   2
BRANCH   1  31
ATOM     31  C   UNL A   1      36.999  22.178  23.853  1.00  0.00     0.202 C 
BRANCH  31  32
ATOM     32  O   UNL A   1      37.950  21.306  24.454  1.00  0.00    -0.376 OA
BRANCH  32  33
ATOM     33  C   UNL A   1      37.551  20.025  24.919  1.00  0.00     0.188 C 
BRANCH  33  34
ATOM     34  C   UNL A   1      38.512  19.202  25.785  1.00  0.00     0.188 C 
BRANCH  34  35
ATOM     35  O   UNL A   1      39.868  19.272  25.421  1.00  0.00    -0.376 OA
BRANCH  35  36
ATOM     36  C   UNL A   1      40.743  20.021  26.241  1.00  0.00     0.202 C 
BRANCH  36  37
ATOM     37  C   UNL A   1      40.912  21.527  25.977  1.00  0.00     0.261 C 
BRANCH  37  38
ATOM     38  O   UNL A   1      42.096  22.157  26.499  1.00  0.00    -0.460 OA
BRANCH  38  39
ATOM     39  C   UNL A   1      42.562  23.257  25.859  1.00  0.00     0.338 C 
ATOM     40  O   UNL A   1      43.036  23.305  24.739  1.00  0.00    -0.246 OA
BRANCH  39  41
ATOM     41  C   UNL A   1      42.150  24.443  26.654  1.00  0.00     0.060 A 
ATOM     42  C   UNL A   1      42.748  25.686  26.391  1.00  0.00     0.016 A 
ATOM     43  C   UNL A   1      41.151  24.342  27.623  1.00  0.00     0.016 A 
ATOM     44  C   UNL A   1      42.365  26.823  27.109  1.00  0.00     0.010 A 
ATOM     45  C   UNL A   1      40.787  25.474  28.361  1.00  0.00     0.010 A 
ATOM     46  C   UNL A   1      41.410  26.715  28.128  1.00  0.00    -0.014 A 
BRANCH  46  47
ATOM     47  C   UNL A   1      41.195  27.834  29.081  1.00  0.00     0.031 A 
ATOM     48  C   UNL A   1      42.125  27.955  30.258  1.00  0.00     0.074 A 
ATOM     49  C   UNL A   1      40.196  28.720  28.926  1.00  0.00     0.049 A 
ATOM     50  N   UNL A   1      42.079  28.771  31.281  1.00  0.00    -0.248 NA
ATOM     51  C   UNL A   1      43.258  27.018  30.283  1.00  0.00     0.031 C 
ATOM     52  C   UNL A   1      39.257  28.751  27.808  1.00  0.00     0.029 A 
ATOM     53  N   UNL A   1      39.797  29.761  29.731  1.00  0.00    -0.354 N 
ATOM     54  C   UNL A   1      43.166  28.434  32.078  1.00  0.00     0.074 A 
ATOM     55  C   UNL A   1      43.836  27.325  31.435  1.00  0.00     0.031 C 
ATOM     56  C   UNL A   1      38.378  29.748  28.007  1.00  0.00     0.029 A 
ATOM     57  C   UNL A   1      38.666  30.398  29.286  1.00  0.00     0.049 A 
ATOM     58  H   UNL A   1      40.278  30.023  30.549  1.00  0.00     0.167 HD
ATOM     59  C   UNL A   1      43.572  29.003  33.238  1.00  0.00     0.037 A 
ATOM     60  C   UNL A   1      37.931  31.371  29.861  1.00  0.00     0.037 A 
ATOM     61  C   UNL A   1      42.901  30.103  33.880  1.00  0.00     0.049 A 
ATOM     62  C   UNL A   1      38.349  31.929  31.200  1.00  0.00     0.074 A 
ATOM     63  C   UNL A   1      43.247  30.761  35.048  1.00  0.00     0.029 A 
ATOM     64  N   UNL A   1      41.738  30.699  33.416  1.00  0.00    -0.354 N 
ATOM     65  N   UNL A   1      39.388  31.624  31.940  1.00  0.00    -0.248 NA
ATOM     66  C   UNL A   1      37.489  32.968  31.784  1.00  0.00     0.031 C 
ATOM     67  C   UNL A   1      42.257  31.708  35.326  1.00  0.00     0.029 A 
ATOM     68  C   UNL A   1      41.334  31.694  34.292  1.00  0.00     0.049 A 
ATOM     69  H   UNL A   1      41.270  30.453  32.586  1.00  0.00     0.167 HD
ATOM     70  C   UNL A   1      39.325  32.453  33.054  1.00  0.00     0.074 A 
ATOM     71  C   UNL A   1      38.151  33.284  32.889  1.00  0.00     0.031 C 
ATOM     72  C   UNL A   1      40.166  32.521  34.117  1.00  0.00     0.037 A 
BRANCH  59  73
ATOM     73  C   UNL A   1      44.778  28.412  33.911  1.00  0.00     0.064 A 
ATOM     74  C   UNL A   1      44.674  27.358  34.832  1.00  0.00     0.173 A 
ATOM     75  C   UNL A   1      46.062  28.897  33.615  1.00  0.00     0.173 A 
ATOM     76  F   UNL A   1      43.471  26.865  35.162  1.00  0.00    -0.203 F 
ATOM     77  C   UNL A   1      45.806  26.838  35.457  1.00  0.00     0.198 A 
ATOM     78  C   UNL A   1      47.193  28.351  34.214  1.00  0.00     0.198 A 
ATOM     79  F   UNL A   1      46.220  29.901  32.740  1.00  0.00    -0.203 F 
ATOM     80  F   UNL A   1      45.676  25.874  36.378  1.00  0.00    -0.200 F 
ATOM     81  C   UNL A   1      47.063  27.330  35.143  1.00  0.00     0.200 A 
ATOM     82  F   UNL A   1      48.409  28.817  33.897  1.00  0.00    -0.200 F 
ATOM     83  F   UNL A   1      48.151  26.825  35.742  1.00  0.00    -0.200 F 
ENDBRANCH  59  73
BRANCH  60  84
ATOM     84  C   UNL A   1      36.707  31.878  29.184  1.00  0.00     0.064 A 
ATOM     85  C   UNL A   1      36.648  33.183  28.675  1.00  0.00     0.173 A 
ATOM     86  C   UNL A   1      35.562  31.076  29.052  1.00  0.00     0.173 A 
ATOM     87  F   UNL A   1      37.704  34.000  28.807  1.00  0.00    -0.203 F 
ATOM     88  C   UNL A   1      35.489  33.672  28.076  1.00  0.00     0.198 A 
ATOM     89  C   UNL A   1      34.414  31.556  28.424  1.00  0.00     0.198 A 
ATOM     90  F   UNL A   1      35.559  29.823  29.530  1.00  0.00    -0.203 F 
ATOM     91  F   UNL A   1      35.444  34.941  27.646  1.00  0.00    -0.200 F 
ATOM     92  C   UNL A   1      34.376  32.856  27.943  1.00  0.00     0.200 A 
ATOM     93  F   UNL A   1      33.344  30.761  28.291  1.00  0.00    -0.200 F 
ATOM     94  F   UNL A   1      33.263  33.326  27.363  1.00  0.00    -0.200 F 
ENDBRANCH  60  84
BRANCH  72  95
ATOM     95  C   UNL A   1      39.880  33.561  35.167  1.00  0.00     0.064 A 
ATOM     96  C   UNL A   1      39.105  33.278  36.302  1.00  0.00     0.173 A 
ATOM     97  C   UNL A   1      40.429  34.849  35.056  1.00  0.00     0.173 A 
ATOM     98  F   UNL A   1      38.547  32.068  36.454  1.00  0.00    -0.203 F 
ATOM     99  C   UNL A   1      38.866  34.253  37.268  1.00  0.00     0.198 A 
ATOM    100  C   UNL A   1      40.219  35.810  36.041  1.00  0.00     0.198 A 
ATOM    101  F   UNL A   1      41.186  35.173  33.996  1.00  0.00    -0.203 F 
ATOM    102  F   UNL A   1      38.079  33.975  38.317  1.00  0.00    -0.200 F 
ATOM    103  C   UNL A   1      39.430  35.514  37.142  1.00  0.00     0.200 A 
ATOM    104  F   UNL A   1      40.780  37.021  35.925  1.00  0.00    -0.200 F 
ATOM    105  F   UNL A   1      39.207  36.447  38.078  1.00  0.00    -0.200 F 
ENDBRANCH  72  95
ENDBRANCH  46  47
ENDBRANCH  39  41
ENDBRANCH  38  39
ENDBRANCH  37  38
ENDBRANCH  36  37
ENDBRANCH  35  36
ENDBRANCH  34  35
ENDBRANCH  33  34
ENDBRANCH  32  33
ENDBRANCH  31  32
ENDBRANCH   1  31
TORSDOF 26
ENDMDL
