MODEL 1
REMARK VINA RESULT:     -11.1      0.000      0.000
REMARK SMILES O=C(OCCOCCOCCOC(=O)[C@@H]1CC=CC[C@@H]1C(=O)Nc1ccc(O)cc1)c1ccc(-c2c3nc(c(-c4c(F)c(F)c(F)c(F)c4F)c4ccc([nH]4)c(-c4c(F)c(F)c(F)c(F)c4F)c4nc(c(-c5c(F)c(F)c(F)c(F)c5F)c5ccc2[nH]5)C=C4)C=C3)cc1
REMARK SMILES IDX 8 1 7 2 6 3 5 4 4 5 3 6 2 7 1 8 31 9 32 10 93 11 33 12 92 13
REMARK SMILES IDX 34 14 35 15 36 16 86 17 37 18 91 19 85 20 87 21 38 22 90 23
REMARK SMILES IDX 84 24 83 25 39 27 71 28 51 29 70 30 52 31 55 32 69 33 88 34
REMARK SMILES IDX 53 35 54 36 68 38 89 39 56 40 40 41 41 42 49 43 42 44 43 45
REMARK SMILES IDX 47 46 50 47 44 48 45 49 48 50 46 51 72 52 73 53 81 54 74 55
REMARK SMILES IDX 75 56 79 57 82 58 76 59 77 60 80 61 78 62 57 63 58 64 66 65
REMARK SMILES IDX 59 66 60 67 64 68 67 69 61 70 62 71 65 72 63 73 9 74 10 75
REMARK SMILES IDX 11 76 12 77 13 78 14 79 15 80 16 81 20 82 17 83 19 84 18 85
REMARK SMILES IDX 21 86 22 87 23 88 24 90 25 91 30 92 26 93 29 94 27 95 28 96
REMARK H PARENT 87 26 55 37 23 89 28 97
REMARK Flexibility Score: inf
ROOT
ATOM      1  C   UNL A   1      40.144  21.301  26.798  1.00  0.00     0.188 C 
ENDROOT
BRANCH   1   2
ATOM      2  C   UNL A   1      40.736  19.907  26.563  1.00  0.00     0.188 C 
BRANCH   2   3
ATOM      3  O   UNL A   1      41.610  19.862  25.426  1.00  0.00    -0.376 OA
BRANCH   3   4
ATOM      4  C   UNL A   1      42.986  19.803  25.793  1.00  0.00     0.202 C 
BRANCH   4   5
ATOM      5  C   UNL A   1      43.847  21.004  25.380  1.00  0.00     0.261 C 
BRANCH   5   6
ATOM      6  O   UNL A   1      43.125  22.216  25.115  1.00  0.00    -0.460 OA
BRANCH   6   7
ATOM      7  C   UNL A   1      43.514  23.511  25.104  1.00  0.00     0.338 C 
ATOM      8  O   UNL A   1      44.330  23.845  24.243  1.00  0.00    -0.246 OA
BRANCH   7   9
ATOM      9  C   UNL A   1      43.067  24.563  26.077  1.00  0.00     0.060 A 
ATOM     10  C   UNL A   1      43.500  25.891  26.131  1.00  0.00     0.016 A 
ATOM     11  C   UNL A   1      42.103  24.157  27.028  1.00  0.00     0.016 A 
ATOM     12  C   UNL A   1      42.966  26.791  27.066  1.00  0.00     0.010 A 
ATOM     13  C   UNL A   1      41.567  25.048  27.967  1.00  0.00     0.010 A 
ATOM     14  C   UNL A   1      41.996  26.376  27.986  1.00  0.00    -0.014 A 
BRANCH  14  15
ATOM     15  C   UNL A   1      41.568  27.303  29.059  1.00  0.00     0.031 A 
ATOM     16  C   UNL A   1      42.401  27.357  30.298  1.00  0.00     0.074 A 
ATOM     17  C   UNL A   1      40.500  28.110  28.918  1.00  0.00     0.049 A 
ATOM     18  N   UNL A   1      42.267  28.116  31.352  1.00  0.00    -0.248 NA
ATOM     19  C   UNL A   1      43.545  26.431  30.355  1.00  0.00     0.031 C 
ATOM     20  C   UNL A   1      39.627  28.134  27.755  1.00  0.00     0.029 A 
ATOM     21  N   UNL A   1      39.966  29.065  29.746  1.00  0.00    -0.354 N 
ATOM     22  C   UNL A   1      43.309  27.762  32.195  1.00  0.00     0.074 A 
ATOM     23  C   UNL A   1      44.065  26.720  31.537  1.00  0.00     0.031 C 
ATOM     24  C   UNL A   1      38.684  29.075  27.915  1.00  0.00     0.029 A 
ATOM     25  C   UNL A   1      38.851  29.685  29.230  1.00  0.00     0.049 A 
ATOM     26  H   UNL A   1      40.345  29.287  30.628  1.00  0.00     0.167 HD
ATOM     27  C   UNL A   1      43.593  28.256  33.420  1.00  0.00     0.037 A 
ATOM     28  C   UNL A   1      38.040  30.612  29.774  1.00  0.00     0.037 A 
ATOM     29  C   UNL A   1      42.803  29.249  34.087  1.00  0.00     0.049 A 
ATOM     30  C   UNL A   1      38.339  31.084  31.173  1.00  0.00     0.074 A 
ATOM     31  C   UNL A   1      42.989  29.803  35.339  1.00  0.00     0.029 A 
ATOM     32  N   UNL A   1      41.651  29.817  33.560  1.00  0.00    -0.354 N 
ATOM     33  N   UNL A   1      39.350  30.774  31.950  1.00  0.00    -0.248 NA
ATOM     34  C   UNL A   1      37.376  32.010  31.784  1.00  0.00     0.031 C 
ATOM     35  C   UNL A   1      41.920  30.670  35.592  1.00  0.00     0.029 A 
ATOM     36  C   UNL A   1      41.092  30.688  34.479  1.00  0.00     0.049 A 
ATOM     37  H   UNL A   1      41.286  29.628  32.666  1.00  0.00     0.167 HD
ATOM     38  C   UNL A   1      39.142  31.456  33.139  1.00  0.00     0.074 A 
ATOM     39  C   UNL A   1      37.928  32.229  32.969  1.00  0.00     0.031 C 
ATOM     40  C   UNL A   1      39.877  31.434  34.277  1.00  0.00     0.037 A 
BRANCH  27  41
ATOM     41  C   UNL A   1      44.771  27.663  34.122  1.00  0.00     0.064 A 
ATOM     42  C   UNL A   1      46.057  28.208  33.988  1.00  0.00     0.173 A 
ATOM     43  C   UNL A   1      44.618  26.510  34.904  1.00  0.00     0.173 A 
ATOM     44  F   UNL A   1      46.254  29.291  33.220  1.00  0.00    -0.203 F 
ATOM     45  C   UNL A   1      47.152  27.607  34.602  1.00  0.00     0.198 A 
ATOM     46  C   UNL A   1      45.712  25.922  35.531  1.00  0.00     0.198 A 
ATOM     47  F   UNL A   1      43.410  25.944  35.044  1.00  0.00    -0.203 F 
ATOM     48  F   UNL A   1      48.380  28.115  34.424  1.00  0.00    -0.200 F 
ATOM     49  C   UNL A   1      46.978  26.468  35.374  1.00  0.00     0.200 A 
ATOM     50  F   UNL A   1      45.545  24.819  36.272  1.00  0.00    -0.200 F 
ATOM     51  F   UNL A   1      48.035  25.885  35.955  1.00  0.00    -0.200 F 
ENDBRANCH  27  41
BRANCH  28  52
ATOM     52  C   UNL A   1      36.841  31.109  29.043  1.00  0.00     0.064 A 
ATOM     53  C   UNL A   1      36.745  32.444  28.622  1.00  0.00     0.173 A 
ATOM     54  C   UNL A   1      35.742  30.273  28.790  1.00  0.00     0.173 A 
ATOM     55  F   UNL A   1      37.755  33.294  28.859  1.00  0.00    -0.203 F 
ATOM     56  C   UNL A   1      35.592  32.926  28.004  1.00  0.00     0.198 A 
ATOM     57  C   UNL A   1      34.603  30.748  28.143  1.00  0.00     0.198 A 
ATOM     58  F   UNL A   1      35.772  28.988  29.173  1.00  0.00    -0.203 F 
ATOM     59  F   UNL A   1      35.507  34.220  27.663  1.00  0.00    -0.200 F 
ATOM     60  C   UNL A   1      34.524  32.078  27.760  1.00  0.00     0.200 A 
ATOM     61  F   UNL A   1      33.580  29.918  27.897  1.00  0.00    -0.200 F 
ATOM     62  F   UNL A   1      33.414  32.542  27.170  1.00  0.00    -0.200 F 
ENDBRANCH  28  52
BRANCH  40  63
ATOM     63  C   UNL A   1      39.378  32.260  35.422  1.00  0.00     0.064 A 
ATOM     64  C   UNL A   1      38.565  31.703  36.419  1.00  0.00     0.173 A 
ATOM     65  C   UNL A   1      39.757  33.603  35.550  1.00  0.00     0.173 A 
ATOM     66  F   UNL A   1      38.162  30.427  36.327  1.00  0.00    -0.203 F 
ATOM     67  C   UNL A   1      38.139  32.467  37.501  1.00  0.00     0.198 A 
ATOM     68  C   UNL A   1      39.351  34.357  36.646  1.00  0.00     0.198 A 
ATOM     69  F   UNL A   1      40.536  34.178  34.620  1.00  0.00    -0.203 F 
ATOM     70  F   UNL A   1      37.334  31.927  38.425  1.00  0.00    -0.200 F 
ATOM     71  C   UNL A   1      38.540  33.791  37.617  1.00  0.00     0.200 A 
ATOM     72  F   UNL A   1      39.746  35.633  36.763  1.00  0.00    -0.200 F 
ATOM     73  F   UNL A   1      38.138  34.522  38.666  1.00  0.00    -0.200 F 
ENDBRANCH  40  63
ENDBRANCH  14  15
ENDBRANCH   7   9
ENDBRANCH   6   7
ENDBRANCH   5   6
ENDBRANCH   4   5
ENDBRANCH   3   4
ENDBRANCH   2   3
ENDBRANCH   1   2
BRANCH   1  74
ATOM     74  O   UNL A   1      39.413  21.837  25.691  1.00  0.00    -0.376 OA
BRANCH  74  75
ATOM     75  C   UNL A   1      38.029  22.116  25.927  1.00  0.00     0.202 C 
BRANCH  75  76
ATOM     76  C   UNL A   1      37.233  22.533  24.677  1.00  0.00     0.261 C 
BRANCH  76  77
ATOM     77  O   UNL A   1      35.877  22.820  25.044  1.00  0.00    -0.463 OA
BRANCH  77  78
ATOM     78  C   UNL A   1      34.889  21.992  24.609  1.00  0.00     0.310 C 
ATOM     79  O   UNL A   1      34.794  20.809  24.874  1.00  0.00    -0.252 OA
BRANCH  78  80
ATOM     80  C   UNL A   1      33.843  22.796  23.846  1.00  0.00     0.116 C 
ATOM     81  C   UNL A   1      34.340  24.105  23.217  1.00  0.00     0.043 C 
ATOM     82  C   UNL A   1      32.492  22.921  24.548  1.00  0.00     0.097 C 
ATOM     83  C   UNL A   1      33.246  24.946  22.623  1.00  0.00    -0.030 C 
ATOM     84  C   UNL A   1      31.441  23.509  23.561  1.00  0.00     0.041 C 
ATOM     85  C   UNL A   1      31.945  24.670  22.766  1.00  0.00    -0.030 C 
BRANCH  82  86
ATOM     86  C   UNL A   1      32.238  23.456  25.961  1.00  0.00     0.228 C 
ATOM     87  O   UNL A   1      32.106  22.583  26.836  1.00  0.00    -0.274 OA
ATOM     88  N   UNL A   1      32.341  24.689  26.499  1.00  0.00    -0.326 N 
ATOM     89  H   UNL A   1      32.408  24.628  27.479  1.00  0.00     0.169 HD
BRANCH  88  90
ATOM     90  C   UNL A   1      32.383  26.020  26.094  1.00  0.00     0.041 A 
ATOM     91  C   UNL A   1      31.271  26.820  25.900  1.00  0.00     0.030 A 
ATOM     92  C   UNL A   1      33.650  26.592  25.924  1.00  0.00     0.030 A 
ATOM     93  C   UNL A   1      31.396  28.075  25.294  1.00  0.00     0.048 A 
ATOM     94  C   UNL A   1      33.791  27.849  25.339  1.00  0.00     0.048 A 
ATOM     95  C   UNL A   1      32.657  28.550  24.963  1.00  0.00     0.115 A 
BRANCH  95  96
ATOM     96  O   UNL A   1      32.821  29.702  24.256  1.00  0.00    -0.508 OA
ATOM     97  H   UNL A   1      32.485  29.767  23.384  1.00  0.00     0.293 HD
ENDBRANCH  95  96
ENDBRANCH  88  90
ENDBRANCH  82  86
ENDBRANCH  78  80
ENDBRANCH  77  78
ENDBRANCH  76  77
ENDBRANCH  75  76
ENDBRANCH  74  75
ENDBRANCH   1  74
TORSDOF 20
ENDMDL
MODEL 2
REMARK VINA RESULT:     -11.0      4.329      8.956
REMARK SMILES O=C(OCCOCCOCCOC(=O)[C@@H]1CC=CC[C@@H]1C(=O)Nc1ccc(O)cc1)c1ccc(-c2c3nc(c(-c4c(F)c(F)c(F)c(F)c4F)c4ccc([nH]4)c(-c4c(F)c(F)c(F)c(F)c4F)c4nc(c(-c5c(F)c(F)c(F)c(F)c5F)c5ccc2[nH]5)C=C4)C=C3)cc1
REMARK SMILES IDX 8 1 7 2 6 3 5 4 4 5 3 6 2 7 1 8 31 9 32 10 93 11 33 12 92 13
REMARK SMILES IDX 34 14 35 15 36 16 86 17 37 18 91 19 85 20 87 21 38 22 90 23
REMARK SMILES IDX 84 24 83 25 39 27 71 28 51 29 70 30 52 31 55 32 69 33 88 34
REMARK SMILES IDX 53 35 54 36 68 38 89 39 56 40 40 41 41 42 49 43 42 44 43 45
REMARK SMILES IDX 47 46 50 47 44 48 45 49 48 50 46 51 72 52 73 53 81 54 74 55
REMARK SMILES IDX 75 56 79 57 82 58 76 59 77 60 80 61 78 62 57 63 58 64 66 65
REMARK SMILES IDX 59 66 60 67 64 68 67 69 61 70 62 71 65 72 63 73 9 74 10 75
REMARK SMILES IDX 11 76 12 77 13 78 14 79 15 80 16 81 20 82 17 83 19 84 18 85
REMARK SMILES IDX 21 86 22 87 23 88 24 90 25 91 30 92 26 93 29 94 27 95 28 96
REMARK H PARENT 87 26 55 37 23 89 28 97
REMARK Flexibility Score: inf
ROOT
ATOM      1  C   UNL A   1      36.499  22.486  25.764  1.00  0.00     0.188 C 
ENDROOT
BRANCH   1   2
ATOM      2  C   UNL A   1      37.053  21.560  24.676  1.00  0.00     0.188 C 
BRANCH   2   3
ATOM      3  O   UNL A   1      36.779  20.176  24.937  1.00  0.00    -0.376 OA
BRANCH   3   4
ATOM      4  C   UNL A   1      37.954  19.370  24.921  1.00  0.00     0.202 C 
BRANCH   4   5
ATOM      5  C   UNL A   1      39.193  19.971  25.600  1.00  0.00     0.261 C 
BRANCH   5   6
ATOM      6  O   UNL A   1      40.336  19.106  25.670  1.00  0.00    -0.460 OA
BRANCH   6   7
ATOM      7  C   UNL A   1      41.619  19.338  26.030  1.00  0.00     0.338 C 
ATOM      8  O   UNL A   1      42.395  18.382  25.993  1.00  0.00    -0.246 OA
BRANCH   7   9
ATOM      9  C   UNL A   1      42.165  20.653  26.508  1.00  0.00     0.060 A 
ATOM     10  C   UNL A   1      42.208  21.111  27.827  1.00  0.00     0.016 A 
ATOM     11  C   UNL A   1      42.695  21.502  25.509  1.00  0.00     0.016 A 
ATOM     12  C   UNL A   1      42.790  22.347  28.148  1.00  0.00     0.010 A 
ATOM     13  C   UNL A   1      43.276  22.739  25.821  1.00  0.00     0.010 A 
ATOM     14  C   UNL A   1      43.330  23.165  27.149  1.00  0.00    -0.014 A 
BRANCH  14  15
ATOM     15  C   UNL A   1      43.794  24.527  27.496  1.00  0.00     0.031 A 
ATOM     16  C   UNL A   1      42.756  25.540  27.855  1.00  0.00     0.074 A 
ATOM     17  C   UNL A   1      45.101  24.844  27.541  1.00  0.00     0.049 A 
ATOM     18  N   UNL A   1      42.907  26.779  28.242  1.00  0.00    -0.248 NA
ATOM     19  C   UNL A   1      41.355  25.095  27.770  1.00  0.00     0.031 C 
ATOM     20  C   UNL A   1      46.187  23.934  27.211  1.00  0.00     0.029 A 
ATOM     21  N   UNL A   1      45.745  26.007  27.884  1.00  0.00    -0.354 N 
ATOM     22  C   UNL A   1      41.624  27.258  28.449  1.00  0.00     0.074 A 
ATOM     23  C   UNL A   1      40.704  26.186  28.144  1.00  0.00     0.031 C 
ATOM     24  C   UNL A   1      47.365  24.548  27.395  1.00  0.00     0.029 A 
ATOM     25  C   UNL A   1      47.116  25.926  27.802  1.00  0.00     0.049 A 
ATOM     26  H   UNL A   1      45.269  26.823  28.161  1.00  0.00     0.167 HD
ATOM     27  C   UNL A   1      41.251  28.495  28.843  1.00  0.00     0.037 A 
ATOM     28  C   UNL A   1      48.057  26.869  28.000  1.00  0.00     0.037 A 
ATOM     29  C   UNL A   1      42.169  29.569  29.089  1.00  0.00     0.049 A 
ATOM     30  C   UNL A   1      47.604  28.259  28.361  1.00  0.00     0.074 A 
ATOM     31  C   UNL A   1      41.896  30.869  29.470  1.00  0.00     0.029 A 
ATOM     32  N   UNL A   1      43.546  29.470  28.947  1.00  0.00    -0.354 N 
ATOM     33  N   UNL A   1      46.389  28.697  28.594  1.00  0.00    -0.248 NA
ATOM     34  C   UNL A   1      48.643  29.294  28.459  1.00  0.00     0.031 C 
ATOM     35  C   UNL A   1      43.106  31.571  29.509  1.00  0.00     0.029 A 
ATOM     36  C   UNL A   1      44.136  30.697  29.194  1.00  0.00     0.049 A 
ATOM     37  H   UNL A   1      44.032  28.648  28.704  1.00  0.00     0.167 HD
ATOM     38  C   UNL A   1      46.515  30.052  28.858  1.00  0.00     0.074 A 
ATOM     39  C   UNL A   1      47.930  30.360  28.795  1.00  0.00     0.031 C 
ATOM     40  C   UNL A   1      45.548  30.967  29.112  1.00  0.00     0.037 A 
BRANCH  27  41
ATOM     41  C   UNL A   1      39.782  28.746  28.958  1.00  0.00     0.064 A 
ATOM     42  C   UNL A   1      39.033  29.228  27.875  1.00  0.00     0.173 A 
ATOM     43  C   UNL A   1      39.126  28.540  30.179  1.00  0.00     0.173 A 
ATOM     44  F   UNL A   1      39.628  29.473  26.697  1.00  0.00    -0.203 F 
ATOM     45  C   UNL A   1      37.678  29.513  28.018  1.00  0.00     0.198 A 
ATOM     46  C   UNL A   1      37.768  28.808  30.313  1.00  0.00     0.198 A 
ATOM     47  F   UNL A   1      39.808  28.097  31.246  1.00  0.00    -0.203 F 
ATOM     48  F   UNL A   1      36.989  30.018  26.985  1.00  0.00    -0.200 F 
ATOM     49  C   UNL A   1      37.047  29.299  29.234  1.00  0.00     0.200 A 
ATOM     50  F   UNL A   1      37.159  28.607  31.489  1.00  0.00    -0.200 F 
ATOM     51  F   UNL A   1      35.745  29.583  29.372  1.00  0.00    -0.200 F 
ENDBRANCH  27  41
BRANCH  28  52
ATOM     52  C   UNL A   1      49.502  26.566  27.800  1.00  0.00     0.064 A 
ATOM     53  C   UNL A   1      50.353  26.324  28.889  1.00  0.00     0.173 A 
ATOM     54  C   UNL A   1      50.076  26.560  26.519  1.00  0.00     0.173 A 
ATOM     55  F   UNL A   1      49.864  26.342  30.137  1.00  0.00    -0.203 F 
ATOM     56  C   UNL A   1      51.720  26.114  28.706  1.00  0.00     0.198 A 
ATOM     57  C   UNL A   1      51.437  26.318  26.336  1.00  0.00     0.198 A 
ATOM     58  F   UNL A   1      49.315  26.790  25.439  1.00  0.00    -0.203 F 
ATOM     59  F   UNL A   1      52.517  25.941  29.769  1.00  0.00    -0.200 F 
ATOM     60  C   UNL A   1      52.260  26.107  27.430  1.00  0.00     0.200 A 
ATOM     61  F   UNL A   1      51.949  26.297  25.097  1.00  0.00    -0.200 F 
ATOM     62  F   UNL A   1      53.573  25.909  27.254  1.00  0.00    -0.200 F 
ENDBRANCH  28  52
BRANCH  40  63
ATOM     63  C   UNL A   1      45.993  32.380  29.328  1.00  0.00     0.064 A 
ATOM     64  C   UNL A   1      46.043  33.296  28.268  1.00  0.00     0.173 A 
ATOM     65  C   UNL A   1      46.321  32.835  30.613  1.00  0.00     0.173 A 
ATOM     66  F   UNL A   1      45.755  32.899  27.019  1.00  0.00    -0.203 F 
ATOM     67  C   UNL A   1      46.418  34.618  28.484  1.00  0.00     0.198 A 
ATOM     68  C   UNL A   1      46.671  34.164  30.830  1.00  0.00     0.198 A 
ATOM     69  F   UNL A   1      46.285  31.995  31.658  1.00  0.00    -0.203 F 
ATOM     70  F   UNL A   1      46.493  35.469  27.453  1.00  0.00    -0.200 F 
ATOM     71  C   UNL A   1      46.723  35.052  29.767  1.00  0.00     0.200 A 
ATOM     72  F   UNL A   1      46.956  34.586  32.070  1.00  0.00    -0.200 F 
ATOM     73  F   UNL A   1      47.073  36.329  29.975  1.00  0.00    -0.200 F 
ENDBRANCH  40  63
ENDBRANCH  14  15
ENDBRANCH   7   9
ENDBRANCH   6   7
ENDBRANCH   5   6
ENDBRANCH   4   5
ENDBRANCH   3   4
ENDBRANCH   2   3
ENDBRANCH   1   2
BRANCH   1  74
ATOM     74  O   UNL A   1      35.119  22.282  26.081  1.00  0.00    -0.376 OA
BRANCH  74  75
ATOM     75  C   UNL A   1      34.190  22.494  25.012  1.00  0.00     0.202 C 
BRANCH  75  76
ATOM     76  C   UNL A   1      33.801  23.964  24.778  1.00  0.00     0.261 C 
BRANCH  76  77
ATOM     77  O   UNL A   1      33.216  24.106  23.476  1.00  0.00    -0.463 OA
BRANCH  77  78
ATOM     78  C   UNL A   1      31.895  23.822  23.314  1.00  0.00     0.310 C 
ATOM     79  O   UNL A   1      31.412  22.706  23.300  1.00  0.00    -0.252 OA
BRANCH  78  80
ATOM     80  C   UNL A   1      31.091  25.115  23.283  1.00  0.00     0.116 C 
ATOM     81  C   UNL A   1      31.866  26.371  22.860  1.00  0.00     0.043 C 
ATOM     82  C   UNL A   1      30.177  25.331  24.489  1.00  0.00     0.097 C 
ATOM     83  C   UNL A   1      31.085  27.645  23.007  1.00  0.00    -0.030 C 
ATOM     84  C   UNL A   1      29.214  26.523  24.210  1.00  0.00     0.041 C 
ATOM     85  C   UNL A   1      29.887  27.711  23.600  1.00  0.00    -0.030 C 
BRANCH  82  86
ATOM     86  C   UNL A   1      30.587  25.325  25.965  1.00  0.00     0.228 C 
ATOM     87  O   UNL A   1      30.180  24.348  26.618  1.00  0.00    -0.274 OA
ATOM     88  N   UNL A   1      31.484  26.052  26.663  1.00  0.00    -0.326 N 
ATOM     89  H   UNL A   1      31.718  25.591  27.500  1.00  0.00     0.169 HD
BRANCH  88  90
ATOM     90  C   UNL A   1      32.181  27.253  26.561  1.00  0.00     0.041 A 
ATOM     91  C   UNL A   1      33.498  27.369  26.157  1.00  0.00     0.030 A 
ATOM     92  C   UNL A   1      31.468  28.425  26.845  1.00  0.00     0.030 A 
ATOM     93  C   UNL A   1      34.177  28.585  26.284  1.00  0.00     0.048 A 
ATOM     94  C   UNL A   1      32.126  29.648  26.958  1.00  0.00     0.048 A 
ATOM     95  C   UNL A   1      33.494  29.702  26.744  1.00  0.00     0.115 A 
BRANCH  95  96
ATOM     96  O   UNL A   1      34.138  30.871  27.010  1.00  0.00    -0.508 OA
ATOM     97  H   UNL A   1      34.246  31.510  26.334  1.00  0.00     0.293 HD
ENDBRANCH  95  96
ENDBRANCH  88  90
ENDBRANCH  82  86
ENDBRANCH  78  80
ENDBRANCH  77  78
ENDBRANCH  76  77
ENDBRANCH  75  76
ENDBRANCH  74  75
ENDBRANCH   1  74
TORSDOF 20
ENDMDL
MODEL 3
REMARK VINA RESULT:     -11.0      2.650      8.658
REMARK SMILES O=C(OCCOCCOCCOC(=O)[C@@H]1CC=CC[C@@H]1C(=O)Nc1ccc(O)cc1)c1ccc(-c2c3nc(c(-c4c(F)c(F)c(F)c(F)c4F)c4ccc([nH]4)c(-c4c(F)c(F)c(F)c(F)c4F)c4nc(c(-c5c(F)c(F)c(F)c(F)c5F)c5ccc2[nH]5)C=C4)C=C3)cc1
REMARK SMILES IDX 8 1 7 2 6 3 5 4 4 5 3 6 2 7 1 8 31 9 32 10 93 11 33 12 92 13
REMARK SMILES IDX 34 14 35 15 36 16 86 17 37 18 91 19 85 20 87 21 38 22 90 23
REMARK SMILES IDX 84 24 83 25 39 27 71 28 51 29 70 30 52 31 55 32 69 33 88 34
REMARK SMILES IDX 53 35 54 36 68 38 89 39 56 40 40 41 41 42 49 43 42 44 43 45
REMARK SMILES IDX 47 46 50 47 44 48 45 49 48 50 46 51 72 52 73 53 81 54 74 55
REMARK SMILES IDX 75 56 79 57 82 58 76 59 77 60 80 61 78 62 57 63 58 64 66 65
REMARK SMILES IDX 59 66 60 67 64 68 67 69 61 70 62 71 65 72 63 73 9 74 10 75
REMARK SMILES IDX 11 76 12 77 13 78 14 79 15 80 16 81 20 82 17 83 19 84 18 85
REMARK SMILES IDX 21 86 22 87 23 88 24 90 25 91 30 92 26 93 29 94 27 95 28 96
REMARK H PARENT 87 26 55 37 23 89 28 97
REMARK Flexibility Score: inf
ROOT
ATOM      1  C   UNL A   1      31.033  29.594  24.760  1.00  0.00     0.188 C 
ENDROOT
BRANCH   1   2
ATOM      2  C   UNL A   1      32.533  29.724  25.043  1.00  0.00     0.188 C 
BRANCH   2   3
ATOM      3  O   UNL A   1      32.806  30.353  26.303  1.00  0.00    -0.376 OA
BRANCH   3   4
ATOM      4  C   UNL A   1      31.714  31.139  26.773  1.00  0.00     0.202 C 
BRANCH   4   5
ATOM      5  C   UNL A   1      31.824  32.653  26.540  1.00  0.00     0.261 C 
BRANCH   5   6
ATOM      6  O   UNL A   1      32.353  33.407  27.640  1.00  0.00    -0.460 OA
BRANCH   6   7
ATOM      7  C   UNL A   1      33.601  33.852  27.908  1.00  0.00     0.338 C 
ATOM      8  O   UNL A   1      33.856  35.022  27.616  1.00  0.00    -0.246 OA
BRANCH   7   9
ATOM      9  C   UNL A   1      34.713  33.028  28.493  1.00  0.00     0.060 A 
ATOM     10  C   UNL A   1      34.620  31.721  28.977  1.00  0.00     0.016 A 
ATOM     11  C   UNL A   1      35.981  33.651  28.548  1.00  0.00     0.016 A 
ATOM     12  C   UNL A   1      35.750  31.043  29.458  1.00  0.00     0.010 A 
ATOM     13  C   UNL A   1      37.114  32.982  29.029  1.00  0.00     0.010 A 
ATOM     14  C   UNL A   1      37.003  31.668  29.484  1.00  0.00    -0.014 A 
BRANCH  14  15
ATOM     15  C   UNL A   1      38.142  30.986  30.141  1.00  0.00     0.031 A 
ATOM     16  C   UNL A   1      38.400  31.302  31.578  1.00  0.00     0.074 A 
ATOM     17  C   UNL A   1      38.895  30.077  29.495  1.00  0.00     0.049 A 
ATOM     18  N   UNL A   1      39.297  30.805  32.387  1.00  0.00    -0.248 NA
ATOM     19  C   UNL A   1      37.522  32.313  32.191  1.00  0.00     0.031 C 
ATOM     20  C   UNL A   1      38.727  29.700  28.101  1.00  0.00     0.029 A 
ATOM     21  N   UNL A   1      39.945  29.300  29.918  1.00  0.00    -0.354 N 
ATOM     22  C   UNL A   1      39.091  31.439  33.601  1.00  0.00     0.074 A 
ATOM     23  C   UNL A   1      37.989  32.359  33.428  1.00  0.00     0.031 C 
ATOM     24  C   UNL A   1      39.610  28.744  27.779  1.00  0.00     0.029 A 
ATOM     25  C   UNL A   1      40.455  28.480  28.938  1.00  0.00     0.049 A 
ATOM     26  H   UNL A   1      40.300  29.329  30.836  1.00  0.00     0.167 HD
ATOM     27  C   UNL A   1      39.778  31.276  34.752  1.00  0.00     0.037 A 
ATOM     28  C   UNL A   1      41.507  27.638  28.968  1.00  0.00     0.037 A 
ATOM     29  C   UNL A   1      40.906  30.402  34.896  1.00  0.00     0.049 A 
ATOM     30  C   UNL A   1      42.300  27.539  30.245  1.00  0.00     0.074 A 
ATOM     31  C   UNL A   1      41.689  30.179  36.013  1.00  0.00     0.029 A 
ATOM     32  N   UNL A   1      41.430  29.625  33.873  1.00  0.00    -0.354 N 
ATOM     33  N   UNL A   1      42.076  28.113  31.403  1.00  0.00    -0.248 NA
ATOM     34  C   UNL A   1      43.507  26.702  30.215  1.00  0.00     0.031 C 
ATOM     35  C   UNL A   1      42.719  29.304  35.651  1.00  0.00     0.029 A 
ATOM     36  C   UNL A   1      42.552  28.950  34.320  1.00  0.00     0.049 A 
ATOM     37  H   UNL A   1      41.059  29.564  32.963  1.00  0.00     0.167 HD
ATOM     38  C   UNL A   1      43.112  27.716  32.234  1.00  0.00     0.074 A 
ATOM     39  C   UNL A   1      43.947  26.819  31.460  1.00  0.00     0.031 C 
ATOM     40  C   UNL A   1      43.363  28.072  33.517  1.00  0.00     0.037 A 
BRANCH  27  41
ATOM     41  C   UNL A   1      39.353  32.121  35.909  1.00  0.00     0.064 A 
ATOM     42  C   UNL A   1      39.925  33.379  36.150  1.00  0.00     0.173 A 
ATOM     43  C   UNL A   1      38.390  31.647  36.810  1.00  0.00     0.173 A 
ATOM     44  F   UNL A   1      40.876  33.856  35.331  1.00  0.00    -0.203 F 
ATOM     45  C   UNL A   1      39.559  34.125  37.266  1.00  0.00     0.198 A 
ATOM     46  C   UNL A   1      38.013  32.404  37.915  1.00  0.00     0.198 A 
ATOM     47  F   UNL A   1      37.830  30.442  36.629  1.00  0.00    -0.203 F 
ATOM     48  F   UNL A   1      40.152  35.303  37.506  1.00  0.00    -0.200 F 
ATOM     49  C   UNL A   1      38.602  33.639  38.145  1.00  0.00     0.200 A 
ATOM     50  F   UNL A   1      37.094  31.932  38.767  1.00  0.00    -0.200 F 
ATOM     51  F   UNL A   1      38.259  34.354  39.224  1.00  0.00    -0.200 F 
ENDBRANCH  27  41
BRANCH  28  52
ATOM     52  C   UNL A   1      41.917  26.878  27.755  1.00  0.00     0.064 A 
ATOM     53  C   UNL A   1      41.422  25.590  27.500  1.00  0.00     0.173 A 
ATOM     54  C   UNL A   1      42.851  27.401  26.846  1.00  0.00     0.173 A 
ATOM     55  F   UNL A   1      40.547  25.030  28.347  1.00  0.00    -0.203 F 
ATOM     56  C   UNL A   1      41.863  24.849  26.404  1.00  0.00     0.198 A 
ATOM     57  C   UNL A   1      43.266  26.672  25.733  1.00  0.00     0.198 A 
ATOM     58  F   UNL A   1      43.364  28.625  27.038  1.00  0.00    -0.203 F 
ATOM     59  F   UNL A   1      41.415  23.600  26.217  1.00  0.00    -0.200 F 
ATOM     60  C   UNL A   1      42.781  25.392  25.519  1.00  0.00     0.200 A 
ATOM     61  F   UNL A   1      44.142  27.210  24.873  1.00  0.00    -0.200 F 
ATOM     62  F   UNL A   1      43.208  24.679  24.468  1.00  0.00    -0.200 F 
ENDBRANCH  28  52
BRANCH  40  63
ATOM     63  C   UNL A   1      44.592  27.498  34.151  1.00  0.00     0.064 A 
ATOM     64  C   UNL A   1      44.590  26.210  34.705  1.00  0.00     0.173 A 
ATOM     65  C   UNL A   1      45.793  28.220  34.158  1.00  0.00     0.173 A 
ATOM     66  F   UNL A   1      43.458  25.491  34.736  1.00  0.00    -0.203 F 
ATOM     67  C   UNL A   1      45.747  25.669  35.256  1.00  0.00     0.198 A 
ATOM     68  C   UNL A   1      46.954  27.666  34.687  1.00  0.00     0.198 A 
ATOM     69  F   UNL A   1      45.843  29.456  33.638  1.00  0.00    -0.203 F 
ATOM     70  F   UNL A   1      45.716  24.451  35.812  1.00  0.00    -0.200 F 
ATOM     71  C   UNL A   1      46.930  26.394  35.239  1.00  0.00     0.200 A 
ATOM     72  F   UNL A   1      48.099  28.363  34.661  1.00  0.00    -0.200 F 
ATOM     73  F   UNL A   1      48.046  25.867  35.759  1.00  0.00    -0.200 F 
ENDBRANCH  40  63
ENDBRANCH  14  15
ENDBRANCH   7   9
ENDBRANCH   6   7
ENDBRANCH   5   6
ENDBRANCH   4   5
ENDBRANCH   3   4
ENDBRANCH   2   3
ENDBRANCH   1   2
BRANCH   1  74
ATOM     74  O   UNL A   1      30.705  28.836  23.592  1.00  0.00    -0.376 OA
BRANCH  74  75
ATOM     75  C   UNL A   1      30.977  27.431  23.657  1.00  0.00     0.202 C 
BRANCH  75  76
ATOM     76  C   UNL A   1      30.418  26.723  24.903  1.00  0.00     0.261 C 
BRANCH  76  77
ATOM     77  O   UNL A   1      30.443  25.303  24.702  1.00  0.00    -0.463 OA
BRANCH  77  78
ATOM     78  C   UNL A   1      31.107  24.524  25.599  1.00  0.00     0.310 C 
ATOM     79  O   UNL A   1      31.289  24.797  26.770  1.00  0.00    -0.252 OA
BRANCH  78  80
ATOM     80  C   UNL A   1      31.477  23.196  24.950  1.00  0.00     0.116 C 
ATOM     81  C   UNL A   1      32.443  22.311  25.751  1.00  0.00     0.043 C 
ATOM     82  C   UNL A   1      31.807  23.280  23.461  1.00  0.00     0.097 C 
ATOM     83  C   UNL A   1      32.914  21.096  25.004  1.00  0.00    -0.030 C 
ATOM     84  C   UNL A   1      31.889  21.845  22.861  1.00  0.00     0.041 C 
ATOM     85  C   UNL A   1      32.653  20.880  23.710  1.00  0.00    -0.030 C 
BRANCH  82  86
ATOM     86  C   UNL A   1      32.855  24.183  22.801  1.00  0.00     0.228 C 
ATOM     87  O   UNL A   1      32.401  24.998  21.979  1.00  0.00    -0.274 OA
ATOM     88  N   UNL A   1      34.151  24.429  23.084  1.00  0.00    -0.326 N 
ATOM     89  H   UNL A   1      34.435  25.275  22.669  1.00  0.00     0.169 HD
BRANCH  88  90
ATOM     90  C   UNL A   1      35.209  23.854  23.783  1.00  0.00     0.041 A 
ATOM     91  C   UNL A   1      36.078  22.913  23.263  1.00  0.00     0.030 A 
ATOM     92  C   UNL A   1      35.426  24.309  25.090  1.00  0.00     0.030 A 
ATOM     93  C   UNL A   1      36.978  22.239  24.096  1.00  0.00     0.048 A 
ATOM     94  C   UNL A   1      36.332  23.660  25.927  1.00  0.00     0.048 A 
ATOM     95  C   UNL A   1      37.051  22.581  25.439  1.00  0.00     0.115 A 
BRANCH  95  96
ATOM     96  O   UNL A   1      37.811  21.869  26.315  1.00  0.00    -0.508 OA
ATOM     97  H   UNL A   1      37.910  22.167  27.198  1.00  0.00     0.293 HD
ENDBRANCH  95  96
ENDBRANCH  88  90
ENDBRANCH  82  86
ENDBRANCH  78  80
ENDBRANCH  77  78
ENDBRANCH  76  77
ENDBRANCH  75  76
ENDBRANCH  74  75
ENDBRANCH   1  74
TORSDOF 20
ENDMDL
