MODEL 1
REMARK VINA RESULT:     -11.9      0.000      0.000
REMARK SMILES CCOc1cnc(C(=O)c2[nH]c3cc(Cl)ccc3c2CC(=O)OCCOCCOCCOC(=O)c2ccc(-c3c4nc(c(-c5c(F)c(F)c(F)c(F)c5F)c5ccc([nH]5)c(-c5c(F)c(F)c(F)c(F)c5F)c5nc(c(-c6c(F)c(F)c(F)c(F)c6F)c6ccc3[nH]6)C=C5)C=C4)cc2)cc1CC
REMARK SMILES IDX 26 1 25 2 24 3 23 4 21 5 22 6 20 7 19 8 10 9 11 10 12 11
REMARK SMILES IDX 18 13 13 14 17 15 14 16 16 17 15 18 8 19 9 20 7 21 4 22 5 23
REMARK SMILES IDX 99 24 6 25 98 26 3 27 2 28 1 29 100 30 101 31 27 32 28 33
REMARK SMILES IDX 29 34 30 35 31 36 32 37 33 38 34 39 35 40 36 41 97 42 37 43
REMARK SMILES IDX 96 44 38 45 39 46 40 47 90 48 41 49 95 50 89 51 91 52 42 53
REMARK SMILES IDX 94 54 88 55 87 56 43 58 75 59 55 60 74 61 56 62 59 63 73 64
REMARK SMILES IDX 92 65 57 66 58 67 72 69 93 70 60 71 44 72 45 73 53 74 46 75
REMARK SMILES IDX 47 76 51 77 54 78 48 79 49 80 52 81 50 82 76 83 77 84 85 85
REMARK SMILES IDX 78 86 79 87 83 88 86 89 80 90 81 91 84 92 82 93 61 94 62 95
REMARK SMILES IDX 70 96 63 97 64 98 68 99 71 100 65 101 66 102 69 103 67 104
REMARK H PARENT 11 12 91 57 59 68
REMARK Flexibility Score: inf
ROOT
ATOM      1  O   UNL A   1      33.652  27.375  21.987  1.00  0.00    -0.376 OA
ENDROOT
BRANCH   1   2
ATOM      2  C   UNL A   1      32.485  26.566  21.953  1.00  0.00     0.202 C 
BRANCH   2   3
ATOM      3  C   UNL A   1      32.652  25.134  22.463  1.00  0.00     0.261 C 
BRANCH   3   4
ATOM      4  O   UNL A   1      34.037  24.729  22.586  1.00  0.00    -0.463 OA
BRANCH   4   5
ATOM      5  C   UNL A   1      34.250  23.401  22.771  1.00  0.00     0.310 C 
ATOM      6  O   UNL A   1      35.321  22.848  22.522  1.00  0.00    -0.252 OA
BRANCH   5   7
ATOM      7  C   UNL A   1      33.057  22.580  23.221  1.00  0.00     0.161 C 
BRANCH   7   8
ATOM      8  C   UNL A   1      33.180  21.580  24.347  1.00  0.00     0.000 A 
ATOM      9  C   UNL A   1      33.883  21.733  25.548  1.00  0.00     0.093 A 
ATOM     10  N   UNL A   1      33.675  20.587  26.283  1.00  0.00    -0.351 N 
ATOM     11  C   UNL A   1      33.243  19.582  25.460  1.00  0.00     0.048 A 
ATOM     12  H   UNL A   1      33.817  20.504  27.254  1.00  0.00     0.167 HD
ATOM     13  C   UNL A   1      32.879  20.177  24.253  1.00  0.00     0.004 A 
ATOM     14  C   UNL A   1      33.176  18.203  25.690  1.00  0.00     0.047 A 
ATOM     15  C   UNL A   1      32.411  19.344  23.216  1.00  0.00     0.012 A 
ATOM     16  C   UNL A   1      32.768  17.401  24.624  1.00  0.00     0.043 A 
ATOM     17  C   UNL A   1      32.386  17.956  23.406  1.00  0.00     0.021 A 
ATOM     18  Cl  UNL A   1      32.773  15.689  24.813  1.00  0.00    -0.084 Cl
BRANCH   9  19
ATOM     19  C   UNL A   1      34.678  22.861  25.997  1.00  0.00     0.227 C 
ATOM     20  O   UNL A   1      34.152  23.893  26.412  1.00  0.00    -0.285 OA
BRANCH  19  21
ATOM     21  C   UNL A   1      36.178  22.795  25.917  1.00  0.00     0.113 A 
ATOM     22  C   UNL A   1      38.885  22.371  26.030  1.00  0.00     0.140 A 
ATOM     23  C   UNL A   1      38.002  21.436  25.525  1.00  0.00     0.158 A 
ATOM     24  C   UNL A   1      38.396  23.636  26.354  1.00  0.00    -0.002 A 
ATOM     25  N   UNL A   1      36.671  21.624  25.459  1.00  0.00    -0.249 NA
ATOM     26  C   UNL A   1      37.003  23.834  26.341  1.00  0.00     0.040 A 
BRANCH  22  27
ATOM     27  O   UNL A   1      40.201  22.050  26.190  1.00  0.00    -0.492 OA
BRANCH  27  28
ATOM     28  C   UNL A   1      40.366  20.621  26.301  1.00  0.00     0.226 C 
ATOM     29  C   UNL A   1      41.182  20.285  27.539  1.00  0.00     0.049 C 
ENDBRANCH  27  28
ENDBRANCH  22  27
BRANCH  24  30
ATOM     30  C   UNL A   1      39.323  24.779  26.681  1.00  0.00     0.036 C 
ATOM     31  C   UNL A   1      39.163  25.214  28.131  1.00  0.00     0.009 C 
ENDBRANCH  24  30
ENDBRANCH  19  21
ENDBRANCH   9  19
ENDBRANCH   7   8
ENDBRANCH   5   7
ENDBRANCH   4   5
ENDBRANCH   3   4
ENDBRANCH   2   3
ENDBRANCH   1   2
BRANCH   1  32
ATOM     32  C   UNL A   1      33.596  28.597  22.712  1.00  0.00     0.188 C 
BRANCH  32  33
ATOM     33  C   UNL A   1      33.960  28.586  24.209  1.00  0.00     0.188 C 
BRANCH  33  34
ATOM     34  O   UNL A   1      32.917  28.589  25.175  1.00  0.00    -0.376 OA
BRANCH  34  35
ATOM     35  C   UNL A   1      31.880  29.549  25.015  1.00  0.00     0.202 C 
BRANCH  35  36
ATOM     36  C   UNL A   1      31.792  30.559  26.153  1.00  0.00     0.261 C 
BRANCH  36  37
ATOM     37  O   UNL A   1      32.843  30.331  27.109  1.00  0.00    -0.460 OA
BRANCH  37  38
ATOM     38  C   UNL A   1      33.527  31.438  27.471  1.00  0.00     0.338 C 
ATOM     39  O   UNL A   1      33.086  32.566  27.619  1.00  0.00    -0.246 OA
BRANCH  38  40
ATOM     40  C   UNL A   1      34.946  31.123  27.693  1.00  0.00     0.060 A 
ATOM     41  C   UNL A   1      35.329  29.801  27.888  1.00  0.00     0.016 A 
ATOM     42  C   UNL A   1      35.837  32.152  27.980  1.00  0.00     0.016 A 
ATOM     43  C   UNL A   1      36.535  29.508  28.525  1.00  0.00     0.010 A 
ATOM     44  C   UNL A   1      37.088  31.851  28.531  1.00  0.00     0.010 A 
ATOM     45  C   UNL A   1      37.418  30.530  28.889  1.00  0.00    -0.014 A 
BRANCH  45  46
ATOM     46  C   UNL A   1      38.614  30.251  29.737  1.00  0.00     0.031 A 
ATOM     47  C   UNL A   1      39.728  29.375  29.210  1.00  0.00     0.074 A 
ATOM     48  C   UNL A   1      38.743  30.802  30.961  1.00  0.00     0.049 A 
ATOM     49  N   UNL A   1      40.763  28.870  29.837  1.00  0.00    -0.248 NA
ATOM     50  C   UNL A   1      39.685  29.036  27.778  1.00  0.00     0.031 C 
ATOM     51  C   UNL A   1      37.820  31.766  31.561  1.00  0.00     0.029 A 
ATOM     52  N   UNL A   1      39.703  30.618  31.928  1.00  0.00    -0.354 N 
ATOM     53  C   UNL A   1      41.466  28.135  28.889  1.00  0.00     0.074 A 
ATOM     54  C   UNL A   1      40.753  28.265  27.638  1.00  0.00     0.031 C 
ATOM     55  C   UNL A   1      38.260  32.094  32.785  1.00  0.00     0.029 A 
ATOM     56  C   UNL A   1      39.429  31.282  33.099  1.00  0.00     0.049 A 
ATOM     57  H   UNL A   1      40.507  30.067  31.794  1.00  0.00     0.167 HD
ATOM     58  C   UNL A   1      42.592  27.397  29.050  1.00  0.00     0.037 A 
ATOM     59  C   UNL A   1      40.001  31.191  34.315  1.00  0.00     0.037 A 
ATOM     60  C   UNL A   1      43.278  27.234  30.305  1.00  0.00     0.049 A 
ATOM     61  C   UNL A   1      41.143  30.234  34.517  1.00  0.00     0.074 A 
ATOM     62  C   UNL A   1      44.386  26.457  30.592  1.00  0.00     0.029 A 
ATOM     63  N   UNL A   1      42.905  27.853  31.490  1.00  0.00    -0.354 N 
ATOM     64  N   UNL A   1      41.761  29.485  33.636  1.00  0.00    -0.248 NA
ATOM     65  C   UNL A   1      41.647  30.087  35.889  1.00  0.00     0.031 C 
ATOM     66  C   UNL A   1      44.647  26.557  31.962  1.00  0.00     0.029 A 
ATOM     67  C   UNL A   1      43.741  27.447  32.517  1.00  0.00     0.049 A 
ATOM     68  H   UNL A   1      42.159  28.486  31.586  1.00  0.00     0.167 HD
ATOM     69  C   UNL A   1      42.738  28.795  34.341  1.00  0.00     0.074 A 
ATOM     70  C   UNL A   1      42.639  29.224  35.720  1.00  0.00     0.031 C 
ATOM     71  C   UNL A   1      43.636  27.887  33.884  1.00  0.00     0.037 A 
BRANCH  58  72
ATOM     72  C   UNL A   1      43.103  26.643  27.857  1.00  0.00     0.064 A 
ATOM     73  C   UNL A   1      43.851  27.267  26.848  1.00  0.00     0.173 A 
ATOM     74  C   UNL A   1      42.851  25.267  27.732  1.00  0.00     0.173 A 
ATOM     75  F   UNL A   1      44.107  28.583  26.913  1.00  0.00    -0.203 F 
ATOM     76  C   UNL A   1      44.309  26.546  25.747  1.00  0.00     0.198 A 
ATOM     77  C   UNL A   1      43.332  24.544  26.642  1.00  0.00     0.198 A 
ATOM     78  F   UNL A   1      42.143  24.622  28.671  1.00  0.00    -0.203 F 
ATOM     79  F   UNL A   1      44.986  27.170  24.773  1.00  0.00    -0.200 F 
ATOM     80  C   UNL A   1      44.053  25.186  25.647  1.00  0.00     0.200 A 
ATOM     81  F   UNL A   1      43.092  23.230  26.555  1.00  0.00    -0.200 F 
ATOM     82  F   UNL A   1      44.495  24.494  24.588  1.00  0.00    -0.200 F 
ENDBRANCH  58  72
BRANCH  59  83
ATOM     83  C   UNL A   1      39.443  31.968  35.454  1.00  0.00     0.064 A 
ATOM     84  C   UNL A   1      38.550  31.385  36.363  1.00  0.00     0.173 A 
ATOM     85  C   UNL A   1      39.793  33.313  35.659  1.00  0.00     0.173 A 
ATOM     86  F   UNL A   1      38.157  30.114  36.193  1.00  0.00    -0.203 F 
ATOM     87  C   UNL A   1      38.029  32.116  37.429  1.00  0.00     0.198 A 
ATOM     88  C   UNL A   1      39.299  34.032  36.743  1.00  0.00     0.198 A 
ATOM     89  F   UNL A   1      40.633  33.925  34.811  1.00  0.00    -0.203 F 
ATOM     90  F   UNL A   1      37.144  31.547  38.259  1.00  0.00    -0.200 F 
ATOM     91  C   UNL A   1      38.412  33.435  37.625  1.00  0.00     0.200 A 
ATOM     92  F   UNL A   1      39.682  35.302  36.933  1.00  0.00    -0.200 F 
ATOM     93  F   UNL A   1      37.917  34.134  38.655  1.00  0.00    -0.200 F 
ENDBRANCH  59  83
BRANCH  71  94
ATOM     94  C   UNL A   1      44.614  27.330  34.875  1.00  0.00     0.064 A 
ATOM     95  C   UNL A   1      45.825  27.976  35.161  1.00  0.00     0.173 A 
ATOM     96  C   UNL A   1      44.316  26.150  35.574  1.00  0.00     0.173 A 
ATOM     97  F   UNL A   1      46.162  29.098  34.507  1.00  0.00    -0.203 F 
ATOM     98  C   UNL A   1      46.713  27.449  36.095  1.00  0.00     0.198 A 
ATOM     99  C   UNL A   1      45.191  25.643  36.528  1.00  0.00     0.198 A 
ATOM    100  F   UNL A   1      43.166  25.499  35.341  1.00  0.00    -0.203 F 
ATOM    101  F   UNL A   1      47.886  28.058  36.321  1.00  0.00    -0.200 F 
ATOM    102  C   UNL A   1      46.392  26.288  36.783  1.00  0.00     0.200 A 
ATOM    103  F   UNL A   1      44.873  24.528  37.201  1.00  0.00    -0.200 F 
ATOM    104  F   UNL A   1      47.244  25.786  37.688  1.00  0.00    -0.200 F 
ENDBRANCH  71  94
ENDBRANCH  45  46
ENDBRANCH  38  40
ENDBRANCH  37  38
ENDBRANCH  36  37
ENDBRANCH  35  36
ENDBRANCH  34  35
ENDBRANCH  33  34
ENDBRANCH  32  33
ENDBRANCH   1  32
TORSDOF 23
ENDMDL
MODEL 2
REMARK VINA RESULT:     -10.8      4.715      8.954
REMARK SMILES CCOc1cnc(C(=O)c2[nH]c3cc(Cl)ccc3c2CC(=O)OCCOCCOCCOC(=O)c2ccc(-c3c4nc(c(-c5c(F)c(F)c(F)c(F)c5F)c5ccc([nH]5)c(-c5c(F)c(F)c(F)c(F)c5F)c5nc(c(-c6c(F)c(F)c(F)c(F)c6F)c6ccc3[nH]6)C=C5)C=C4)cc2)cc1CC
REMARK SMILES IDX 26 1 25 2 24 3 23 4 21 5 22 6 20 7 19 8 10 9 11 10 12 11
REMARK SMILES IDX 18 13 13 14 17 15 14 16 16 17 15 18 8 19 9 20 7 21 4 22 5 23
REMARK SMILES IDX 99 24 6 25 98 26 3 27 2 28 1 29 100 30 101 31 27 32 28 33
REMARK SMILES IDX 29 34 30 35 31 36 32 37 33 38 34 39 35 40 36 41 97 42 37 43
REMARK SMILES IDX 96 44 38 45 39 46 40 47 90 48 41 49 95 50 89 51 91 52 42 53
REMARK SMILES IDX 94 54 88 55 87 56 43 58 75 59 55 60 74 61 56 62 59 63 73 64
REMARK SMILES IDX 92 65 57 66 58 67 72 69 93 70 60 71 44 72 45 73 53 74 46 75
REMARK SMILES IDX 47 76 51 77 54 78 48 79 49 80 52 81 50 82 76 83 77 84 85 85
REMARK SMILES IDX 78 86 79 87 83 88 86 89 80 90 81 91 84 92 82 93 61 94 62 95
REMARK SMILES IDX 70 96 63 97 64 98 68 99 71 100 65 101 66 102 69 103 67 104
REMARK H PARENT 11 12 91 57 59 68
REMARK Flexibility Score: inf
ROOT
ATOM      1  O   UNL A   1      39.780  22.599  26.272  1.00  0.00    -0.376 OA
ENDROOT
BRANCH   1   2
ATOM      2  C   UNL A   1      38.854  23.670  26.392  1.00  0.00     0.202 C 
BRANCH   2   3
ATOM      3  C   UNL A   1      37.474  23.427  25.779  1.00  0.00     0.261 C 
BRANCH   3   4
ATOM      4  O   UNL A   1      36.882  22.168  26.181  1.00  0.00    -0.463 OA
BRANCH   4   5
ATOM      5  C   UNL A   1      36.836  21.205  25.225  1.00  0.00     0.310 C 
ATOM      6  O   UNL A   1      37.777  20.450  24.980  1.00  0.00    -0.252 OA
BRANCH   5   7
ATOM      7  C   UNL A   1      35.578  21.149  24.381  1.00  0.00     0.161 C 
BRANCH   7   8
ATOM      8  C   UNL A   1      34.341  20.434  24.872  1.00  0.00     0.000 A 
ATOM      9  C   UNL A   1      33.388  20.909  25.780  1.00  0.00     0.093 A 
ATOM     10  N   UNL A   1      32.419  19.937  25.890  1.00  0.00    -0.351 N 
ATOM     11  C   UNL A   1      32.912  18.740  25.441  1.00  0.00     0.048 A 
ATOM     12  H   UNL A   1      31.509  20.081  26.239  1.00  0.00     0.167 HD
ATOM     13  C   UNL A   1      34.092  19.022  24.756  1.00  0.00     0.004 A 
ATOM     14  C   UNL A   1      32.412  17.445  25.617  1.00  0.00     0.047 A 
ATOM     15  C   UNL A   1      34.814  17.943  24.205  1.00  0.00     0.012 A 
ATOM     16  C   UNL A   1      33.182  16.395  25.113  1.00  0.00     0.043 A 
ATOM     17  C   UNL A   1      34.361  16.633  24.414  1.00  0.00     0.021 A 
ATOM     18  Cl  UNL A   1      32.675  14.774  25.396  1.00  0.00    -0.084 Cl
BRANCH   9  19
ATOM     19  C   UNL A   1      33.359  22.178  26.484  1.00  0.00     0.227 C 
ATOM     20  O   UNL A   1      33.656  22.257  27.676  1.00  0.00    -0.285 OA
BRANCH  19  21
ATOM     21  C   UNL A   1      32.918  23.421  25.763  1.00  0.00     0.113 A 
ATOM     22  C   UNL A   1      32.416  25.616  24.198  1.00  0.00     0.140 A 
ATOM     23  C   UNL A   1      32.304  24.321  23.728  1.00  0.00     0.158 A 
ATOM     24  C   UNL A   1      32.647  25.809  25.559  1.00  0.00    -0.002 A 
ATOM     25  N   UNL A   1      32.545  23.230  24.480  1.00  0.00    -0.249 NA
ATOM     26  C   UNL A   1      32.951  24.684  26.348  1.00  0.00     0.040 A 
BRANCH  22  27
ATOM     27  O   UNL A   1      32.291  26.667  23.336  1.00  0.00    -0.492 OA
BRANCH  27  28
ATOM     28  C   UNL A   1      33.525  26.890  22.623  1.00  0.00     0.226 C 
ATOM     29  C   UNL A   1      33.671  28.364  22.282  1.00  0.00     0.049 C 
ENDBRANCH  27  28
ENDBRANCH  22  27
BRANCH  24  30
ATOM     30  C   UNL A   1      32.544  27.174  26.189  1.00  0.00     0.036 C 
ATOM     31  C   UNL A   1      33.921  27.796  26.372  1.00  0.00     0.009 C 
ENDBRANCH  24  30
ENDBRANCH  19  21
ENDBRANCH   9  19
ENDBRANCH   7   8
ENDBRANCH   5   7
ENDBRANCH   4   5
ENDBRANCH   3   4
ENDBRANCH   2   3
ENDBRANCH   1   2
BRANCH   1  32
ATOM     32  C   UNL A   1      40.290  22.022  27.467  1.00  0.00     0.188 C 
BRANCH  32  33
ATOM     33  C   UNL A   1      41.808  22.071  27.723  1.00  0.00     0.188 C 
BRANCH  33  34
ATOM     34  O   UNL A   1      42.565  20.871  27.633  1.00  0.00    -0.376 OA
BRANCH  34  35
ATOM     35  C   UNL A   1      41.849  19.660  27.418  1.00  0.00     0.202 C 
BRANCH  35  36
ATOM     36  C   UNL A   1      42.382  18.824  26.261  1.00  0.00     0.261 C 
BRANCH  36  37
ATOM     37  O   UNL A   1      42.773  19.673  25.166  1.00  0.00    -0.460 OA
BRANCH  37  38
ATOM     38  C   UNL A   1      44.062  19.541  24.782  1.00  0.00     0.338 C 
ATOM     39  O   UNL A   1      44.628  18.522  24.426  1.00  0.00    -0.246 OA
BRANCH  38  40
ATOM     40  C   UNL A   1      44.754  20.839  24.830  1.00  0.00     0.060 A 
ATOM     41  C   UNL A   1      45.510  21.167  25.949  1.00  0.00     0.016 A 
ATOM     42  C   UNL A   1      44.426  21.821  23.901  1.00  0.00     0.016 A 
ATOM     43  C   UNL A   1      45.798  22.503  26.230  1.00  0.00     0.010 A 
ATOM     44  C   UNL A   1      44.801  23.149  24.137  1.00  0.00     0.010 A 
ATOM     45  C   UNL A   1      45.418  23.519  25.346  1.00  0.00    -0.014 A 
BRANCH  45  46
ATOM     46  C   UNL A   1      45.548  24.958  25.723  1.00  0.00     0.031 A 
ATOM     47  C   UNL A   1      46.880  25.660  25.582  1.00  0.00     0.074 A 
ATOM     48  C   UNL A   1      44.482  25.663  26.151  1.00  0.00     0.049 A 
ATOM     49  N   UNL A   1      47.251  26.842  26.009  1.00  0.00    -0.248 NA
ATOM     50  C   UNL A   1      47.934  24.942  24.847  1.00  0.00     0.031 C 
ATOM     51  C   UNL A   1      43.106  25.169  26.221  1.00  0.00     0.029 A 
ATOM     52  N   UNL A   1      44.393  26.953  26.620  1.00  0.00    -0.354 N 
ATOM     53  C   UNL A   1      48.578  26.992  25.622  1.00  0.00     0.074 A 
ATOM     54  C   UNL A   1      48.951  25.788  24.916  1.00  0.00     0.031 C 
ATOM     55  C   UNL A   1      42.312  26.140  26.695  1.00  0.00     0.029 A 
ATOM     56  C   UNL A   1      43.137  27.283  27.068  1.00  0.00     0.049 A 
ATOM     57  H   UNL A   1      45.154  27.577  26.634  1.00  0.00     0.167 HD
ATOM     58  C   UNL A   1      49.418  28.030  25.856  1.00  0.00     0.037 A 
ATOM     59  C   UNL A   1      42.706  28.348  27.771  1.00  0.00     0.037 A 
ATOM     60  C   UNL A   1      49.058  29.210  26.596  1.00  0.00     0.049 A 
ATOM     61  C   UNL A   1      43.694  29.408  28.171  1.00  0.00     0.074 A 
ATOM     62  C   UNL A   1      49.852  30.288  26.947  1.00  0.00     0.029 A 
ATOM     63  N   UNL A   1      47.795  29.458  27.114  1.00  0.00    -0.354 N 
ATOM     64  N   UNL A   1      44.965  29.513  27.867  1.00  0.00    -0.248 NA
ATOM     65  C   UNL A   1      43.194  30.483  29.039  1.00  0.00     0.031 C 
ATOM     66  C   UNL A   1      49.086  31.159  27.729  1.00  0.00     0.029 A 
ATOM     67  C   UNL A   1      47.797  30.654  27.812  1.00  0.00     0.049 A 
ATOM     68  H   UNL A   1      47.014  28.870  27.002  1.00  0.00     0.167 HD
ATOM     69  C   UNL A   1      45.411  30.673  28.486  1.00  0.00     0.074 A 
ATOM     70  C   UNL A   1      44.271  31.244  29.174  1.00  0.00     0.031 C 
ATOM     71  C   UNL A   1      46.654  31.214  28.485  1.00  0.00     0.037 A 
BRANCH  58  72
ATOM     72  C   UNL A   1      50.835  27.894  25.377  1.00  0.00     0.064 A 
ATOM     73  C   UNL A   1      51.194  28.135  24.043  1.00  0.00     0.173 A 
ATOM     74  C   UNL A   1      51.852  27.533  26.275  1.00  0.00     0.173 A 
ATOM     75  F   UNL A   1      50.258  28.470  23.141  1.00  0.00    -0.203 F 
ATOM     76  C   UNL A   1      52.516  27.997  23.621  1.00  0.00     0.198 A 
ATOM     77  C   UNL A   1      53.175  27.420  25.856  1.00  0.00     0.198 A 
ATOM     78  F   UNL A   1      51.562  27.295  27.563  1.00  0.00    -0.203 F 
ATOM     79  F   UNL A   1      52.830  28.191  22.333  1.00  0.00    -0.200 F 
ATOM     80  C   UNL A   1      53.504  27.645  24.528  1.00  0.00     0.200 A 
ATOM     81  F   UNL A   1      54.129  27.090  26.737  1.00  0.00    -0.200 F 
ATOM     82  F   UNL A   1      54.775  27.514  24.122  1.00  0.00    -0.200 F 
ENDBRANCH  58  72
BRANCH  59  83
ATOM     83  C   UNL A   1      41.288  28.417  28.213  1.00  0.00     0.064 A 
ATOM     84  C   UNL A   1      40.893  27.928  29.465  1.00  0.00     0.173 A 
ATOM     85  C   UNL A   1      40.295  28.977  27.391  1.00  0.00     0.173 A 
ATOM     86  F   UNL A   1      41.795  27.353  30.273  1.00  0.00    -0.203 F 
ATOM     87  C   UNL A   1      39.563  27.994  29.876  1.00  0.00     0.198 A 
ATOM     88  C   UNL A   1      38.974  29.074  27.816  1.00  0.00     0.198 A 
ATOM     89  F   UNL A   1      40.616  29.448  26.177  1.00  0.00    -0.203 F 
ATOM     90  F   UNL A   1      39.204  27.480  31.061  1.00  0.00    -0.200 F 
ATOM     91  C   UNL A   1      38.607  28.577  29.057  1.00  0.00     0.200 A 
ATOM     92  F   UNL A   1      38.058  29.648  27.025  1.00  0.00    -0.200 F 
ATOM     93  F   UNL A   1      37.330  28.648  29.457  1.00  0.00    -0.200 F 
ENDBRANCH  59  83
BRANCH  71  94
ATOM     94  C   UNL A   1      46.838  32.514  29.211  1.00  0.00     0.064 A 
ATOM     95  C   UNL A   1      46.618  33.749  28.584  1.00  0.00     0.173 A 
ATOM     96  C   UNL A   1      47.205  32.519  30.566  1.00  0.00     0.173 A 
ATOM     97  F   UNL A   1      46.282  33.795  27.286  1.00  0.00    -0.203 F 
ATOM     98  C   UNL A   1      46.782  34.943  29.280  1.00  0.00     0.198 A 
ATOM     99  C   UNL A   1      47.338  33.713  31.266  1.00  0.00     0.198 A 
ATOM    100  F   UNL A   1      47.421  31.363  31.212  1.00  0.00    -0.203 F 
ATOM    101  F   UNL A   1      46.611  36.113  28.650  1.00  0.00    -0.200 F 
ATOM    102  C   UNL A   1      47.133  34.924  30.622  1.00  0.00     0.200 A 
ATOM    103  F   UNL A   1      47.665  33.692  32.566  1.00  0.00    -0.200 F 
ATOM    104  F   UNL A   1      47.282  36.074  31.294  1.00  0.00    -0.200 F 
ENDBRANCH  71  94
ENDBRANCH  45  46
ENDBRANCH  38  40
ENDBRANCH  37  38
ENDBRANCH  36  37
ENDBRANCH  35  36
ENDBRANCH  34  35
ENDBRANCH  33  34
ENDBRANCH  32  33
ENDBRANCH   1  32
TORSDOF 23
ENDMDL
MODEL 3
REMARK VINA RESULT:     -10.3      5.053      9.358
REMARK SMILES CCOc1cnc(C(=O)c2[nH]c3cc(Cl)ccc3c2CC(=O)OCCOCCOCCOC(=O)c2ccc(-c3c4nc(c(-c5c(F)c(F)c(F)c(F)c5F)c5ccc([nH]5)c(-c5c(F)c(F)c(F)c(F)c5F)c5nc(c(-c6c(F)c(F)c(F)c(F)c6F)c6ccc3[nH]6)C=C5)C=C4)cc2)cc1CC
REMARK SMILES IDX 26 1 25 2 24 3 23 4 21 5 22 6 20 7 19 8 10 9 11 10 12 11
REMARK SMILES IDX 18 13 13 14 17 15 14 16 16 17 15 18 8 19 9 20 7 21 4 22 5 23
REMARK SMILES IDX 99 24 6 25 98 26 3 27 2 28 1 29 100 30 101 31 27 32 28 33
REMARK SMILES IDX 29 34 30 35 31 36 32 37 33 38 34 39 35 40 36 41 97 42 37 43
REMARK SMILES IDX 96 44 38 45 39 46 40 47 90 48 41 49 95 50 89 51 91 52 42 53
REMARK SMILES IDX 94 54 88 55 87 56 43 58 75 59 55 60 74 61 56 62 59 63 73 64
REMARK SMILES IDX 92 65 57 66 58 67 72 69 93 70 60 71 44 72 45 73 53 74 46 75
REMARK SMILES IDX 47 76 51 77 54 78 48 79 49 80 52 81 50 82 76 83 77 84 85 85
REMARK SMILES IDX 78 86 79 87 83 88 86 89 80 90 81 91 84 92 82 93 61 94 62 95
REMARK SMILES IDX 70 96 63 97 64 98 68 99 71 100 65 101 66 102 69 103 67 104
REMARK H PARENT 11 12 91 57 59 68
REMARK Flexibility Score: inf
ROOT
ATOM      1  O   UNL A   1      38.270  21.635  25.224  1.00  0.00    -0.376 OA
ENDROOT
BRANCH   1   2
ATOM      2  C   UNL A   1      37.250  22.454  25.779  1.00  0.00     0.202 C 
BRANCH   2   3
ATOM      3  C   UNL A   1      36.908  23.718  24.989  1.00  0.00     0.261 C 
BRANCH   3   4
ATOM      4  O   UNL A   1      35.485  23.924  24.826  1.00  0.00    -0.463 OA
BRANCH   4   5
ATOM      5  C   UNL A   1      35.038  23.981  23.545  1.00  0.00     0.310 C 
ATOM      6  O   UNL A   1      35.365  23.169  22.679  1.00  0.00    -0.252 OA
BRANCH   5   7
ATOM      7  C   UNL A   1      34.169  25.168  23.183  1.00  0.00     0.161 C 
BRANCH   7   8
ATOM      8  C   UNL A   1      33.099  25.668  24.126  1.00  0.00     0.000 A 
ATOM      9  C   UNL A   1      31.845  25.096  24.368  1.00  0.00     0.093 A 
ATOM     10  N   UNL A   1      31.233  25.866  25.333  1.00  0.00    -0.351 N 
ATOM     11  C   UNL A   1      31.841  27.092  25.400  1.00  0.00     0.048 A 
ATOM     12  H   UNL A   1      30.473  25.578  25.890  1.00  0.00     0.167 HD
ATOM     13  C   UNL A   1      33.038  26.987  24.694  1.00  0.00     0.004 A 
ATOM     14  C   UNL A   1      31.404  28.275  26.008  1.00  0.00     0.047 A 
ATOM     15  C   UNL A   1      33.853  28.133  24.596  1.00  0.00     0.012 A 
ATOM     16  C   UNL A   1      32.204  29.406  25.839  1.00  0.00     0.043 A 
ATOM     17  C   UNL A   1      33.411  29.343  25.150  1.00  0.00     0.021 A 
ATOM     18  Cl  UNL A   1      31.663  30.915  26.469  1.00  0.00    -0.084 Cl
BRANCH   9  19
ATOM     19  C   UNL A   1      31.254  23.914  23.768  1.00  0.00     0.227 C 
ATOM     20  O   UNL A   1      30.240  23.984  23.075  1.00  0.00    -0.285 OA
BRANCH  19  21
ATOM     21  C   UNL A   1      31.863  22.564  24.027  1.00  0.00     0.113 A 
ATOM     22  C   UNL A   1      32.609  19.956  24.425  1.00  0.00     0.140 A 
ATOM     23  C   UNL A   1      32.177  20.431  23.202  1.00  0.00     0.158 A 
ATOM     24  C   UNL A   1      32.816  20.871  25.456  1.00  0.00    -0.002 A 
ATOM     25  N   UNL A   1      31.807  21.707  22.985  1.00  0.00    -0.249 NA
ATOM     26  C   UNL A   1      32.387  22.197  25.264  1.00  0.00     0.040 A 
BRANCH  22  27
ATOM     27  O   UNL A   1      32.831  18.621  24.598  1.00  0.00    -0.492 OA
BRANCH  27  28
ATOM     28  C   UNL A   1      33.364  18.033  23.392  1.00  0.00     0.226 C 
ATOM     29  C   UNL A   1      34.003  16.690  23.705  1.00  0.00     0.049 C 
ENDBRANCH  27  28
ENDBRANCH  22  27
BRANCH  24  30
ATOM     30  C   UNL A   1      33.508  20.474  26.734  1.00  0.00     0.036 C 
ATOM     31  C   UNL A   1      34.033  21.697  27.473  1.00  0.00     0.009 C 
ENDBRANCH  24  30
ENDBRANCH  19  21
ENDBRANCH   9  19
ENDBRANCH   7   8
ENDBRANCH   5   7
ENDBRANCH   4   5
ENDBRANCH   3   4
ENDBRANCH   2   3
ENDBRANCH   1   2
BRANCH   1  32
ATOM     32  C   UNL A   1      39.287  21.156  26.094  1.00  0.00     0.188 C 
BRANCH  32  33
ATOM     33  C   UNL A   1      40.497  22.063  26.389  1.00  0.00     0.188 C 
BRANCH  33  34
ATOM     34  O   UNL A   1      41.757  21.467  26.673  1.00  0.00    -0.376 OA
BRANCH  34  35
ATOM     35  C   UNL A   1      41.749  20.160  27.236  1.00  0.00     0.202 C 
BRANCH  35  36
ATOM     36  C   UNL A   1      42.350  19.094  26.328  1.00  0.00     0.261 C 
BRANCH  36  37
ATOM     37  O   UNL A   1      42.714  19.663  25.057  1.00  0.00    -0.460 OA
BRANCH  37  38
ATOM     38  C   UNL A   1      44.014  19.511  24.723  1.00  0.00     0.338 C 
ATOM     39  O   UNL A   1      44.577  18.484  24.381  1.00  0.00    -0.246 OA
BRANCH  38  40
ATOM     40  C   UNL A   1      44.726  20.796  24.809  1.00  0.00     0.060 A 
ATOM     41  C   UNL A   1      45.409  21.120  25.975  1.00  0.00     0.016 A 
ATOM     42  C   UNL A   1      44.484  21.775  23.851  1.00  0.00     0.016 A 
ATOM     43  C   UNL A   1      45.703  22.453  26.265  1.00  0.00     0.010 A 
ATOM     44  C   UNL A   1      44.867  23.098  24.102  1.00  0.00     0.010 A 
ATOM     45  C   UNL A   1      45.405  23.467  25.349  1.00  0.00    -0.014 A 
BRANCH  45  46
ATOM     46  C   UNL A   1      45.536  24.907  25.722  1.00  0.00     0.031 A 
ATOM     47  C   UNL A   1      46.866  25.610  25.571  1.00  0.00     0.074 A 
ATOM     48  C   UNL A   1      44.473  25.612  26.157  1.00  0.00     0.049 A 
ATOM     49  N   UNL A   1      47.239  26.794  25.992  1.00  0.00    -0.248 NA
ATOM     50  C   UNL A   1      47.916  24.892  24.829  1.00  0.00     0.031 C 
ATOM     51  C   UNL A   1      43.099  25.116  26.238  1.00  0.00     0.029 A 
ATOM     52  N   UNL A   1      44.387  26.902  26.625  1.00  0.00    -0.354 N 
ATOM     53  C   UNL A   1      48.563  26.944  25.596  1.00  0.00     0.074 A 
ATOM     54  C   UNL A   1      48.933  25.739  24.888  1.00  0.00     0.031 C 
ATOM     55  C   UNL A   1      42.307  26.088  26.717  1.00  0.00     0.029 A 
ATOM     56  C   UNL A   1      43.133  27.232  27.081  1.00  0.00     0.049 A 
ATOM     57  H   UNL A   1      45.146  27.528  26.632  1.00  0.00     0.167 HD
ATOM     58  C   UNL A   1      49.405  27.983  25.822  1.00  0.00     0.037 A 
ATOM     59  C   UNL A   1      42.707  28.298  27.785  1.00  0.00     0.037 A 
ATOM     60  C   UNL A   1      49.049  29.164  26.562  1.00  0.00     0.049 A 
ATOM     61  C   UNL A   1      43.697  29.360  28.177  1.00  0.00     0.074 A 
ATOM     62  C   UNL A   1      49.844  30.244  26.905  1.00  0.00     0.029 A 
ATOM     63  N   UNL A   1      47.790  29.411  27.089  1.00  0.00    -0.354 N 
ATOM     64  N   UNL A   1      44.965  29.465  27.863  1.00  0.00    -0.248 NA
ATOM     65  C   UNL A   1      43.202  30.436  29.046  1.00  0.00     0.031 C 
ATOM     66  C   UNL A   1      49.083  31.115  27.692  1.00  0.00     0.029 A 
ATOM     67  C   UNL A   1      47.796  30.609  27.785  1.00  0.00     0.049 A 
ATOM     68  H   UNL A   1      47.009  28.823  26.984  1.00  0.00     0.167 HD
ATOM     69  C   UNL A   1      45.414  30.627  28.477  1.00  0.00     0.074 A 
ATOM     70  C   UNL A   1      44.280  31.197  29.172  1.00  0.00     0.031 C 
ATOM     71  C   UNL A   1      46.657  31.169  28.466  1.00  0.00     0.037 A 
BRANCH  58  72
ATOM     72  C   UNL A   1      50.818  27.848  25.332  1.00  0.00     0.064 A 
ATOM     73  C   UNL A   1      51.871  27.495  26.188  1.00  0.00     0.173 A 
ATOM     74  C   UNL A   1      51.117  28.061  23.977  1.00  0.00     0.173 A 
ATOM     75  F   UNL A   1      51.640  27.294  27.495  1.00  0.00    -0.203 F 
ATOM     76  C   UNL A   1      53.175  27.382  25.710  1.00  0.00     0.198 A 
ATOM     77  C   UNL A   1      52.418  27.923  23.497  1.00  0.00     0.198 A 
ATOM     78  F   UNL A   1      50.146  28.397  23.115  1.00  0.00    -0.203 F 
ATOM     79  F   UNL A   1      54.173  27.085  26.553  1.00  0.00    -0.200 F 
ATOM     80  C   UNL A   1      53.446  27.591  24.366  1.00  0.00     0.200 A 
ATOM     81  F   UNL A   1      52.674  28.116  22.197  1.00  0.00    -0.200 F 
ATOM     82  F   UNL A   1      54.701  27.481  23.907  1.00  0.00    -0.200 F 
ENDBRANCH  58  72
BRANCH  59  83
ATOM     83  C   UNL A   1      41.291  28.367  28.238  1.00  0.00     0.064 A 
ATOM     84  C   UNL A   1      40.294  28.916  27.422  1.00  0.00     0.173 A 
ATOM     85  C   UNL A   1      40.906  27.881  29.499  1.00  0.00     0.173 A 
ATOM     86  F   UNL A   1      40.615  29.425  26.224  1.00  0.00    -0.203 F 
ATOM     87  C   UNL A   1      38.969  28.980  27.849  1.00  0.00     0.198 A 
ATOM     88  C   UNL A   1      39.577  27.913  29.911  1.00  0.00     0.198 A 
ATOM     89  F   UNL A   1      41.823  27.357  30.326  1.00  0.00    -0.203 F 
ATOM     90  F   UNL A   1      38.042  29.549  27.067  1.00  0.00    -0.200 F 
ATOM     91  C   UNL A   1      38.610  28.468  29.088  1.00  0.00     0.200 A 
ATOM     92  F   UNL A   1      39.235  27.407  31.103  1.00  0.00    -0.200 F 
ATOM     93  F   UNL A   1      37.334  28.521  29.494  1.00  0.00    -0.200 F 
ENDBRANCH  59  83
BRANCH  71  94
ATOM     94  C   UNL A   1      46.845  32.470  29.188  1.00  0.00     0.064 A 
ATOM     95  C   UNL A   1      47.253  32.518  30.529  1.00  0.00     0.173 A 
ATOM     96  C   UNL A   1      46.648  33.686  28.516  1.00  0.00     0.173 A 
ATOM     97  F   UNL A   1      47.438  31.382  31.219  1.00  0.00    -0.203 F 
ATOM     98  C   UNL A   1      47.435  33.736  31.178  1.00  0.00     0.198 A 
ATOM     99  C   UNL A   1      46.860  34.901  29.159  1.00  0.00     0.198 A 
ATOM    100  F   UNL A   1      46.264  33.693  27.231  1.00  0.00    -0.203 F 
ATOM    101  F   UNL A   1      47.782  33.760  32.472  1.00  0.00    -0.200 F 
ATOM    102  C   UNL A   1      47.246  34.926  30.490  1.00  0.00     0.200 A 
ATOM    103  F   UNL A   1      46.690  36.050  28.488  1.00  0.00    -0.200 F 
ATOM    104  F   UNL A   1      47.430  36.098  31.114  1.00  0.00    -0.200 F 
ENDBRANCH  71  94
ENDBRANCH  45  46
ENDBRANCH  38  40
ENDBRANCH  37  38
ENDBRANCH  36  37
ENDBRANCH  35  36
ENDBRANCH  34  35
ENDBRANCH  33  34
ENDBRANCH  32  33
ENDBRANCH   1  32
TORSDOF 23
ENDMDL
