MODEL 1
REMARK VINA RESULT:     -10.6      0.000      0.000
REMARK SMILES O=C(/C=C/c1c(Cl)cccc1Cl)NCC(=O)OCCOCCOCCOC(=O)c1ccc(-c2c3nc(c(-c4c(F)c(F)c(F)c(F)c4F)c4ccc([nH]4)c(-c4c(F)c(F)c(F)c(F)c4F)c4nc(c(-c5c(F)c(F)c(F)c(F)c5F)c5ccc2[nH]5)C=C4)C=C3)cc1
REMARK SMILES IDX 21 1 20 2 19 3 18 4 17 5 15 6 16 7 14 8 13 9 1 10 2 11 3 13
REMARK SMILES IDX 4 14 5 15 6 16 11 17 7 18 8 19 10 20 12 21 9 22 22 23 23 24
REMARK SMILES IDX 24 25 25 26 26 27 27 28 28 29 29 30 30 31 91 32 31 33 90 34
REMARK SMILES IDX 32 35 33 36 34 37 84 38 35 39 89 40 83 41 85 42 36 43 88 44
REMARK SMILES IDX 82 45 81 46 37 48 69 49 49 50 68 51 50 52 53 53 67 54 86 55
REMARK SMILES IDX 51 56 52 57 66 59 87 60 54 61 38 62 39 63 47 64 40 65 41 66
REMARK SMILES IDX 45 67 48 68 42 69 43 70 46 71 44 72 70 73 71 74 79 75 72 76
REMARK SMILES IDX 73 77 77 78 80 79 74 80 75 81 78 82 76 83 55 84 56 85 64 86
REMARK SMILES IDX 57 87 58 88 62 89 65 90 59 91 60 92 63 93 61 94
REMARK H PARENT 13 12 85 47 53 58
REMARK Flexibility Score: inf
ROOT
ATOM      1  C   UNL A   1      32.235  29.009  25.252  1.00  0.00     0.188 C 
ENDROOT
BRANCH   1   2
ATOM      2  O   UNL A   1      33.028  29.068  24.076  1.00  0.00    -0.376 OA
BRANCH   2   3
ATOM      3  C   UNL A   1      32.468  28.571  22.860  1.00  0.00     0.202 C 
BRANCH   3   4
ATOM      4  C   UNL A   1      31.178  29.211  22.309  1.00  0.00     0.261 C 
BRANCH   4   5
ATOM      5  O   UNL A   1      30.086  28.284  22.104  1.00  0.00    -0.462 OA
BRANCH   5   6
ATOM      6  C   UNL A   1      29.120  28.268  23.060  1.00  0.00     0.325 C 
ATOM      7  O   UNL A   1      28.254  29.133  23.175  1.00  0.00    -0.250 OA
BRANCH   6   8
ATOM      8  C   UNL A   1      29.059  26.969  23.887  1.00  0.00     0.239 C 
BRANCH   8   9
ATOM      9  N   UNL A   1      30.193  26.062  24.033  1.00  0.00    -0.342 N 
ATOM     10  O   UNL A   1      29.775  25.568  26.218  1.00  0.00    -0.270 OA
ATOM     11  C   UNL A   1      30.440  25.402  25.202  1.00  0.00     0.244 C 
ATOM     12  H   UNL A   1      30.797  25.922  23.268  1.00  0.00     0.164 HD
BRANCH  11  13
ATOM     13  C   UNL A   1      31.519  24.372  25.185  1.00  0.00     0.072 C 
ATOM     14  C   UNL A   1      32.815  24.504  25.524  1.00  0.00     0.017 C 
BRANCH  14  15
ATOM     15  C   UNL A   1      33.754  23.350  25.502  1.00  0.00     0.012 A 
ATOM     16  C   UNL A   1      33.908  22.472  26.596  1.00  0.00     0.049 A 
ATOM     17  C   UNL A   1      34.539  23.090  24.360  1.00  0.00     0.049 A 
ATOM     18  Cl  UNL A   1      32.929  22.584  28.020  1.00  0.00    -0.084 Cl
ATOM     19  C   UNL A   1      34.853  21.433  26.569  1.00  0.00     0.021 A 
ATOM     20  C   UNL A   1      35.473  22.045  24.331  1.00  0.00     0.021 A 
ATOM     21  Cl  UNL A   1      34.415  24.042  22.922  1.00  0.00    -0.084 Cl
ATOM     22  C   UNL A   1      35.643  21.226  25.442  1.00  0.00     0.003 A 
ENDBRANCH  14  15
ENDBRANCH  11  13
ENDBRANCH   8   9
ENDBRANCH   6   8
ENDBRANCH   5   6
ENDBRANCH   4   5
ENDBRANCH   3   4
ENDBRANCH   2   3
ENDBRANCH   1   2
BRANCH   1  23
ATOM     23  C   UNL A   1      31.470  30.266  25.688  1.00  0.00     0.188 C 
BRANCH  23  24
ATOM     24  O   UNL A   1      32.064  31.024  26.706  1.00  0.00    -0.376 OA
BRANCH  24  25
ATOM     25  C   UNL A   1      31.779  32.401  26.854  1.00  0.00     0.202 C 
BRANCH  25  26
ATOM     26  C   UNL A   1      32.748  33.448  27.437  1.00  0.00     0.261 C 
BRANCH  26  27
ATOM     27  O   UNL A   1      32.234  34.420  28.354  1.00  0.00    -0.460 OA
BRANCH  27  28
ATOM     28  C   UNL A   1      33.079  35.400  28.744  1.00  0.00     0.338 C 
ATOM     29  O   UNL A   1      32.884  36.607  28.713  1.00  0.00    -0.246 OA
BRANCH  28  30
ATOM     30  C   UNL A   1      34.199  34.763  29.467  1.00  0.00     0.060 A 
ATOM     31  C   UNL A   1      35.465  34.734  28.862  1.00  0.00     0.016 A 
ATOM     32  C   UNL A   1      34.010  34.219  30.738  1.00  0.00     0.016 A 
ATOM     33  C   UNL A   1      36.545  34.145  29.520  1.00  0.00     0.010 A 
ATOM     34  C   UNL A   1      35.085  33.602  31.384  1.00  0.00     0.010 A 
ATOM     35  C   UNL A   1      36.349  33.540  30.768  1.00  0.00    -0.014 A 
BRANCH  35  36
ATOM     36  C   UNL A   1      37.406  32.671  31.341  1.00  0.00     0.031 A 
ATOM     37  C   UNL A   1      37.918  32.989  32.718  1.00  0.00     0.074 A 
ATOM     38  C   UNL A   1      37.898  31.619  30.663  1.00  0.00     0.049 A 
ATOM     39  N   UNL A   1      38.894  32.440  33.393  1.00  0.00    -0.248 NA
ATOM     40  C   UNL A   1      37.236  34.085  33.427  1.00  0.00     0.031 C 
ATOM     41  C   UNL A   1      37.449  31.175  29.348  1.00  0.00     0.029 A 
ATOM     42  N   UNL A   1      38.902  30.743  30.993  1.00  0.00    -0.354 N 
ATOM     43  C   UNL A   1      38.951  33.128  34.598  1.00  0.00     0.074 A 
ATOM     44  C   UNL A   1      37.931  34.153  34.550  1.00  0.00     0.031 C 
ATOM     45  C   UNL A   1      38.189  30.115  28.972  1.00  0.00     0.029 A 
ATOM     46  C   UNL A   1      39.187  29.836  30.003  1.00  0.00     0.049 A 
ATOM     47  H   UNL A   1      39.372  30.762  31.859  1.00  0.00     0.167 HD
ATOM     48  C   UNL A   1      39.775  32.918  35.651  1.00  0.00     0.037 A 
ATOM     49  C   UNL A   1      40.164  28.910  29.928  1.00  0.00     0.037 A 
ATOM     50  C   UNL A   1      40.792  31.901  35.694  1.00  0.00     0.049 A 
ATOM     51  C   UNL A   1      41.131  28.757  31.078  1.00  0.00     0.074 A 
ATOM     52  C   UNL A   1      41.670  31.601  36.719  1.00  0.00     0.029 A 
ATOM     53  N   UNL A   1      41.074  31.024  34.656  1.00  0.00    -0.354 N 
ATOM     54  N   UNL A   1      41.170  29.396  32.222  1.00  0.00    -0.248 NA
ATOM     55  C   UNL A   1      42.190  27.750  30.922  1.00  0.00     0.031 C 
ATOM     56  C   UNL A   1      42.524  30.585  36.281  1.00  0.00     0.029 A 
ATOM     57  C   UNL A   1      42.133  30.203  35.008  1.00  0.00     0.049 A 
ATOM     58  H   UNL A   1      40.592  30.990  33.798  1.00  0.00     0.167 HD
ATOM     59  C   UNL A   1      42.229  28.846  32.934  1.00  0.00     0.074 A 
ATOM     60  C   UNL A   1      42.801  27.813  32.098  1.00  0.00     0.031 C 
ATOM     61  C   UNL A   1      42.686  29.167  34.170  1.00  0.00     0.037 A 
BRANCH  48  62
ATOM     62  C   UNL A   1      39.633  33.834  36.833  1.00  0.00     0.064 A 
ATOM     63  C   UNL A   1      40.258  35.090  36.877  1.00  0.00     0.173 A 
ATOM     64  C   UNL A   1      38.838  33.460  37.927  1.00  0.00     0.173 A 
ATOM     65  F   UNL A   1      41.043  35.489  35.865  1.00  0.00    -0.203 F 
ATOM     66  C   UNL A   1      40.115  35.922  37.984  1.00  0.00     0.198 A 
ATOM     67  C   UNL A   1      38.669  34.309  39.017  1.00  0.00     0.198 A 
ATOM     68  F   UNL A   1      38.216  32.270  37.937  1.00  0.00    -0.203 F 
ATOM     69  F   UNL A   1      40.765  37.094  38.027  1.00  0.00    -0.200 F 
ATOM     70  C   UNL A   1      39.315  35.536  39.048  1.00  0.00     0.200 A 
ATOM     71  F   UNL A   1      37.884  33.939  40.037  1.00  0.00    -0.200 F 
ATOM     72  F   UNL A   1      39.173  36.342  40.109  1.00  0.00    -0.200 F 
ENDBRANCH  48  62
BRANCH  49  73
ATOM     73  C   UNL A   1      40.298  28.061  28.714  1.00  0.00     0.064 A 
ATOM     74  C   UNL A   1      39.694  26.798  28.644  1.00  0.00     0.173 A 
ATOM     75  C   UNL A   1      41.059  28.480  27.612  1.00  0.00     0.173 A 
ATOM     76  F   UNL A   1      38.980  26.339  29.682  1.00  0.00    -0.203 F 
ATOM     77  C   UNL A   1      39.865  25.977  27.530  1.00  0.00     0.198 A 
ATOM     78  C   UNL A   1      41.203  27.672  26.485  1.00  0.00     0.198 A 
ATOM     79  F   UNL A   1      41.664  29.677  27.629  1.00  0.00    -0.203 F 
ATOM     80  F   UNL A   1      39.325  24.752  27.515  1.00  0.00    -0.200 F 
ATOM     81  C   UNL A   1      40.614  26.418  26.449  1.00  0.00     0.200 A 
ATOM     82  F   UNL A   1      41.919  28.107  25.440  1.00  0.00    -0.200 F 
ATOM     83  F   UNL A   1      40.778  25.628  25.379  1.00  0.00    -0.200 F 
ENDBRANCH  49  73
BRANCH  61  84
ATOM     84  C   UNL A   1      43.830  28.360  34.722  1.00  0.00     0.064 A 
ATOM     85  C   UNL A   1      45.165  28.754  34.553  1.00  0.00     0.173 A 
ATOM     86  C   UNL A   1      43.579  27.201  35.473  1.00  0.00     0.173 A 
ATOM     87  F   UNL A   1      45.463  29.847  33.834  1.00  0.00    -0.203 F 
ATOM     88  C   UNL A   1      46.208  28.000  35.090  1.00  0.00     0.198 A 
ATOM     89  C   UNL A   1      44.621  26.471  36.038  1.00  0.00     0.198 A 
ATOM     90  F   UNL A   1      42.320  26.785  35.675  1.00  0.00    -0.203 F 
ATOM     91  F   UNL A   1      47.478  28.366  34.871  1.00  0.00    -0.200 F 
ATOM     92  C   UNL A   1      45.934  26.865  35.838  1.00  0.00     0.200 A 
ATOM     93  F   UNL A   1      44.352  25.384  36.777  1.00  0.00    -0.200 F 
ATOM     94  F   UNL A   1      46.937  26.148  36.362  1.00  0.00    -0.200 F 
ENDBRANCH  61  84
ENDBRANCH  35  36
ENDBRANCH  28  30
ENDBRANCH  27  28
ENDBRANCH  26  27
ENDBRANCH  25  26
ENDBRANCH  24  25
ENDBRANCH  23  24
ENDBRANCH   1  23
TORSDOF 20
ENDMDL
MODEL 2
REMARK VINA RESULT:     -10.5      4.598      7.646
REMARK SMILES O=C(/C=C/c1c(Cl)cccc1Cl)NCC(=O)OCCOCCOCCOC(=O)c1ccc(-c2c3nc(c(-c4c(F)c(F)c(F)c(F)c4F)c4ccc([nH]4)c(-c4c(F)c(F)c(F)c(F)c4F)c4nc(c(-c5c(F)c(F)c(F)c(F)c5F)c5ccc2[nH]5)C=C4)C=C3)cc1
REMARK SMILES IDX 21 1 20 2 19 3 18 4 17 5 15 6 16 7 14 8 13 9 1 10 2 11 3 13
REMARK SMILES IDX 4 14 5 15 6 16 11 17 7 18 8 19 10 20 12 21 9 22 22 23 23 24
REMARK SMILES IDX 24 25 25 26 26 27 27 28 28 29 29 30 30 31 91 32 31 33 90 34
REMARK SMILES IDX 32 35 33 36 34 37 84 38 35 39 89 40 83 41 85 42 36 43 88 44
REMARK SMILES IDX 82 45 81 46 37 48 69 49 49 50 68 51 50 52 53 53 67 54 86 55
REMARK SMILES IDX 51 56 52 57 66 59 87 60 54 61 38 62 39 63 47 64 40 65 41 66
REMARK SMILES IDX 45 67 48 68 42 69 43 70 46 71 44 72 70 73 71 74 79 75 72 76
REMARK SMILES IDX 73 77 77 78 80 79 74 80 75 81 78 82 76 83 55 84 56 85 64 86
REMARK SMILES IDX 57 87 58 88 62 89 65 90 59 91 60 92 63 93 61 94
REMARK H PARENT 13 12 85 47 53 58
REMARK Flexibility Score: inf
ROOT
ATOM      1  C   UNL A   1      33.368  36.637  31.656  1.00  0.00     0.188 C 
ENDROOT
BRANCH   1   2
ATOM      2  O   UNL A   1      33.592  35.568  30.750  1.00  0.00    -0.376 OA
BRANCH   2   3
ATOM      3  C   UNL A   1      32.888  35.579  29.507  1.00  0.00     0.202 C 
BRANCH   3   4
ATOM      4  C   UNL A   1      33.332  34.621  28.383  1.00  0.00     0.261 C 
BRANCH   4   5
ATOM      5  O   UNL A   1      34.025  33.435  28.841  1.00  0.00    -0.462 OA
BRANCH   5   6
ATOM      6  C   UNL A   1      34.336  32.513  27.892  1.00  0.00     0.325 C 
ATOM      7  O   UNL A   1      35.484  32.261  27.532  1.00  0.00    -0.250 OA
BRANCH   6   8
ATOM      8  C   UNL A   1      33.149  31.647  27.426  1.00  0.00     0.239 C 
BRANCH   8   9
ATOM      9  N   UNL A   1      33.287  30.549  26.475  1.00  0.00    -0.342 N 
ATOM     10  O   UNL A   1      31.969  29.104  27.643  1.00  0.00    -0.270 OA
ATOM     11  C   UNL A   1      32.646  29.358  26.655  1.00  0.00     0.244 C 
ATOM     12  H   UNL A   1      33.858  30.671  25.682  1.00  0.00     0.164 HD
BRANCH  11  13
ATOM     13  C   UNL A   1      32.719  28.373  25.536  1.00  0.00     0.072 C 
ATOM     14  C   UNL A   1      33.683  27.474  25.267  1.00  0.00     0.017 C 
BRANCH  14  15
ATOM     15  C   UNL A   1      33.572  26.519  24.132  1.00  0.00     0.012 A 
ATOM     16  C   UNL A   1      32.966  26.860  22.904  1.00  0.00     0.049 A 
ATOM     17  C   UNL A   1      34.081  25.208  24.250  1.00  0.00     0.049 A 
ATOM     18  Cl  UNL A   1      32.406  28.463  22.561  1.00  0.00    -0.084 Cl
ATOM     19  C   UNL A   1      32.816  25.913  21.878  1.00  0.00     0.021 A 
ATOM     20  C   UNL A   1      33.939  24.268  23.219  1.00  0.00     0.021 A 
ATOM     21  Cl  UNL A   1      34.902  24.664  25.670  1.00  0.00    -0.084 Cl
ATOM     22  C   UNL A   1      33.292  24.615  22.038  1.00  0.00     0.003 A 
ENDBRANCH  14  15
ENDBRANCH  11  13
ENDBRANCH   8   9
ENDBRANCH   6   8
ENDBRANCH   5   6
ENDBRANCH   4   5
ENDBRANCH   3   4
ENDBRANCH   2   3
ENDBRANCH   1   2
BRANCH   1  23
ATOM     23  C   UNL A   1      33.745  36.444  33.131  1.00  0.00     0.188 C 
BRANCH  23  24
ATOM     24  O   UNL A   1      34.125  35.147  33.503  1.00  0.00    -0.376 OA
BRANCH  24  25
ATOM     25  C   UNL A   1      35.370  34.901  34.126  1.00  0.00     0.202 C 
BRANCH  25  26
ATOM     26  C   UNL A   1      36.329  33.749  33.764  1.00  0.00     0.261 C 
BRANCH  26  27
ATOM     27  O   UNL A   1      35.810  32.416  33.719  1.00  0.00    -0.460 OA
BRANCH  27  28
ATOM     28  C   UNL A   1      35.354  31.977  32.525  1.00  0.00     0.338 C 
ATOM     29  O   UNL A   1      34.290  32.253  31.987  1.00  0.00    -0.246 OA
BRANCH  28  30
ATOM     30  C   UNL A   1      36.475  31.302  31.838  1.00  0.00     0.060 A 
ATOM     31  C   UNL A   1      37.353  30.512  32.595  1.00  0.00     0.016 A 
ATOM     32  C   UNL A   1      36.647  31.430  30.460  1.00  0.00     0.016 A 
ATOM     33  C   UNL A   1      38.418  29.857  31.977  1.00  0.00     0.010 A 
ATOM     34  C   UNL A   1      37.732  30.798  29.846  1.00  0.00     0.010 A 
ATOM     35  C   UNL A   1      38.636  30.031  30.604  1.00  0.00    -0.014 A 
BRANCH  35  36
ATOM     36  C   UNL A   1      39.911  29.581  29.996  1.00  0.00     0.031 A 
ATOM     37  C   UNL A   1      41.037  30.570  29.890  1.00  0.00     0.074 A 
ATOM     38  C   UNL A   1      40.075  28.322  29.553  1.00  0.00     0.049 A 
ATOM     39  N   UNL A   1      42.208  30.446  29.320  1.00  0.00    -0.248 NA
ATOM     40  C   UNL A   1      40.805  31.886  30.510  1.00  0.00     0.031 C 
ATOM     41  C   UNL A   1      39.082  27.256  29.648  1.00  0.00     0.029 A 
ATOM     42  N   UNL A   1      41.143  27.736  28.919  1.00  0.00    -0.354 N 
ATOM     43  C   UNL A   1      42.845  31.666  29.501  1.00  0.00     0.074 A 
ATOM     44  C   UNL A   1      41.922  32.528  30.207  1.00  0.00     0.031 C 
ATOM     45  C   UNL A   1      39.582  26.146  29.073  1.00  0.00     0.029 A 
ATOM     46  C   UNL A   1      40.911  26.438  28.537  1.00  0.00     0.049 A 
ATOM     47  H   UNL A   1      41.995  28.203  28.754  1.00  0.00     0.167 HD
ATOM     48  C   UNL A   1      44.091  32.032  29.118  1.00  0.00     0.037 A 
ATOM     49  C   UNL A   1      41.673  25.597  27.809  1.00  0.00     0.037 A 
ATOM     50  C   UNL A   1      45.005  31.175  28.411  1.00  0.00     0.049 A 
ATOM     51  C   UNL A   1      43.022  26.060  27.313  1.00  0.00     0.074 A 
ATOM     52  C   UNL A   1      46.293  31.449  27.988  1.00  0.00     0.029 A 
ATOM     53  N   UNL A   1      44.720  29.877  28.010  1.00  0.00    -0.354 N 
ATOM     54  N   UNL A   1      43.628  27.207  27.501  1.00  0.00    -0.248 NA
ATOM     55  C   UNL A   1      43.791  25.107  26.501  1.00  0.00     0.031 C 
ATOM     56  C   UNL A   1      46.766  30.341  27.278  1.00  0.00     0.029 A 
ATOM     57  C   UNL A   1      45.799  29.350  27.319  1.00  0.00     0.049 A 
ATOM     58  H   UNL A   1      43.877  29.403  28.191  1.00  0.00     0.167 HD
ATOM     59  C   UNL A   1      44.860  27.100  26.866  1.00  0.00     0.074 A 
ATOM     60  C   UNL A   1      44.919  25.772  26.295  1.00  0.00     0.031 C 
ATOM     61  C   UNL A   1      45.852  28.019  26.766  1.00  0.00     0.037 A 
BRANCH  48  62
ATOM     62  C   UNL A   1      44.524  33.437  29.426  1.00  0.00     0.064 A 
ATOM     63  C   UNL A   1      45.204  33.760  30.611  1.00  0.00     0.173 A 
ATOM     64  C   UNL A   1      44.279  34.471  28.509  1.00  0.00     0.173 A 
ATOM     65  F   UNL A   1      45.450  32.813  31.528  1.00  0.00    -0.203 F 
ATOM     66  C   UNL A   1      45.594  35.070  30.877  1.00  0.00     0.198 A 
ATOM     67  C   UNL A   1      44.700  35.772  28.764  1.00  0.00     0.198 A 
ATOM     68  F   UNL A   1      43.634  34.216  27.360  1.00  0.00    -0.203 F 
ATOM     69  F   UNL A   1      46.194  35.365  32.040  1.00  0.00    -0.200 F 
ATOM     70  C   UNL A   1      45.351  36.072  29.951  1.00  0.00     0.200 A 
ATOM     71  F   UNL A   1      44.476  36.736  27.861  1.00  0.00    -0.200 F 
ATOM     72  F   UNL A   1      45.734  37.331  30.207  1.00  0.00    -0.200 F 
ENDBRANCH  48  62
BRANCH  49  73
ATOM     73  C   UNL A   1      41.178  24.232  27.484  1.00  0.00     0.064 A 
ATOM     74  C   UNL A   1      40.095  24.043  26.614  1.00  0.00     0.173 A 
ATOM     75  C   UNL A   1      41.755  23.091  28.062  1.00  0.00     0.173 A 
ATOM     76  F   UNL A   1      39.490  25.103  26.059  1.00  0.00    -0.203 F 
ATOM     77  C   UNL A   1      39.594  22.769  26.353  1.00  0.00     0.198 A 
ATOM     78  C   UNL A   1      41.274  21.815  27.775  1.00  0.00     0.198 A 
ATOM     79  F   UNL A   1      42.790  23.215  28.907  1.00  0.00    -0.203 F 
ATOM     80  F   UNL A   1      38.521  22.623  25.564  1.00  0.00    -0.200 F 
ATOM     81  C   UNL A   1      40.187  21.656  26.929  1.00  0.00     0.200 A 
ATOM     82  F   UNL A   1      41.857  20.742  28.326  1.00  0.00    -0.200 F 
ATOM     83  F   UNL A   1      39.704  20.431  26.677  1.00  0.00    -0.200 F 
ENDBRANCH  49  73
BRANCH  61  84
ATOM     84  C   UNL A   1      47.114  27.608  26.057  1.00  0.00     0.064 A 
ATOM     85  C   UNL A   1      48.229  27.117  26.752  1.00  0.00     0.173 A 
ATOM     86  C   UNL A   1      47.187  27.662  24.656  1.00  0.00     0.173 A 
ATOM     87  F   UNL A   1      48.217  27.054  28.092  1.00  0.00    -0.203 F 
ATOM     88  C   UNL A   1      49.380  26.723  26.072  1.00  0.00     0.198 A 
ATOM     89  C   UNL A   1      48.325  27.235  23.979  1.00  0.00     0.198 A 
ATOM     90  F   UNL A   1      46.146  28.114  23.941  1.00  0.00    -0.203 F 
ATOM     91  F   UNL A   1      50.452  26.306  26.759  1.00  0.00    -0.200 F 
ATOM     92  C   UNL A   1      49.424  26.775  24.687  1.00  0.00     0.200 A 
ATOM     93  F   UNL A   1      48.358  27.268  22.638  1.00  0.00    -0.200 F 
ATOM     94  F   UNL A   1      50.528  26.386  24.034  1.00  0.00    -0.200 F 
ENDBRANCH  61  84
ENDBRANCH  35  36
ENDBRANCH  28  30
ENDBRANCH  27  28
ENDBRANCH  26  27
ENDBRANCH  25  26
ENDBRANCH  24  25
ENDBRANCH  23  24
ENDBRANCH   1  23
TORSDOF 20
ENDMDL
MODEL 3
REMARK VINA RESULT:     -10.5      1.862      8.109
REMARK SMILES O=C(/C=C/c1c(Cl)cccc1Cl)NCC(=O)OCCOCCOCCOC(=O)c1ccc(-c2c3nc(c(-c4c(F)c(F)c(F)c(F)c4F)c4ccc([nH]4)c(-c4c(F)c(F)c(F)c(F)c4F)c4nc(c(-c5c(F)c(F)c(F)c(F)c5F)c5ccc2[nH]5)C=C4)C=C3)cc1
REMARK SMILES IDX 21 1 20 2 19 3 18 4 17 5 15 6 16 7 14 8 13 9 1 10 2 11 3 13
REMARK SMILES IDX 4 14 5 15 6 16 11 17 7 18 8 19 10 20 12 21 9 22 22 23 23 24
REMARK SMILES IDX 24 25 25 26 26 27 27 28 28 29 29 30 30 31 91 32 31 33 90 34
REMARK SMILES IDX 32 35 33 36 34 37 84 38 35 39 89 40 83 41 85 42 36 43 88 44
REMARK SMILES IDX 82 45 81 46 37 48 69 49 49 50 68 51 50 52 53 53 67 54 86 55
REMARK SMILES IDX 51 56 52 57 66 59 87 60 54 61 38 62 39 63 47 64 40 65 41 66
REMARK SMILES IDX 45 67 48 68 42 69 43 70 46 71 44 72 70 73 71 74 79 75 72 76
REMARK SMILES IDX 73 77 77 78 80 79 74 80 75 81 78 82 76 83 55 84 56 85 64 86
REMARK SMILES IDX 57 87 58 88 62 89 65 90 59 91 60 92 63 93 61 94
REMARK H PARENT 13 12 85 47 53 58
REMARK Flexibility Score: inf
ROOT
ATOM      1  C   UNL A   1      33.920  28.318  26.624  1.00  0.00     0.188 C 
ENDROOT
BRANCH   1   2
ATOM      2  O   UNL A   1      33.403  27.003  26.500  1.00  0.00    -0.376 OA
BRANCH   2   3
ATOM      3  C   UNL A   1      33.532  26.344  25.239  1.00  0.00     0.202 C 
BRANCH   3   4
ATOM      4  C   UNL A   1      34.403  25.076  25.139  1.00  0.00     0.261 C 
BRANCH   4   5
ATOM      5  O   UNL A   1      33.669  23.831  25.229  1.00  0.00    -0.462 OA
BRANCH   5   6
ATOM      6  C   UNL A   1      33.712  23.024  24.136  1.00  0.00     0.325 C 
ATOM      7  O   UNL A   1      34.664  22.297  23.858  1.00  0.00    -0.250 OA
BRANCH   6   8
ATOM      8  C   UNL A   1      32.386  22.928  23.357  1.00  0.00     0.239 C 
BRANCH   8   9
ATOM      9  N   UNL A   1      31.652  24.098  22.885  1.00  0.00    -0.342 N 
ATOM     10  O   UNL A   1      30.442  24.361  24.797  1.00  0.00    -0.270 OA
ATOM     11  C   UNL A   1      30.746  24.745  23.675  1.00  0.00     0.244 C 
ATOM     12  H   UNL A   1      31.814  24.429  21.972  1.00  0.00     0.164 HD
BRANCH  11  13
ATOM     13  C   UNL A   1      30.186  26.026  23.154  1.00  0.00     0.072 C 
ATOM     14  C   UNL A   1      29.729  27.088  23.843  1.00  0.00     0.017 C 
BRANCH  14  15
ATOM     15  C   UNL A   1      29.251  28.321  23.161  1.00  0.00     0.012 A 
ATOM     16  C   UNL A   1      27.886  28.667  23.081  1.00  0.00     0.049 A 
ATOM     17  C   UNL A   1      30.170  29.204  22.558  1.00  0.00     0.049 A 
ATOM     18  Cl  UNL A   1      26.649  27.752  23.876  1.00  0.00    -0.084 Cl
ATOM     19  C   UNL A   1      27.463  29.802  22.370  1.00  0.00     0.021 A 
ATOM     20  C   UNL A   1      29.746  30.343  21.858  1.00  0.00     0.021 A 
ATOM     21  Cl  UNL A   1      31.878  28.944  22.626  1.00  0.00    -0.084 Cl
ATOM     22  C   UNL A   1      28.391  30.634  21.750  1.00  0.00     0.003 A 
ENDBRANCH  14  15
ENDBRANCH  11  13
ENDBRANCH   8   9
ENDBRANCH   6   8
ENDBRANCH   5   6
ENDBRANCH   4   5
ENDBRANCH   3   4
ENDBRANCH   2   3
ENDBRANCH   1   2
BRANCH   1  23
ATOM     23  C   UNL A   1      33.176  29.471  25.936  1.00  0.00     0.188 C 
BRANCH  23  24
ATOM     24  O   UNL A   1      33.125  30.679  26.644  1.00  0.00    -0.376 OA
BRANCH  24  25
ATOM     25  C   UNL A   1      31.907  31.377  26.814  1.00  0.00     0.202 C 
BRANCH  25  26
ATOM     26  C   UNL A   1      31.783  32.887  27.098  1.00  0.00     0.261 C 
BRANCH  26  27
ATOM     27  O   UNL A   1      32.980  33.668  27.174  1.00  0.00    -0.460 OA
BRANCH  27  28
ATOM     28  C   UNL A   1      33.278  34.215  28.375  1.00  0.00     0.338 C 
ATOM     29  O   UNL A   1      32.583  34.969  29.042  1.00  0.00    -0.246 OA
BRANCH  28  30
ATOM     30  C   UNL A   1      34.491  33.543  28.884  1.00  0.00     0.060 A 
ATOM     31  C   UNL A   1      34.361  32.286  29.496  1.00  0.00     0.016 A 
ATOM     32  C   UNL A   1      35.746  34.134  28.744  1.00  0.00     0.016 A 
ATOM     33  C   UNL A   1      35.487  31.623  29.983  1.00  0.00     0.010 A 
ATOM     34  C   UNL A   1      36.870  33.482  29.259  1.00  0.00     0.010 A 
ATOM     35  C   UNL A   1      36.742  32.237  29.903  1.00  0.00    -0.014 A 
BRANCH  35  36
ATOM     36  C   UNL A   1      37.888  31.680  30.662  1.00  0.00     0.031 A 
ATOM     37  C   UNL A   1      38.748  30.644  29.994  1.00  0.00     0.074 A 
ATOM     38  C   UNL A   1      38.167  32.085  31.914  1.00  0.00     0.049 A 
ATOM     39  N   UNL A   1      39.742  29.946  30.477  1.00  0.00    -0.248 NA
ATOM     40  C   UNL A   1      38.436  30.354  28.584  1.00  0.00     0.031 C 
ATOM     41  C   UNL A   1      37.445  33.117  32.650  1.00  0.00     0.029 A 
ATOM     42  N   UNL A   1      39.133  31.656  32.789  1.00  0.00    -0.354 N 
ATOM     43  C   UNL A   1      40.166  29.128  29.439  1.00  0.00     0.074 A 
ATOM     44  C   UNL A   1      39.304  29.394  28.308  1.00  0.00     0.031 C 
ATOM     45  C   UNL A   1      37.984  33.230  33.878  1.00  0.00     0.029 A 
ATOM     46  C   UNL A   1      39.060  32.251  34.024  1.00  0.00     0.049 A 
ATOM     47  H   UNL A   1      39.816  30.985  32.554  1.00  0.00     0.167 HD
ATOM     48  C   UNL A   1      41.188  28.239  29.428  1.00  0.00     0.037 A 
ATOM     49  C   UNL A   1      39.760  32.006  35.150  1.00  0.00     0.037 A 
ATOM     50  C   UNL A   1      42.040  27.972  30.556  1.00  0.00     0.049 A 
ATOM     51  C   UNL A   1      40.833  30.944  35.139  1.00  0.00     0.074 A 
ATOM     52  C   UNL A   1      43.109  27.099  30.641  1.00  0.00     0.029 A 
ATOM     53  N   UNL A   1      41.911  28.570  31.801  1.00  0.00    -0.354 N 
ATOM     54  N   UNL A   1      41.243  30.186  34.152  1.00  0.00    -0.248 NA
ATOM     55  C   UNL A   1      41.540  30.706  36.406  1.00  0.00     0.031 C 
ATOM     56  C   UNL A   1      43.588  27.121  31.955  1.00  0.00     0.029 A 
ATOM     57  C   UNL A   1      42.864  28.061  32.669  1.00  0.00     0.049 A 
ATOM     58  H   UNL A   1      41.243  29.255  32.032  1.00  0.00     0.167 HD
ATOM     59  C   UNL A   1      42.276  29.411  34.665  1.00  0.00     0.074 A 
ATOM     60  C   UNL A   1      42.438  29.797  36.050  1.00  0.00     0.031 C 
ATOM     61  C   UNL A   1      43.024  28.464  34.044  1.00  0.00     0.037 A 
BRANCH  48  62
ATOM     62  C   UNL A   1      41.415  27.462  28.163  1.00  0.00     0.064 A 
ATOM     63  C   UNL A   1      40.753  26.251  27.908  1.00  0.00     0.173 A 
ATOM     64  C   UNL A   1      42.287  27.951  27.179  1.00  0.00     0.173 A 
ATOM     65  F   UNL A   1      39.921  25.731  28.822  1.00  0.00    -0.203 F 
ATOM     66  C   UNL A   1      40.980  25.546  26.729  1.00  0.00     0.198 A 
ATOM     67  C   UNL A   1      42.486  27.261  25.987  1.00  0.00     0.198 A 
ATOM     68  F   UNL A   1      42.944  29.106  27.371  1.00  0.00    -0.203 F 
ATOM     69  F   UNL A   1      40.379  24.364  26.531  1.00  0.00    -0.200 F 
ATOM     70  C   UNL A   1      41.839  26.055  25.767  1.00  0.00     0.200 A 
ATOM     71  F   UNL A   1      43.305  27.762  25.053  1.00  0.00    -0.200 F 
ATOM     72  F   UNL A   1      42.050  25.378  24.629  1.00  0.00    -0.200 F 
ENDBRANCH  48  62
BRANCH  49  73
ATOM     73  C   UNL A   1      39.463  32.765  36.394  1.00  0.00     0.064 A 
ATOM     74  C   UNL A   1      38.471  32.333  37.286  1.00  0.00     0.173 A 
ATOM     75  C   UNL A   1      40.139  33.956  36.701  1.00  0.00     0.173 A 
ATOM     76  F   UNL A   1      37.776  31.217  37.024  1.00  0.00    -0.203 F 
ATOM     77  C   UNL A   1      38.152  33.073  38.424  1.00  0.00     0.198 A 
ATOM     78  C   UNL A   1      39.842  34.678  37.855  1.00  0.00     0.198 A 
ATOM     79  F   UNL A   1      41.093  34.419  35.878  1.00  0.00    -0.203 F 
ATOM     80  F   UNL A   1      37.161  32.667  39.227  1.00  0.00    -0.200 F 
ATOM     81  C   UNL A   1      38.842  34.242  38.710  1.00  0.00     0.200 A 
ATOM     82  F   UNL A   1      40.518  35.801  38.133  1.00  0.00    -0.200 F 
ATOM     83  F   UNL A   1      38.534  34.953  39.804  1.00  0.00    -0.200 F 
ENDBRANCH  49  73
BRANCH  61  84
ATOM     84  C   UNL A   1      44.124  27.814  34.838  1.00  0.00     0.064 A 
ATOM     85  C   UNL A   1      43.927  26.612  35.534  1.00  0.00     0.173 A 
ATOM     86  C   UNL A   1      45.409  28.381  34.861  1.00  0.00     0.173 A 
ATOM     87  F   UNL A   1      42.717  26.034  35.555  1.00  0.00    -0.203 F 
ATOM     88  C   UNL A   1      44.967  26.018  36.247  1.00  0.00     0.198 A 
ATOM     89  C   UNL A   1      46.454  27.766  35.545  1.00  0.00     0.198 A 
ATOM     90  F   UNL A   1      45.656  29.524  34.205  1.00  0.00    -0.203 F 
ATOM     91  F   UNL A   1      44.742  24.898  36.947  1.00  0.00    -0.200 F 
ATOM     92  C   UNL A   1      46.230  26.591  36.245  1.00  0.00     0.200 A 
ATOM     93  F   UNL A   1      47.679  28.311  35.526  1.00  0.00    -0.200 F 
ATOM     94  F   UNL A   1      47.231  26.012  36.922  1.00  0.00    -0.200 F 
ENDBRANCH  61  84
ENDBRANCH  35  36
ENDBRANCH  28  30
ENDBRANCH  27  28
ENDBRANCH  26  27
ENDBRANCH  25  26
ENDBRANCH  24  25
ENDBRANCH  23  24
ENDBRANCH   1  23
TORSDOF 20
ENDMDL
