MODEL 1
REMARK VINA RESULT:     -10.3      0.000      0.000
REMARK SMILES CC[C@H]1CN(C(=O)N(CC(=O)OCCOCCOCCOC(=O)c2ccc(-c3c4nc(c(-c5c(F)c(F)c(F)c(F)c5F)c5ccc([nH]5)c(-c5c(F)c(F)c(F)c(F)c5F)c5nc(c(-c6c(F)c(F)c(F)c(F)c6F)c6ccc3[nH]6)C=C5)C=C4)cc2)C(C)(C)C)CC[N@@H+]1C
REMARK SMILES IDX 16 1 15 2 14 3 13 4 12 5 10 6 11 7 9 8 8 9 6 10 7 11 5 12
REMARK SMILES IDX 3 13 4 14 93 15 92 16 94 17 91 19 2 20 1 21 87 22 88 23
REMARK SMILES IDX 89 24 90 25 17 26 18 27 19 28 20 29 21 30 22 31 23 32 24 33
REMARK SMILES IDX 25 34 86 35 26 36 85 37 27 38 28 39 29 40 79 41 30 42 84 43
REMARK SMILES IDX 78 44 80 45 31 46 83 47 77 48 76 49 32 51 64 52 44 53 63 54
REMARK SMILES IDX 45 55 48 56 62 57 81 58 46 59 47 60 61 62 82 63 49 64 33 65
REMARK SMILES IDX 34 66 42 67 35 68 36 69 40 70 43 71 37 72 38 73 41 74 39 75
REMARK SMILES IDX 65 76 66 77 74 78 67 79 68 80 72 81 75 82 69 83 70 84 73 85
REMARK SMILES IDX 71 86 50 87 51 88 59 89 52 90 53 91 57 92 60 93 54 94 55 95
REMARK SMILES IDX 58 96 56 97
REMARK H PARENT 93 18 80 50 48 61
REMARK Flexibility Score: inf
ROOT
ATOM      1  C   UNL A   1      35.732  32.644  28.036  1.00  0.00     0.188 C 
ENDROOT
BRANCH   1   2
ATOM      2  O   UNL A   1      35.415  31.256  27.975  1.00  0.00    -0.376 OA
BRANCH   2   3
ATOM      3  C   UNL A   1      34.079  30.883  27.667  1.00  0.00     0.202 C 
BRANCH   3   4
ATOM      4  C   UNL A   1      33.929  29.595  26.853  1.00  0.00     0.261 C 
BRANCH   4   5
ATOM      5  O   UNL A   1      33.407  28.467  27.591  1.00  0.00    -0.462 OA
BRANCH   5   6
ATOM      6  C   UNL A   1      32.179  28.051  27.191  1.00  0.00     0.325 C 
ATOM      7  O   UNL A   1      31.202  27.959  27.931  1.00  0.00    -0.250 OA
BRANCH   6   8
ATOM      8  C   UNL A   1      32.157  27.423  25.801  1.00  0.00     0.244 C 
BRANCH   8   9
ATOM      9  N   UNL A   1      31.050  26.680  25.168  1.00  0.00    -0.309 N 
BRANCH   9  10
ATOM     10  C   UNL A   1      30.555  25.499  25.704  1.00  0.00     0.321 C 
ATOM     11  O   UNL A   1      29.573  25.504  26.448  1.00  0.00    -0.248 OA
BRANCH  10  12
ATOM     12  N   UNL A   1      31.276  24.336  25.497  1.00  0.00    -0.313 N 
ATOM     13  C   UNL A   1      33.343  23.003  25.912  1.00  0.00     0.203 C 
ATOM     14  C   UNL A   1      32.016  23.560  26.490  1.00  0.00     0.186 C 
ATOM     15  N   UNL A   1      33.142  22.189  24.687  1.00  0.00    -0.332 N 
ATOM     16  C   UNL A   1      32.245  22.860  23.714  1.00  0.00     0.284 C 
ATOM     17  C   UNL A   1      32.612  20.864  25.031  1.00  0.00     0.333 C 
ATOM     18  H   UNL A   1      34.053  22.082  24.243  1.00  0.00     0.348 HD
ATOM     19  C   UNL A   1      30.999  23.568  24.281  1.00  0.00     0.183 C 
BRANCH  13  20
ATOM     20  C   UNL A   1      34.471  24.062  25.756  1.00  0.00     0.063 C 
ATOM     21  C   UNL A   1      35.599  23.819  24.760  1.00  0.00     0.010 C 
ENDBRANCH  13  20
ENDBRANCH  10  12
ENDBRANCH   9  10
BRANCH   9  22
ATOM     22  C   UNL A   1      30.410  27.183  23.911  1.00  0.00     0.037 C 
ATOM     23  C   UNL A   1      28.934  26.750  23.790  1.00  0.00     0.034 C 
ATOM     24  C   UNL A   1      30.470  28.732  23.880  1.00  0.00     0.034 C 
ATOM     25  C   UNL A   1      31.161  26.722  22.652  1.00  0.00     0.034 C 
ENDBRANCH   9  22
ENDBRANCH   8   9
ENDBRANCH   6   8
ENDBRANCH   5   6
ENDBRANCH   4   5
ENDBRANCH   3   4
ENDBRANCH   2   3
ENDBRANCH   1   2
BRANCH   1  26
ATOM     26  C   UNL A   1      35.229  33.459  29.228  1.00  0.00     0.188 C 
BRANCH  26  27
ATOM     27  O   UNL A   1      35.078  34.833  28.874  1.00  0.00    -0.376 OA
BRANCH  27  28
ATOM     28  C   UNL A   1      33.764  35.117  28.393  1.00  0.00     0.202 C 
BRANCH  28  29
ATOM     29  C   UNL A   1      33.033  36.019  29.389  1.00  0.00     0.261 C 
BRANCH  29  30
ATOM     30  O   UNL A   1      32.454  35.289  30.493  1.00  0.00    -0.460 OA
BRANCH  30  31
ATOM     31  C   UNL A   1      32.619  35.826  31.713  1.00  0.00     0.338 C 
ATOM     32  O   UNL A   1      31.953  36.722  32.228  1.00  0.00    -0.246 OA
BRANCH  31  33
ATOM     33  C   UNL A   1      33.684  35.106  32.426  1.00  0.00     0.060 A 
ATOM     34  C   UNL A   1      34.950  35.684  32.487  1.00  0.00     0.016 A 
ATOM     35  C   UNL A   1      33.481  33.822  32.924  1.00  0.00     0.016 A 
ATOM     36  C   UNL A   1      36.043  34.965  32.975  1.00  0.00     0.010 A 
ATOM     37  C   UNL A   1      34.568  33.111  33.448  1.00  0.00     0.010 A 
ATOM     38  C   UNL A   1      35.867  33.658  33.443  1.00  0.00    -0.014 A 
BRANCH  38  39
ATOM     39  C   UNL A   1      37.032  32.804  33.812  1.00  0.00     0.031 A 
ATOM     40  C   UNL A   1      37.684  33.004  35.155  1.00  0.00     0.074 A 
ATOM     41  C   UNL A   1      37.515  31.857  32.987  1.00  0.00     0.049 A 
ATOM     42  N   UNL A   1      38.854  32.603  35.583  1.00  0.00    -0.248 NA
ATOM     43  C   UNL A   1      36.908  33.765  36.146  1.00  0.00     0.031 C 
ATOM     44  C   UNL A   1      36.931  31.466  31.706  1.00  0.00     0.029 A 
ATOM     45  N   UNL A   1      38.625  31.055  33.107  1.00  0.00    -0.354 N 
ATOM     46  C   UNL A   1      38.983  33.122  36.866  1.00  0.00     0.074 A 
ATOM     47  C   UNL A   1      37.765  33.847  37.155  1.00  0.00     0.031 C 
ATOM     48  C   UNL A   1      37.687  30.500  31.158  1.00  0.00     0.029 A 
ATOM     49  C   UNL A   1      38.852  30.264  32.006  1.00  0.00     0.049 A 
ATOM     50  H   UNL A   1      39.202  31.046  33.905  1.00  0.00     0.167 HD
ATOM     51  C   UNL A   1      40.032  33.013  37.716  1.00  0.00     0.037 A 
ATOM     52  C   UNL A   1      39.908  29.489  31.688  1.00  0.00     0.037 A 
ATOM     53  C   UNL A   1      41.220  32.246  37.447  1.00  0.00     0.049 A 
ATOM     54  C   UNL A   1      41.092  29.430  32.616  1.00  0.00     0.074 A 
ATOM     55  C   UNL A   1      42.345  32.085  38.236  1.00  0.00     0.029 A 
ATOM     56  N   UNL A   1      41.423  31.492  36.301  1.00  0.00    -0.354 N 
ATOM     57  N   UNL A   1      41.263  30.010  33.779  1.00  0.00    -0.248 NA
ATOM     58  C   UNL A   1      42.246  28.634  32.170  1.00  0.00     0.031 C 
ATOM     59  C   UNL A   1      43.242  31.253  37.554  1.00  0.00     0.029 A 
ATOM     60  C   UNL A   1      42.659  30.870  36.358  1.00  0.00     0.049 A 
ATOM     61  H   UNL A   1      40.784  31.412  35.556  1.00  0.00     0.167 HD
ATOM     62  C   UNL A   1      42.533  29.647  34.206  1.00  0.00     0.074 A 
ATOM     63  C   UNL A   1      43.086  28.779  33.186  1.00  0.00     0.031 C 
ATOM     64  C   UNL A   1      43.189  30.006  35.336  1.00  0.00     0.037 A 
BRANCH  51  65
ATOM     65  C   UNL A   1      39.965  33.787  38.999  1.00  0.00     0.064 A 
ATOM     66  C   UNL A   1      40.539  35.059  39.131  1.00  0.00     0.173 A 
ATOM     67  C   UNL A   1      39.292  33.250  40.107  1.00  0.00     0.173 A 
ATOM     68  F   UNL A   1      41.207  35.607  38.106  1.00  0.00    -0.203 F 
ATOM     69  C   UNL A   1      40.458  35.757  40.335  1.00  0.00     0.198 A 
ATOM     70  C   UNL A   1      39.193  33.959  41.300  1.00  0.00     0.198 A 
ATOM     71  F   UNL A   1      38.724  32.036  40.030  1.00  0.00    -0.203 F 
ATOM     72  F   UNL A   1      41.049  36.954  40.453  1.00  0.00    -0.200 F 
ATOM     73  C   UNL A   1      39.782  35.209  41.415  1.00  0.00     0.200 A 
ATOM     74  F   UNL A   1      38.531  33.432  42.340  1.00  0.00    -0.200 F 
ATOM     75  F   UNL A   1      39.703  35.884  42.570  1.00  0.00    -0.200 F 
ENDBRANCH  51  65
BRANCH  52  76
ATOM     76  C   UNL A   1      39.926  28.756  30.393  1.00  0.00     0.064 A 
ATOM     77  C   UNL A   1      39.380  27.471  30.285  1.00  0.00     0.173 A 
ATOM     78  C   UNL A   1      40.494  29.324  29.244  1.00  0.00     0.173 A 
ATOM     79  F   UNL A   1      38.857  26.871  31.365  1.00  0.00    -0.203 F 
ATOM     80  C   UNL A   1      39.406  26.779  29.075  1.00  0.00     0.198 A 
ATOM     81  C   UNL A   1      40.495  28.643  28.029  1.00  0.00     0.198 A 
ATOM     82  F   UNL A   1      41.040  30.548  29.299  1.00  0.00    -0.203 F 
ATOM     83  F   UNL A   1      38.913  25.535  29.007  1.00  0.00    -0.200 F 
ATOM     84  C   UNL A   1      39.955  27.369  27.947  1.00  0.00     0.200 A 
ATOM     85  F   UNL A   1      41.019  29.221  26.940  1.00  0.00    -0.200 F 
ATOM     86  F   UNL A   1      39.972  26.706  26.781  1.00  0.00    -0.200 F 
ENDBRANCH  52  76
BRANCH  64  87
ATOM     87  C   UNL A   1      44.564  29.446  35.542  1.00  0.00     0.064 A 
ATOM     88  C   UNL A   1      45.704  30.130  35.101  1.00  0.00     0.173 A 
ATOM     89  C   UNL A   1      44.743  28.235  36.228  1.00  0.00     0.173 A 
ATOM     90  F   UNL A   1      45.581  31.284  34.427  1.00  0.00    -0.203 F 
ATOM     91  C   UNL A   1      46.978  29.614  35.326  1.00  0.00     0.198 A 
ATOM     92  C   UNL A   1      46.018  27.734  36.470  1.00  0.00     0.198 A 
ATOM     93  F   UNL A   1      43.681  27.548  36.673  1.00  0.00    -0.203 F 
ATOM     94  F   UNL A   1      48.055  30.267  34.867  1.00  0.00    -0.200 F 
ATOM     95  C   UNL A   1      47.134  28.420  36.015  1.00  0.00     0.200 A 
ATOM     96  F   UNL A   1      46.168  26.584  37.142  1.00  0.00    -0.200 F 
ATOM     97  F   UNL A   1      48.361  27.928  36.236  1.00  0.00    -0.200 F 
ENDBRANCH  64  87
ENDBRANCH  38  39
ENDBRANCH  31  33
ENDBRANCH  30  31
ENDBRANCH  29  30
ENDBRANCH  28  29
ENDBRANCH  27  28
ENDBRANCH  26  27
ENDBRANCH   1  26
TORSDOF 22
ENDMDL
MODEL 2
REMARK VINA RESULT:      -9.8      0.879      2.027
REMARK SMILES CC[C@H]1CN(C(=O)N(CC(=O)OCCOCCOCCOC(=O)c2ccc(-c3c4nc(c(-c5c(F)c(F)c(F)c(F)c5F)c5ccc([nH]5)c(-c5c(F)c(F)c(F)c(F)c5F)c5nc(c(-c6c(F)c(F)c(F)c(F)c6F)c6ccc3[nH]6)C=C5)C=C4)cc2)C(C)(C)C)CC[N@@H+]1C
REMARK SMILES IDX 16 1 15 2 14 3 13 4 12 5 10 6 11 7 9 8 8 9 6 10 7 11 5 12
REMARK SMILES IDX 3 13 4 14 93 15 92 16 94 17 91 19 2 20 1 21 87 22 88 23
REMARK SMILES IDX 89 24 90 25 17 26 18 27 19 28 20 29 21 30 22 31 23 32 24 33
REMARK SMILES IDX 25 34 86 35 26 36 85 37 27 38 28 39 29 40 79 41 30 42 84 43
REMARK SMILES IDX 78 44 80 45 31 46 83 47 77 48 76 49 32 51 64 52 44 53 63 54
REMARK SMILES IDX 45 55 48 56 62 57 81 58 46 59 47 60 61 62 82 63 49 64 33 65
REMARK SMILES IDX 34 66 42 67 35 68 36 69 40 70 43 71 37 72 38 73 41 74 39 75
REMARK SMILES IDX 65 76 66 77 74 78 67 79 68 80 72 81 75 82 69 83 70 84 73 85
REMARK SMILES IDX 71 86 50 87 51 88 59 89 52 90 53 91 57 92 60 93 54 94 55 95
REMARK SMILES IDX 58 96 56 97
REMARK H PARENT 93 18 80 50 48 61
REMARK Flexibility Score: inf
ROOT
ATOM      1  C   UNL A   1      35.482  33.535  28.634  1.00  0.00     0.188 C 
ENDROOT
BRANCH   1   2
ATOM      2  O   UNL A   1      35.485  32.281  27.957  1.00  0.00    -0.376 OA
BRANCH   2   3
ATOM      3  C   UNL A   1      34.381  31.408  28.150  1.00  0.00     0.202 C 
BRANCH   3   4
ATOM      4  C   UNL A   1      34.352  30.176  27.242  1.00  0.00     0.261 C 
BRANCH   4   5
ATOM      5  O   UNL A   1      33.033  29.761  26.822  1.00  0.00    -0.462 OA
BRANCH   5   6
ATOM      6  C   UNL A   1      32.978  28.516  26.284  1.00  0.00     0.325 C 
ATOM      7  O   UNL A   1      33.936  27.751  26.205  1.00  0.00    -0.250 OA
BRANCH   6   8
ATOM      8  C   UNL A   1      31.692  28.227  25.516  1.00  0.00     0.244 C 
BRANCH   8   9
ATOM      9  N   UNL A   1      31.501  27.265  24.412  1.00  0.00    -0.309 N 
BRANCH   9  10
ATOM     10  C   UNL A   1      31.004  25.988  24.627  1.00  0.00     0.321 C 
ATOM     11  O   UNL A   1      29.804  25.744  24.489  1.00  0.00    -0.248 OA
BRANCH  10  12
ATOM     12  N   UNL A   1      31.863  25.030  25.136  1.00  0.00    -0.313 N 
ATOM     13  C   UNL A   1      33.441  23.142  24.722  1.00  0.00     0.203 C 
ATOM     14  C   UNL A   1      33.189  24.670  24.635  1.00  0.00     0.186 C 
ATOM     15  N   UNL A   1      33.259  22.605  26.094  1.00  0.00    -0.332 N 
ATOM     16  C   UNL A   1      32.004  23.089  26.720  1.00  0.00     0.284 C 
ATOM     17  C   UNL A   1      34.409  22.950  26.939  1.00  0.00     0.333 C 
ATOM     18  H   UNL A   1      33.192  21.591  26.015  1.00  0.00     0.348 HD
ATOM     19  C   UNL A   1      31.641  24.572  26.509  1.00  0.00     0.183 C 
BRANCH  13  20
ATOM     20  C   UNL A   1      32.699  22.306  23.642  1.00  0.00     0.063 C 
ATOM     21  C   UNL A   1      32.547  20.800  23.828  1.00  0.00     0.010 C 
ENDBRANCH  13  20
ENDBRANCH  10  12
ENDBRANCH   9  10
BRANCH   9  22
ATOM     22  C   UNL A   1      31.837  27.642  23.002  1.00  0.00     0.037 C 
ATOM     23  C   UNL A   1      31.474  26.531  21.995  1.00  0.00     0.034 C 
ATOM     24  C   UNL A   1      31.068  28.930  22.610  1.00  0.00     0.034 C 
ATOM     25  C   UNL A   1      33.325  27.990  22.833  1.00  0.00     0.034 C 
ENDBRANCH   9  22
ENDBRANCH   8   9
ENDBRANCH   6   8
ENDBRANCH   5   6
ENDBRANCH   4   5
ENDBRANCH   3   4
ENDBRANCH   2   3
ENDBRANCH   1   2
BRANCH   1  26
ATOM     26  C   UNL A   1      34.151  34.262  28.825  1.00  0.00     0.188 C 
BRANCH  26  27
ATOM     27  O   UNL A   1      34.281  35.646  28.507  1.00  0.00    -0.376 OA
BRANCH  27  28
ATOM     28  C   UNL A   1      33.069  36.364  28.745  1.00  0.00     0.202 C 
BRANCH  28  29
ATOM     29  C   UNL A   1      33.119  37.018  30.126  1.00  0.00     0.261 C 
BRANCH  29  30
ATOM     30  O   UNL A   1      32.134  36.488  31.039  1.00  0.00    -0.460 OA
BRANCH  30  31
ATOM     31  C   UNL A   1      32.523  36.343  32.317  1.00  0.00     0.338 C 
ATOM     32  O   UNL A   1      32.002  36.836  33.315  1.00  0.00    -0.246 OA
BRANCH  31  33
ATOM     33  C   UNL A   1      33.645  35.395  32.383  1.00  0.00     0.060 A 
ATOM     34  C   UNL A   1      33.378  34.074  32.737  1.00  0.00     0.016 A 
ATOM     35  C   UNL A   1      34.962  35.820  32.224  1.00  0.00     0.016 A 
ATOM     36  C   UNL A   1      34.417  33.182  33.008  1.00  0.00     0.010 A 
ATOM     37  C   UNL A   1      36.006  34.917  32.460  1.00  0.00     0.010 A 
ATOM     38  C   UNL A   1      35.747  33.600  32.892  1.00  0.00    -0.014 A 
BRANCH  38  39
ATOM     39  C   UNL A   1      36.874  32.730  33.334  1.00  0.00     0.031 A 
ATOM     40  C   UNL A   1      37.461  32.939  34.705  1.00  0.00     0.074 A 
ATOM     41  C   UNL A   1      37.377  31.759  32.549  1.00  0.00     0.049 A 
ATOM     42  N   UNL A   1      38.599  32.522  35.198  1.00  0.00    -0.248 NA
ATOM     43  C   UNL A   1      36.652  33.732  35.643  1.00  0.00     0.031 C 
ATOM     44  C   UNL A   1      36.852  31.358  31.246  1.00  0.00     0.029 A 
ATOM     45  N   UNL A   1      38.464  30.937  32.738  1.00  0.00    -0.354 N 
ATOM     46  C   UNL A   1      38.674  33.059  36.477  1.00  0.00     0.074 A 
ATOM     47  C   UNL A   1      37.458  33.813  36.693  1.00  0.00     0.031 C 
ATOM     48  C   UNL A   1      37.614  30.368  30.753  1.00  0.00     0.029 A 
ATOM     49  C   UNL A   1      38.729  30.124  31.663  1.00  0.00     0.049 A 
ATOM     50  H   UNL A   1      38.999  30.931  33.564  1.00  0.00     0.167 HD
ATOM     51  C   UNL A   1      39.676  32.944  37.381  1.00  0.00     0.037 A 
ATOM     52  C   UNL A   1      39.783  29.322  31.411  1.00  0.00     0.037 A 
ATOM     53  C   UNL A   1      40.860  32.149  37.185  1.00  0.00     0.049 A 
ATOM     54  C   UNL A   1      40.918  29.256  32.398  1.00  0.00     0.074 A 
ATOM     55  C   UNL A   1      41.940  31.979  38.032  1.00  0.00     0.029 A 
ATOM     56  N   UNL A   1      41.105  31.372  36.062  1.00  0.00    -0.354 N 
ATOM     57  N   UNL A   1      41.042  29.851  33.559  1.00  0.00    -0.248 NA
ATOM     58  C   UNL A   1      42.077  28.429  32.024  1.00  0.00     0.031 C 
ATOM     59  C   UNL A   1      42.853  31.118  37.411  1.00  0.00     0.029 A 
ATOM     60  C   UNL A   1      42.324  30.727  36.192  1.00  0.00     0.049 A 
ATOM     61  H   UNL A   1      40.503  31.292  35.288  1.00  0.00     0.167 HD
ATOM     62  C   UNL A   1      42.281  29.470  34.056  1.00  0.00     0.074 A 
ATOM     63  C   UNL A   1      42.866  28.575  33.079  1.00  0.00     0.031 C 
ATOM     64  C   UNL A   1      42.886  29.835  35.212  1.00  0.00     0.037 A 
BRANCH  51  65
ATOM     65  C   UNL A   1      39.561  33.741  38.647  1.00  0.00     0.064 A 
ATOM     66  C   UNL A   1      38.852  33.270  39.760  1.00  0.00     0.173 A 
ATOM     67  C   UNL A   1      40.196  34.988  38.749  1.00  0.00     0.173 A 
ATOM     68  F   UNL A   1      38.214  32.092  39.705  1.00  0.00    -0.203 F 
ATOM     69  C   UNL A   1      38.765  34.031  40.925  1.00  0.00     0.198 A 
ATOM     70  C   UNL A   1      40.127  35.735  39.921  1.00  0.00     0.198 A 
ATOM     71  F   UNL A   1      40.889  35.481  37.711  1.00  0.00    -0.203 F 
ATOM     72  F   UNL A   1      38.048  33.581  41.964  1.00  0.00    -0.200 F 
ATOM     73  C   UNL A   1      39.406  35.258  41.006  1.00  0.00     0.200 A 
ATOM     74  F   UNL A   1      40.755  36.916  40.001  1.00  0.00    -0.200 F 
ATOM     75  F   UNL A   1      39.324  35.986  42.128  1.00  0.00    -0.200 F 
ENDBRANCH  51  65
BRANCH  52  76
ATOM     76  C   UNL A   1      39.852  28.568  30.130  1.00  0.00     0.064 A 
ATOM     77  C   UNL A   1      39.300  27.285  30.019  1.00  0.00     0.173 A 
ATOM     78  C   UNL A   1      40.474  29.111  28.997  1.00  0.00     0.173 A 
ATOM     79  F   UNL A   1      38.725  26.708  31.085  1.00  0.00    -0.203 F 
ATOM     80  C   UNL A   1      39.373  26.573  28.824  1.00  0.00     0.198 A 
ATOM     81  C   UNL A   1      40.522  28.411  27.795  1.00  0.00     0.198 A 
ATOM     82  F   UNL A   1      41.028  30.332  29.056  1.00  0.00    -0.203 F 
ATOM     83  F   UNL A   1      38.873  25.332  28.754  1.00  0.00    -0.200 F 
ATOM     84  C   UNL A   1      39.975  27.139  27.710  1.00  0.00     0.200 A 
ATOM     85  F   UNL A   1      41.098  28.966  26.720  1.00  0.00    -0.200 F 
ATOM     86  F   UNL A   1      40.037  26.457  26.558  1.00  0.00    -0.200 F 
ENDBRANCH  52  76
BRANCH  64  87
ATOM     87  C   UNL A   1      44.237  29.252  35.496  1.00  0.00     0.064 A 
ATOM     88  C   UNL A   1      44.381  28.064  36.225  1.00  0.00     0.173 A 
ATOM     89  C   UNL A   1      45.396  29.864  34.995  1.00  0.00     0.173 A 
ATOM     90  F   UNL A   1      43.303  27.452  36.737  1.00  0.00    -0.203 F 
ATOM     91  C   UNL A   1      45.641  27.516  36.455  1.00  0.00     0.198 A 
ATOM     92  C   UNL A   1      46.651  29.302  35.209  1.00  0.00     0.198 A 
ATOM     93  F   UNL A   1      45.307  31.000  34.287  1.00  0.00    -0.203 F 
ATOM     94  F   UNL A   1      45.759  26.396  37.183  1.00  0.00    -0.200 F 
ATOM     95  C   UNL A   1      46.773  28.131  35.942  1.00  0.00     0.200 A 
ATOM     96  F   UNL A   1      47.744  29.894  34.706  1.00  0.00    -0.200 F 
ATOM     97  F   UNL A   1      47.983  27.599  36.160  1.00  0.00    -0.200 F 
ENDBRANCH  64  87
ENDBRANCH  38  39
ENDBRANCH  31  33
ENDBRANCH  30  31
ENDBRANCH  29  30
ENDBRANCH  28  29
ENDBRANCH  27  28
ENDBRANCH  26  27
ENDBRANCH   1  26
TORSDOF 22
ENDMDL
MODEL 3
REMARK VINA RESULT:      -9.7      0.833      2.001
REMARK SMILES CC[C@H]1CN(C(=O)N(CC(=O)OCCOCCOCCOC(=O)c2ccc(-c3c4nc(c(-c5c(F)c(F)c(F)c(F)c5F)c5ccc([nH]5)c(-c5c(F)c(F)c(F)c(F)c5F)c5nc(c(-c6c(F)c(F)c(F)c(F)c6F)c6ccc3[nH]6)C=C5)C=C4)cc2)C(C)(C)C)CC[N@@H+]1C
REMARK SMILES IDX 16 1 15 2 14 3 13 4 12 5 10 6 11 7 9 8 8 9 6 10 7 11 5 12
REMARK SMILES IDX 3 13 4 14 93 15 92 16 94 17 91 19 2 20 1 21 87 22 88 23
REMARK SMILES IDX 89 24 90 25 17 26 18 27 19 28 20 29 21 30 22 31 23 32 24 33
REMARK SMILES IDX 25 34 86 35 26 36 85 37 27 38 28 39 29 40 79 41 30 42 84 43
REMARK SMILES IDX 78 44 80 45 31 46 83 47 77 48 76 49 32 51 64 52 44 53 63 54
REMARK SMILES IDX 45 55 48 56 62 57 81 58 46 59 47 60 61 62 82 63 49 64 33 65
REMARK SMILES IDX 34 66 42 67 35 68 36 69 40 70 43 71 37 72 38 73 41 74 39 75
REMARK SMILES IDX 65 76 66 77 74 78 67 79 68 80 72 81 75 82 69 83 70 84 73 85
REMARK SMILES IDX 71 86 50 87 51 88 59 89 52 90 53 91 57 92 60 93 54 94 55 95
REMARK SMILES IDX 58 96 56 97
REMARK H PARENT 93 18 80 50 48 61
REMARK Flexibility Score: inf
ROOT
ATOM      1  C   UNL A   1      35.368  33.779  29.041  1.00  0.00     0.188 C 
ENDROOT
BRANCH   1   2
ATOM      2  O   UNL A   1      35.468  32.576  28.284  1.00  0.00    -0.376 OA
BRANCH   2   3
ATOM      3  C   UNL A   1      34.466  31.584  28.460  1.00  0.00     0.202 C 
BRANCH   3   4
ATOM      4  C   UNL A   1      34.232  30.668  27.256  1.00  0.00     0.261 C 
BRANCH   4   5
ATOM      5  O   UNL A   1      32.969  29.966  27.262  1.00  0.00    -0.462 OA
BRANCH   5   6
ATOM      6  C   UNL A   1      33.047  28.661  26.899  1.00  0.00     0.325 C 
ATOM      7  O   UNL A   1      34.092  28.080  26.616  1.00  0.00    -0.250 OA
BRANCH   6   8
ATOM      8  C   UNL A   1      31.698  28.020  26.586  1.00  0.00     0.244 C 
BRANCH   8   9
ATOM      9  N   UNL A   1      31.293  27.341  25.339  1.00  0.00    -0.309 N 
BRANCH   9  10
ATOM     10  C   UNL A   1      30.963  25.993  25.310  1.00  0.00     0.321 C 
ATOM     11  O   UNL A   1      29.786  25.630  25.292  1.00  0.00    -0.248 OA
BRANCH  10  12
ATOM     12  N   UNL A   1      31.983  25.068  25.444  1.00  0.00    -0.313 N 
ATOM     13  C   UNL A   1      33.877  23.815  24.412  1.00  0.00     0.203 C 
ATOM     14  C   UNL A   1      33.351  25.175  24.939  1.00  0.00     0.186 C 
ATOM     15  N   UNL A   1      33.799  22.734  25.427  1.00  0.00    -0.332 N 
ATOM     16  C   UNL A   1      32.478  22.698  26.101  1.00  0.00     0.284 C 
ATOM     17  C   UNL A   1      34.869  22.883  26.420  1.00  0.00     0.333 C 
ATOM     18  H   UNL A   1      33.918  21.849  24.934  1.00  0.00     0.348 HD
ATOM     19  C   UNL A   1      31.851  24.051  26.490  1.00  0.00     0.183 C 
BRANCH  13  20
ATOM     20  C   UNL A   1      33.297  23.393  23.032  1.00  0.00     0.063 C 
ATOM     21  C   UNL A   1      32.899  24.466  22.024  1.00  0.00     0.010 C 
ENDBRANCH  13  20
ENDBRANCH  10  12
ENDBRANCH   9  10
BRANCH   9  22
ATOM     22  C   UNL A   1      31.218  28.094  24.047  1.00  0.00     0.037 C 
ATOM     23  C   UNL A   1      30.671  29.524  24.232  1.00  0.00     0.034 C 
ATOM     24  C   UNL A   1      32.631  28.187  23.415  1.00  0.00     0.034 C 
ATOM     25  C   UNL A   1      30.353  27.370  23.003  1.00  0.00     0.034 C 
ENDBRANCH   9  22
ENDBRANCH   8   9
ENDBRANCH   6   8
ENDBRANCH   5   6
ENDBRANCH   4   5
ENDBRANCH   3   4
ENDBRANCH   2   3
ENDBRANCH   1   2
BRANCH   1  26
ATOM     26  C   UNL A   1      34.017  34.492  29.108  1.00  0.00     0.188 C 
BRANCH  26  27
ATOM     27  O   UNL A   1      34.066  35.733  28.406  1.00  0.00    -0.376 OA
BRANCH  27  28
ATOM     28  C   UNL A   1      32.983  36.592  28.768  1.00  0.00     0.202 C 
BRANCH  28  29
ATOM     29  C   UNL A   1      33.157  37.062  30.212  1.00  0.00     0.261 C 
BRANCH  29  30
ATOM     30  O   UNL A   1      32.154  36.531  31.105  1.00  0.00    -0.460 OA
BRANCH  30  31
ATOM     31  C   UNL A   1      32.525  36.360  32.384  1.00  0.00     0.338 C 
ATOM     32  O   UNL A   1      31.985  36.825  33.385  1.00  0.00    -0.246 OA
BRANCH  31  33
ATOM     33  C   UNL A   1      33.654  35.420  32.446  1.00  0.00     0.060 A 
ATOM     34  C   UNL A   1      33.391  34.085  32.746  1.00  0.00     0.016 A 
ATOM     35  C   UNL A   1      34.970  35.862  32.335  1.00  0.00     0.016 A 
ATOM     36  C   UNL A   1      34.431  33.192  33.011  1.00  0.00     0.010 A 
ATOM     37  C   UNL A   1      36.017  34.959  32.565  1.00  0.00     0.010 A 
ATOM     38  C   UNL A   1      35.759  33.626  32.944  1.00  0.00    -0.014 A 
BRANCH  38  39
ATOM     39  C   UNL A   1      36.883  32.750  33.384  1.00  0.00     0.031 A 
ATOM     40  C   UNL A   1      37.469  32.951  34.756  1.00  0.00     0.074 A 
ATOM     41  C   UNL A   1      37.385  31.782  32.595  1.00  0.00     0.049 A 
ATOM     42  N   UNL A   1      38.605  32.528  35.249  1.00  0.00    -0.248 NA
ATOM     43  C   UNL A   1      36.661  33.742  35.697  1.00  0.00     0.031 C 
ATOM     44  C   UNL A   1      36.861  31.389  31.289  1.00  0.00     0.029 A 
ATOM     45  N   UNL A   1      38.469  30.956  32.781  1.00  0.00    -0.354 N 
ATOM     46  C   UNL A   1      38.680  33.059  36.532  1.00  0.00     0.074 A 
ATOM     47  C   UNL A   1      37.465  33.816  36.748  1.00  0.00     0.031 C 
ATOM     48  C   UNL A   1      37.621  30.399  30.792  1.00  0.00     0.029 A 
ATOM     49  C   UNL A   1      38.734  30.147  31.703  1.00  0.00     0.049 A 
ATOM     50  H   UNL A   1      39.003  30.944  33.608  1.00  0.00     0.167 HD
ATOM     51  C   UNL A   1      39.679  32.937  37.437  1.00  0.00     0.037 A 
ATOM     52  C   UNL A   1      39.786  29.344  31.449  1.00  0.00     0.037 A 
ATOM     53  C   UNL A   1      40.861  32.140  37.238  1.00  0.00     0.049 A 
ATOM     54  C   UNL A   1      40.919  29.269  32.438  1.00  0.00     0.074 A 
ATOM     55  C   UNL A   1      41.940  31.962  38.086  1.00  0.00     0.029 A 
ATOM     56  N   UNL A   1      41.106  31.367  36.112  1.00  0.00    -0.354 N 
ATOM     57  N   UNL A   1      41.042  29.858  33.602  1.00  0.00    -0.248 NA
ATOM     58  C   UNL A   1      42.076  28.441  32.061  1.00  0.00     0.031 C 
ATOM     59  C   UNL A   1      42.851  31.102  37.462  1.00  0.00     0.029 A 
ATOM     60  C   UNL A   1      42.323  30.718  36.241  1.00  0.00     0.049 A 
ATOM     61  H   UNL A   1      40.505  31.292  35.336  1.00  0.00     0.167 HD
ATOM     62  C   UNL A   1      42.280  29.471  34.098  1.00  0.00     0.074 A 
ATOM     63  C   UNL A   1      42.864  28.579  33.118  1.00  0.00     0.031 C 
ATOM     64  C   UNL A   1      42.884  29.830  35.257  1.00  0.00     0.037 A 
BRANCH  51  65
ATOM     65  C   UNL A   1      39.565  33.727  38.706  1.00  0.00     0.064 A 
ATOM     66  C   UNL A   1      40.136  35.000  38.844  1.00  0.00     0.173 A 
ATOM     67  C   UNL A   1      38.846  33.206  39.793  1.00  0.00     0.173 A 
ATOM     68  F   UNL A   1      40.846  35.533  37.839  1.00  0.00    -0.203 F 
ATOM     69  C   UNL A   1      40.010  35.713  40.034  1.00  0.00     0.198 A 
ATOM     70  C   UNL A   1      38.702  33.931  40.972  1.00  0.00     0.198 A 
ATOM     71  F   UNL A   1      38.278  31.993  39.709  1.00  0.00    -0.203 F 
ATOM     72  F   UNL A   1      40.599  36.910  40.161  1.00  0.00    -0.200 F 
ATOM     73  C   UNL A   1      39.289  35.181  41.094  1.00  0.00     0.200 A 
ATOM     74  F   UNL A   1      37.998  33.419  41.991  1.00  0.00    -0.200 F 
ATOM     75  F   UNL A   1      39.168  35.870  42.237  1.00  0.00    -0.200 F 
ENDBRANCH  51  65
BRANCH  52  76
ATOM     76  C   UNL A   1      39.854  28.595  30.165  1.00  0.00     0.064 A 
ATOM     77  C   UNL A   1      40.450  29.162  29.031  1.00  0.00     0.173 A 
ATOM     78  C   UNL A   1      39.320  27.305  30.045  1.00  0.00     0.173 A 
ATOM     79  F   UNL A   1      40.944  30.408  29.085  1.00  0.00    -0.203 F 
ATOM     80  C   UNL A   1      40.505  28.467  27.824  1.00  0.00     0.198 A 
ATOM     81  C   UNL A   1      39.399  26.599  28.847  1.00  0.00     0.198 A 
ATOM     82  F   UNL A   1      38.727  26.722  31.099  1.00  0.00    -0.203 F 
ATOM     83  F   UNL A   1      41.045  29.046  26.743  1.00  0.00    -0.200 F 
ATOM     84  C   UNL A   1      39.988  27.183  27.736  1.00  0.00     0.200 A 
ATOM     85  F   UNL A   1      38.905  25.356  28.769  1.00  0.00    -0.200 F 
ATOM     86  F   UNL A   1      40.048  26.511  26.577  1.00  0.00    -0.200 F 
ENDBRANCH  52  76
BRANCH  64  87
ATOM     87  C   UNL A   1      44.233  29.241  35.541  1.00  0.00     0.064 A 
ATOM     88  C   UNL A   1      44.371  28.021  36.217  1.00  0.00     0.173 A 
ATOM     89  C   UNL A   1      45.398  29.882  35.091  1.00  0.00     0.173 A 
ATOM     90  F   UNL A   1      43.287  27.380  36.678  1.00  0.00    -0.203 F 
ATOM     91  C   UNL A   1      45.629  27.469  36.446  1.00  0.00     0.198 A 
ATOM     92  C   UNL A   1      46.652  29.317  35.304  1.00  0.00     0.198 A 
ATOM     93  F   UNL A   1      45.315  31.049  34.436  1.00  0.00    -0.203 F 
ATOM     94  F   UNL A   1      45.740  26.318  37.123  1.00  0.00    -0.200 F 
ATOM     95  C   UNL A   1      46.767  28.115  35.985  1.00  0.00     0.200 A 
ATOM     96  F   UNL A   1      47.750  29.938  34.851  1.00  0.00    -0.200 F 
ATOM     97  F   UNL A   1      47.976  27.580  36.201  1.00  0.00    -0.200 F 
ENDBRANCH  64  87
ENDBRANCH  38  39
ENDBRANCH  31  33
ENDBRANCH  30  31
ENDBRANCH  29  30
ENDBRANCH  28  29
ENDBRANCH  27  28
ENDBRANCH  26  27
ENDBRANCH   1  26
TORSDOF 22
ENDMDL
