MODEL 1
REMARK VINA RESULT:     -11.8      0.000      0.000
REMARK SMILES Cc1ccc2c(c1)OCCN2c1sc(C(=O)OCCOCCOCCOC(=O)c2ccc(-c3c4nc(c(-c5c(F)c(F)c(F)c(F)c5F)c5ccc([nH]5)c(-c5c(F)c(F)c(F)c(F)c5F)c5nc(c(-c6c(F)c(F)c(F)c(F)c6F)c6ccc3[nH]6)C=C5)C=C4)cc2)cc1C
REMARK SMILES IDX 22 1 21 2 20 3 19 4 18 5 17 6 15 7 16 8 14 9 12 10 13 11
REMARK SMILES IDX 93 12 92 13 94 14 11 15 1 16 2 17 3 18 7 19 4 20 6 21 5 22
REMARK SMILES IDX 8 23 9 24 10 25 23 26 24 27 25 28 26 29 27 30 28 31 29 32
REMARK SMILES IDX 30 33 91 34 31 35 90 36 32 37 33 38 34 39 84 40 35 41 89 42
REMARK SMILES IDX 83 43 85 44 36 45 88 46 82 47 81 48 37 50 69 51 49 52 68 53
REMARK SMILES IDX 50 54 53 55 67 56 86 57 51 58 52 59 66 61 87 62 54 63 38 64
REMARK SMILES IDX 39 65 47 66 40 67 41 68 45 69 48 70 42 71 43 72 46 73 44 74
REMARK SMILES IDX 70 75 71 76 79 77 72 78 73 79 77 80 80 81 74 82 75 83 78 84
REMARK SMILES IDX 76 85 55 86 56 87 64 88 57 89 58 90 62 91 65 92 59 93 60 94
REMARK SMILES IDX 63 95 61 96
REMARK H PARENT 85 49 53 60
REMARK Flexibility Score: inf
ROOT
ATOM      1  C   UNL A   1      40.214  20.170  26.039  1.00  0.00     0.188 C 
ENDROOT
BRANCH   1   2
ATOM      2  C   UNL A   1      39.371  21.458  26.145  1.00  0.00     0.188 C 
BRANCH   2   3
ATOM      3  O   UNL A   1      38.234  21.678  25.334  1.00  0.00    -0.376 OA
BRANCH   3   4
ATOM      4  C   UNL A   1      37.424  20.595  24.911  1.00  0.00     0.202 C 
BRANCH   4   5
ATOM      5  C   UNL A   1      35.906  20.606  25.110  1.00  0.00     0.261 C 
BRANCH   5   6
ATOM      6  O   UNL A   1      35.226  21.627  24.371  1.00  0.00    -0.459 OA
BRANCH   6   7
ATOM      7  C   UNL A   1      34.096  22.111  24.963  1.00  0.00     0.348 C 
ATOM      8  O   UNL A   1      33.372  21.466  25.712  1.00  0.00    -0.245 OA
BRANCH   7   9
ATOM      9  C   UNL A   1      33.962  23.536  24.757  1.00  0.00     0.114 A 
ATOM     10  C   UNL A   1      33.315  25.788  23.950  1.00  0.00     0.099 A 
ATOM     11  S   UNL A   1      33.659  24.241  23.243  1.00  0.00    -0.110 S 
ATOM     12  C   UNL A   1      33.767  25.818  25.269  1.00  0.00    -0.015 A 
ATOM     13  C   UNL A   1      34.081  24.500  25.732  1.00  0.00     0.033 A 
ATOM     14  C   UNL A   1      33.814  26.998  26.184  1.00  0.00     0.047 C 
BRANCH  10  15
ATOM     15  N   UNL A   1      32.697  26.791  23.257  1.00  0.00    -0.327 N 
ATOM     16  C   UNL A   1      27.096  28.172  23.501  1.00  0.00     0.044 C 
ATOM     17  C   UNL A   1      28.550  27.817  23.448  1.00  0.00    -0.047 A 
ATOM     18  C   UNL A   1      29.004  26.611  23.974  1.00  0.00     0.006 A 
ATOM     19  C   UNL A   1      29.480  28.695  22.884  1.00  0.00     0.052 A 
ATOM     20  C   UNL A   1      30.362  26.286  23.933  1.00  0.00     0.030 A 
ATOM     21  C   UNL A   1      30.839  28.359  22.836  1.00  0.00     0.143 A 
ATOM     22  C   UNL A   1      31.315  27.126  23.335  1.00  0.00     0.085 A 
ATOM     23  O   UNL A   1      31.656  29.323  22.283  1.00  0.00    -0.490 OA
ATOM     24  C   UNL A   1      33.031  29.126  22.631  1.00  0.00     0.251 C 
ATOM     25  C   UNL A   1      33.458  27.683  22.379  1.00  0.00     0.165 C 
ENDBRANCH  10  15
ENDBRANCH   7   9
ENDBRANCH   6   7
ENDBRANCH   5   6
ENDBRANCH   4   5
ENDBRANCH   3   4
ENDBRANCH   2   3
ENDBRANCH   1   2
BRANCH   1  26
ATOM     26  O   UNL A   1      41.478  20.072  26.654  1.00  0.00    -0.376 OA
BRANCH  26  27
ATOM     27  C   UNL A   1      42.668  20.200  25.895  1.00  0.00     0.202 C 
BRANCH  27  28
ATOM     28  C   UNL A   1      43.426  21.524  25.741  1.00  0.00     0.261 C 
BRANCH  28  29
ATOM     29  O   UNL A   1      42.617  22.673  25.472  1.00  0.00    -0.460 OA
BRANCH  29  30
ATOM     30  C   UNL A   1      43.307  23.839  25.338  1.00  0.00     0.338 C 
ATOM     31  O   UNL A   1      44.135  24.121  24.505  1.00  0.00    -0.246 OA
BRANCH  30  32
ATOM     32  C   UNL A   1      42.746  24.822  26.285  1.00  0.00     0.060 A 
ATOM     33  C   UNL A   1      41.690  24.475  27.127  1.00  0.00     0.016 A 
ATOM     34  C   UNL A   1      43.309  26.105  26.329  1.00  0.00     0.016 A 
ATOM     35  C   UNL A   1      41.210  25.416  28.038  1.00  0.00     0.010 A 
ATOM     36  C   UNL A   1      42.816  27.049  27.229  1.00  0.00     0.010 A 
ATOM     37  C   UNL A   1      41.777  26.702  28.104  1.00  0.00    -0.014 A 
BRANCH  37  38
ATOM     38  C   UNL A   1      41.391  27.619  29.202  1.00  0.00     0.031 A 
ATOM     39  C   UNL A   1      40.214  28.535  29.091  1.00  0.00     0.074 A 
ATOM     40  C   UNL A   1      42.130  27.600  30.326  1.00  0.00     0.049 A 
ATOM     41  N   UNL A   1      39.690  29.310  30.008  1.00  0.00    -0.248 NA
ATOM     42  C   UNL A   1      39.543  28.599  27.787  1.00  0.00     0.031 C 
ATOM     43  C   UNL A   1      43.313  26.763  30.531  1.00  0.00     0.029 A 
ATOM     44  N   UNL A   1      41.990  28.281  31.506  1.00  0.00    -0.354 N 
ATOM     45  C   UNL A   1      38.601  29.923  29.408  1.00  0.00     0.074 A 
ATOM     46  C   UNL A   1      38.581  29.482  28.027  1.00  0.00     0.031 C 
ATOM     47  C   UNL A   1      43.767  26.948  31.779  1.00  0.00     0.029 A 
ATOM     48  C   UNL A   1      42.921  27.930  32.452  1.00  0.00     0.049 A 
ATOM     49  H   UNL A   1      41.291  28.957  31.661  1.00  0.00     0.167 HD
ATOM     50  C   UNL A   1      37.691  30.756  29.970  1.00  0.00     0.037 A 
ATOM     51  C   UNL A   1      43.064  28.336  33.727  1.00  0.00     0.037 A 
ATOM     52  C   UNL A   1      37.739  31.217  31.336  1.00  0.00     0.049 A 
ATOM     53  C   UNL A   1      42.083  29.317  34.302  1.00  0.00     0.074 A 
ATOM     54  C   UNL A   1      36.855  32.053  31.997  1.00  0.00     0.029 A 
ATOM     55  N   UNL A   1      38.733  30.892  32.250  1.00  0.00    -0.354 N 
ATOM     56  N   UNL A   1      41.019  29.843  33.748  1.00  0.00    -0.248 NA
ATOM     57  C   UNL A   1      42.322  29.756  35.684  1.00  0.00     0.031 C 
ATOM     58  C   UNL A   1      37.341  32.275  33.291  1.00  0.00     0.029 A 
ATOM     59  C   UNL A   1      38.499  31.533  33.457  1.00  0.00     0.049 A 
ATOM     60  H   UNL A   1      39.493  30.293  32.066  1.00  0.00     0.167 HD
ATOM     61  C   UNL A   1      40.445  30.654  34.717  1.00  0.00     0.074 A 
ATOM     62  C   UNL A   1      41.273  30.540  35.900  1.00  0.00     0.031 C 
ATOM     63  C   UNL A   1      39.331  31.420  34.631  1.00  0.00     0.037 A 
BRANCH  50  64
ATOM     64  C   UNL A   1      36.547  31.217  29.112  1.00  0.00     0.064 A 
ATOM     65  C   UNL A   1      35.512  30.340  28.750  1.00  0.00     0.173 A 
ATOM     66  C   UNL A   1      36.439  32.557  28.709  1.00  0.00     0.173 A 
ATOM     67  F   UNL A   1      35.567  29.048  29.109  1.00  0.00    -0.203 F 
ATOM     68  C   UNL A   1      34.425  30.781  28.001  1.00  0.00     0.198 A 
ATOM     69  C   UNL A   1      35.336  33.001  27.984  1.00  0.00     0.198 A 
ATOM     70  F   UNL A   1      37.393  33.441  29.037  1.00  0.00    -0.203 F 
ATOM     71  F   UNL A   1      33.466  29.916  27.641  1.00  0.00    -0.200 F 
ATOM     72  C   UNL A   1      34.332  32.113  27.627  1.00  0.00     0.200 A 
ATOM     73  F   UNL A   1      35.239  34.293  27.639  1.00  0.00    -0.200 F 
ATOM     74  F   UNL A   1      33.278  32.541  26.920  1.00  0.00    -0.200 F 
ENDBRANCH  50  64
BRANCH  51  75
ATOM     75  C   UNL A   1      44.147  27.752  34.556  1.00  0.00     0.064 A 
ATOM     76  C   UNL A   1      43.935  26.565  35.270  1.00  0.00     0.173 A 
ATOM     77  C   UNL A   1      45.422  28.333  34.610  1.00  0.00     0.173 A 
ATOM     78  F   UNL A   1      42.727  25.984  35.259  1.00  0.00    -0.203 F 
ATOM     79  C   UNL A   1      44.960  25.981  36.010  1.00  0.00     0.198 A 
ATOM     80  C   UNL A   1      46.452  27.733  35.330  1.00  0.00     0.198 A 
ATOM     81  F   UNL A   1      45.675  29.465  33.937  1.00  0.00    -0.203 F 
ATOM     82  F   UNL A   1      44.725  24.858  36.703  1.00  0.00    -0.200 F 
ATOM     83  C   UNL A   1      46.220  26.559  36.031  1.00  0.00     0.200 A 
ATOM     84  F   UNL A   1      47.674  28.285  35.334  1.00  0.00    -0.200 F 
ATOM     85  F   UNL A   1      47.210  25.986  36.729  1.00  0.00    -0.200 F 
ENDBRANCH  51  75
BRANCH  63  86
ATOM     86  C   UNL A   1      38.925  32.195  35.852  1.00  0.00     0.064 A 
ATOM     87  C   UNL A   1      38.193  31.599  36.890  1.00  0.00     0.173 A 
ATOM     88  C   UNL A   1      39.321  33.532  36.013  1.00  0.00     0.173 A 
ATOM     89  F   UNL A   1      37.776  30.329  36.779  1.00  0.00    -0.203 F 
ATOM     90  C   UNL A   1      37.860  32.317  38.036  1.00  0.00     0.198 A 
ATOM     91  C   UNL A   1      39.011  34.237  37.173  1.00  0.00     0.198 A 
ATOM     92  F   UNL A   1      40.025  34.149  35.053  1.00  0.00    -0.203 F 
ATOM     93  F   UNL A   1      37.128  31.738  38.998  1.00  0.00    -0.200 F 
ATOM     94  C   UNL A   1      38.278  33.631  38.181  1.00  0.00     0.200 A 
ATOM     95  F   UNL A   1      39.428  35.503  37.317  1.00  0.00    -0.200 F 
ATOM     96  F   UNL A   1      37.970  34.315  39.292  1.00  0.00    -0.200 F 
ENDBRANCH  63  86
ENDBRANCH  37  38
ENDBRANCH  30  32
ENDBRANCH  29  30
ENDBRANCH  28  29
ENDBRANCH  27  28
ENDBRANCH  26  27
ENDBRANCH   1  26
TORSDOF 18
ENDMDL
MODEL 2
REMARK VINA RESULT:     -11.5      2.971      9.267
REMARK SMILES Cc1ccc2c(c1)OCCN2c1sc(C(=O)OCCOCCOCCOC(=O)c2ccc(-c3c4nc(c(-c5c(F)c(F)c(F)c(F)c5F)c5ccc([nH]5)c(-c5c(F)c(F)c(F)c(F)c5F)c5nc(c(-c6c(F)c(F)c(F)c(F)c6F)c6ccc3[nH]6)C=C5)C=C4)cc2)cc1C
REMARK SMILES IDX 22 1 21 2 20 3 19 4 18 5 17 6 15 7 16 8 14 9 12 10 13 11
REMARK SMILES IDX 93 12 92 13 94 14 11 15 1 16 2 17 3 18 7 19 4 20 6 21 5 22
REMARK SMILES IDX 8 23 9 24 10 25 23 26 24 27 25 28 26 29 27 30 28 31 29 32
REMARK SMILES IDX 30 33 91 34 31 35 90 36 32 37 33 38 34 39 84 40 35 41 89 42
REMARK SMILES IDX 83 43 85 44 36 45 88 46 82 47 81 48 37 50 69 51 49 52 68 53
REMARK SMILES IDX 50 54 53 55 67 56 86 57 51 58 52 59 66 61 87 62 54 63 38 64
REMARK SMILES IDX 39 65 47 66 40 67 41 68 45 69 48 70 42 71 43 72 46 73 44 74
REMARK SMILES IDX 70 75 71 76 79 77 72 78 73 79 77 80 80 81 74 82 75 83 78 84
REMARK SMILES IDX 76 85 55 86 56 87 64 88 57 89 58 90 62 91 65 92 59 93 60 94
REMARK SMILES IDX 63 95 61 96
REMARK H PARENT 85 49 53 60
REMARK Flexibility Score: inf
ROOT
ATOM      1  C   UNL A   1      33.670  29.360  27.334  1.00  0.00     0.188 C 
ENDROOT
BRANCH   1   2
ATOM      2  C   UNL A   1      34.250  28.399  26.277  1.00  0.00     0.188 C 
BRANCH   2   3
ATOM      3  O   UNL A   1      33.481  27.933  25.185  1.00  0.00    -0.376 OA
BRANCH   3   4
ATOM      4  C   UNL A   1      32.951  28.838  24.232  1.00  0.00     0.202 C 
BRANCH   4   5
ATOM      5  C   UNL A   1      31.466  29.208  24.220  1.00  0.00     0.261 C 
BRANCH   5   6
ATOM      6  O   UNL A   1      30.582  28.089  24.351  1.00  0.00    -0.459 OA
BRANCH   6   7
ATOM      7  C   UNL A   1      30.574  27.235  23.286  1.00  0.00     0.348 C 
ATOM      8  O   UNL A   1      30.516  27.586  22.114  1.00  0.00    -0.245 OA
BRANCH   7   9
ATOM      9  C   UNL A   1      30.838  25.875  23.699  1.00  0.00     0.114 A 
ATOM     10  C   UNL A   1      31.829  23.632  24.059  1.00  0.00     0.099 A 
ATOM     11  S   UNL A   1      31.667  24.747  22.739  1.00  0.00    -0.110 S 
ATOM     12  C   UNL A   1      30.962  23.990  25.091  1.00  0.00    -0.015 A 
ATOM     13  C   UNL A   1      30.447  25.310  24.892  1.00  0.00     0.033 A 
ATOM     14  C   UNL A   1      30.668  23.218  26.336  1.00  0.00     0.047 C 
BRANCH  10  15
ATOM     15  N   UNL A   1      32.693  22.573  24.025  1.00  0.00    -0.327 N 
ATOM     16  C   UNL A   1      38.164  22.557  25.868  1.00  0.00     0.044 C 
ATOM     17  C   UNL A   1      36.742  22.562  25.399  1.00  0.00    -0.047 A 
ATOM     18  C   UNL A   1      36.058  23.763  25.226  1.00  0.00     0.006 A 
ATOM     19  C   UNL A   1      36.069  21.364  25.144  1.00  0.00     0.052 A 
ATOM     20  C   UNL A   1      34.728  23.765  24.799  1.00  0.00     0.030 A 
ATOM     21  C   UNL A   1      34.738  21.373  24.706  1.00  0.00     0.143 A 
ATOM     22  C   UNL A   1      34.038  22.582  24.492  1.00  0.00     0.085 A 
ATOM     23  O   UNL A   1      34.180  20.127  24.519  1.00  0.00    -0.490 OA
ATOM     24  C   UNL A   1      32.749  20.178  24.486  1.00  0.00     0.251 C 
ATOM     25  C   UNL A   1      32.262  21.262  23.531  1.00  0.00     0.165 C 
ENDBRANCH  10  15
ENDBRANCH   7   9
ENDBRANCH   6   7
ENDBRANCH   5   6
ENDBRANCH   4   5
ENDBRANCH   3   4
ENDBRANCH   2   3
ENDBRANCH   1   2
BRANCH   1  26
ATOM     26  O   UNL A   1      33.870  30.752  27.243  1.00  0.00    -0.376 OA
BRANCH  26  27
ATOM     27  C   UNL A   1      32.789  31.654  27.407  1.00  0.00     0.202 C 
BRANCH  27  28
ATOM     28  C   UNL A   1      32.952  33.178  27.355  1.00  0.00     0.261 C 
BRANCH  28  29
ATOM     29  O   UNL A   1      32.300  33.905  28.400  1.00  0.00    -0.460 OA
BRANCH  29  30
ATOM     30  C   UNL A   1      32.989  34.985  28.860  1.00  0.00     0.338 C 
ATOM     31  O   UNL A   1      32.642  36.143  28.861  1.00  0.00    -0.246 OA
BRANCH  30  32
ATOM     32  C   UNL A   1      34.197  34.504  29.557  1.00  0.00     0.060 A 
ATOM     33  C   UNL A   1      34.105  33.922  30.820  1.00  0.00     0.016 A 
ATOM     34  C   UNL A   1      35.436  34.630  28.912  1.00  0.00     0.016 A 
ATOM     35  C   UNL A   1      35.262  33.441  31.434  1.00  0.00     0.010 A 
ATOM     36  C   UNL A   1      36.594  34.163  29.534  1.00  0.00     0.010 A 
ATOM     37  C   UNL A   1      36.509  33.546  30.790  1.00  0.00    -0.014 A 
BRANCH  37  38
ATOM     38  C   UNL A   1      37.690  32.860  31.363  1.00  0.00     0.031 A 
ATOM     39  C   UNL A   1      38.298  33.282  32.663  1.00  0.00     0.074 A 
ATOM     40  C   UNL A   1      38.207  31.822  30.681  1.00  0.00     0.049 A 
ATOM     41  N   UNL A   1      39.260  32.709  33.343  1.00  0.00    -0.248 NA
ATOM     42  C   UNL A   1      37.767  34.505  33.278  1.00  0.00     0.031 C 
ATOM     43  C   UNL A   1      37.708  31.342  29.391  1.00  0.00     0.029 A 
ATOM     44  N   UNL A   1      39.243  30.976  30.978  1.00  0.00    -0.354 N 
ATOM     45  C   UNL A   1      39.425  33.475  34.486  1.00  0.00     0.074 A 
ATOM     46  C   UNL A   1      38.509  34.594  34.376  1.00  0.00     0.031 C 
ATOM     47  C   UNL A   1      38.410  30.259  29.028  1.00  0.00     0.029 A 
ATOM     48  C   UNL A   1      39.420  29.983  30.047  1.00  0.00     0.049 A 
ATOM     49  H   UNL A   1      39.805  31.070  31.781  1.00  0.00     0.167 HD
ATOM     50  C   UNL A   1      40.247  33.247  35.539  1.00  0.00     0.037 A 
ATOM     51  C   UNL A   1      40.285  28.953  30.026  1.00  0.00     0.037 A 
ATOM     52  C   UNL A   1      41.180  32.150  35.624  1.00  0.00     0.049 A 
ATOM     53  C   UNL A   1      41.237  28.765  31.172  1.00  0.00     0.074 A 
ATOM     54  C   UNL A   1      42.045  31.830  36.657  1.00  0.00     0.029 A 
ATOM     55  N   UNL A   1      41.380  31.198  34.633  1.00  0.00    -0.354 N 
ATOM     56  N   UNL A   1      41.341  29.456  32.280  1.00  0.00    -0.248 NA
ATOM     57  C   UNL A   1      42.186  27.649  31.067  1.00  0.00     0.031 C 
ATOM     58  C   UNL A   1      42.804  30.719  36.270  1.00  0.00     0.029 A 
ATOM     59  C   UNL A   1      42.374  30.310  35.018  1.00  0.00     0.049 A 
ATOM     60  H   UNL A   1      40.887  31.159  33.781  1.00  0.00     0.167 HD
ATOM     61  C   UNL A   1      42.348  28.847  33.016  1.00  0.00     0.074 A 
ATOM     62  C   UNL A   1      42.814  27.721  32.234  1.00  0.00     0.031 C 
ATOM     63  C   UNL A   1      42.837  29.193  34.232  1.00  0.00     0.037 A 
BRANCH  50  64
ATOM     64  C   UNL A   1      40.167  34.194  36.703  1.00  0.00     0.064 A 
ATOM     65  C   UNL A   1      39.298  33.952  37.778  1.00  0.00     0.173 A 
ATOM     66  C   UNL A   1      41.014  35.310  36.785  1.00  0.00     0.173 A 
ATOM     67  F   UNL A   1      38.466  32.898  37.749  1.00  0.00    -0.203 F 
ATOM     68  C   UNL A   1      39.264  34.801  38.881  1.00  0.00     0.198 A 
ATOM     69  C   UNL A   1      40.997  36.142  37.903  1.00  0.00     0.198 A 
ATOM     70  F   UNL A   1      41.873  35.583  35.792  1.00  0.00    -0.203 F 
ATOM     71  F   UNL A   1      38.402  34.565  39.879  1.00  0.00    -0.200 F 
ATOM     72  C   UNL A   1      40.120  35.889  38.947  1.00  0.00     0.200 A 
ATOM     73  F   UNL A   1      41.838  37.183  37.973  1.00  0.00    -0.200 F 
ATOM     74  F   UNL A   1      40.098  36.697  40.015  1.00  0.00    -0.200 F 
ENDBRANCH  50  64
BRANCH  51  75
ATOM     75  C   UNL A   1      40.231  27.985  28.902  1.00  0.00     0.064 A 
ATOM     76  C   UNL A   1      40.948  28.225  27.721  1.00  0.00     0.173 A 
ATOM     77  C   UNL A   1      39.512  26.786  29.002  1.00  0.00     0.173 A 
ATOM     78  F   UNL A   1      41.637  29.366  27.576  1.00  0.00    -0.203 F 
ATOM     79  C   UNL A   1      40.945  27.299  26.681  1.00  0.00     0.198 A 
ATOM     80  C   UNL A   1      39.532  25.850  27.971  1.00  0.00     0.198 A 
ATOM     81  F   UNL A   1      38.817  26.509  30.115  1.00  0.00    -0.203 F 
ATOM     82  F   UNL A   1      41.620  27.562  25.553  1.00  0.00    -0.200 F 
ATOM     83  C   UNL A   1      40.246  26.109  26.810  1.00  0.00     0.200 A 
ATOM     84  F   UNL A   1      38.869  24.693  28.106  1.00  0.00    -0.200 F 
ATOM     85  F   UNL A   1      40.259  25.211  25.816  1.00  0.00    -0.200 F 
ENDBRANCH  51  75
BRANCH  63  86
ATOM     86  C   UNL A   1      43.931  28.339  34.808  1.00  0.00     0.064 A 
ATOM     87  C   UNL A   1      45.285  28.658  34.625  1.00  0.00     0.173 A 
ATOM     88  C   UNL A   1      43.622  27.222  35.600  1.00  0.00     0.173 A 
ATOM     89  F   UNL A   1      45.634  29.706  33.865  1.00  0.00    -0.203 F 
ATOM     90  C   UNL A   1      46.288  27.882  35.202  1.00  0.00     0.198 A 
ATOM     91  C   UNL A   1      44.626  26.466  36.198  1.00  0.00     0.198 A 
ATOM     92  F   UNL A   1      42.343  26.874  35.810  1.00  0.00    -0.203 F 
ATOM     93  F   UNL A   1      47.575  28.184  34.982  1.00  0.00    -0.200 F 
ATOM     94  C   UNL A   1      45.958  26.794  35.995  1.00  0.00     0.200 A 
ATOM     95  F   UNL A   1      44.305  25.423  36.976  1.00  0.00    -0.200 F 
ATOM     96  F   UNL A   1      46.925  26.058  36.560  1.00  0.00    -0.200 F 
ENDBRANCH  63  86
ENDBRANCH  37  38
ENDBRANCH  30  32
ENDBRANCH  29  30
ENDBRANCH  28  29
ENDBRANCH  27  28
ENDBRANCH  26  27
ENDBRANCH   1  26
TORSDOF 18
ENDMDL
MODEL 3
REMARK VINA RESULT:     -11.3      5.364     10.794
REMARK SMILES Cc1ccc2c(c1)OCCN2c1sc(C(=O)OCCOCCOCCOC(=O)c2ccc(-c3c4nc(c(-c5c(F)c(F)c(F)c(F)c5F)c5ccc([nH]5)c(-c5c(F)c(F)c(F)c(F)c5F)c5nc(c(-c6c(F)c(F)c(F)c(F)c6F)c6ccc3[nH]6)C=C5)C=C4)cc2)cc1C
REMARK SMILES IDX 22 1 21 2 20 3 19 4 18 5 17 6 15 7 16 8 14 9 12 10 13 11
REMARK SMILES IDX 93 12 92 13 94 14 11 15 1 16 2 17 3 18 7 19 4 20 6 21 5 22
REMARK SMILES IDX 8 23 9 24 10 25 23 26 24 27 25 28 26 29 27 30 28 31 29 32
REMARK SMILES IDX 30 33 91 34 31 35 90 36 32 37 33 38 34 39 84 40 35 41 89 42
REMARK SMILES IDX 83 43 85 44 36 45 88 46 82 47 81 48 37 50 69 51 49 52 68 53
REMARK SMILES IDX 50 54 53 55 67 56 86 57 51 58 52 59 66 61 87 62 54 63 38 64
REMARK SMILES IDX 39 65 47 66 40 67 41 68 45 69 48 70 42 71 43 72 46 73 44 74
REMARK SMILES IDX 70 75 71 76 79 77 72 78 73 79 77 80 80 81 74 82 75 83 78 84
REMARK SMILES IDX 76 85 55 86 56 87 64 88 57 89 58 90 62 91 65 92 59 93 60 94
REMARK SMILES IDX 63 95 61 96
REMARK H PARENT 85 49 53 60
REMARK Flexibility Score: inf
ROOT
ATOM      1  C   UNL A   1      34.154  31.691  28.588  1.00  0.00     0.188 C 
ENDROOT
BRANCH   1   2
ATOM      2  C   UNL A   1      33.659  31.553  27.134  1.00  0.00     0.188 C 
BRANCH   2   3
ATOM      3  O   UNL A   1      32.666  30.616  26.766  1.00  0.00    -0.376 OA
BRANCH   3   4
ATOM      4  C   UNL A   1      32.883  29.713  25.696  1.00  0.00     0.202 C 
BRANCH   4   5
ATOM      5  C   UNL A   1      31.717  29.021  24.986  1.00  0.00     0.261 C 
BRANCH   5   6
ATOM      6  O   UNL A   1      32.009  28.606  23.646  1.00  0.00    -0.459 OA
BRANCH   6   7
ATOM      7  C   UNL A   1      31.515  27.381  23.301  1.00  0.00     0.348 C 
ATOM      8  O   UNL A   1      30.724  27.183  22.387  1.00  0.00    -0.245 OA
BRANCH   7   9
ATOM      9  C   UNL A   1      32.187  26.321  24.018  1.00  0.00     0.114 A 
ATOM     10  C   UNL A   1      32.788  24.190  25.130  1.00  0.00     0.099 A 
ATOM     11  S   UNL A   1      31.383  25.201  25.009  1.00  0.00    -0.110 S 
ATOM     12  C   UNL A   1      33.916  24.891  24.706  1.00  0.00    -0.015 A 
ATOM     13  C   UNL A   1      33.544  26.089  24.016  1.00  0.00     0.033 A 
ATOM     14  C   UNL A   1      35.341  24.453  24.794  1.00  0.00     0.047 C 
BRANCH  10  15
ATOM     15  N   UNL A   1      32.730  22.904  25.593  1.00  0.00    -0.327 N 
ATOM     16  C   UNL A   1      32.264  18.130  22.379  1.00  0.00     0.044 C 
ATOM     17  C   UNL A   1      32.394  19.370  23.209  1.00  0.00    -0.047 A 
ATOM     18  C   UNL A   1      32.160  20.623  22.650  1.00  0.00     0.006 A 
ATOM     19  C   UNL A   1      32.769  19.295  24.553  1.00  0.00     0.052 A 
ATOM     20  C   UNL A   1      32.292  21.780  23.423  1.00  0.00     0.030 A 
ATOM     21  C   UNL A   1      32.889  20.457  25.326  1.00  0.00     0.143 A 
ATOM     22  C   UNL A   1      32.624  21.735  24.786  1.00  0.00     0.085 A 
ATOM     23  O   UNL A   1      33.294  20.249  26.628  1.00  0.00    -0.490 OA
ATOM     24  C   UNL A   1      33.797  21.446  27.232  1.00  0.00     0.251 C 
ATOM     25  C   UNL A   1      32.834  22.610  27.024  1.00  0.00     0.165 C 
ENDBRANCH  10  15
ENDBRANCH   7   9
ENDBRANCH   6   7
ENDBRANCH   5   6
ENDBRANCH   4   5
ENDBRANCH   3   4
ENDBRANCH   2   3
ENDBRANCH   1   2
BRANCH   1  26
ATOM     26  O   UNL A   1      34.882  32.822  29.008  1.00  0.00    -0.376 OA
BRANCH  26  27
ATOM     27  C   UNL A   1      34.471  33.574  30.137  1.00  0.00     0.202 C 
BRANCH  27  28
ATOM     28  C   UNL A   1      34.697  33.112  31.581  1.00  0.00     0.261 C 
BRANCH  28  29
ATOM     29  O   UNL A   1      35.235  31.795  31.732  1.00  0.00    -0.460 OA
BRANCH  29  30
ATOM     30  C   UNL A   1      36.326  31.713  32.542  1.00  0.00     0.338 C 
ATOM     31  O   UNL A   1      36.398  31.968  33.721  1.00  0.00    -0.246 OA
BRANCH  30  32
ATOM     32  C   UNL A   1      37.418  31.068  31.788  1.00  0.00     0.060 A 
ATOM     33  C   UNL A   1      37.414  31.065  30.394  1.00  0.00     0.016 A 
ATOM     34  C   UNL A   1      38.465  30.472  32.505  1.00  0.00     0.016 A 
ATOM     35  C   UNL A   1      38.481  30.481  29.711  1.00  0.00     0.010 A 
ATOM     36  C   UNL A   1      39.522  29.873  31.820  1.00  0.00     0.010 A 
ATOM     37  C   UNL A   1      39.547  29.894  30.419  1.00  0.00    -0.014 A 
BRANCH  37  38
ATOM     38  C   UNL A   1      40.758  29.455  29.689  1.00  0.00     0.031 A 
ATOM     39  C   UNL A   1      40.903  28.064  29.158  1.00  0.00     0.074 A 
ATOM     40  C   UNL A   1      41.740  30.356  29.501  1.00  0.00     0.049 A 
ATOM     41  N   UNL A   1      41.853  27.569  28.404  1.00  0.00    -0.248 NA
ATOM     42  C   UNL A   1      39.853  27.103  29.521  1.00  0.00     0.031 C 
ATOM     43  C   UNL A   1      41.714  31.732  29.999  1.00  0.00     0.029 A 
ATOM     44  N   UNL A   1      42.932  30.261  28.832  1.00  0.00    -0.354 N 
ATOM     45  C   UNL A   1      41.499  26.250  28.167  1.00  0.00     0.074 A 
ATOM     46  C   UNL A   1      40.280  26.003  28.913  1.00  0.00     0.031 C 
ATOM     47  C   UNL A   1      42.819  32.367  29.582  1.00  0.00     0.029 A 
ATOM     48  C   UNL A   1      43.638  31.438  28.807  1.00  0.00     0.049 A 
ATOM     49  H   UNL A   1      43.252  29.430  28.411  1.00  0.00     0.167 HD
ATOM     50  C   UNL A   1      42.123  25.342  27.377  1.00  0.00     0.037 A 
ATOM     51  C   UNL A   1      44.804  31.742  28.208  1.00  0.00     0.037 A 
ATOM     52  C   UNL A   1      43.354  25.587  26.666  1.00  0.00     0.049 A 
ATOM     53  C   UNL A   1      45.512  30.694  27.399  1.00  0.00     0.074 A 
ATOM     54  C   UNL A   1      44.055  24.732  25.832  1.00  0.00     0.029 A 
ATOM     55  N   UNL A   1      44.077  26.772  26.714  1.00  0.00    -0.354 N 
ATOM     56  N   UNL A   1      45.138  29.469  27.126  1.00  0.00    -0.248 NA
ATOM     57  C   UNL A   1      46.803  31.075  26.810  1.00  0.00     0.031 C 
ATOM     58  C   UNL A   1      45.225  25.379  25.419  1.00  0.00     0.029 A 
ATOM     59  C   UNL A   1      45.229  26.658  25.949  1.00  0.00     0.049 A 
ATOM     60  H   UNL A   1      43.811  27.575  27.217  1.00  0.00     0.167 HD
ATOM     61  C   UNL A   1      46.131  28.939  26.313  1.00  0.00     0.074 A 
ATOM     62  C   UNL A   1      47.118  29.982  26.127  1.00  0.00     0.031 C 
ATOM     63  C   UNL A   1      46.212  27.699  25.771  1.00  0.00     0.037 A 
BRANCH  50  64
ATOM     64  C   UNL A   1      41.478  23.994  27.222  1.00  0.00     0.064 A 
ATOM     65  C   UNL A   1      40.288  23.839  26.492  1.00  0.00     0.173 A 
ATOM     66  C   UNL A   1      42.083  22.839  27.738  1.00  0.00     0.173 A 
ATOM     67  F   UNL A   1      39.668  24.912  25.977  1.00  0.00    -0.203 F 
ATOM     68  C   UNL A   1      39.720  22.582  26.302  1.00  0.00     0.198 A 
ATOM     69  C   UNL A   1      41.527  21.580  27.522  1.00  0.00     0.198 A 
ATOM     70  F   UNL A   1      43.226  22.927  28.433  1.00  0.00    -0.203 F 
ATOM     71  F   UNL A   1      38.567  22.465  25.629  1.00  0.00    -0.200 F 
ATOM     72  C   UNL A   1      40.344  21.453  26.809  1.00  0.00     0.200 A 
ATOM     73  F   UNL A   1      42.141  20.487  27.998  1.00  0.00    -0.200 F 
ATOM     74  F   UNL A   1      39.805  20.242  26.613  1.00  0.00    -0.200 F 
ENDBRANCH  50  64
BRANCH  51  75
ATOM     75  C   UNL A   1      45.327  33.127  28.304  1.00  0.00     0.064 A 
ATOM     76  C   UNL A   1      44.953  34.096  27.363  1.00  0.00     0.173 A 
ATOM     77  C   UNL A   1      46.164  33.523  29.358  1.00  0.00     0.173 A 
ATOM     78  F   UNL A   1      44.168  33.759  26.330  1.00  0.00    -0.203 F 
ATOM     79  C   UNL A   1      45.398  35.411  27.473  1.00  0.00     0.198 A 
ATOM     80  C   UNL A   1      46.586  34.844  29.480  1.00  0.00     0.198 A 
ATOM     81  F   UNL A   1      46.542  32.633  30.286  1.00  0.00    -0.203 F 
ATOM     82  F   UNL A   1      45.044  36.314  26.548  1.00  0.00    -0.200 F 
ATOM     83  C   UNL A   1      46.205  35.786  28.536  1.00  0.00     0.200 A 
ATOM     84  F   UNL A   1      47.352  35.207  30.518  1.00  0.00    -0.200 F 
ATOM     85  F   UNL A   1      46.618  37.056  28.650  1.00  0.00    -0.200 F 
ENDBRANCH  51  75
BRANCH  63  86
ATOM     86  C   UNL A   1      47.404  27.395  24.909  1.00  0.00     0.064 A 
ATOM     87  C   UNL A   1      47.459  27.793  23.565  1.00  0.00     0.173 A 
ATOM     88  C   UNL A   1      48.527  26.749  25.448  1.00  0.00     0.173 A 
ATOM     89  F   UNL A   1      46.406  28.400  22.997  1.00  0.00    -0.203 F 
ATOM     90  C   UNL A   1      48.589  27.543  22.790  1.00  0.00     0.198 A 
ATOM     91  C   UNL A   1      49.666  26.527  24.678  1.00  0.00     0.198 A 
ATOM     92  F   UNL A   1      48.529  26.351  26.729  1.00  0.00    -0.203 F 
ATOM     93  F   UNL A   1      48.604  27.898  21.498  1.00  0.00    -0.200 F 
ATOM     94  C   UNL A   1      49.694  26.920  23.349  1.00  0.00     0.200 A 
ATOM     95  F   UNL A   1      50.738  25.936  25.224  1.00  0.00    -0.200 F 
ATOM     96  F   UNL A   1      50.785  26.693  22.604  1.00  0.00    -0.200 F 
ENDBRANCH  63  86
ENDBRANCH  37  38
ENDBRANCH  30  32
ENDBRANCH  29  30
ENDBRANCH  28  29
ENDBRANCH  27  28
ENDBRANCH  26  27
ENDBRANCH   1  26
TORSDOF 18
ENDMDL
