MODEL 1
REMARK VINA RESULT:     -10.9      0.000      0.000
REMARK SMILES COc1ccc(-n2c(SCc3cn(-c4ccc(C(=O)OCCOCCOCCOC(=O)c5ccc(-c6c7nc(c(-c8c(F)c(F)c(F)c(F)c8F)c8ccc([nH]8)c(-c8c(F)c(F)c(F)c(F)c8F)c8nc(c(-c9c(F)c(F)c(F)c(F)c9F)c9ccc6[nH]9)C=C8)C=C7)cc5)cc4)nn3)nc3ccccc3c2=O)cc1
REMARK SMILES IDX 22 1 21 2 20 3 18 4 19 5 17 6 14 7 15 8 96 9 16 10 95 11
REMARK SMILES IDX 13 12 11 13 12 14 98 15 97 16 10 17 9 18 8 19 7 20 106 21
REMARK SMILES IDX 99 22 105 23 107 24 100 25 104 26 101 27 103 28 102 29 6 30
REMARK SMILES IDX 3 31 4 32 109 33 5 34 108 35 2 36 1 37 23 38 24 39 25 40
REMARK SMILES IDX 26 41 27 42 28 43 29 44 30 45 31 46 32 47 33 48 94 49 34 50
REMARK SMILES IDX 93 51 35 52 36 53 37 54 87 55 38 56 92 57 86 58 88 59 39 60
REMARK SMILES IDX 91 61 85 62 84 63 40 65 72 66 52 67 71 68 53 69 56 70 70 71
REMARK SMILES IDX 89 72 54 73 55 74 69 76 90 77 57 78 41 79 42 80 50 81 43 82
REMARK SMILES IDX 44 83 48 84 51 85 45 86 46 87 49 88 47 89 73 90 74 91 82 92
REMARK SMILES IDX 75 93 76 94 80 95 83 96 77 97 78 98 81 99 79 100 58 101
REMARK SMILES IDX 59 102 67 103 60 104 61 105 65 106 68 107 62 108 63 109
REMARK SMILES IDX 66 110 64 111
REMARK H PARENT 88 64 56 75
REMARK Flexibility Score: inf
ROOT
ATOM      1  C   UNL A   1      38.739  30.137  28.827  1.00  0.00     0.202 C 
ENDROOT
BRANCH   1   2
ATOM      2  C   UNL A   1      39.384  28.786  29.192  1.00  0.00     0.261 C 
BRANCH   2   3
ATOM      3  O   UNL A   1      40.411  28.306  28.338  1.00  0.00    -0.460 OA
BRANCH   3   4
ATOM      4  C   UNL A   1      41.218  27.367  28.871  1.00  0.00     0.338 C 
ATOM      5  O   UNL A   1      41.898  27.449  29.884  1.00  0.00    -0.246 OA
BRANCH   4   6
ATOM      6  C   UNL A   1      40.982  26.114  28.148  1.00  0.00     0.060 A 
ATOM      7  C   UNL A   1      40.359  23.791  26.861  1.00  0.00     0.066 A 
ATOM      8  C   UNL A   1      39.796  24.975  26.385  1.00  0.00     0.029 A 
ATOM      9  C   UNL A   1      41.347  23.770  27.855  1.00  0.00     0.029 A 
ATOM     10  C   UNL A   1      40.077  26.140  27.074  1.00  0.00     0.018 A 
ATOM     11  C   UNL A   1      41.676  24.951  28.496  1.00  0.00     0.018 A 
BRANCH   7  12
ATOM     12  N   UNL A   1      39.702  22.598  26.555  1.00  0.00    -0.220 N 
ATOM     13  C   UNL A   1      38.306  21.237  25.631  1.00  0.00     0.093 A 
ATOM     14  C   UNL A   1      38.449  22.542  26.016  1.00  0.00     0.141 A 
ATOM     15  N   UNL A   1      39.456  20.563  25.893  1.00  0.00    -0.134 NA
ATOM     16  N   UNL A   1      40.321  21.411  26.427  1.00  0.00    -0.062 NA
BRANCH  13  17
ATOM     17  C   UNL A   1      37.126  20.591  25.060  1.00  0.00     0.138 C 
BRANCH  17  18
ATOM     18  S   UNL A   1      35.999  21.827  24.420  1.00  0.00    -0.081 SA
BRANCH  18  19
ATOM     19  C   UNL A   1      34.449  21.498  25.318  1.00  0.00     0.176 A 
ATOM     20  N   UNL A   1      33.667  20.568  24.664  1.00  0.00    -0.255 N 
ATOM     21  C   UNL A   1      32.869  21.066  23.646  1.00  0.00     0.266 A 
ATOM     22  N   UNL A   1      33.864  22.560  25.793  1.00  0.00    -0.223 NA
ATOM     23  C   UNL A   1      32.883  22.565  23.560  1.00  0.00     0.066 A 
ATOM     24  O   UNL A   1      32.233  20.407  22.831  1.00  0.00    -0.268 OA
ATOM     25  C   UNL A   1      33.269  23.270  24.723  1.00  0.00     0.079 A 
ATOM     26  C   UNL A   1      32.804  23.225  22.337  1.00  0.00     0.016 A 
ATOM     27  C   UNL A   1      33.409  24.656  24.689  1.00  0.00     0.029 A 
ATOM     28  C   UNL A   1      33.071  24.597  22.291  1.00  0.00     0.001 A 
ATOM     29  C   UNL A   1      33.330  25.316  23.464  1.00  0.00     0.002 A 
BRANCH  20  30
ATOM     30  C   UNL A   1      33.794  19.197  24.988  1.00  0.00     0.052 A 
ATOM     31  C   UNL A   1      33.496  16.423  25.003  1.00  0.00     0.119 A 
ATOM     32  C   UNL A   1      34.546  16.992  24.288  1.00  0.00     0.048 A 
ATOM     33  C   UNL A   1      32.695  17.215  25.827  1.00  0.00     0.048 A 
ATOM     34  C   UNL A   1      34.672  18.385  24.250  1.00  0.00     0.030 A 
ATOM     35  C   UNL A   1      32.868  18.602  25.850  1.00  0.00     0.030 A 
BRANCH  31  36
ATOM     36  O   UNL A   1      33.246  15.082  24.884  1.00  0.00    -0.497 OA
ATOM     37  C   UNL A   1      32.055  14.728  25.604  1.00  0.00     0.278 C 
ENDBRANCH  31  36
ENDBRANCH  20  30
ENDBRANCH  18  19
ENDBRANCH  17  18
ENDBRANCH  13  17
ENDBRANCH   7  12
ENDBRANCH   4   6
ENDBRANCH   3   4
ENDBRANCH   2   3
ENDBRANCH   1   2
BRANCH   1  38
ATOM     38  O   UNL A   1      37.472  30.321  28.213  1.00  0.00    -0.376 OA
BRANCH  38  39
ATOM     39  C   UNL A   1      36.423  29.401  28.405  1.00  0.00     0.188 C 
BRANCH  39  40
ATOM     40  C   UNL A   1      35.374  29.362  27.275  1.00  0.00     0.188 C 
BRANCH  40  41
ATOM     41  O   UNL A   1      34.009  29.636  27.537  1.00  0.00    -0.376 OA
BRANCH  41  42
ATOM     42  C   UNL A   1      33.432  30.899  27.253  1.00  0.00     0.202 C 
BRANCH  42  43
ATOM     43  C   UNL A   1      33.862  32.208  27.919  1.00  0.00     0.261 C 
BRANCH  43  44
ATOM     44  O   UNL A   1      34.307  32.134  29.260  1.00  0.00    -0.460 OA
BRANCH  44  45
ATOM     45  C   UNL A   1      35.060  33.188  29.631  1.00  0.00     0.338 C 
ATOM     46  O   UNL A   1      34.860  34.367  29.396  1.00  0.00    -0.246 OA
BRANCH  45  47
ATOM     47  C   UNL A   1      36.278  32.695  30.269  1.00  0.00     0.060 A 
ATOM     48  C   UNL A   1      36.137  31.671  31.206  1.00  0.00     0.016 A 
ATOM     49  C   UNL A   1      37.449  33.458  30.160  1.00  0.00     0.016 A 
ATOM     50  C   UNL A   1      37.111  31.537  32.170  1.00  0.00     0.010 A 
ATOM     51  C   UNL A   1      38.407  33.337  31.135  1.00  0.00     0.010 A 
ATOM     52  C   UNL A   1      38.188  32.433  32.170  1.00  0.00    -0.014 A 
BRANCH  52  53
ATOM     53  C   UNL A   1      39.188  32.292  33.210  1.00  0.00     0.031 A 
ATOM     54  C   UNL A   1      38.902  33.189  34.349  1.00  0.00     0.074 A 
ATOM     55  C   UNL A   1      40.179  31.381  33.154  1.00  0.00     0.049 A 
ATOM     56  N   UNL A   1      39.583  34.223  34.707  1.00  0.00    -0.248 NA
ATOM     57  C   UNL A   1      37.608  33.056  35.042  1.00  0.00     0.031 C 
ATOM     58  C   UNL A   1      40.346  30.316  32.161  1.00  0.00     0.029 A 
ATOM     59  N   UNL A   1      41.199  31.141  34.030  1.00  0.00    -0.354 N 
ATOM     60  C   UNL A   1      38.934  34.718  35.832  1.00  0.00     0.074 A 
ATOM     61  C   UNL A   1      37.630  34.117  35.850  1.00  0.00     0.031 C 
ATOM     62  C   UNL A   1      41.245  29.414  32.616  1.00  0.00     0.029 A 
ATOM     63  C   UNL A   1      41.805  29.896  33.867  1.00  0.00     0.049 A 
ATOM     64  H   UNL A   1      41.480  31.788  34.715  1.00  0.00     0.167 HD
ATOM     65  C   UNL A   1      39.671  35.271  36.831  1.00  0.00     0.037 A 
ATOM     66  C   UNL A   1      42.651  29.291  34.740  1.00  0.00     0.037 A 
ATOM     67  C   UNL A   1      40.978  35.640  36.340  1.00  0.00     0.049 A 
ATOM     68  C   UNL A   1      43.209  30.347  35.614  1.00  0.00     0.074 A 
ATOM     69  C   UNL A   1      41.490  36.552  35.442  1.00  0.00     0.029 A 
ATOM     70  N   UNL A   1      41.925  34.667  36.515  1.00  0.00    -0.354 N 
ATOM     71  N   UNL A   1      44.049  31.254  35.203  1.00  0.00    -0.248 NA
ATOM     72  C   UNL A   1      42.550  30.635  36.881  1.00  0.00     0.031 C 
ATOM     73  C   UNL A   1      42.683  35.961  34.922  1.00  0.00     0.029 A 
ATOM     74  C   UNL A   1      42.897  34.740  35.561  1.00  0.00     0.049 A 
ATOM     75  H   UNL A   1      41.907  34.001  37.238  1.00  0.00     0.167 HD
ATOM     76  C   UNL A   1      43.675  32.395  35.888  1.00  0.00     0.074 A 
ATOM     77  C   UNL A   1      42.893  31.917  37.022  1.00  0.00     0.031 C 
ATOM     78  C   UNL A   1      43.757  33.614  35.275  1.00  0.00     0.037 A 
BRANCH  65  79
ATOM     79  C   UNL A   1      39.461  34.938  38.300  1.00  0.00     0.064 A 
ATOM     80  C   UNL A   1      39.399  36.003  39.224  1.00  0.00     0.173 A 
ATOM     81  C   UNL A   1      39.669  33.661  38.870  1.00  0.00     0.173 A 
ATOM     82  F   UNL A   1      39.238  37.265  38.798  1.00  0.00    -0.203 F 
ATOM     83  C   UNL A   1      39.611  35.811  40.593  1.00  0.00     0.198 A 
ATOM     84  C   UNL A   1      39.829  33.468  40.241  1.00  0.00     0.198 A 
ATOM     85  F   UNL A   1      39.848  32.559  38.136  1.00  0.00    -0.203 F 
ATOM     86  F   UNL A   1      39.677  36.869  41.411  1.00  0.00    -0.200 F 
ATOM     87  C   UNL A   1      39.832  34.544  41.098  1.00  0.00     0.200 A 
ATOM     88  F   UNL A   1      40.073  32.232  40.705  1.00  0.00    -0.200 F 
ATOM     89  F   UNL A   1      40.099  34.362  42.399  1.00  0.00    -0.200 F 
ENDBRANCH  65  79
BRANCH  66  90
ATOM     90  C   UNL A   1      42.816  27.849  35.062  1.00  0.00     0.064 A 
ATOM     91  C   UNL A   1      41.911  27.192  35.918  1.00  0.00     0.173 A 
ATOM     92  C   UNL A   1      43.667  27.020  34.307  1.00  0.00     0.173 A 
ATOM     93  F   UNL A   1      41.036  27.899  36.649  1.00  0.00    -0.203 F 
ATOM     94  C   UNL A   1      41.831  25.796  35.976  1.00  0.00     0.198 A 
ATOM     95  C   UNL A   1      43.592  25.628  34.372  1.00  0.00     0.198 A 
ATOM     96  F   UNL A   1      44.520  27.540  33.415  1.00  0.00    -0.203 F 
ATOM     97  F   UNL A   1      40.902  25.210  36.744  1.00  0.00    -0.200 F 
ATOM     98  C   UNL A   1      42.662  25.015  35.191  1.00  0.00     0.200 A 
ATOM     99  F   UNL A   1      44.378  24.883  33.581  1.00  0.00    -0.200 F 
ATOM    100  F   UNL A   1      42.537  23.681  35.189  1.00  0.00    -0.200 F 
ENDBRANCH  66  90
BRANCH  78 101
ATOM    101  C   UNL A   1      44.718  33.740  34.131  1.00  0.00     0.064 A 
ATOM    102  C   UNL A   1      46.093  34.003  34.256  1.00  0.00     0.173 A 
ATOM    103  C   UNL A   1      44.214  33.523  32.842  1.00  0.00     0.173 A 
ATOM    104  F   UNL A   1      46.668  34.133  35.459  1.00  0.00    -0.203 F 
ATOM    105  C   UNL A   1      46.907  34.101  33.128  1.00  0.00     0.198 A 
ATOM    106  C   UNL A   1      45.037  33.575  31.724  1.00  0.00     0.198 A 
ATOM    107  F   UNL A   1      42.916  33.226  32.668  1.00  0.00    -0.203 F 
ATOM    108  F   UNL A   1      48.210  34.388  33.263  1.00  0.00    -0.200 F 
ATOM    109  C   UNL A   1      46.379  33.881  31.865  1.00  0.00     0.200 A 
ATOM    110  F   UNL A   1      44.529  33.316  30.512  1.00  0.00    -0.200 F 
ATOM    111  F   UNL A   1      47.169  33.945  30.784  1.00  0.00    -0.200 F 
ENDBRANCH  78 101
ENDBRANCH  52  53
ENDBRANCH  45  47
ENDBRANCH  44  45
ENDBRANCH  43  44
ENDBRANCH  42  43
ENDBRANCH  41  42
ENDBRANCH  40  41
ENDBRANCH  39  40
ENDBRANCH  38  39
ENDBRANCH   1  38
TORSDOF 23
ENDMDL
MODEL 2
REMARK VINA RESULT:     -10.8      5.105      9.667
REMARK SMILES COc1ccc(-n2c(SCc3cn(-c4ccc(C(=O)OCCOCCOCCOC(=O)c5ccc(-c6c7nc(c(-c8c(F)c(F)c(F)c(F)c8F)c8ccc([nH]8)c(-c8c(F)c(F)c(F)c(F)c8F)c8nc(c(-c9c(F)c(F)c(F)c(F)c9F)c9ccc6[nH]9)C=C8)C=C7)cc5)cc4)nn3)nc3ccccc3c2=O)cc1
REMARK SMILES IDX 22 1 21 2 20 3 18 4 19 5 17 6 14 7 15 8 96 9 16 10 95 11
REMARK SMILES IDX 13 12 11 13 12 14 98 15 97 16 10 17 9 18 8 19 7 20 106 21
REMARK SMILES IDX 99 22 105 23 107 24 100 25 104 26 101 27 103 28 102 29 6 30
REMARK SMILES IDX 3 31 4 32 109 33 5 34 108 35 2 36 1 37 23 38 24 39 25 40
REMARK SMILES IDX 26 41 27 42 28 43 29 44 30 45 31 46 32 47 33 48 94 49 34 50
REMARK SMILES IDX 93 51 35 52 36 53 37 54 87 55 38 56 92 57 86 58 88 59 39 60
REMARK SMILES IDX 91 61 85 62 84 63 40 65 72 66 52 67 71 68 53 69 56 70 70 71
REMARK SMILES IDX 89 72 54 73 55 74 69 76 90 77 57 78 41 79 42 80 50 81 43 82
REMARK SMILES IDX 44 83 48 84 51 85 45 86 46 87 49 88 47 89 73 90 74 91 82 92
REMARK SMILES IDX 75 93 76 94 80 95 83 96 77 97 78 98 81 99 79 100 58 101
REMARK SMILES IDX 59 102 67 103 60 104 61 105 65 106 68 107 62 108 63 109
REMARK SMILES IDX 66 110 64 111
REMARK H PARENT 88 64 56 75
REMARK Flexibility Score: inf
ROOT
ATOM      1  C   UNL A   1      33.970  35.346  31.219  1.00  0.00     0.202 C 
ENDROOT
BRANCH   1   2
ATOM      2  C   UNL A   1      33.078  36.011  30.153  1.00  0.00     0.261 C 
BRANCH   2   3
ATOM      3  O   UNL A   1      32.639  35.199  29.076  1.00  0.00    -0.460 OA
BRANCH   3   4
ATOM      4  C   UNL A   1      33.610  34.734  28.264  1.00  0.00     0.338 C 
ATOM      5  O   UNL A   1      34.693  35.246  28.020  1.00  0.00    -0.246 OA
BRANCH   4   6
ATOM      6  C   UNL A   1      33.250  33.367  27.876  1.00  0.00     0.060 A 
ATOM      7  C   UNL A   1      32.723  30.830  27.024  1.00  0.00     0.066 A 
ATOM      8  C   UNL A   1      33.927  31.061  27.689  1.00  0.00     0.029 A 
ATOM      9  C   UNL A   1      31.716  31.801  26.925  1.00  0.00     0.029 A 
ATOM     10  C   UNL A   1      34.208  32.359  28.072  1.00  0.00     0.018 A 
ATOM     11  C   UNL A   1      31.977  33.083  27.373  1.00  0.00     0.018 A 
BRANCH   7  12
ATOM     12  N   UNL A   1      32.655  29.717  26.184  1.00  0.00    -0.220 N 
ATOM     13  C   UNL A   1      33.305  28.048  24.981  1.00  0.00     0.093 A 
ATOM     14  C   UNL A   1      33.699  29.283  25.419  1.00  0.00     0.141 A 
ATOM     15  N   UNL A   1      32.091  27.750  25.512  1.00  0.00    -0.134 NA
ATOM     16  N   UNL A   1      31.713  28.762  26.277  1.00  0.00    -0.062 NA
BRANCH  13  17
ATOM     17  C   UNL A   1      34.005  27.154  24.061  1.00  0.00     0.138 C 
BRANCH  17  18
ATOM     18  S   UNL A   1      34.102  25.508  24.760  1.00  0.00    -0.081 SA
BRANCH  18  19
ATOM     19  C   UNL A   1      33.139  24.492  23.595  1.00  0.00     0.176 A 
ATOM     20  N   UNL A   1      31.814  24.399  23.970  1.00  0.00    -0.255 N 
ATOM     21  C   UNL A   1      31.526  23.430  24.918  1.00  0.00     0.266 A 
ATOM     22  N   UNL A   1      33.738  23.404  23.204  1.00  0.00    -0.223 NA
ATOM     23  C   UNL A   1      32.696  22.542  25.234  1.00  0.00     0.066 A 
ATOM     24  O   UNL A   1      30.464  23.287  25.515  1.00  0.00    -0.268 OA
ATOM     25  C   UNL A   1      33.724  22.468  24.266  1.00  0.00     0.079 A 
ATOM     26  C   UNL A   1      32.907  22.045  26.517  1.00  0.00     0.016 A 
ATOM     27  C   UNL A   1      34.888  21.751  24.534  1.00  0.00     0.029 A 
ATOM     28  C   UNL A   1      34.132  21.438  26.813  1.00  0.00     0.001 A 
ATOM     29  C   UNL A   1      35.099  21.254  25.819  1.00  0.00     0.002 A 
BRANCH  20  30
ATOM     30  C   UNL A   1      30.878  25.330  23.463  1.00  0.00     0.052 A 
ATOM     31  C   UNL A   1      29.407  27.660  23.022  1.00  0.00     0.119 A 
ATOM     32  C   UNL A   1      30.510  27.388  22.218  1.00  0.00     0.048 A 
ATOM     33  C   UNL A   1      28.949  26.707  23.934  1.00  0.00     0.048 A 
ATOM     34  C   UNL A   1      31.270  26.239  22.465  1.00  0.00     0.030 A 
ATOM     35  C   UNL A   1      29.664  25.522  24.129  1.00  0.00     0.030 A 
BRANCH  31  36
ATOM     36  O   UNL A   1      28.779  28.872  22.920  1.00  0.00    -0.497 OA
ATOM     37  C   UNL A   1      29.739  29.938  22.958  1.00  0.00     0.278 C 
ENDBRANCH  31  36
ENDBRANCH  20  30
ENDBRANCH  18  19
ENDBRANCH  17  18
ENDBRANCH  13  17
ENDBRANCH   7  12
ENDBRANCH   4   6
ENDBRANCH   3   4
ENDBRANCH   2   3
ENDBRANCH   1   2
BRANCH   1  38
ATOM     38  O   UNL A   1      33.716  34.111  31.871  1.00  0.00    -0.376 OA
BRANCH  38  39
ATOM     39  C   UNL A   1      34.425  32.943  31.531  1.00  0.00     0.188 C 
BRANCH  39  40
ATOM     40  C   UNL A   1      35.949  33.014  31.756  1.00  0.00     0.188 C 
BRANCH  40  41
ATOM     41  O   UNL A   1      36.491  33.727  32.854  1.00  0.00    -0.376 OA
BRANCH  41  42
ATOM     42  C   UNL A   1      37.860  33.625  33.209  1.00  0.00     0.202 C 
BRANCH  42  43
ATOM     43  C   UNL A   1      39.016  33.745  32.213  1.00  0.00     0.261 C 
BRANCH  43  44
ATOM     44  O   UNL A   1      40.328  33.711  32.739  1.00  0.00    -0.460 OA
BRANCH  44  45
ATOM     45  C   UNL A   1      40.594  32.592  33.440  1.00  0.00     0.338 C 
ATOM     46  O   UNL A   1      40.708  32.479  34.649  1.00  0.00    -0.246 OA
BRANCH  45  47
ATOM     47  C   UNL A   1      40.873  31.505  32.505  1.00  0.00     0.060 A 
ATOM     48  C   UNL A   1      40.149  30.323  32.667  1.00  0.00     0.016 A 
ATOM     49  C   UNL A   1      42.035  31.574  31.724  1.00  0.00     0.016 A 
ATOM     50  C   UNL A   1      40.703  29.156  32.193  1.00  0.00     0.010 A 
ATOM     51  C   UNL A   1      42.596  30.406  31.273  1.00  0.00     0.010 A 
ATOM     52  C   UNL A   1      41.963  29.205  31.581  1.00  0.00    -0.014 A 
BRANCH  52  53
ATOM     53  C   UNL A   1      42.540  27.961  31.116  1.00  0.00     0.031 A 
ATOM     54  C   UNL A   1      43.501  27.417  32.098  1.00  0.00     0.074 A 
ATOM     55  C   UNL A   1      42.154  27.356  29.975  1.00  0.00     0.049 A 
ATOM     56  N   UNL A   1      44.780  27.333  31.961  1.00  0.00    -0.248 NA
ATOM     57  C   UNL A   1      43.025  27.131  33.463  1.00  0.00     0.031 C 
ATOM     58  C   UNL A   1      41.037  27.738  29.106  1.00  0.00     0.029 A 
ATOM     59  N   UNL A   1      42.610  26.208  29.393  1.00  0.00    -0.354 N 
ATOM     60  C   UNL A   1      45.236  26.743  33.135  1.00  0.00     0.074 A 
ATOM     61  C   UNL A   1      44.170  26.855  34.090  1.00  0.00     0.031 C 
ATOM     62  C   UNL A   1      40.756  26.720  28.262  1.00  0.00     0.029 A 
ATOM     63  C   UNL A   1      41.744  25.670  28.443  1.00  0.00     0.049 A 
ATOM     64  H   UNL A   1      43.473  25.796  29.626  1.00  0.00     0.167 HD
ATOM     65  C   UNL A   1      46.293  25.890  33.079  1.00  0.00     0.037 A 
ATOM     66  C   UNL A   1      41.810  24.426  27.904  1.00  0.00     0.037 A 
ATOM     67  C   UNL A   1      47.033  26.095  31.855  1.00  0.00     0.049 A 
ATOM     68  C   UNL A   1      43.194  23.937  28.096  1.00  0.00     0.074 A 
ATOM     69  C   UNL A   1      47.798  27.099  31.303  1.00  0.00     0.029 A 
ATOM     70  N   UNL A   1      46.636  25.277  30.831  1.00  0.00    -0.354 N 
ATOM     71  N   UNL A   1      44.225  24.424  27.465  1.00  0.00    -0.248 NA
ATOM     72  C   UNL A   1      43.504  23.142  29.277  1.00  0.00     0.031 C 
ATOM     73  C   UNL A   1      47.651  26.970  29.888  1.00  0.00     0.029 A 
ATOM     74  C   UNL A   1      46.854  25.858  29.616  1.00  0.00     0.049 A 
ATOM     75  H   UNL A   1      46.244  24.383  30.956  1.00  0.00     0.167 HD
ATOM     76  C   UNL A   1      45.239  24.399  28.403  1.00  0.00     0.074 A 
ATOM     77  C   UNL A   1      44.797  23.443  29.412  1.00  0.00     0.031 C 
ATOM     78  C   UNL A   1      46.165  25.403  28.430  1.00  0.00     0.037 A 
BRANCH  65  79
ATOM     79  C   UNL A   1      46.308  24.540  33.778  1.00  0.00     0.064 A 
ATOM     80  C   UNL A   1      45.199  23.686  33.602  1.00  0.00     0.173 A 
ATOM     81  C   UNL A   1      47.159  24.204  34.856  1.00  0.00     0.173 A 
ATOM     82  F   UNL A   1      44.303  23.923  32.633  1.00  0.00    -0.203 F 
ATOM     83  C   UNL A   1      44.924  22.636  34.485  1.00  0.00     0.198 A 
ATOM     84  C   UNL A   1      46.909  23.126  35.702  1.00  0.00     0.198 A 
ATOM     85  F   UNL A   1      48.199  24.960  35.221  1.00  0.00    -0.203 F 
ATOM     86  F   UNL A   1      43.788  21.939  34.357  1.00  0.00    -0.200 F 
ATOM     87  C   UNL A   1      45.777  22.362  35.537  1.00  0.00     0.200 A 
ATOM     88  F   UNL A   1      47.734  22.898  36.735  1.00  0.00    -0.200 F 
ATOM     89  F   UNL A   1      45.485  21.399  36.422  1.00  0.00    -0.200 F 
ENDBRANCH  65  79
BRANCH  66  90
ATOM     90  C   UNL A   1      40.716  23.513  27.479  1.00  0.00     0.064 A 
ATOM     91  C   UNL A   1      39.535  24.020  26.904  1.00  0.00     0.173 A 
ATOM     92  C   UNL A   1      40.926  22.128  27.344  1.00  0.00     0.173 A 
ATOM     93  F   UNL A   1      39.268  25.333  26.952  1.00  0.00    -0.203 F 
ATOM     94  C   UNL A   1      38.648  23.200  26.197  1.00  0.00     0.198 A 
ATOM     95  C   UNL A   1      40.036  21.310  26.644  1.00  0.00     0.198 A 
ATOM     96  F   UNL A   1      42.049  21.554  27.798  1.00  0.00    -0.203 F 
ATOM     97  F   UNL A   1      37.576  23.736  25.596  1.00  0.00    -0.200 F 
ATOM     98  C   UNL A   1      38.908  21.848  26.054  1.00  0.00     0.200 A 
ATOM     99  F   UNL A   1      40.318  20.009  26.484  1.00  0.00    -0.200 F 
ATOM    100  F   UNL A   1      38.100  21.075  25.316  1.00  0.00    -0.200 F 
ENDBRANCH  66  90
BRANCH  78 101
ATOM    101  C   UNL A   1      46.374  26.174  27.161  1.00  0.00     0.064 A 
ATOM    102  C   UNL A   1      45.920  27.483  26.927  1.00  0.00     0.173 A 
ATOM    103  C   UNL A   1      47.132  25.561  26.154  1.00  0.00     0.173 A 
ATOM    104  F   UNL A   1      45.267  28.171  27.873  1.00  0.00    -0.203 F 
ATOM    105  C   UNL A   1      46.167  28.119  25.710  1.00  0.00     0.198 A 
ATOM    106  C   UNL A   1      47.415  26.214  24.962  1.00  0.00     0.198 A 
ATOM    107  F   UNL A   1      47.626  24.327  26.343  1.00  0.00    -0.203 F 
ATOM    108  F   UNL A   1      45.694  29.354  25.490  1.00  0.00    -0.200 F 
ATOM    109  C   UNL A   1      46.919  27.486  24.733  1.00  0.00     0.200 A 
ATOM    110  F   UNL A   1      48.181  25.614  24.041  1.00  0.00    -0.200 F 
ATOM    111  F   UNL A   1      47.181  28.109  23.575  1.00  0.00    -0.200 F 
ENDBRANCH  78 101
ENDBRANCH  52  53
ENDBRANCH  45  47
ENDBRANCH  44  45
ENDBRANCH  43  44
ENDBRANCH  42  43
ENDBRANCH  41  42
ENDBRANCH  40  41
ENDBRANCH  39  40
ENDBRANCH  38  39
ENDBRANCH   1  38
TORSDOF 23
ENDMDL
MODEL 3
REMARK VINA RESULT:     -10.4      7.698     13.074
REMARK SMILES COc1ccc(-n2c(SCc3cn(-c4ccc(C(=O)OCCOCCOCCOC(=O)c5ccc(-c6c7nc(c(-c8c(F)c(F)c(F)c(F)c8F)c8ccc([nH]8)c(-c8c(F)c(F)c(F)c(F)c8F)c8nc(c(-c9c(F)c(F)c(F)c(F)c9F)c9ccc6[nH]9)C=C8)C=C7)cc5)cc4)nn3)nc3ccccc3c2=O)cc1
REMARK SMILES IDX 22 1 21 2 20 3 18 4 19 5 17 6 14 7 15 8 96 9 16 10 95 11
REMARK SMILES IDX 13 12 11 13 12 14 98 15 97 16 10 17 9 18 8 19 7 20 106 21
REMARK SMILES IDX 99 22 105 23 107 24 100 25 104 26 101 27 103 28 102 29 6 30
REMARK SMILES IDX 3 31 4 32 109 33 5 34 108 35 2 36 1 37 23 38 24 39 25 40
REMARK SMILES IDX 26 41 27 42 28 43 29 44 30 45 31 46 32 47 33 48 94 49 34 50
REMARK SMILES IDX 93 51 35 52 36 53 37 54 87 55 38 56 92 57 86 58 88 59 39 60
REMARK SMILES IDX 91 61 85 62 84 63 40 65 72 66 52 67 71 68 53 69 56 70 70 71
REMARK SMILES IDX 89 72 54 73 55 74 69 76 90 77 57 78 41 79 42 80 50 81 43 82
REMARK SMILES IDX 44 83 48 84 51 85 45 86 46 87 49 88 47 89 73 90 74 91 82 92
REMARK SMILES IDX 75 93 76 94 80 95 83 96 77 97 78 98 81 99 79 100 58 101
REMARK SMILES IDX 59 102 67 103 60 104 61 105 65 106 68 107 62 108 63 109
REMARK SMILES IDX 66 110 64 111
REMARK H PARENT 88 64 56 75
REMARK Flexibility Score: inf
ROOT
ATOM      1  C   UNL A   1      43.841  22.582  24.589  1.00  0.00     0.202 C 
ENDROOT
BRANCH   1   2
ATOM      2  C   UNL A   1      43.761  23.076  26.047  1.00  0.00     0.261 C 
BRANCH   2   3
ATOM      3  O   UNL A   1      44.556  24.198  26.396  1.00  0.00    -0.460 OA
BRANCH   3   4
ATOM      4  C   UNL A   1      45.882  23.967  26.481  1.00  0.00     0.338 C 
ATOM      5  O   UNL A   1      46.444  22.967  26.903  1.00  0.00    -0.246 OA
BRANCH   4   6
ATOM      6  C   UNL A   1      46.569  25.046  25.765  1.00  0.00     0.060 A 
ATOM      7  C   UNL A   1      47.738  27.013  24.278  1.00  0.00     0.066 A 
ATOM      8  C   UNL A   1      46.395  27.163  24.623  1.00  0.00     0.029 A 
ATOM      9  C   UNL A   1      48.541  25.988  24.798  1.00  0.00     0.029 A 
ATOM     10  C   UNL A   1      45.797  26.138  25.334  1.00  0.00     0.018 A 
ATOM     11  C   UNL A   1      47.952  25.000  25.566  1.00  0.00     0.018 A 
BRANCH   7  12
ATOM     12  N   UNL A   1      48.197  27.714  23.163  1.00  0.00    -0.220 N 
ATOM     13  C   UNL A   1      49.367  28.191  21.414  1.00  0.00     0.093 A 
ATOM     14  C   UNL A   1      49.431  27.530  22.611  1.00  0.00     0.141 A 
ATOM     15  N   UNL A   1      48.120  28.703  21.250  1.00  0.00    -0.134 NA
ATOM     16  N   UNL A   1      47.396  28.377  22.310  1.00  0.00    -0.062 NA
BRANCH  13  17
ATOM     17  C   UNL A   1      50.435  28.388  20.436  1.00  0.00     0.138 C 
BRANCH  17  18
ATOM     18  S   UNL A   1      50.888  26.820  19.698  1.00  0.00    -0.081 SA
BRANCH  18  19
ATOM     19  C   UNL A   1      52.672  26.688  20.038  1.00  0.00     0.176 A 
ATOM     20  N   UNL A   1      53.126  27.740  20.807  1.00  0.00    -0.255 N 
ATOM     21  C   UNL A   1      53.433  28.901  20.114  1.00  0.00     0.266 A 
ATOM     22  N   UNL A   1      53.392  26.328  19.015  1.00  0.00    -0.223 NA
ATOM     23  C   UNL A   1      53.372  28.735  18.622  1.00  0.00     0.066 A 
ATOM     24  O   UNL A   1      53.684  29.997  20.604  1.00  0.00    -0.268 OA
ATOM     25  C   UNL A   1      53.491  27.420  18.119  1.00  0.00     0.079 A 
ATOM     26  C   UNL A   1      52.939  29.765  17.792  1.00  0.00     0.016 A 
ATOM     27  C   UNL A   1      53.338  27.174  16.756  1.00  0.00     0.029 A 
ATOM     28  C   UNL A   1      52.665  29.481  16.450  1.00  0.00     0.001 A 
ATOM     29  C   UNL A   1      52.903  28.205  15.925  1.00  0.00     0.002 A 
BRANCH  20  30
ATOM     30  C   UNL A   1      53.154  27.614  22.216  1.00  0.00     0.052 A 
ATOM     31  C   UNL A   1      52.387  27.291  24.879  1.00  0.00     0.119 A 
ATOM     32  C   UNL A   1      52.795  26.180  24.148  1.00  0.00     0.048 A 
ATOM     33  C   UNL A   1      52.506  28.573  24.338  1.00  0.00     0.048 A 
ATOM     34  C   UNL A   1      53.143  26.337  22.801  1.00  0.00     0.030 A 
ATOM     35  C   UNL A   1      52.927  28.739  23.015  1.00  0.00     0.030 A 
BRANCH  31  36
ATOM     36  O   UNL A   1      51.857  27.120  26.130  1.00  0.00    -0.497 OA
ATOM     37  C   UNL A   1      51.973  25.749  26.539  1.00  0.00     0.278 C 
ENDBRANCH  31  36
ENDBRANCH  20  30
ENDBRANCH  18  19
ENDBRANCH  17  18
ENDBRANCH  13  17
ENDBRANCH   7  12
ENDBRANCH   4   6
ENDBRANCH   3   4
ENDBRANCH   2   3
ENDBRANCH   1   2
BRANCH   1  38
ATOM     38  O   UNL A   1      44.436  21.371  24.148  1.00  0.00    -0.376 OA
BRANCH  38  39
ATOM     39  C   UNL A   1      44.877  20.394  25.061  1.00  0.00     0.188 C 
BRANCH  39  40
ATOM     40  C   UNL A   1      44.048  19.094  25.078  1.00  0.00     0.188 C 
BRANCH  40  41
ATOM     41  O   UNL A   1      43.004  18.907  26.016  1.00  0.00    -0.376 OA
BRANCH  41  42
ATOM     42  C   UNL A   1      41.711  19.454  25.816  1.00  0.00     0.202 C 
BRANCH  42  43
ATOM     43  C   UNL A   1      41.120  20.587  26.657  1.00  0.00     0.261 C 
BRANCH  43  44
ATOM     44  O   UNL A   1      40.785  21.785  25.984  1.00  0.00    -0.460 OA
BRANCH  44  45
ATOM     45  C   UNL A   1      39.551  22.238  26.280  1.00  0.00     0.338 C 
ATOM     46  O   UNL A   1      38.494  21.912  25.768  1.00  0.00    -0.246 OA
BRANCH  45  47
ATOM     47  C   UNL A   1      39.668  23.322  27.253  1.00  0.00     0.060 A 
ATOM     48  C   UNL A   1      38.805  24.408  27.103  1.00  0.00     0.016 A 
ATOM     49  C   UNL A   1      40.810  23.375  28.063  1.00  0.00     0.016 A 
ATOM     50  C   UNL A   1      39.196  25.621  27.623  1.00  0.00     0.010 A 
ATOM     51  C   UNL A   1      41.208  24.590  28.562  1.00  0.00     0.010 A 
ATOM     52  C   UNL A   1      40.436  25.711  28.269  1.00  0.00    -0.014 A 
BRANCH  52  53
ATOM     53  C   UNL A   1      40.840  27.003  28.784  1.00  0.00     0.031 A 
ATOM     54  C   UNL A   1      42.060  27.490  28.108  1.00  0.00     0.074 A 
ATOM     55  C   UNL A   1      40.117  27.688  29.692  1.00  0.00     0.049 A 
ATOM     56  N   UNL A   1      43.233  27.617  28.628  1.00  0.00    -0.248 NA
ATOM     57  C   UNL A   1      42.035  27.653  26.643  1.00  0.00     0.031 C 
ATOM     58  C   UNL A   1      38.784  27.349  30.199  1.00  0.00     0.029 A 
ATOM     59  N   UNL A   1      40.371  28.891  30.288  1.00  0.00    -0.354 N 
ATOM     60  C   UNL A   1      44.033  28.122  27.610  1.00  0.00     0.074 A 
ATOM     61  C   UNL A   1      43.318  27.907  26.383  1.00  0.00     0.031 C 
ATOM     62  C   UNL A   1      38.255  28.425  30.825  1.00  0.00     0.029 A 
ATOM     63  C   UNL A   1      39.251  29.481  30.873  1.00  0.00     0.049 A 
ATOM     64  H   UNL A   1      41.263  29.305  30.302  1.00  0.00     0.167 HD
ATOM     65  C   UNL A   1      45.021  29.003  27.920  1.00  0.00     0.037 A 
ATOM     66  C   UNL A   1      39.147  30.766  31.298  1.00  0.00     0.037 A 
ATOM     67  C   UNL A   1      45.341  28.917  29.325  1.00  0.00     0.049 A 
ATOM     68  C   UNL A   1      40.522  31.273  31.505  1.00  0.00     0.074 A 
ATOM     69  C   UNL A   1      45.895  27.980  30.171  1.00  0.00     0.029 A 
ATOM     70  N   UNL A   1      44.645  29.804  30.102  1.00  0.00    -0.354 N 
ATOM     71  N   UNL A   1      41.304  30.865  32.465  1.00  0.00    -0.248 NA
ATOM     72  C   UNL A   1      41.187  31.978  30.418  1.00  0.00     0.031 C 
ATOM     73  C   UNL A   1      45.313  28.219  31.454  1.00  0.00     0.029 A 
ATOM     74  C   UNL A   1      44.472  29.329  31.369  1.00  0.00     0.049 A 
ATOM     75  H   UNL A   1      44.313  30.675  29.786  1.00  0.00     0.167 HD
ATOM     76  C   UNL A   1      42.560  30.839  31.891  1.00  0.00     0.074 A 
ATOM     77  C   UNL A   1      42.457  31.700  30.717  1.00  0.00     0.031 C 
ATOM     78  C   UNL A   1      43.447  29.860  32.239  1.00  0.00     0.037 A 
BRANCH  65  79
ATOM     79  C   UNL A   1      45.255  30.293  27.149  1.00  0.00     0.064 A 
ATOM     80  C   UNL A   1      46.586  30.693  26.906  1.00  0.00     0.173 A 
ATOM     81  C   UNL A   1      44.282  31.300  26.957  1.00  0.00     0.173 A 
ATOM     82  F   UNL A   1      47.600  29.833  27.088  1.00  0.00    -0.203 F 
ATOM     83  C   UNL A   1      46.917  32.012  26.581  1.00  0.00     0.198 A 
ATOM     84  C   UNL A   1      44.611  32.601  26.582  1.00  0.00     0.198 A 
ATOM     85  F   UNL A   1      42.987  31.120  27.234  1.00  0.00    -0.203 F 
ATOM     86  F   UNL A   1      48.203  32.374  26.494  1.00  0.00    -0.200 F 
ATOM     87  C   UNL A   1      45.928  32.966  26.425  1.00  0.00     0.200 A 
ATOM     88  F   UNL A   1      43.637  33.517  26.467  1.00  0.00    -0.200 F 
ATOM     89  F   UNL A   1      46.243  34.244  26.177  1.00  0.00    -0.200 F 
ENDBRANCH  65  79
BRANCH  66  90
ATOM     90  C   UNL A   1      37.976  31.682  31.282  1.00  0.00     0.064 A 
ATOM     91  C   UNL A   1      37.443  32.152  30.067  1.00  0.00     0.173 A 
ATOM     92  C   UNL A   1      37.174  31.869  32.424  1.00  0.00     0.173 A 
ATOM     93  F   UNL A   1      38.120  31.986  28.921  1.00  0.00    -0.203 F 
ATOM     94  C   UNL A   1      36.168  32.726  29.993  1.00  0.00     0.198 A 
ATOM     95  C   UNL A   1      35.906  32.448  32.350  1.00  0.00     0.198 A 
ATOM     96  F   UNL A   1      37.559  31.401  33.619  1.00  0.00    -0.203 F 
ATOM     97  F   UNL A   1      35.664  33.087  28.805  1.00  0.00    -0.200 F 
ATOM     98  C   UNL A   1      35.395  32.859  31.134  1.00  0.00     0.200 A 
ATOM     99  F   UNL A   1      35.154  32.540  33.457  1.00  0.00    -0.200 F 
ATOM    100  F   UNL A   1      34.146  33.339  31.055  1.00  0.00    -0.200 F 
ENDBRANCH  66  90
BRANCH  78 101
ATOM    101  C   UNL A   1      43.249  29.200  33.570  1.00  0.00     0.064 A 
ATOM    102  C   UNL A   1      43.727  29.693  34.796  1.00  0.00     0.173 A 
ATOM    103  C   UNL A   1      42.477  28.030  33.598  1.00  0.00     0.173 A 
ATOM    104  F   UNL A   1      44.395  30.852  34.864  1.00  0.00    -0.203 F 
ATOM    105  C   UNL A   1      43.488  29.005  35.986  1.00  0.00     0.198 A 
ATOM    106  C   UNL A   1      42.202  27.373  34.791  1.00  0.00     0.198 A 
ATOM    107  F   UNL A   1      41.960  27.538  32.461  1.00  0.00    -0.203 F 
ATOM    108  F   UNL A   1      43.984  29.471  37.141  1.00  0.00    -0.200 F 
ATOM    109  C   UNL A   1      42.722  27.850  35.981  1.00  0.00     0.200 A 
ATOM    110  F   UNL A   1      41.422  26.284  34.784  1.00  0.00    -0.200 F 
ATOM    111  F   UNL A   1      42.468  27.206  37.129  1.00  0.00    -0.200 F 
ENDBRANCH  78 101
ENDBRANCH  52  53
ENDBRANCH  45  47
ENDBRANCH  44  45
ENDBRANCH  43  44
ENDBRANCH  42  43
ENDBRANCH  41  42
ENDBRANCH  40  41
ENDBRANCH  39  40
ENDBRANCH  38  39
ENDBRANCH   1  38
TORSDOF 23
ENDMDL
